#------------------------------------------------------------------------------
#$Date: 2019-10-28 17:32:45 +0200 (Mon, 28 Oct 2019) $
#$Revision: 220132 $
#$URL: file:///home/coder/svn-repositories/cod/cif/4/51/49/4514974.cif $
#------------------------------------------------------------------------------
#
# This file is available in the Crystallography Open Database (COD),
# http://www.crystallography.net/
#
# All data on this site have been placed in the public domain by the
# contributors.
#
data_4514974
loop_
_publ_author_name
'Azizpoor Fard, Mahmood'
'Behnia, Ava'
'Puddephatt, Richard J.'
_publ_section_title
;
 Models for Cooperative Catalysis: Oxidative Addition Reactions of
 Dimethylplatinum(II) Complexes with Ligands Having Both NH and OH
 Functionality.
;
_journal_issue                   1
_journal_name_full               'ACS omega'
_journal_page_first              257
_journal_page_last               268
_journal_paper_doi               10.1021/acsomega.8b03089
_journal_volume                  4
_journal_year                    2019
_chemical_formula_sum            'C15 H19 I N2 O Pt'
_chemical_formula_weight         565.31
_space_group_crystal_system      triclinic
_space_group_IT_number           2
_space_group_name_Hall           '-P 1'
_space_group_name_H-M_alt        'P -1'
_symmetry_space_group_name_Hall  '-P 1'
_symmetry_space_group_name_H-M   'P -1'
_atom_sites_solution_hydrogens   geom
_atom_sites_solution_primary     dual
_atom_sites_solution_secondary   difmap
_audit_creation_method           SHELXL-2016/6
_cell_angle_alpha                99.03(4)
_cell_angle_beta                 101.68(2)
_cell_angle_gamma                92.59(5)
_cell_formula_units_Z            2
_cell_length_a                   7.754(4)
_cell_length_b                   7.966(6)
_cell_length_c                   13.423(11)
_cell_measurement_reflns_used    9868
_cell_measurement_temperature    110
_cell_measurement_theta_max      29.92
_cell_measurement_theta_min      2.69
_cell_volume                     799.3(10)
_computing_cell_refinement       SAINT
_computing_data_collection       Apex2
_computing_data_reduction        SAINT
_computing_molecular_graphics    NRCVAX
_computing_publication_material  cif2tables.py
_computing_structure_refinement  SHELXL
_computing_structure_solution    SHELXT
_diffrn_ambient_temperature      110
_diffrn_detector                 'CCD plate'
_diffrn_detector_type            'Bruker Apex2'
_diffrn_measured_fraction_theta_full 0.999
_diffrn_measured_fraction_theta_max 0.991
_diffrn_measurement_device       '\k-geometry diffractometer'
_diffrn_measurement_device_type  'Bruker Kappa Axis Apex2'
_diffrn_measurement_method       'phi and omega scans'
_diffrn_radiation_type           MoK\a
_diffrn_radiation_wavelength     0.71073
_diffrn_reflns_av_R_equivalents  0.0438
_diffrn_reflns_av_unetI/netI     0.0422
_diffrn_reflns_Laue_measured_fraction_full 0.999
_diffrn_reflns_Laue_measured_fraction_max 0.991
_diffrn_reflns_limit_h_max       10
_diffrn_reflns_limit_h_min       -10
_diffrn_reflns_limit_k_max       11
_diffrn_reflns_limit_k_min       -11
_diffrn_reflns_limit_l_max       18
_diffrn_reflns_limit_l_min       -18
_diffrn_reflns_number            25752
_diffrn_reflns_point_group_measured_fraction_full 0.999
_diffrn_reflns_point_group_measured_fraction_max 0.991
_diffrn_reflns_theta_full        25.242
_diffrn_reflns_theta_max         29.968
_diffrn_reflns_theta_min         2.691
_diffrn_source                   'sealed tube'
_exptl_absorpt_coefficient_mu    10.705
_exptl_absorpt_correction_T_max  0.746
_exptl_absorpt_correction_T_min  0.5479
_exptl_absorpt_correction_type   multi-scan
_exptl_absorpt_process_details   SADABS
_exptl_crystal_colour            orange
_exptl_crystal_density_diffrn    2.349
_exptl_crystal_description       plate
_exptl_crystal_F_000             524
_exptl_crystal_size_max          0.080
_exptl_crystal_size_mid          0.045
_exptl_crystal_size_min          0.034
_refine_diff_density_max         1.671
_refine_diff_density_min         -1.583
_refine_diff_density_rms         0.206
_refine_ls_extinction_method     none
_refine_ls_goodness_of_fit_ref   0.981
_refine_ls_hydrogen_treatment    constr
_refine_ls_matrix_type           full
_refine_ls_number_parameters     182
_refine_ls_number_reflns         4592
_refine_ls_number_restraints     0
_refine_ls_restrained_S_all      0.981
_refine_ls_R_factor_all          0.0418
_refine_ls_R_factor_gt           0.0320
_refine_ls_shift/su_max          0.001
_refine_ls_shift/su_mean         0.000
_refine_ls_structure_factor_coef Fsqd
_refine_ls_weighting_details
'w=1/[\s^2^(Fo^2^)+(0.0332P)^2^+2.9828P] where P=(Fo^2^+2Fc^2^)/3'
_refine_ls_weighting_scheme      calc
_refine_ls_wR_factor_gt          0.0678
_refine_ls_wR_factor_ref         0.0714
_reflns_Friedel_coverage         0.000
_reflns_number_gt                3934
_reflns_number_total             4592
_reflns_threshold_expression     'I > 2\s(I)'
_cod_data_source_file            ao8b03089_si_002.cif
_cod_data_source_block           Complex_13
_cod_original_cell_volume        799.4(10)
_cod_database_code               4514974
_shelx_shelxl_version_number     2016/6
_shelx_space_group_comment
;
The symmetry employed for this shelxl refinement is uniquely defined
by the following loop, which should always be used as a source of
symmetry information in preference to the above space-group names.
They are only intended as comments.
;
_shelx_estimated_absorpt_t_min   0.481
_shelx_estimated_absorpt_t_max   0.712
_shelx_res_file
;
TITL prelim_a.res in P-1
    b18186.res
    created by SHELXL-2016/6 at 10:29:33 on 01-Dec-2017
REM Old TITL b18186_0m in P1
REM SHELXT solution in P-1
REM R1 0.077,  Rweak 0.009,  Alpha 0.083,  Orientation as input
REM Formula found by SHELXT:  C11 N3 O5 I Pt
CELL  0.71073   7.7543   7.9656  13.4233   99.029  101.681   92.588
ZERR    2.000   0.0040   0.0064   0.0113    0.037    0.021    0.047
LATT  1
SFAC C H N O I PT
UNIT 30 38 4 2 2 2
TEMP -163.150
SIZE 0.034 0.045 0.08

REM diffraction blocked by beamstop
OMIT     0   1   0
OMIT     0   0   1

ACTA
L.S. 10
BOND $H
FMAP 2
HTAB
CONF

PLAN 20

WGHT    0.033200    2.982800
FVAR       0.12389
PT1   6    0.660932    0.101880    0.759034    11.00000    0.01845    0.01576 =
         0.02091    0.00565    0.00710    0.00126
I1    5    0.989182   -0.011284    0.833895    11.00000    0.02171    0.02254 =
         0.02392    0.00658    0.00553    0.00353
O1    4    0.860468    0.350999    0.311434    11.00000    0.03953    0.02865 =
         0.02337    0.00577    0.01449   -0.00149
AFIX 147
H1    2    0.899746    0.262048    0.284933    11.00000   -1.50000
AFIX   0
N1    3    0.699043    0.294220    0.896478    11.00000    0.01928    0.01935 =
         0.02249    0.00741    0.00892    0.00470
C1    1    0.529573   -0.081358    0.814332    11.00000    0.03454    0.02437 =
         0.03133    0.01038    0.01661   -0.00392
AFIX  33
H1B   2    0.521797   -0.038483    0.885692    11.00000   -1.50000
H1C   2    0.410330   -0.108434    0.771443    11.00000   -1.50000
H1D   2    0.594008   -0.184458    0.812207    11.00000   -1.50000
AFIX   0
N2    3    0.797987    0.324030    0.717255    11.00000    0.04394    0.01580 =
         0.01849    0.00441    0.01121    0.00406
C2    1    0.624325   -0.067737    0.624193    11.00000    0.03065    0.02186 =
         0.01889    0.00179    0.00548    0.00153
AFIX  33
H2A   2    0.725363   -0.137603    0.625740    11.00000   -1.50000
H2B   2    0.516046   -0.141511    0.616054    11.00000   -1.50000
H2C   2    0.614003   -0.005478    0.566088    11.00000   -1.50000
AFIX   0
C3    1    0.421854    0.184238    0.698225    11.00000    0.02575    0.02510 =
         0.03305    0.00983    0.00398    0.00468
AFIX  33
H3A   2    0.392604    0.276957    0.747716    11.00000   -1.50000
H3B   2    0.428286    0.225589    0.633955    11.00000   -1.50000
H3C   2    0.330329    0.089557    0.683922    11.00000   -1.50000
AFIX   0
C4    1    0.678550    0.270498    0.989723    11.00000    0.02598    0.02226 =
         0.02242    0.00882    0.00721    0.00358
AFIX  43
H4A   2    0.644508    0.158945    0.999102    11.00000   -1.20000
AFIX   0
C5    1    0.704936    0.402124    1.073539    11.00000    0.03073    0.03656 =
         0.01435    0.00684    0.00772    0.00195
AFIX  43
H5A   2    0.684322    0.382144    1.138241    11.00000   -1.20000
AFIX   0
C6    1    0.761575    0.562221    1.061067    11.00000    0.03064    0.02960 =
         0.02081   -0.00177    0.00651    0.00129
AFIX  43
H6A   2    0.782745    0.653878    1.117710    11.00000   -1.20000
AFIX   0
C7    1    0.787741    0.589247    0.964863    11.00000    0.02578    0.02191 =
         0.02487    0.00583    0.00834    0.00061
AFIX  43
H7A   2    0.827511    0.698665    0.954805    11.00000   -1.20000
AFIX   0
C8    1    0.754169    0.452282    0.884496    11.00000    0.02689    0.02021 =
         0.02306    0.00777    0.01107    0.00371
C9    1    0.774852    0.469824    0.778757    11.00000    0.06382    0.02514 =
         0.02793   -0.00081    0.02665   -0.01436
AFIX  43
H9A   2    0.772031    0.576674    0.755684    11.00000   -1.20000
AFIX   0
C10   1    0.811622    0.331660    0.612253    11.00000    0.01905    0.01902 =
         0.02082    0.00701    0.00487    0.00119
C11   1    0.722938    0.444285    0.556488    11.00000    0.02052    0.01881 =
         0.02335    0.00598    0.00693    0.00174
AFIX  43
H11A  2    0.650382    0.520325    0.587441    11.00000   -1.20000
AFIX   0
C12   1    0.738282    0.448065    0.455491    11.00000    0.02827    0.02298 =
         0.02559    0.01142    0.01078    0.00609
AFIX  43
H12A  2    0.674785    0.524520    0.417044    11.00000   -1.20000
AFIX   0
C13   1    0.847490    0.338852    0.411192    11.00000    0.02407    0.02025 =
         0.02027    0.00417    0.00569   -0.00643
C14   1    0.937636    0.227380    0.467091    11.00000    0.02783    0.02399 =
         0.02999    0.00454    0.01116    0.00521
AFIX  43
H14A  2    1.011386    0.152254    0.436513    11.00000   -1.20000
AFIX   0
C15   1    0.921545    0.224009    0.567599    11.00000    0.03311    0.02759 =
         0.02404    0.00527    0.00707    0.00891
AFIX  43
H15A  2    0.985705    0.148028    0.606124    11.00000   -1.20000

AFIX   0
HKLF 4




REM  prelim_a.res in P-1
REM R1 =  0.0320 for    3934 Fo > 4sig(Fo)  and  0.0418 for all    4592 data
REM    182 parameters refined using      0 restraints

END

WGHT      0.0218      2.9268

REM Instructions for potential hydrogen bonds
EQIV $1 -x+2, -y, -z+1
HTAB O1 I1_$1
EQIV $2 x, y, z+1
HTAB C5 O1_$2

REM Highest difference peak  1.671,  deepest hole -1.583,  1-sigma level  0.206
Q1    1   0.6883  0.0856  0.8137  11.00000  0.05    1.67
Q2    1   0.6729 -0.1575  0.6401  11.00000  0.05    1.52
Q3    1   0.3301  0.2077  0.6871  11.00000  0.05    1.48
Q4    1   0.6608  0.0949  0.6979  11.00000  0.05    1.47
Q5    1   0.9773 -0.0432  0.7620  11.00000  0.05    1.00
Q6    1   0.5590  0.1381  0.6821  11.00000  0.05    1.00
Q7    1   0.5946  0.0354  0.7413  11.00000  0.05    0.99
Q8    1   1.0452 -0.0363  0.9002  11.00000  0.05    0.94
Q9    1   1.0028  0.2738  0.2824  11.00000  0.05    0.89
Q10   1   0.7375  0.1385  0.7831  11.00000  0.05    0.87
Q11   1   0.9030  0.2764  0.9245  11.00000  0.05    0.82
Q12   1   0.8351  0.3345  0.6776  11.00000  0.05    0.76
Q13   1   0.6811  0.0064  0.7404  11.00000  0.05    0.76
Q14   1   0.4751 -0.1728  0.7573  11.00000  0.05    0.75
Q15   1   0.5770 -0.1158  0.8593  11.00000  0.05    0.75
Q16   1   0.6044  0.0790  0.7560  11.00000  0.05    0.74
Q17   1   0.6404  0.2207  0.6783  11.00000  0.05    0.72
Q18   1   0.6247  0.4984  0.7184  11.00000  0.05    0.72
Q19   1   0.5750 -0.0209  0.8034  11.00000  0.05    0.72
Q20   1   0.4631 -0.0021  0.8357  11.00000  0.05    0.70
;
_shelx_res_checksum              24560
_shelx_hkl_file
;
  -1   0   0    5.17    0.48
   1   0   0    6.69    0.74
   1   0   0    5.90    0.50
   1   0   0    3.34    0.42
   1   0   0    6.42    0.57
  -2   0   0   26.81    1.58
  -2   0   0   28.45    1.47
  -2   0   0   25.19    1.49
  -2   0   0   27.44    1.32
  -2   0   0   28.46    2.06
  -2   0   0   27.15    1.46
   2   0   0   26.61    1.43
   2   0   0   31.04    1.37
   2   0   0   25.32    1.26
   2   0   0   22.08    1.41
   2   0   0   27.04    1.60
   2   0   0   27.42    1.39
   2   0   0   28.81    1.15
  -3   0   0  563.03   17.07
  -3   0   0  556.27   17.06
  -3   0   0  564.26   17.45
  -3   0   0  564.89   17.28
  -3   0   0  574.28   18.43
  -3   0   0  585.46   16.80
   3   0   0  569.75   17.11
   3   0   0  577.16   16.56
   3   0   0  565.41   16.99
   3   0   0  560.94   17.44
   3   0   0  591.28   16.86
   3   0   0  592.01   16.81
   3   0   0  579.22   16.79
   3   0   0  566.53   16.35
   3   0   0  571.98   16.45
  -4   0   0    2.48    0.65
  -4   0   0    1.17    1.36
  -4   0   0    1.94    0.89
  -4   0   0    2.58    0.89
  -4   0   0    2.98    0.98
   4   0   0    1.89    0.55
   4   0   0    2.94    0.79
   4   0   0    2.76    0.95
   4   0   0    2.06    0.75
   4   0   0    2.65    0.68
   4   0   0    2.99    0.99
   4   0   0    1.36    0.66
  -5   0   0    7.35    1.41
  -5   0   0    5.15    1.28
  -5   0   0    7.22    1.49
  -5   0   0    3.96    1.88
   5   0   0    4.53    0.90
   5   0   0    5.78    1.03
   5   0   0    6.57    1.29
   5   0   0    7.55    1.46
   5   0   0    5.70    1.17
   5   0   0    8.71    1.10
   5   0   0    3.47    1.08
   5   0   0    6.03    1.49
  -6   0   0  220.63    8.34
  -6   0   0  229.83   10.71
  -6   0   0  231.59    8.74
   6   0   0  231.77    9.18
   6   0   0  223.13    8.38
   6   0   0  226.60    7.48
   6   0   0  225.05    8.33
   6   0   0  212.41    7.93
   6   0   0  211.37    8.38
   6   0   0  225.44    7.61
  -7   0   0    0.02    1.81
   7   0   0    2.31    1.16
   7   0   0    3.98    1.42
   7   0   0    3.42    1.56
  -8   0   0    1.41    2.32
   8   0   0    1.95    1.42
   8   0   0    2.48    1.24
   8   0   0    0.42    1.32
  -9   0   0   63.01    6.86
   9   0   0   71.04    4.52
   9   0   0   65.73    4.64
   9   0   0   60.98    4.99
   9   0   0   68.32    4.92
 -10   0   0    1.20    3.24
  10   0   0    1.49    1.96
  10   0   0    4.47    2.00
  10  -1   0    4.66    1.96
  10  -1   0    8.22    3.52
  10  -1   0    5.96    2.22
  10  -1   0    2.18    1.70
 -10   1   0    7.41    4.07
   9  -1   0   47.23    3.61
   9  -1   0   51.08    3.98
   9  -1   0   47.67    3.65
   9  -1   0   46.76    4.08
  -9   1   0   44.58    5.81
   8  -1   0   34.68    3.09
   8  -1   0   35.18    2.74
   8  -1   0   34.19    3.08
  -8   1   0   30.67    4.60
   7  -1   0   28.18    2.10
   7  -1   0   25.64    2.38
   7  -1   0   26.09    2.34
   7  -1   0   24.76    2.34
  -7   1   0   23.72    4.81
   6  -1   0  186.41    6.97
   6  -1   0  199.67   10.89
   6  -1   0  180.57    6.67
   6  -1   0  194.96    7.01
   6  -1   0  192.09    7.21
   6  -1   0  189.42    6.23
  -6   1   0  188.19    7.99
  -6   1   0  185.54    7.01
  -6   1   0  187.74    9.57
   5  -1   0  114.49    4.95
   5  -1   0  120.22    5.67
   5  -1   0  117.59    4.43
   5  -1   0  115.32    4.63
   5  -1   0  116.91    4.61
   5  -1   0  119.80    4.22
  -5   1   0  117.14    6.59
  -5   1   0  119.34    4.73
  -5   1   0  127.66    4.64
  -5   1   0  123.19    5.59
   4  -1   0   97.05    3.76
   4  -1   0  103.20    4.74
   4  -1   0  100.30    3.48
   4  -1   0   99.54    3.74
   4  -1   0  101.14    3.55
  -4   1   0   98.21    3.71
  -4   1   0   93.30    4.54
  -4   1   0  106.07    5.60
  -4   1   0  103.03    3.87
   3  -1   0  544.45   16.16
   3  -1   0  557.58   17.19
   3  -1   0  539.55   16.08
  -3   1   0  557.50   16.11
  -3   1   0  579.80   18.19
  -3   1   0  554.70   17.20
   2  -1   0  398.23   11.39
   2  -1   0  394.61   11.36
   2  -1   0  393.73   11.21
   2  -1   0  389.61   12.24
  -2   1   0  385.59   11.29
  -2   1   0  391.68   12.27
  -2   1   0  411.00   12.86
   1  -1   0  263.46    8.16
   1  -1   0  265.95    8.43
   1  -1   0  269.94    7.50
  -1   1   0  264.68    8.41
  -1   1   0  250.16    8.14
   0  -1   0   70.28    2.22
  -1  -1   0  277.56    8.54
  -1  -1   0  269.73    8.54
  -1  -1   0  276.45    8.49
  -1  -1   0  270.23    8.56
  -1  -1   0  271.84    8.37
  -1  -1   0  293.62    8.62
  -1  -1   0  286.68    8.35
  -1  -1   0  269.46    8.18
  -1  -1   0  292.35    8.46
   1   1   0  286.64    8.57
   1   1   0  282.83    8.40
   1   1   0  269.25    8.16
   1   1   0  287.80    8.47
   1   1   0  285.23    8.60
   1   1   0  271.29    8.58
   1   1   0  271.89    8.50
   1   1   0  269.84    8.55
   1   1   0  278.91    8.54
  -2  -1   0  109.00    3.74
  -2  -1   0  100.54    3.77
  -2  -1   0  103.34    3.86
  -2  -1   0   98.98    4.00
  -2  -1   0  106.02    3.78
  -2  -1   0  105.77    3.87
  -2  -1   0  110.24    3.73
  -2  -1   0  100.93    3.37
  -2  -1   0  105.94    4.03
  -2  -1   0  105.47    3.58
  -2  -1   0  107.00    3.91
   2   1   0  103.30    3.95
   2   1   0  102.74    4.04
   2   1   0  103.23    3.71
   2   1   0  112.78    3.92
   2   1   0  105.12    3.87
   2   1   0  101.47    3.16
   2   1   0  104.33    4.00
   2   1   0  100.16    3.40
   2   1   0  107.80    3.86
  -3  -1   0  505.78   15.31
  -3  -1   0  518.82   15.41
  -3  -1   0  509.21   14.57
  -3  -1   0  489.18   14.90
  -3  -1   0  488.36   15.56
  -3  -1   0  520.44   15.37
  -3  -1   0  501.80   14.69
  -3  -1   0  496.87   15.08
   3   1   0  492.07   15.25
   3   1   0  498.38   14.95
   3   1   0  505.65   15.23
   3   1   0  499.81   15.62
   3   1   0  516.40   15.58
   3   1   0  507.25   15.31
   3   1   0  515.02   15.11
   3   1   0  477.29   15.41
  -4  -1   0   49.77    2.70
  -4  -1   0   53.13    3.92
  -4  -1   0   52.10    2.55
  -4  -1   0   52.13    2.86
  -4  -1   0   51.04    3.03
  -4  -1   0   50.64    2.55
   4   1   0   54.11    2.82
   4   1   0   46.73    2.93
   4   1   0   48.35    2.86
   4   1   0   54.65    2.63
   4   1   0   52.91    3.00
   4   1   0   52.00    2.69
   4   1   0   50.85    2.72
  -5  -1   0   11.77    1.73
  -5  -1   0   15.62    1.61
  -5  -1   0   17.34    1.64
  -5  -1   0   13.81    1.34
  -5  -1   0   17.69    2.08
  -5  -1   0   16.27    3.18
   5   1   0   14.20    1.66
   5   1   0   21.26    2.10
   5   1   0   20.43    2.13
   5   1   0   17.39    1.95
   5   1   0   18.62    1.67
  -6  -1   0  202.68   10.06
  -6  -1   0  208.65    8.29
   6   1   0  208.95    8.17
   6   1   0  197.66    8.33
   6   1   0  194.34    7.81
   6   1   0  212.65    8.35
  -7  -1   0   11.74    3.60
   7   1   0   12.28    2.09
   7   1   0    6.91    1.83
   7   1   0   15.42    2.48
   7   1   0   11.90    2.55
  -8  -1   0    2.02    2.69
   8   1   0    6.13    2.04
   8   1   0    5.36    1.93
   8   1   0    3.14    1.57
   8   1   0    2.69    1.53
  -9  -1   0   50.93    6.47
   9   1   0   71.19    4.78
   9   1   0   60.57    5.21
 -10  -1   0   -2.75    2.49
  10   1   0    1.88    1.64
  10  -2   0    6.99    1.88
  10  -2   0    4.94    2.08
  10  -2   0    4.22    1.73
  10  -2   0    8.46    2.42
 -10   2   0    9.62    3.93
   9  -2   0    4.80    1.62
   9  -2   0    4.88    1.54
   9  -2   0    6.02    1.83
  -9   2   0    7.87    3.46
   8  -2   0  150.16    6.42
   8  -2   0  149.95    5.76
   8  -2   0  148.14    6.24
  -8   2   0  156.36    9.65
   7  -2   0    7.46    1.86
   7  -2   0    6.21    1.41
  -7   2   0    6.93    2.15
  -7   2   0    6.42    2.82
   6  -2   0   14.61    2.12
   6  -2   0   21.21    1.75
   6  -2   0   16.84    1.64
   6  -2   0   19.41    1.22
  -6   2   0   19.88    2.49
  -6   2   0   24.65    3.38
   5  -2   0  273.37    8.10
   5  -2   0  262.69    9.94
   5  -2   0  257.88    9.45
   5  -2   0  236.82    8.02
  -5   2   0  249.15   10.90
  -5   2   0  241.06    9.77
   4  -2   0    3.96    1.21
   4  -2   0    7.33    0.80
   4  -2   0    4.69    0.71
  -4   2   0    8.45    2.22
  -4   2   0    6.90    1.58
   3  -2   0  120.97    5.28
  -3   2   0  133.44    6.11
  -3   2   0  131.66    5.49
   2  -2   0  323.67    9.41
  -2   2   0  337.05   10.81
  -2   2   0  320.93   11.27
   1  -2   0    5.52    1.28
   1  -2   0    3.26    0.54
   1  -2   0    3.62    0.55
   1  -2   0    5.12    0.71
  -1   2   0    3.76    0.46
  -1   2   0    3.41    0.88
  -1   2   0    4.05    0.62
  -1   2   0    4.14    0.64
  -1   2   0    3.56    0.45
   0  -2   0  224.39    7.15
   0  -2   0  227.16    6.94
   0  -2   0  226.47    6.99
   0  -2   0  218.06    7.05
   0  -2   0  219.29    7.24
   0  -2   0  227.61    7.20
   0  -2   0  226.96    7.02
   0  -2   0  216.51    7.57
   0  -2   0  239.54    6.98
   0  -2   0  244.05    7.14
   0   2   0  228.60    7.28
   0   2   0  225.95    6.93
   0   2   0  222.84    7.25
   0   2   0  232.20    6.87
   0   2   0  246.90    6.95
   0   2   0  223.38    7.16
   0   2   0  237.68    6.79
   0   2   0  225.77    6.73
   0   2   0  220.32    7.12
  -1  -2   0  138.85    5.03
  -1  -2   0  138.61    4.77
  -1  -2   0  137.67    4.80
  -1  -2   0  136.25    4.97
  -1  -2   0  130.55    4.91
  -1  -2   0  130.30    4.12
  -1  -2   0  135.27    4.84
  -1  -2   0  127.24    4.64
  -1  -2   0  133.53    4.74
   1   2   0  144.92    4.80
   1   2   0  125.09    4.87
   1   2   0  133.63    4.57
   1   2   0  141.66    4.86
   1   2   0  132.31    4.68
   1   2   0  129.49    4.58
   1   2   0  129.04    4.79
  -2  -2   0   70.66    2.94
  -2  -2   0   67.74    2.68
  -2  -2   0   68.67    3.18
  -2  -2   0   63.89    2.98
  -2  -2   0   67.14    3.31
  -2  -2   0   67.99    3.16
  -2  -2   0   70.24    3.04
  -2  -2   0   66.67    3.19
  -2  -2   0   61.11    2.99
   2   2   0   70.10    3.15
   2   2   0   64.30    3.15
   2   2   0   69.99    3.37
   2   2   0   71.94    3.35
   2   2   0   71.86    3.24
  -3  -2   0  194.62    6.61
  -3  -2   0  199.88    6.75
  -3  -2   0  200.50    6.82
  -3  -2   0  195.51    6.87
  -3  -2   0  202.21    6.85
  -3  -2   0  195.70    7.08
  -3  -2   0  184.95    7.26
  -3  -2   0  193.57    7.10
   3   2   0  185.60    7.12
   3   2   0  186.60    7.03
   3   2   0  191.69    7.04
   3   2   0  196.91    7.10
   3   2   0  195.03    7.32
   3   2   0  198.46    7.36
  -4  -2   0  294.26   10.16
  -4  -2   0  296.85    9.30
  -4  -2   0  291.88    9.83
  -4  -2   0  303.25    9.90
  -4  -2   0  279.23    9.49
  -4  -2   0  288.83   10.51
  -4  -2   0  289.20   10.09
   4   2   0  286.01   10.46
   4   2   0  293.21   10.57
   4   2   0  301.71   10.22
   4   2   0  292.11   10.22
   4   2   0  289.24    9.88
   4   2   0  300.56   10.39
   4   2   0  292.67   10.08
  -5  -2   0   18.09    1.99
  -5  -2   0   19.36    1.93
  -5  -2   0   18.13    1.91
  -5  -2   0   18.05    2.31
  -5  -2   0   18.03    2.04
   5   2   0   19.53    2.28
   5   2   0   19.13    1.95
   5   2   0   15.57    2.03
   5   2   0   21.38    2.33
   5   2   0   18.44    2.31
   5   2   0   15.06    1.88
  -6  -2   0   92.02    5.32
  -6  -2   0   89.44    6.63
  -6  -2   0   97.31    4.93
   6   2   0  105.04    5.54
   6   2   0   96.40    5.51
   6   2   0   94.71    5.12
   6   2   0  100.24    5.30
  -7  -2   0   48.32    4.13
  -7  -2   0   61.38    5.82
   7   2   0   47.90    4.22
   7   2   0   48.13    3.90
   7   2   0   58.28    4.38
   7   2   0   59.71    4.01
   7   2   0   52.07    4.37
  -8  -2   0    8.98    3.63
   8   2   0   12.62    2.59
   8   2   0   12.88    3.24
  -9  -2   0   23.18    5.46
   9   2   0   30.50    3.59
 -10  -2   0    7.37    4.60
  10   2   0   11.74    3.05
  10  -3   0    0.06    1.33
  10  -3   0    2.43    1.27
  10  -3   0    0.98    1.45
 -10   3   0    2.59    3.51
   9  -3   0    1.54    1.45
   9  -3   0    0.77    1.14
   9  -3   0    1.41    0.91
  -9   3   0    5.39    3.28
   8  -3   0   88.71    5.83
   8  -3   0   83.76    4.11
  -8   3   0   71.83    6.74
   7  -3   0    5.97    2.02
   7  -3   0    6.30    1.25
  -7   3   0   11.12    3.38
  -7   3   0    4.77    2.11
   6  -3   0   11.49    1.26
   6  -3   0   19.57    2.55
  -6   3   0   13.65    3.39
  -6   3   0   11.91    2.44
   5  -3   0  280.33    8.65
   5  -3   0  290.01   10.86
  -5   3   0  289.60   12.29
  -5   3   0  281.52   11.14
   4  -3   0    0.33    0.79
  -4   3   0    0.26    1.02
  -4   3   0    0.16    0.91
  -3   3   0    7.82    2.04
  -3   3   0    8.72    1.73
   2  -3   0  472.13   13.77
   2  -3   0  458.58   13.76
  -2   3   0  474.96   15.26
  -2   3   0  483.05   13.79
   1  -3   0    6.93    0.79
   1  -3   0    6.67    0.74
   1  -3   0    7.22    0.91
   1  -3   0    6.81    0.94
   1  -3   0    7.19    0.51
   1  -3   0    8.19    0.53
  -1   3   0    7.58    1.01
  -1   3   0    7.39    0.78
  -1   3   0    7.57    0.81
  -1   3   0    7.19    0.99
  -1   3   0    7.18    1.18
   0  -3   0   33.64    2.04
   0  -3   0   30.87    1.90
   0  -3   0   26.98    2.37
   0  -3   0   30.17    1.79
   0  -3   0   36.45    1.88
   0  -3   0   33.14    1.74
   0  -3   0   31.16    2.14
   0  -3   0   34.35    1.72
   0  -3   0   30.28    1.75
   0  -3   0   30.17    2.26
   0   3   0   29.30    1.59
   0   3   0   30.58    1.99
   0   3   0   30.72    2.02
   0   3   0   31.66    1.88
   0   3   0   29.54    1.81
   0   3   0   32.08    1.30
   0   3   0   31.69    1.34
  -1  -3   0  583.65   17.87
  -1  -3   0  605.94   17.77
  -1  -3   0  570.44   18.06
  -1  -3   0  575.60   17.58
  -1  -3   0  578.49   17.52
  -1  -3   0  582.23   17.93
  -1  -3   0  568.88   17.82
  -1  -3   0  585.14   17.78
  -1  -3   0  579.32   16.95
   1   3   0  560.35   17.86
   1   3   0  599.94   17.62
   1   3   0  593.93   17.73
   1   3   0  577.36   17.33
   1   3   0  568.46   17.51
   1   3   0  559.50   17.35
   1   3   0  588.88   17.33
  -2  -3   0   13.49    1.64
  -2  -3   0   16.05    1.47
  -2  -3   0   12.82    1.53
  -2  -3   0   14.01    1.76
  -2  -3   0   13.02    1.47
  -2  -3   0   12.80    1.38
  -2  -3   0   12.96    1.41
  -2  -3   0   11.44    1.45
   2   3   0   12.25    1.54
   2   3   0   14.15    1.49
   2   3   0   10.38    1.28
   2   3   0    8.74    1.42
   2   3   0   11.57    1.65
   2   3   0   15.84    1.52
   2   3   0   12.54    1.52
  -3  -3   0    0.63    0.75
  -3  -3   0   -0.38    0.44
  -3  -3   0   -0.41    0.81
  -3  -3   0   -0.19    0.49
  -3  -3   0    0.51    0.82
  -3  -3   0    0.70    0.69
  -3  -3   0    0.28    0.74
  -3  -3   0    0.57    0.67
   3   3   0   -0.30    0.61
   3   3   0    0.76    0.85
   3   3   0   -0.25    0.37
   3   3   0    0.68    0.84
   3   3   0    0.72    0.68
   3   3   0    0.61    0.80
  -4  -3   0  220.67    8.44
  -4  -3   0  225.84    9.15
  -4  -3   0  231.93    8.83
  -4  -3   0  230.39    8.11
  -4  -3   0  233.01    8.12
  -4  -3   0  226.22    8.73
  -4  -3   0  228.96    8.32
   4   3   0  237.54    8.85
   4   3   0  230.87    8.51
   4   3   0  221.85    8.83
   4   3   0  242.65    9.28
   4   3   0  232.89    9.12
   4   3   0  237.11    8.87
  -5  -3   0    7.92    1.67
  -5  -3   0    8.74    1.80
  -5  -3   0    7.87    2.00
  -5  -3   0    5.88    1.45
  -5  -3   0    8.52    1.32
  -5  -3   0    8.16    1.57
  -5  -3   0   10.45    2.00
   5   3   0   10.57    2.33
   5   3   0    5.36    1.87
   5   3   0    9.76    1.92
   5   3   0    8.93    1.84
   5   3   0    9.01    1.91
   5   3   0    6.13    1.73
  -6  -3   0   12.88    2.29
  -6  -3   0   17.25    2.10
  -6  -3   0   15.17    2.91
   6   3   0    9.75    2.17
   6   3   0   17.04    3.16
   6   3   0   11.88    2.31
   6   3   0   16.03    2.62
  -7  -3   0  100.58    6.28
  -7  -3   0   94.41    7.64
   7   3   0  103.33    5.70
   7   3   0  101.28    6.36
  -8  -3   0    4.33    3.23
   8   3   0    7.20    2.35
  -9  -3   0    0.15    2.95
   9   3   0    0.71    1.89
  10  -4   0    4.33    1.63
  10  -4   0    9.87    1.94
  10  -4   0    7.04    1.47
 -10   4   0    5.93    3.67
   9  -4   0    3.72    1.33
   9  -4   0    5.40    1.59
  -9   4   0    5.46    3.15
   8  -4   0   63.53    3.46
   8  -4   0   73.04    5.32
  -8   4   0   66.13    6.68
   7  -4   0   17.57    3.00
   7  -4   0   20.13    1.73
  -7   4   0   22.53    3.40
  -7   4   0   21.08    4.64
   6  -4   0   18.34    2.72
   6  -4   0   19.65    1.46
  -6   4   0   22.27    4.47
  -6   4   0   21.07    2.96
   5  -4   0  216.59    9.24
  -5   4   0  204.94   10.27
  -5   4   0  199.94    9.12
   4  -4   0   91.94    3.21
   4  -4   0   94.88    3.16
   4  -4   0   98.87    5.41
  -4   4   0   91.80    5.97
  -4   4   0   92.43    5.28
   3  -4   0    3.35    0.62
   3  -4   0    4.15    1.44
   3  -4   0    2.97    0.59
  -3   4   0    2.29    1.25
   2  -4   0  340.29   10.02
   2  -4   0  346.46   12.30
   2  -4   0  336.50    9.97
   2  -4   0  318.00   10.36
  -2   4   0  322.44   11.71
  -2   4   0  348.35   10.43
  -2   4   0  335.72   10.42
   1  -4   0   43.57    2.37
   1  -4   0   48.65    2.26
   1  -4   0   46.16    2.18
   1  -4   0   44.36    2.48
   1  -4   0   43.19    2.10
   1  -4   0   41.18    2.09
   1  -4   0   49.28    3.31
  -1   4   0   44.05    2.18
  -1   4   0   45.59    2.18
  -1   4   0   43.36    2.46
  -1   4   0   43.13    2.77
  -1   4   0   45.33    2.50
   0  -4   0   12.18    1.46
   0  -4   0   15.77    1.37
   0  -4   0   17.34    1.85
   0  -4   0   12.93    1.40
   0  -4   0   13.57    1.57
   0  -4   0   17.21    2.03
   0  -4   0   13.48    1.39
   0  -4   0   15.88    1.47
   0  -4   0   14.01    1.47
   0   4   0   16.59    1.71
   0   4   0   12.19    1.19
   0   4   0   13.23    1.43
  -1  -4   0  467.62   14.38
  -1  -4   0  456.28   14.41
  -1  -4   0  437.79   14.54
  -1  -4   0  435.16   14.41
  -1  -4   0  424.88   14.71
  -1  -4   0  447.45   14.26
  -1  -4   0  427.00   14.57
  -1  -4   0  445.67   14.15
  -1  -4   0  447.59   14.07
   1   4   0  443.15   14.23
   1   4   0  434.11   13.81
   1   4   0  433.66   13.59
   1   4   0  450.47   13.65
   1   4   0  441.26   14.54
  -2  -4   0   48.48    3.29
  -2  -4   0   43.79    1.83
  -2  -4   0   47.74    2.92
  -2  -4   0   45.07    2.74
  -2  -4   0   51.80    3.36
  -2  -4   0   44.09    2.88
  -2  -4   0   55.46    3.21
  -2  -4   0   42.80    2.81
  -2  -4   0   44.69    2.85
   2   4   0   47.87    2.95
   2   4   0   49.32    3.31
   2   4   0   48.11    2.82
   2   4   0   44.01    2.71
   2   4   0   46.28    2.68
   2   4   0   47.80    3.06
  -3  -4   0    4.20    1.36
  -3  -4   0    1.49    0.93
  -3  -4   0    1.64    1.07
  -3  -4   0    1.68    0.88
  -3  -4   0    1.72    1.01
  -3  -4   0    2.71    0.88
  -3  -4   0    2.56    1.03
  -3  -4   0    1.14    0.94
  -3  -4   0    1.15    1.16
   3   4   0    1.90    0.96
   3   4   0    3.05    1.08
   3   4   0    3.15    1.19
   3   4   0    4.03    1.28
   3   4   0    0.61    0.83
   3   4   0    1.83    1.22
   3   4   0    4.33    1.31
  -4  -4   0  214.36    8.97
  -4  -4   0  206.81    7.86
  -4  -4   0  209.30    8.14
  -4  -4   0  212.51    8.52
  -4  -4   0  201.79    7.55
  -4  -4   0  208.12    8.65
  -4  -4   0  205.65    8.02
   4   4   0  199.36    8.03
   4   4   0  204.45    8.66
   4   4   0  201.79    8.34
   4   4   0  193.92    8.41
   4   4   0  212.24    8.96
   4   4   0  205.16    8.37
  -5  -4   0    0.03    0.82
  -5  -4   0    1.28    1.46
  -5  -4   0   -0.08    1.22
  -5  -4   0   -1.16    0.97
  -5  -4   0   -1.04    1.15
  -5  -4   0   -0.25    1.90
  -5  -4   0   -0.38    0.78
   5   4   0   -0.95    0.99
   5   4   0    3.08    1.41
   5   4   0    1.12    1.46
  -6  -4   0   10.26    1.95
  -6  -4   0   13.18    2.41
  -6  -4   0   11.07    2.89
  -6  -4   0    5.41    1.63
  -6  -4   0    9.46    1.77
  -6  -4   0    8.47    2.48
   6   4   0    8.37    2.50
   6   4   0   10.48    2.32
  -7  -4   0  104.96    6.86
   7   4   0  113.88    6.35
   7   4   0  109.34    7.19
  -8  -4   0   -2.23    2.36
   8   4   0    1.81    1.87
   8   4   0    0.71    2.00
  -9  -4   0    5.43    3.79
   9   4   0    6.67    2.66
  -9   5   0    4.17    3.54
   8  -5   0   15.47    3.31
  -8   5   0   14.05    4.41
   7  -5   0  107.02    6.72
  -7   5   0   80.73    7.29
   6  -5   0   13.46    2.94
  -6   5   0   15.43    3.12
  -6   5   0    6.81    2.94
   5  -5   0   37.67    3.89
   5  -5   0   40.24    1.89
  -5   5   0   43.67    4.64
  -5   5   0   36.41    3.79
   4  -5   0  110.58    4.02
   4  -5   0  108.46    6.35
  -4   5   0  114.69    6.28
   3  -5   0   13.03    1.03
   3  -5   0    9.72    1.16
   3  -5   0   14.54    1.02
   3  -5   0   14.60    2.40
  -3   5   0   12.92    1.15
  -3   5   0   14.24    2.19
  -3   5   0   13.51    1.12
   2  -5   0  195.37    7.45
   2  -5   0  175.87    5.99
   2  -5   0  172.72    5.84
   2  -5   0  170.84    5.77
   2  -5   0  164.64    6.30
   2  -5   0  176.36    8.10
   2  -5   0  189.77    6.10
  -2   5   0  179.52    6.40
  -2   5   0  178.42    7.59
  -2   5   0  176.20    6.36
   1  -5   0  204.58    8.36
   1  -5   0  212.55    7.67
   1  -5   0  220.05    7.55
   1  -5   0  218.59    7.43
   1  -5   0  210.72    7.45
   1  -5   0  200.49    8.93
  -1   5   0  214.22    8.29
  -1   5   0  207.77    7.81
  -1   5   0  227.41    7.85
   0  -5   0   39.00    2.63
   0  -5   0   37.72    2.52
   0  -5   0   40.35    3.27
   0  -5   0   40.41    2.79
   0  -5   0   40.96    2.68
   0  -5   0   40.05    2.53
   0  -5   0   33.79    2.86
   0   5   0   37.27    2.51
   0   5   0   40.29    2.51
   0   5   0   34.57    2.04
   0   5   0   31.98    2.63
  -1  -5   0  164.47    6.65
  -1  -5   0  162.45    7.12
  -1  -5   0  167.69    6.84
  -1  -5   0  163.77    6.74
  -1  -5   0  167.19    6.97
  -1  -5   0  164.13    7.25
  -1  -5   0  166.03    6.56
  -1  -5   0  149.77    6.77
   1   5   0  173.32    5.88
   1   5   0  160.35    5.87
   1   5   0  169.32    6.69
   1   5   0  161.75    7.06
   1   5   0  155.34    6.08
  -2  -5   0  121.47    6.04
  -2  -5   0  116.66    5.24
  -2  -5   0  114.83    4.16
  -2  -5   0  112.19    5.53
  -2  -5   0  119.13    5.88
  -2  -5   0  119.72    5.55
  -2  -5   0  118.70    5.49
  -2  -5   0  124.42    5.77
  -2  -5   0  119.66    5.46
   2   5   0  111.54    4.91
   2   5   0  116.45    5.59
   2   5   0  107.09    5.06
   2   5   0  119.06    5.09
   2   5   0  117.40    5.94
  -3  -5   0   41.13    3.23
  -3  -5   0   36.98    3.32
  -3  -5   0   35.18    2.79
  -3  -5   0   37.00    2.96
  -3  -5   0   36.68    3.23
  -3  -5   0   36.29    3.03
  -3  -5   0   38.81    3.41
  -3  -5   0   33.58    2.71
  -3  -5   0   39.89    3.02
   3   5   0   37.09    3.04
   3   5   0   35.92    3.19
   3   5   0   32.43    2.84
   3   5   0   42.49    3.57
   3   5   0   36.50    2.79
   3   5   0   37.10    2.84
  -4  -5   0  149.02    7.41
  -4  -5   0  140.47    6.33
  -4  -5   0  131.27    6.94
  -4  -5   0  135.49    6.56
  -4  -5   0  133.59    6.35
  -4  -5   0  162.56    9.15
   4   5   0  145.02    6.59
   4   5   0  138.64    7.03
   4   5   0  141.04    6.74
   4   5   0  149.89    7.49
   4   5   0  136.40    6.36
  -5  -5   0   70.48    4.70
  -5  -5   0   75.26    5.15
  -5  -5   0   80.25    5.63
  -5  -5   0   73.01    4.60
  -5  -5   0   80.95    4.56
  -5  -5   0   73.14    3.95
   5   5   0   77.03    4.87
   5   5   0   77.31    5.59
  -6  -5   0   37.80    3.13
  -6  -5   0   24.80    3.66
  -6  -5   0   36.28    3.39
  -6  -5   0   40.34    3.93
   6   5   0   44.35    3.93
   6   5   0   31.50    4.15
  -7  -5   0   37.31    2.89
  -7  -5   0   36.59    3.19
   7   5   0   47.92    4.32
   7   5   0   41.93    4.81
  -8  -5   0   11.88    4.00
   8   5   0    6.87    2.52
   8   5   0   13.82    3.73
  -9  -5   0   18.08    5.68
   9   5   0   19.29    3.99
  -9   6   0   -0.56    2.74
   8  -6   0    2.50    2.04
  -8   6   0    0.74    2.67
   7  -6   0  112.26    7.53
   6  -6   0    1.26    1.70
   5  -6   0   11.17    1.29
   5  -6   0   11.41    2.01
   5  -6   0   10.49    2.63
  -5   6   0    9.93    2.90
   4  -6   0  174.78    7.41
   4  -6   0  174.90    5.78
   4  -6   0  162.28    6.11
   4  -6   0  166.43    8.79
  -4   6   0  183.80    8.78
   3  -6   0   22.03    2.45
   3  -6   0   20.09    3.02
   3  -6   0   21.84    1.89
   3  -6   0   20.26    1.31
   3  -6   0   19.73    1.29
   3  -6   0   18.52    1.60
  -3   6   0   22.06    2.95
  -3   6   0   19.54    1.68
  -3   6   0   20.06    1.96
   2  -6   0    2.36    1.04
   2  -6   0    3.99    1.38
   2  -6   0    1.02    0.79
   2  -6   0    2.90    0.98
   2  -6   0    4.11    1.74
   2  -6   0    3.49    1.07
  -2   6   0    2.93    1.12
  -2   6   0    2.38    1.43
   1  -6   0  326.24   11.04
   1  -6   0  324.99   11.22
   1  -6   0  342.54   11.31
   1  -6   0  309.73   11.26
   1  -6   0  347.04   12.45
   1  -6   0  322.86   13.02
  -1   6   0  320.57   11.43
   0  -6   0   11.64    1.73
   0  -6   0   11.46    2.01
   0  -6   0   11.39    2.16
   0  -6   0    8.07    2.13
   0  -6   0   10.78    1.79
   0  -6   0   12.17    1.77
   0   6   0   13.77    2.28
   0   6   0    9.11    1.31
  -1  -6   0   10.98    2.23
  -1  -6   0    7.99    1.78
  -1  -6   0   11.72    2.33
  -1  -6   0   12.18    2.14
  -1  -6   0   12.18    2.19
  -1  -6   0   11.82    2.41
  -1  -6   0    8.73    1.89
  -1  -6   0    8.76    1.74
   1   6   0    6.87    1.79
   1   6   0    8.12    1.26
   1   6   0   12.27    2.01
   1   6   0    8.66    1.63
   1   6   0    9.14    1.29
  -2  -6   0  224.08    8.79
  -2  -6   0  219.73    9.38
  -2  -6   0  213.68    8.98
  -2  -6   0  233.59    9.07
  -2  -6   0  226.68    9.28
  -2  -6   0  240.61    9.78
  -2  -6   0  230.20    9.42
  -2  -6   0  225.09    9.14
  -2  -6   0  211.50    9.57
   2   6   0  221.32    9.09
   2   6   0  215.37    8.14
   2   6   0  222.41    8.15
   2   6   0  226.37    8.50
   2   6   0  223.31    9.69
  -3  -6   0   11.34    2.15
  -3  -6   0   16.76    2.69
  -3  -6   0   15.70    2.69
  -3  -6   0   14.84    2.95
   3   6   0   13.22    2.88
   3   6   0   14.17    2.20
   3   6   0   12.11    1.94
   3   6   0   14.66    2.55
  -4  -6   0    6.73    2.23
  -4  -6   0    4.75    2.23
  -4  -6   0    6.17    2.02
   4   6   0    6.38    2.25
   4   6   0    8.99    2.28
   4   6   0    5.53    1.63
   4   6   0    8.04    1.94
  -5  -6   0   98.80    5.56
  -5  -6   0   99.25    6.73
  -5  -6   0   98.71    5.97
   5   6   0   96.75    5.85
   5   6   0  108.25    7.00
  -6  -6   0    8.53    2.18
  -6  -6   0    7.05    2.27
   6   6   0    8.28    2.52
   6   6   0    2.34    2.04
  -7  -6   0    9.89    2.57
  -7  -6   0    6.75    2.02
   7   6   0   14.58    3.59
   7   6   0    5.02    2.32
   8   6   0   29.23    4.91
   8   6   0   25.56    4.86
   8  -7   0    4.96    2.93
   7  -7   0   84.15    6.97
   6  -7   0   12.67    3.44
   5  -7   0    9.94    2.88
   5  -7   0    7.54    1.40
   5  -7   0    8.69    1.32
   4  -7   0  211.81   10.69
   4  -7   0  216.74    9.07
   4  -7   0  220.64    7.36
   4  -7   0  213.20    7.68
   4  -7   0  194.78    6.80
   4  -7   0  200.24    6.82
   3  -7   0   32.09    3.31
   3  -7   0   37.04    2.48
   3  -7   0   37.88    2.50
   3  -7   0   39.90    4.28
   3  -7   0   31.27    2.59
   3  -7   0   39.85    2.63
  -3   7   0   33.07    2.41
   2  -7   0   24.00    2.39
   2  -7   0   24.77    2.27
   2  -7   0   23.83    2.27
   2  -7   0   15.57    3.32
   2  -7   0   25.01    2.18
   2  -7   0   28.25    3.13
  -2   7   0   21.84    2.30
   1  -7   0  125.62    5.95
   1  -7   0  134.90    6.16
   1  -7   0  126.03    6.07
   1  -7   0  134.10    5.90
   1  -7   0  139.04    7.10
   1  -7   0  127.95    7.50
  -1   7   0  133.74    6.22
   0  -7   0    9.78    1.99
   0  -7   0    4.92    1.99
   0  -7   0    7.74    1.88
   0  -7   0    7.28    1.74
   0  -7   0    3.53    1.74
   0  -7   0    7.53    1.95
   0   7   0    6.81    1.93
  -1  -7   0    2.01    1.50
  -1  -7   0    1.38    1.18
  -1  -7   0    0.35    1.67
  -1  -7   0    1.79    1.40
  -1  -7   0    1.94    1.32
   1   7   0    1.00    1.44
  -2  -7   0  137.04    6.77
  -2  -7   0  136.18    7.19
  -2  -7   0  143.21    7.44
   2   7   0  129.41    5.57
   2   7   0  148.84    7.50
   2   7   0  127.84    6.02
   2   7   0  121.42    5.41
  -3  -7   0    0.57    1.16
  -3  -7   0   -1.06    1.22
  -3  -7   0    2.25    1.69
   3   7   0    1.63    1.31
   3   7   0    1.44    1.12
   3   7   0   -0.09    1.20
   3   7   0    1.41    1.53
  -4  -7   0    4.86    2.23
   4   7   0    4.45    2.32
   4   7   0    6.28    1.78
   4   7   0    4.06    1.91
   4   7   0    2.00    1.73
  -5  -7   0   75.59    5.61
   5   7   0   76.87    6.34
   5   7   0   86.96    5.72
   6   7   0    3.51    2.18
   6   7   0    2.63    2.10
  -7  -7   0    2.69    2.28
  -7  -7   0   -0.77    1.78
   7   7   0   -1.72    1.91
   7   7   0    6.64    3.02
   6  -8   0   65.16    3.34
   6  -8   0   56.10    6.12
   5  -8   0   10.73    1.43
   5  -8   0    9.89    1.78
   5  -8   0   12.36    1.81
   5  -8   0   10.15    1.43
   5  -8   0   11.27    3.39
   4  -8   0   24.27    2.35
   4  -8   0   30.07    4.55
   4  -8   0   33.69    2.59
   4  -8   0   27.81    2.61
   4  -8   0   30.20    2.41
   3  -8   0   52.61    3.52
   3  -8   0   59.85    3.69
   3  -8   0   49.91    3.61
   3  -8   0   51.96    5.47
   3  -8   0   62.45    3.58
  -3   8   0   57.29    3.44
   2  -8   0    1.28    1.31
   2  -8   0    2.15    1.29
   2  -8   0    2.24    1.91
   2  -8   0    3.71    1.36
   2  -8   0    2.58    1.47
  -2   8   0    2.99    1.40
   1  -8   0  103.16    7.00
   1  -8   0  106.09    5.73
   1  -8   0  101.30    5.63
   1  -8   0  104.38    5.42
   1  -8   0  102.54    5.74
  -1   8   0  106.19    5.71
   0  -8   0   22.33    3.53
   0  -8   0   27.93    3.28
   0  -8   0   25.94    3.07
   0  -8   0   24.47    2.80
   0   8   0   26.24    3.22
  -1  -8   0   19.80    3.47
  -1  -8   0   28.27    3.17
   1   8   0   32.37    3.70
  -2  -8   0   51.78    4.73
  -2  -8   0   46.84    4.13
   2   8   0   40.81    2.43
   2   8   0   47.35    2.51
   2   8   0   52.19    4.80
  -3  -8   0   29.49    3.79
  -3  -8   0   26.12    3.67
   3   8   0   26.75    2.82
   3   8   0   23.64    2.69
   3   8   0   34.54    4.24
  -4  -8   0   16.34    3.63
   4   8   0   18.41    2.72
   4   8   0   14.71    3.51
   4   8   0   12.96    2.44
  -5  -8   0   24.77    4.52
   5   8   0   28.48    4.59
   6   8   0    3.32    2.94
   6  -9   0   46.72    3.30
   6  -9   0   45.40    3.10
   6  -9   0   44.11    2.98
   5  -9   0    1.18    1.06
   5  -9   0    0.83    1.25
   5  -9   0    6.67    2.13
   5  -9   0    3.53    1.26
   4  -9   0    9.56    2.10
   4  -9   0    9.32    2.03
   4  -9   0   11.50    2.19
   4  -9   0   15.66    3.89
   4  -9   0    7.38    1.79
   3  -9   0   67.25    4.52
   3  -9   0   57.78    5.98
   3  -9   0   69.08    4.23
   3  -9   0   60.64    4.30
   3  -9   0   60.97    4.21
  -3   9   0   54.07    3.75
   2  -9   0   15.59    2.60
   2  -9   0   11.09    2.49
   2  -9   0   12.47    3.25
   2  -9   0    6.58    1.90
   2  -9   0   10.57    2.40
  -2   9   0   11.78    2.47
   1  -9   0    8.16    2.79
   1  -9   0   10.70    2.44
   1  -9   0   11.73    2.61
   1  -9   0    8.26    2.49
  -1   9   0   13.68    2.88
   0  -9   0   91.19    7.17
   0  -9   0   90.35    5.65
   0   9   0  100.54    6.22
  -1  -9   0    4.66    2.42
  -1  -9   0    5.14    2.25
   1   9   0    3.31    1.99
  -2  -9   0    6.03    2.41
  -2  -9   0   -0.22    1.87
   2   9   0    4.23    2.50
  -3  -9   0   37.55    4.40
   3   9   0   35.70    4.77
   3   9   0   30.70    2.54
   3   9   0   38.21    2.73
  -4  -9   0    9.99    3.19
   4   9   0   12.55    3.86
   4   9   0   11.36    2.37
   4   9   0   15.01    2.65
  -5  -9   0    5.63    2.87
   5   9   0    2.76    2.76
   5   9   0    1.52    2.35
   5 -10   0    5.38    1.89
   5 -10   0    3.22    1.85
   5 -10   0    5.02    1.76
   4 -10   0    1.10    1.48
   4 -10   0   -0.21    1.36
   4 -10   0    2.85    1.71
   3 -10   0   62.47    4.66
   3 -10   0   53.96    4.19
   3 -10   0   50.84    4.43
   2 -10   0    0.89    2.14
   2 -10   0    2.01    1.78
  -2  10   0    0.73    1.61
   1 -10   0    1.71    1.68
   1 -10   0    2.46    2.56
  -1  10   0    3.24    2.23
   0 -10   0   60.26    6.32
   0 -10   0   56.21    4.84
   0  10   0   55.96    5.14
  -1 -10   0    1.09    1.97
  -1 -10   0   -0.82    2.23
   1  10   0    0.50    1.96
  -2 -10   0   -1.90    2.02
   2  10   0   -0.46    2.05
  -3 -10   0   56.51    5.51
   3  10   0   54.58    5.92
   1 -11   0   13.65    3.32
  -1  11   0    7.93    2.79
   0  11  -1    2.54    2.61
   0 -11   1    1.96    2.36
  -1  11  -1    0.18    1.85
   1 -11   1    1.07    1.91
  -2  11  -1   49.89    4.61
   2 -11   1   58.10    4.86
   3  10  -1    9.89    3.75
  -3 -10   1    9.66    3.18
   2  10  -1    5.36    2.85
  -2 -10   1    5.87    3.07
  -2 -10   1   10.09    2.98
   1  10  -1   42.83    4.85
  -1 -10   1   53.47    4.98
  -1 -10   1   49.60    5.88
   0  10  -1    9.85    2.74
   0 -10   1    3.13    2.35
   0 -10   1    7.26    2.38
  -1  10  -1    2.00    1.88
   1 -10   1    2.34    2.43
   1 -10   1    2.03    1.78
  -2  10  -1   51.75    4.40
   2 -10   1   53.20    4.32
   2 -10   1   53.04    4.80
  -3  10  -1    3.73    2.00
   3 -10   1    5.13    2.04
   3 -10   1    5.79    2.12
   3 -10   1    4.25    1.84
   4 -10   1    5.06    2.00
   4 -10   1    4.80    1.95
   4 -10   1    1.42    1.77
   5 -10   1   45.26    3.93
   5 -10   1   50.62    3.86
   5 -10   1   39.73    3.69
   5   9  -1    3.73    2.74
  -5  -9   1    3.23    2.47
   4   9  -1   14.39    2.66
   4   9  -1   15.61    2.61
   4   9  -1   12.03    3.81
  -4  -9   1   10.61    3.29
   3   9  -1   32.98    2.71
   3   9  -1   34.64    2.72
   3   9  -1   47.87    5.13
  -3  -9   1   43.91    4.48
   2   9  -1    5.96    2.55
  -2  -9   1    8.40    2.77
  -2  -9   1    8.77    2.60
   1   9  -1   32.19    3.91
  -1  -9   1   44.80    4.16
  -1  -9   1   31.60    4.48
   0   9  -1   30.25    3.74
   0  -9   1   30.99    4.53
   0  -9   1   38.74    3.70
  -1   9  -1   17.56    2.95
   1  -9   1   18.10    2.85
   1  -9   1   16.76    3.88
   1  -9   1   19.75    2.76
   1  -9   1   19.93    3.21
  -2   9  -1   44.72    3.74
   2  -9   1   48.80    3.97
   2  -9   1   42.00    3.83
   2  -9   1   46.76    3.73
   2  -9   1   45.70    3.94
   2  -9   1   39.62    5.18
  -3   9  -1   37.90    3.23
   3  -9   1   37.03    3.37
   3  -9   1   47.46    5.44
   3  -9   1   43.45    3.42
   3  -9   1   42.13    3.65
   3  -9   1   38.64    3.55
   4  -9   1   12.93    2.54
   4  -9   1   13.05    2.16
   4  -9   1    8.99    3.14
   4  -9   1   13.44    2.35
   4  -9   1   12.05    2.38
   5  -9   1   37.37    2.86
   5  -9   1   30.91    2.87
   5  -9   1   38.61    3.52
   5  -9   1   39.97    3.21
   6  -9   1    7.31    1.51
   6  -9   1    9.39    1.74
   6  -9   1   11.45    2.12
   6   8  -1   63.15    6.55
   6   8  -1   62.80    6.00
   5   8  -1    2.10    2.35
  -5  -8   1    2.82    2.22
   4   8  -1    5.40    2.06
   4   8  -1    8.22    2.92
   4   8  -1    3.81    1.69
  -4  -8   1    3.99    2.35
   3   8  -1  123.66    5.85
   3   8  -1  127.43    5.90
   3   8  -1  140.49    8.13
  -3  -8   1  127.21    7.08
  -3  -8   1  128.67    7.51
   2   8  -1    9.58    1.50
   2   8  -1    8.84    1.38
   2   8  -1   10.42    2.94
  -2  -8   1    6.31    2.35
  -2  -8   1    6.90    2.32
   1   8  -1    7.26    2.35
  -1  -8   1    5.96    2.34
  -1  -8   1    8.89    2.41
   0   8  -1  137.91    7.13
   0  -8   1  133.06    6.68
   0  -8   1  146.54    7.06
   0  -8   1  145.47    7.16
   0  -8   1  143.98    8.36
  -1   8  -1    9.50    2.19
   1  -8   1    9.85    2.30
   1  -8   1   16.46    3.62
   1  -8   1   10.88    2.28
   1  -8   1   12.42    2.33
   1  -8   1   12.49    2.48
  -2   8  -1    3.65    1.63
   2  -8   1    5.22    1.53
   2  -8   1    2.23    1.37
   2  -8   1    6.21    1.85
   2  -8   1    2.60    1.81
   2  -8   1    2.50    1.37
  -3   8  -1   89.41    4.57
   3  -8   1   97.04    4.89
   3  -8   1   81.53    4.55
   3  -8   1   92.06    4.81
   3  -8   1   90.42    6.81
   3  -8   1   99.46    4.72
   4  -8   1   19.73    3.56
   4  -8   1   17.62    3.79
   4  -8   1   12.29    1.70
   4  -8   1   13.06    1.91
   4  -8   1   17.30    2.22
   4  -8   1   17.89    2.13
   5  -8   1    8.08    1.33
   5  -8   1    7.81    1.66
   5  -8   1    8.11    1.44
   5  -8   1    8.79    2.70
   5  -8   1    6.70    1.60
   6  -8   1   61.83    6.21
   6  -8   1   59.72    3.26
   6  -8   1   47.06    2.53
   7   7  -1    9.02    3.12
   7   7  -1    4.50    3.11
  -7  -7   1    2.16    2.18
  -7  -7   1    8.36    2.56
   6   7  -1   86.36    6.96
   6   7  -1   77.30    5.79
   5   7  -1    6.67    2.76
   5   7  -1    9.04    2.51
  -5  -7   1    4.47    2.44
   4   7  -1   11.18    3.04
   4   7  -1   11.60    2.38
   4   7  -1   14.45    2.35
   4   7  -1   14.25    2.81
  -4  -7   1   11.52    2.72
   3   7  -1  170.83    6.99
   3   7  -1  158.05    6.84
   3   7  -1  155.04    7.24
   3   7  -1  165.09    8.53
  -3  -7   1  158.84    7.65
  -3  -7   1  150.36    7.76
   2   7  -1   12.72    2.23
   2   7  -1   13.88    1.89
   2   7  -1   12.73    1.83
   2   7  -1   15.97    3.01
  -2  -7   1   14.91    2.68
  -2  -7   1   13.28    2.70
   1   7  -1    2.28    1.72
  -1  -7   1    2.86    1.44
  -1  -7   1    2.78    1.63
  -1  -7   1    2.54    1.46
  -1  -7   1    2.19    1.53
  -1  -7   1    3.68    1.46
  -1  -7   1    6.66    1.72
   0   7  -1  190.82    8.46
   0  -7   1  198.94    9.12
   0  -7   1  202.26    9.60
   0  -7   1  207.68    8.60
   0  -7   1  201.97    8.43
   0  -7   1  205.54    8.41
   0  -7   1  188.46    8.00
  -1   7  -1   11.67    2.22
   1  -7   1    9.99    2.29
   1  -7   1    9.69    1.89
   1  -7   1   10.98    1.92
   1  -7   1   12.08    2.08
   1  -7   1    5.00    1.60
   1  -7   1    6.21    2.16
  -2   7  -1    5.25    1.49
   2  -7   1    9.04    2.52
   2  -7   1    7.75    1.61
   2  -7   1    4.70    1.31
   2  -7   1    8.47    1.64
   2  -7   1    9.03    1.67
   2  -7   1    7.05    1.92
  -3   7  -1  150.10    5.89
   3  -7   1  148.60    5.87
   3  -7   1  149.26    8.37
   3  -7   1  140.80    5.72
   3  -7   1  138.32    5.78
   3  -7   1  152.96    7.18
   3  -7   1  149.23    6.12
   4  -7   1    2.41    0.79
   4  -7   1    1.12    1.71
   4  -7   1    2.34    0.91
   4  -7   1    2.74    1.06
   4  -7   1    4.58    1.64
   4  -7   1    4.52    1.25
   5  -7   1    4.49    1.15
   5  -7   1    2.70    2.04
   6  -7   1   81.71    3.71
   6  -7   1   92.09    6.84
   7  -7   1    6.94    2.86
   8  -7   1    4.09    2.87
   8   6  -1   38.71    5.52
   8   6  -1   41.35    4.63
   7   6  -1   12.78    2.91
   7   6  -1   13.78    3.39
  -7  -6   1   16.09    2.72
  -7  -6   1   10.84    2.59
   6   6  -1   49.81    4.36
   6   6  -1   40.91    4.62
  -6  -6   1   44.36    3.67
  -6  -6   1   40.71    3.87
  -6  -6   1   39.33    4.27
   5   6  -1   79.54    5.81
   5   6  -1   70.37    4.87
  -5  -6   1   73.04    5.77
  -5  -6   1   64.23    4.80
  -5  -6   1   74.51    4.66
   4   6  -1   24.08    2.57
   4   6  -1   24.24    2.72
   4   6  -1   19.21    3.04
   4   6  -1   16.91    2.57
  -4  -6   1   22.08    2.54
  -4  -6   1   18.71    2.75
   3   6  -1   73.16    5.12
   3   6  -1   76.05    4.23
   3   6  -1   81.60    4.44
   3   6  -1   72.05    4.28
  -3  -6   1   80.41    5.31
  -3  -6   1   73.53    4.42
  -3  -6   1   76.47    4.71
  -3  -6   1   88.09    4.91
  -3  -6   1   80.49    5.05
   2   6  -1   93.09    5.39
   2   6  -1   81.22    4.36
   2   6  -1   93.17    4.23
   2   6  -1   92.49    4.28
   2   6  -1   83.11    4.89
  -2  -6   1   89.94    5.05
  -2  -6   1   82.10    4.85
  -2  -6   1   80.92    5.24
  -2  -6   1   81.67    5.11
  -2  -6   1   91.61    4.87
  -2  -6   1   85.88    4.62
  -2  -6   1   87.96    5.21
  -2  -6   1   82.80    4.88
   1   6  -1   31.25    3.00
   1   6  -1   25.91    2.20
   1   6  -1   25.10    2.55
   1   6  -1   32.75    2.73
   1   6  -1   29.46    1.89
   1   6  -1   27.91    1.87
  -1  -6   1   27.17    2.42
  -1  -6   1   30.21    3.00
  -1  -6   1   33.98    2.75
  -1  -6   1   25.61    2.62
  -1  -6   1   25.74    2.50
  -1  -6   1   32.79    2.85
  -1  -6   1   25.49    2.97
  -1  -6   1   28.90    2.74
   0   6  -1  134.84    5.12
   0   6  -1  147.90    6.48
   0  -6   1  131.32    5.83
   0  -6   1  136.37    6.73
   0  -6   1  133.56    6.15
   0  -6   1  145.58    6.17
   0  -6   1  147.83    6.25
   0  -6   1  139.04    7.05
  -1   6  -1   87.55    4.46
   1  -6   1   80.52    4.06
   1  -6   1   87.96    4.20
   1  -6   1   86.99    4.36
   1  -6   1   94.39    5.06
   1  -6   1   82.10    4.23
   1  -6   1   83.32    5.40
  -2   6  -1   34.36    2.49
  -2   6  -1   34.58    2.70
   2  -6   1   31.55    3.46
   2  -6   1   33.49    2.24
   2  -6   1   31.58    2.90
   2  -6   1   32.53    2.18
   2  -6   1   33.03    2.41
   2  -6   1   29.42    2.13
  -3   6  -1  180.96    6.38
   3  -6   1  167.87    8.68
   3  -6   1  180.01    7.51
   3  -6   1  167.13    5.76
   3  -6   1  172.07    5.90
   3  -6   1  181.42    6.60
   3  -6   1  183.41    6.34
   4  -6   1   39.13    3.06
   4  -6   1   42.11    2.29
   4  -6   1   42.86    2.50
   4  -6   1   36.16    4.06
   5  -6   1   41.39    4.37
   5  -6   1   37.38    2.26
   5  -6   1   39.45    2.97
   6  -6   1   47.73    2.46
   6  -6   1   46.23    4.72
   7  -6   1    5.62    1.07
   7  -6   1    4.34    2.24
   8  -6   1   11.22    3.19
   9   5  -1    2.90    2.11
  -9  -5   1   -2.12    3.36
   8   5  -1   75.65    5.81
   8   5  -1   78.39    6.49
   7   5  -1    4.52    2.00
   7   5  -1    2.37    2.07
  -7  -5   1    3.31    1.50
  -7  -5   1    0.83    1.14
   6   5  -1   10.93    2.47
   6   5  -1    8.75    2.71
  -6  -5   1    8.80    2.00
  -6  -5   1    8.98    2.43
  -6  -5   1   11.32    2.45
   5   5  -1  165.37    7.32
   5   5  -1  152.57    8.08
  -5  -5   1  149.92    7.74
  -5  -5   1  154.68    6.13
  -5  -5   1  157.28    7.18
  -5  -5   1  154.79    6.81
  -5  -5   1  156.05    6.95
   4   5  -1    8.04    1.99
   4   5  -1    7.85    2.06
   4   5  -1   10.01    1.90
   4   5  -1    9.21    2.06
   4   5  -1    7.73    2.28
  -4  -5   1   13.80    2.64
  -4  -5   1   10.46    2.59
  -4  -5   1   13.47    2.16
  -4  -5   1    8.16    1.36
  -4  -5   1   10.49    2.06
  -4  -5   1    9.86    2.28
  -4  -5   1   10.01    2.30
   3   5  -1   17.56    2.22
   3   5  -1   14.86    1.98
   3   5  -1   12.43    2.38
   3   5  -1   16.90    2.01
   3   5  -1   15.93    2.02
   3   5  -1   15.80    2.78
  -3  -5   1   17.61    2.29
  -3  -5   1   17.98    2.08
  -3  -5   1   15.85    2.05
  -3  -5   1   12.80    2.07
  -3  -5   1   15.13    2.08
  -3  -5   1   22.06    2.73
  -3  -5   1   19.33    2.57
  -3  -5   1   14.98    1.99
  -3  -5   1   14.98    2.09
   2   5  -1  271.56   10.76
   2   5  -1  275.36    9.90
   2   5  -1  282.13   10.44
   2   5  -1  283.12    9.77
   2   5  -1  289.76    9.84
  -2  -5   1  301.79   10.99
  -2  -5   1  261.86   10.25
  -2  -5   1  291.64   10.28
  -2  -5   1  285.73   10.08
  -2  -5   1  278.19   10.58
  -2  -5   1  309.37   10.53
  -2  -5   1  295.39   10.60
  -2  -5   1  276.33   10.91
  -2  -5   1  282.01   10.42
   1   5  -1   45.52    3.31
   1   5  -1   45.44    2.65
   1   5  -1   44.91    2.42
   1   5  -1   44.13    2.98
   1   5  -1   48.22    2.47
  -1  -5   1   46.17    2.93
  -1  -5   1   47.38    3.11
  -1  -5   1   45.06    3.13
  -1  -5   1   47.50    3.02
  -1  -5   1   42.79    3.28
  -1  -5   1   49.29    3.47
  -1  -5   1   47.23    2.82
  -1  -5   1   48.53    3.07
   0   5  -1   21.90    2.24
   0   5  -1   21.83    1.94
   0   5  -1   20.67    1.56
   0   5  -1   23.11    1.97
   0  -5   1   24.36    2.06
   0  -5   1   23.82    2.08
   0  -5   1   21.93    2.48
   0  -5   1   25.61    2.04
   0  -5   1   23.31    2.35
   0  -5   1   22.06    1.90
  -1   5  -1  260.38    9.32
  -1   5  -1  276.14    9.33
  -1   5  -1  276.75    9.42
   1  -5   1  283.08    9.10
   1  -5   1  277.15    9.00
   1  -5   1  267.24   10.70
   1  -5   1  263.19    9.04
   1  -5   1  275.71   10.04
   1  -5   1  243.28    9.09
  -2   5  -1   48.01    2.59
  -2   5  -1   43.13    2.51
   2  -5   1   42.09    2.93
   2  -5   1   42.80    3.57
   2  -5   1   40.41    2.00
   2  -5   1   47.59    2.35
   2  -5   1   38.97    2.41
   2  -5   1   44.15    2.14
  -3   5  -1   16.63    1.30
  -3   5  -1   18.32    1.49
   3  -5   1   15.81    1.44
   3  -5   1   16.24    2.49
   3  -5   1   17.84    1.93
   3  -5   1   18.23    1.51
   3  -5   1   18.17    1.33
   4  -5   1  142.92    5.95
   4  -5   1  154.51    7.72
   4  -5   1  150.29    5.20
   4  -5   1  143.21    5.22
   5  -5   1    7.25    1.36
   5  -5   1    7.94    1.14
   5  -5   1    5.91    2.10
  -6   5  -1   16.09    4.02
   6  -5   1   17.33    3.23
   6  -5   1   17.68    1.56
  -7   5  -1   26.79    4.62
   7  -5   1   32.02    2.24
   7  -5   1   31.50    3.75
  -8   5  -1   25.86    5.63
   8  -5   1   15.12    3.30
   8  -5   1   24.50    2.19
   8  -5   1   17.98    2.01
  -9   5  -1   -0.72    2.71
   9   4  -1    3.24    2.14
  -9  -4   1    0.98    3.21
   8   4  -1  111.42    7.27
   8   4  -1  105.33    6.39
  -8  -4   1  101.47    8.90
   7   4  -1    5.43    2.27
   7   4  -1    7.44    2.35
   6   4  -1    3.70    1.87
   6   4  -1    5.03    1.89
  -6  -4   1    2.18    1.49
  -6  -4   1    3.31    1.44
  -6  -4   1    3.41    1.63
  -6  -4   1    4.38    1.34
  -6  -4   1    4.55    1.27
   5   4  -1  228.65    9.07
   5   4  -1  243.70   10.15
   5   4  -1  240.56    9.90
   5   4  -1  225.48    9.52
  -5  -4   1  226.34    8.44
  -5  -4   1  206.40    8.73
  -5  -4   1  226.63    7.97
  -5  -4   1  222.31    9.47
  -5  -4   1  241.65    9.49
  -5  -4   1  227.79    9.88
  -5  -4   1  234.51    8.72
   4   4  -1   12.78    2.10
   4   4  -1   14.21    2.18
   4   4  -1   16.18    2.05
   4   4  -1   11.97    2.23
   4   4  -1   16.19    2.13
   4   4  -1   15.98    2.44
  -4  -4   1   16.14    2.03
  -4  -4   1   13.84    1.43
  -4  -4   1   14.06    2.13
  -4  -4   1   15.30    2.00
  -4  -4   1   15.17    1.83
  -4  -4   1   15.39    2.38
  -4  -4   1   13.90    2.11
   3   4  -1   18.60    2.09
   3   4  -1   15.25    1.92
   3   4  -1   14.18    1.92
   3   4  -1   18.60    1.96
   3   4  -1   15.99    2.25
   3   4  -1   17.69    2.06
  -3  -4   1   20.53    2.15
  -3  -4   1   19.97    2.01
  -3  -4   1   19.38    1.91
  -3  -4   1   18.10    2.08
  -3  -4   1   17.88    2.17
  -3  -4   1   21.27    2.31
  -3  -4   1   19.94    2.01
  -3  -4   1   17.78    1.99
   2   4  -1  361.28   11.79
   2   4  -1  372.00   11.75
   2   4  -1  349.71   11.76
   2   4  -1  370.21   12.10
   2   4  -1  356.63   12.09
   2   4  -1  342.96   12.51
   2   4  -1  368.34   12.31
  -2  -4   1  359.76   12.09
  -2  -4   1  353.27   11.97
  -2  -4   1  366.07   12.18
  -2  -4   1  355.56   10.87
  -2  -4   1  366.31   12.60
  -2  -4   1  354.94   12.61
  -2  -4   1  365.40   12.24
  -2  -4   1  373.70   12.32
  -2  -4   1  357.34   11.87
   1   4  -1    8.11    1.33
   1   4  -1   11.60    1.63
   1   4  -1    9.19    1.57
   1   4  -1   11.47    1.30
   1   4  -1   10.57    1.25
  -1  -4   1   11.15    1.96
  -1  -4   1    9.28    1.40
  -1  -4   1    8.09    1.56
  -1  -4   1    8.41    1.36
  -1  -4   1   10.19    1.38
  -1  -4   1   11.35    1.55
  -1  -4   1   10.69    1.52
  -1  -4   1   11.56    1.33
  -1  -4   1   10.84    1.62
   0   4  -1    2.89    1.08
   0   4  -1    1.87    0.74
   0   4  -1    1.12    0.64
   0   4  -1    1.17    0.67
   0  -4   1    1.61    0.75
   0  -4   1    1.82    0.76
   0  -4   1    1.01    0.64
   0  -4   1    2.69    0.82
   0  -4   1    1.62    0.84
   0  -4   1    2.27    0.77
   0  -4   1    1.71    0.92
  -1   4  -1  237.55    7.98
  -1   4  -1  228.33    7.58
  -1   4  -1  238.29    7.60
  -1   4  -1  229.64    7.95
   1  -4   1  247.43    7.59
   1  -4   1  247.23    7.67
   1  -4   1  235.33    8.47
   1  -4   1  228.02    7.57
   1  -4   1  227.95    9.09
   1  -4   1  225.42    7.82
  -2   4  -1    1.08    0.68
  -2   4  -1    0.85    0.68
   2  -4   1    1.25    0.54
   2  -4   1    1.88    0.79
   2  -4   1    1.61    0.66
   2  -4   1    2.57    1.12
   2  -4   1    1.46    0.65
   2  -4   1    3.16    0.74
  -3   4  -1    3.17    0.64
  -3   4  -1    5.62    1.55
  -3   4  -1    5.53    0.89
   3  -4   1    6.08    1.65
   3  -4   1    3.76    1.25
   3  -4   1    4.26    0.77
   3  -4   1    2.05    0.79
  -4   4  -1  133.06    6.60
  -4   4  -1  142.20    7.45
   4  -4   1  133.04    4.60
   4  -4   1  139.24    5.16
   4  -4   1  125.95    4.63
   4  -4   1  137.25    6.69
   4  -4   1  129.57    7.10
  -5   4  -1   10.90    3.04
   5  -4   1   11.74    1.34
   5  -4   1   13.58    2.54
   5  -4   1   10.72    1.24
  -6   4  -1    4.40    2.45
   6  -4   1    0.06    1.29
   6  -4   1    1.76    0.90
  -7   4  -1   97.37    7.47
   7  -4   1  110.14    6.23
   7  -4   1   93.91    4.32
  -8   4  -1    5.40    3.09
   8  -4   1    2.39    1.85
   8  -4   1    6.33    1.50
   8  -4   1    7.89    1.33
  -9   4  -1    4.04    3.21
   9  -4   1    3.22    1.20
   9  -4   1    0.53    0.78
   9  -4   1   -0.02    0.82
   9  -4   1    3.50    1.71
 -10   4  -1    8.80    4.18
  10  -4   1   16.93    2.25
  10  -4   1   18.66    2.79
  10  -4   1   10.84    2.30
  10   3  -1   32.62    4.06
 -10  -3   1   19.34    5.94
   9   3  -1   18.02    3.24
  -9  -3   1   13.60    5.19
   8   3  -1   40.26    3.92
  -8  -3   1   36.42    5.46
   7   3  -1   66.39    5.09
   7   3  -1   66.54    4.51
  -7  -3   1   77.26    6.83
   6   3  -1   11.59    2.38
   6   3  -1   12.43    2.42
   6   3  -1   13.96    2.29
   6   3  -1   12.74    2.72
   5   3  -1  107.58    5.44
   5   3  -1  119.20    6.00
   5   3  -1  118.37    5.54
   5   3  -1  110.25    5.81
   5   3  -1  110.30    5.58
   5   3  -1  103.52    5.36
  -5  -3   1  110.59    5.35
  -5  -3   1  109.55    5.79
  -5  -3   1  109.70    4.70
  -5  -3   1  106.51    5.45
  -5  -3   1  108.32    4.57
  -5  -3   1  104.09    4.96
  -5  -3   1  107.83    4.45
   4   3  -1  116.06    5.46
   4   3  -1  113.77    5.57
   4   3  -1  112.36    5.57
   4   3  -1  121.25    5.40
   4   3  -1  119.33    5.46
   4   3  -1  105.03    5.18
  -4  -3   1  110.99    5.57
  -4  -3   1  115.24    4.72
  -4  -3   1  124.10    5.43
  -4  -3   1  117.29    4.46
  -4  -3   1  114.30    5.01
  -4  -3   1  110.08    5.37
  -4  -3   1  112.35    4.88
   3   3  -1    9.33    1.79
   3   3  -1    7.59    1.52
   3   3  -1    6.27    1.34
   3   3  -1    6.77    1.41
   3   3  -1    9.55    1.52
   3   3  -1    7.93    1.10
  -3  -3   1    5.18    1.15
  -3  -3   1    7.04    0.94
  -3  -3   1    7.91    1.49
  -3  -3   1    7.99    1.44
  -3  -3   1    8.52    1.26
  -3  -3   1    8.30    1.38
  -3  -3   1    5.85    1.53
  -3  -3   1    7.37    1.43
  -3  -3   1    7.11    1.29
   2   3  -1  309.10   10.22
   2   3  -1  313.54   10.13
   2   3  -1  305.83    9.90
   2   3  -1  299.02    9.96
   2   3  -1  281.02   10.36
   2   3  -1  298.70   10.40
  -2  -3   1  309.18   10.30
  -2  -3   1  296.77    9.91
  -2  -3   1  309.01   10.20
  -2  -3   1  303.65   10.44
  -2  -3   1  304.82   10.09
  -2  -3   1  282.07   10.30
  -2  -3   1  291.70    9.93
  -2  -3   1  309.96    9.85
   1   3  -1   44.51    2.52
   1   3  -1   47.26    2.41
   1   3  -1   41.56    2.22
   1   3  -1   49.56    2.69
   1   3  -1   46.56    2.35
   1   3  -1   44.30    2.30
   1   3  -1   45.76    2.20
   1   3  -1   42.45    2.62
   1   3  -1   47.64    2.71
  -1  -3   1   43.36    2.38
  -1  -3   1   44.77    2.67
  -1  -3   1   47.00    2.45
  -1  -3   1   42.25    2.60
  -1  -3   1   42.24    2.03
  -1  -3   1   45.35    2.52
  -1  -3   1   46.08    2.30
  -1  -3   1   40.51    2.44
  -1  -3   1   44.39    2.65
  -1  -3   1   47.68    2.43
   0   3  -1   25.49    1.69
   0   3  -1   27.11    1.21
   0   3  -1   27.10    1.88
   0   3  -1   28.11    1.45
   0   3  -1   25.50    1.85
   0   3  -1   27.64    1.25
   0   3  -1   26.61    1.68
   0  -3   1   26.43    1.55
   0  -3   1   23.67    1.58
   0  -3   1   26.47    1.64
   0  -3   1   27.32    1.64
   0  -3   1   29.13    1.80
   0  -3   1   31.06    2.05
   0  -3   1   25.73    2.10
  -1   3  -1  297.63    8.97
  -1   3  -1  300.87    9.26
  -1   3  -1  296.01    9.26
  -1   3  -1  289.23    8.92
   1  -3   1  277.76   10.20
   1  -3   1  300.71    9.63
   1  -3   1  290.85    8.73
   1  -3   1  297.82    8.93
   1  -3   1  310.62    8.66
   1  -3   1  289.93    9.12
   1  -3   1  273.00    9.09
  -2   3  -1   99.07    3.53
  -2   3  -1   91.20    4.47
   2  -3   1  108.18    4.88
   2  -3   1   92.73    3.43
   2  -3   1  101.76    3.94
   2  -3   1   99.25    3.49
  -3   3  -1   67.09    3.84
  -3   3  -1   62.32    4.22
   3  -3   1   67.00    2.67
   3  -3   1   64.76    3.68
   3  -3   1   68.61    2.65
   3  -3   1   68.26    3.88
  -4   3  -1  158.79    7.80
  -4   3  -1  158.97    7.07
   4  -3   1  162.89    5.25
   4  -3   1  158.78    6.98
   4  -3   1  165.96    7.05
   4  -3   1  157.84    5.31
  -5   3  -1    1.19    1.23
  -5   3  -1    2.39    1.48
   5  -3   1    1.41    0.67
   5  -3   1    1.87    0.75
   5  -3   1    1.59    1.05
  -6   3  -1   57.32    5.11
   6  -3   1   57.96    2.91
   6  -3   1   60.02    4.12
  -7   3  -1   68.94    6.00
   7  -3   1   68.10    3.62
   7  -3   1   80.53    4.90
  -8   3  -1    0.19    2.13
   8  -3   1   -0.15    0.72
   8  -3   1    1.41    1.06
   8  -3   1    0.89    1.23
   8  -3   1    0.60    0.64
  -9   3  -1   11.86    4.16
   9  -3   1   15.28    2.51
   9  -3   1   15.46    2.36
   9  -3   1   13.48    2.08
   9  -3   1   16.16    1.93
 -10   3  -1   14.38    4.60
  10  -3   1   27.59    3.43
  10  -3   1   25.67    2.92
  10   2  -1   51.12    4.57
 -10  -2   1   31.35    6.76
   9   2  -1    2.17    1.82
  -9  -2   1   -0.02    2.74
   8   2  -1    9.46    2.35
  -8  -2   1    1.20    2.62
   7   2  -1   92.79    5.60
   7   2  -1   87.31    5.29
   7   2  -1   94.06    5.66
   7   2  -1   86.07    5.17
  -7  -2   1   89.00    7.03
   6   2  -1   13.11    2.54
   6   2  -1   11.09    1.94
   6   2  -1   14.91    1.96
   6   2  -1   13.25    2.24
   6   2  -1   13.90    2.33
  -6  -2   1   11.51    1.53
  -6  -2   1   14.83    3.50
   5   2  -1   45.05    3.36
   5   2  -1   43.36    2.96
   5   2  -1   45.79    3.04
   5   2  -1   46.16    3.26
   5   2  -1   50.92    3.23
   5   2  -1   46.24    3.14
   5   2  -1   53.41    3.52
  -5  -2   1   49.51    3.45
  -5  -2   1   51.81    3.13
  -5  -2   1   51.01    2.90
  -5  -2   1   47.68    2.49
   4   2  -1  260.55    8.92
   4   2  -1  268.77    9.23
   4   2  -1  252.21    9.27
   4   2  -1  253.48    9.19
   4   2  -1  292.08    9.71
   4   2  -1  256.46    9.50
   4   2  -1  263.09    9.21
   4   2  -1  257.32    7.98
  -4  -2   1  264.59    8.31
  -4  -2   1  259.81    9.13
  -4  -2   1  249.91    8.45
  -4  -2   1  256.59    8.24
  -4  -2   1  265.20    9.34
  -4  -2   1  264.01    8.81
  -4  -2   1  259.90    9.55
  -4  -2   1  253.11    8.60
   3   2  -1   73.23    3.56
   3   2  -1   76.88    2.95
   3   2  -1   82.07    3.44
   3   2  -1   78.22    3.79
   3   2  -1   74.47    3.79
   3   2  -1   77.04    3.56
   3   2  -1   74.49    3.64
   3   2  -1   75.01    3.64
  -3  -2   1   77.48    3.59
  -3  -2   1   81.78    3.24
  -3  -2   1   75.60    3.77
  -3  -2   1   71.71    3.33
  -3  -2   1   79.75    3.06
  -3  -2   1   78.47    3.38
  -3  -2   1   69.67    2.73
  -3  -2   1   77.08    3.36
  -3  -2   1   76.26    3.67
   2   2  -1  116.09    4.19
   2   2  -1  119.34    4.61
   2   2  -1  115.29    4.58
   2   2  -1  111.97    4.45
   2   2  -1  115.22    4.70
   2   2  -1  118.73    4.34
   2   2  -1  119.77    4.61
   2   2  -1  119.70    4.71
  -2  -2   1  115.03    4.37
  -2  -2   1  112.19    4.38
  -2  -2   1  112.26    4.69
  -2  -2   1  121.54    4.62
  -2  -2   1  118.47    4.29
  -2  -2   1  113.99    4.66
  -2  -2   1  119.78    4.58
   1   2  -1  746.14   20.77
   1   2  -1  702.88   20.81
   1   2  -1  726.45   21.06
   1   2  -1  698.48   20.94
   1   2  -1  668.85   20.55
   1   2  -1  709.95   20.76
   1   2  -1  676.68   20.92
  -1  -2   1  694.86   20.94
  -1  -2   1  706.48   20.81
  -1  -2   1  684.15   20.84
  -1  -2   1  701.77   20.64
  -1  -2   1  732.75   20.78
  -1  -2   1  734.20   20.73
  -1  -2   1  693.96   21.00
  -1  -2   1  706.54   20.59
   0   2  -1   37.13    1.54
   0   2  -1   36.71    1.86
   0   2  -1   35.00    1.74
   0   2  -1   36.76    1.75
   0   2  -1   36.57    2.13
   0   2  -1   37.73    1.90
   0   2  -1   36.34    1.45
   0   2  -1   36.15    1.95
   0   2  -1   36.41    1.50
   0   2  -1   37.64    1.58
   0  -2   1   37.71    1.82
   0  -2   1   37.85    1.85
   0  -2   1   37.25    2.09
   0  -2   1   37.49    1.61
   0  -2   1   36.17    1.67
   0  -2   1   35.28    1.69
   0  -2   1   37.38    1.69
   0  -2   1   36.95    1.97
  -1   2  -1   54.37    2.01
  -1   2  -1   57.21    2.26
  -1   2  -1   59.43    2.11
   1  -2   1   56.09    2.19
   1  -2   1   57.69    3.04
   1  -2   1   56.36    2.39
   1  -2   1   54.88    2.85
   1  -2   1   57.67    2.02
  -2   2  -1  262.59    9.36
  -2   2  -1  260.85    8.90
  -2   2  -1  263.51    7.97
   2  -2   1  248.17    8.77
   2  -2   1  263.25    7.88
   2  -2   1  263.83    8.97
  -3   2  -1  167.67    5.22
  -3   2  -1  157.80    6.47
  -3   2  -1  167.23    7.14
   3  -2   1  166.95    5.45
   3  -2   1  166.03    5.27
   3  -2   1  168.51    6.58
   3  -2   1  166.86    6.45
  -4   2  -1  157.89    7.20
  -4   2  -1  142.32    6.27
  -4   2  -1  149.29    4.83
   4  -2   1  145.55    6.37
   4  -2   1  147.39    5.04
   4  -2   1  144.49    6.07
   4  -2   1  142.60    4.97
  -5   2  -1  129.47    4.55
  -5   2  -1  125.84    6.97
  -5   2  -1  134.68    6.27
   5  -2   1  130.72    4.50
   5  -2   1  133.16    4.84
   5  -2   1  126.28    6.21
   5  -2   1  120.23    4.79
   5  -2   1  131.33    5.79
  -6   2  -1   86.17    6.09
   6  -2   1   92.10    4.09
   6  -2   1   92.72    4.75
  -7   2  -1   12.74    3.51
   7  -2   1    8.74    1.64
   7  -2   1    9.71    1.48
   7  -2   1    9.84    1.90
   7  -2   1   12.01    1.29
  -8   2  -1   11.18    3.54
   8  -2   1   16.71    2.38
   8  -2   1   14.05    1.83
   8  -2   1   13.67    2.01
   8  -2   1   12.10    2.12
  -9   2  -1   37.46    5.43
   9  -2   1   41.70    3.30
   9  -2   1   43.24    3.27
   9  -2   1   43.87    3.78
   9  -2   1   37.44    3.60
 -10   2  -1   -1.73    2.89
  10  -2   1    5.30    2.12
  10  -2   1    5.67    1.87
  10  -2   1    4.46    1.92
  10  -2   1    6.15    2.67
  10   1  -1   48.70    4.49
 -10  -1   1   64.99    7.48
   9   1  -1   -0.71    1.36
  -9  -1   1   -0.60    2.74
   8   1  -1    1.86    1.50
   8   1  -1    1.25    1.40
   8   1  -1    1.65    1.17
  -8  -1   1    2.47    2.69
   7   1  -1  208.10    8.92
   7   1  -1  210.73    8.60
   7   1  -1  204.95    8.43
   7   1  -1  220.84    8.12
   7   1  -1  198.40    8.71
  -7  -1   1  207.85    8.28
  -7  -1   1  222.06   11.38
   6   1  -1    0.08    0.94
   6   1  -1   -0.44    0.74
   6   1  -1    1.59    0.90
   6   1  -1    0.95    0.90
   6   1  -1    1.31    1.28
  -6  -1   1   -0.25    1.84
  -6  -1   1    1.52    0.96
   5   1  -1   20.46    2.07
   5   1  -1   24.48    2.27
   5   1  -1   23.10    2.16
   5   1  -1   23.77    1.94
   5   1  -1   20.13    2.02
   5   1  -1   21.41    1.87
  -5  -1   1   19.67    2.93
  -5  -1   1   21.49    1.87
  -5  -1   1   21.45    1.44
  -5  -1   1   22.99    1.83
   4   1  -1  411.89   13.32
   4   1  -1  420.98   13.24
   4   1  -1  433.55   13.43
   4   1  -1  398.78   13.39
   4   1  -1  423.09   13.13
   4   1  -1  422.82   13.10
   4   1  -1  426.45   13.55
   4   1  -1  420.58   13.27
  -4  -1   1  419.10   13.03
  -4  -1   1  412.00   15.08
  -4  -1   1  388.63   13.38
  -4  -1   1  420.42   12.63
  -4  -1   1  407.26   13.02
   3   1  -1    1.36    0.79
   3   1  -1    1.57    0.69
   3   1  -1    0.41    0.47
   3   1  -1    1.62    0.73
   3   1  -1    0.98    0.54
   3   1  -1    1.35    0.58
   3   1  -1    1.45    0.66
   3   1  -1    1.67    0.63
   3   1  -1    1.75    0.67
  -3  -1   1    0.70    0.59
  -3  -1   1    1.32    0.55
  -3  -1   1    1.29    0.47
  -3  -1   1    1.23    0.37
  -3  -1   1    2.01    0.74
  -3  -1   1    2.37    0.92
  -3  -1   1    0.44    0.49
  -3  -1   1    1.09    0.73
   2   1  -1   29.45    1.40
   2   1  -1   28.76    1.77
   2   1  -1   29.58    1.72
   2   1  -1   30.67    1.61
   2   1  -1   29.74    1.51
   2   1  -1   26.88    1.54
   2   1  -1   26.29    1.63
   2   1  -1   28.27    1.65
   2   1  -1   26.68    1.58
  -2  -1   1   30.81    1.58
  -2  -1   1   27.17    1.38
  -2  -1   1   26.55    1.46
  -2  -1   1   26.83    1.72
  -2  -1   1   27.22    1.53
  -2  -1   1   25.54    1.38
  -2  -1   1   26.29    1.58
  -2  -1   1   27.76    1.35
  -2  -1   1   26.45    1.74
  -2  -1   1   29.31    1.48
  -2  -1   1   28.37    1.70
   1   1  -1  563.72   17.07
   1   1  -1  569.82   16.99
   1   1  -1  591.74   16.99
   1   1  -1  572.44   17.12
   1   1  -1  586.36   17.03
   1   1  -1  583.31   16.92
   1   1  -1  595.06   16.88
   1   1  -1  580.99   16.86
   1   1  -1  566.61   17.07
  -1  -1   1  613.72   17.06
  -1  -1   1  594.38   16.86
  -1  -1   1  557.98   16.85
  -1  -1   1  608.04   16.98
  -1  -1   1  580.39   17.13
  -1  -1   1  592.07   17.10
  -1  -1   1  582.52   17.02
   0   1  -1   49.22    1.89
   0   1  -1   49.67    2.03
   0  -1   1   47.33    1.77
   0  -1   1   48.12    1.73
   0  -1   1   49.22    1.74
   0  -1   1   47.94    1.71
   0  -1   1   49.23    1.67
   0  -1   1   46.60    1.72
   0  -1   1   49.14    1.86
   0  -1   1   48.92    1.80
  -1   1  -1    4.48    0.77
  -1   1  -1    4.51    0.66
  -1   1  -1    3.96    0.68
  -1   1  -1    6.63    1.09
  -1   1  -1    5.18    0.51
  -1   1  -1    4.75    0.44
   1  -1   1    3.60    0.66
   1  -1   1    3.92    0.70
   1  -1   1    4.83    0.71
   1  -1   1    6.70    1.11
   1  -1   1    3.77    0.44
   1  -1   1    5.93    0.69
   1  -1   1    4.85    0.62
  -2   1  -1  991.01   27.57
  -2   1  -1  951.44   28.53
  -2   1  -1  984.30   28.99
  -2   1  -1  992.46   28.13
  -2   1  -1  990.79   27.95
  -2   1  -1  974.67   28.66
   2  -1   1  943.71   28.62
   2  -1   1 1000.00   29.08
   2  -1   1  972.74   28.41
   2  -1   1  966.04   27.83
   2  -1   1  975.93   28.03
  -3   1  -1   69.34    3.32
  -3   1  -1   65.97    3.41
  -3   1  -1   69.68    3.88
  -3   1  -1   64.84    2.71
  -3   1  -1   65.25    2.86
   3  -1   1   67.77    2.70
   3  -1   1   69.44    2.46
   3  -1   1   66.43    3.07
   3  -1   1   70.99    3.47
   3  -1   1   65.06    2.77
  -4   1  -1   31.49    2.98
  -4   1  -1   25.85    1.22
  -4   1  -1   26.62    1.89
  -4   1  -1   26.38    1.75
  -4   1  -1   23.49    2.14
   4  -1   1   29.36    1.85
   4  -1   1   24.54    1.64
   4  -1   1   28.87    1.78
   4  -1   1   28.88    2.00
   4  -1   1   29.22    2.37
  -5   1  -1  169.36    6.10
  -5   1  -1  173.39    8.19
  -5   1  -1  173.37    6.32
   5  -1   1  159.24    7.09
   5  -1   1  166.54    6.03
   5  -1   1  155.53    5.38
   5  -1   1  158.55    6.06
   5  -1   1  171.95    6.21
   5  -1   1  158.04    5.64
   5  -1   1  167.06    6.26
  -6   1  -1   12.62    1.73
  -6   1  -1    8.80    2.90
   6  -1   1   12.64    1.85
   6  -1   1   14.14    1.72
   6  -1   1   10.73    1.74
   6  -1   1   11.69    1.32
   6  -1   1   14.31    1.74
  -7   1  -1   -1.21    1.60
  -7   1  -1    0.22    0.97
   7  -1   1    1.23    0.87
   7  -1   1    0.17    0.91
   7  -1   1   -0.13    0.92
   7  -1   1    0.49    0.82
  -8   1  -1   55.67    5.73
   8  -1   1   54.93    3.52
   8  -1   1   50.32    3.53
   8  -1   1   47.14    3.90
   8  -1   1   57.43    3.89
  -9   1  -1   25.87    5.52
   9  -1   1   31.31    3.50
   9  -1   1   28.09    3.13
   9  -1   1   27.20    3.42
   9  -1   1   29.06    2.99
 -10   1  -1    5.56    3.86
  10  -1   1    4.00    2.06
  10  -1   1    2.75    1.73
  10   0  -1   27.36    3.41
  10   0  -1   25.80    3.81
 -10   0   1   22.81    5.98
   9   0  -1   47.40    3.75
   9   0  -1   37.02    3.80
   9   0  -1   40.65    3.82
  -9   0   1   35.72    5.56
   8   0  -1   22.37    2.43
   8   0  -1   24.43    2.82
   8   0  -1   27.31    2.87
  -8   0   1   26.83    5.31
   7   0  -1  124.66    5.01
   7   0  -1  120.03    4.86
   7   0  -1  112.68    5.51
   7   0  -1  105.86    5.08
   7   0  -1  117.15    5.51
  -7   0   1  123.25    8.04
  -7   0   1  120.30    5.95
   6   0  -1   84.62    4.71
   6   0  -1   87.78    3.88
   6   0  -1   81.15    3.79
   6   0  -1   78.42    4.03
   6   0  -1   92.79    4.38
   6   0  -1   76.36    4.05
  -6   0   1   87.69    4.61
  -6   0   1   79.77    5.97
  -6   0   1   84.20    4.35
   5   0  -1   27.07    2.18
   5   0  -1   30.80    1.84
   5   0  -1   33.47    2.15
   5   0  -1   35.66    2.12
   5   0  -1   31.83    2.18
   5   0  -1   30.30    2.49
   5   0  -1   31.17    2.06
  -5   0   1   33.90    2.33
  -5   0   1   31.16    2.44
  -5   0   1   30.46    3.45
   4   0  -1  344.68   10.54
   4   0  -1  338.70   10.50
   4   0  -1  354.07   10.82
   4   0  -1  346.12   11.35
   4   0  -1  327.88   10.83
   4   0  -1  328.25   10.75
  -4   0   1  354.22   11.35
  -4   0   1  332.85   12.68
  -4   0   1  335.64   10.84
  -4   0   1  342.18   10.38
   3   0  -1   56.91    2.23
   3   0  -1   55.10    2.00
   3   0  -1   50.69    2.33
   3   0  -1   51.56    2.14
   3   0  -1   57.35    2.48
   3   0  -1   51.26    2.62
   3   0  -1   58.39    2.51
  -3   0   1   55.39    2.45
  -3   0   1   53.97    2.19
  -3   0   1   48.69    3.36
  -3   0   1   54.21    2.70
   2   0  -1  176.72    6.01
   2   0  -1  181.84    5.67
   2   0  -1  182.74    5.47
   2   0  -1  179.47    5.77
   2   0  -1  191.73    5.50
  -2   0   1  176.41    5.71
  -2   0   1  184.11    6.78
  -2   0   1  179.97    6.01
   0   0  -1   -0.11    0.09
   0   0  -1   -0.14    0.09
   0   0  -1    0.04    0.09
   0   0  -1   -0.08    0.05
   0   0  -1   -0.17    0.12
   0   0   1   -0.05    0.10
   0   0   1   -0.03    0.08
   0   0   1   -0.02    0.13
  -1   0  -1  298.29    8.76
  -1   0  -1  306.50    8.83
  -1   0  -1  297.30    9.00
  -1   0  -1  302.67    9.27
  -1   0  -1  304.73    8.88
  -1   0  -1  299.96    9.04
  -1   0  -1  315.75    9.23
   1   0   1  307.46    8.96
   1   0   1  309.49    9.16
   1   0   1  311.47    9.08
   1   0   1  306.26    8.93
   1   0   1  297.58    9.25
   1   0   1  307.46    8.94
   1   0   1  309.22    9.18
   1   0   1  294.21    9.07
   1   0   1  310.97    9.09
  -2   0  -1  252.35    7.91
  -2   0  -1  247.97    7.64
  -2   0  -1  244.70    7.49
  -2   0  -1  238.30    7.30
  -2   0  -1  246.41    7.85
  -2   0  -1  249.98    8.08
  -2   0  -1  248.05    8.40
   2   0   1  252.45    8.11
   2   0   1  242.64    7.36
   2   0   1  235.24    7.44
   2   0   1  244.98    7.67
   2   0   1  242.25    7.70
   2   0   1  239.70    7.32
   2   0   1  249.16    7.78
   2   0   1  249.77    7.48
   2   0   1  253.39    7.72
   2   0   1  245.60    7.83
  -3   0  -1   38.29    2.83
  -3   0  -1   36.05    1.85
  -3   0  -1   32.57    2.06
  -3   0  -1   33.49    2.11
  -3   0  -1   30.16    2.13
   3   0   1   35.23    1.98
   3   0   1   36.67    1.99
   3   0   1   31.19    1.57
   3   0   1   33.04    1.93
   3   0   1   34.98    2.06
   3   0   1   31.20    2.18
   3   0   1   35.30    1.71
   3   0   1   34.79    1.57
   3   0   1   32.51    1.70
  -4   0  -1   44.69    3.52
  -4   0  -1   40.69    2.59
  -4   0  -1   41.09    2.18
  -4   0  -1   36.91    2.43
  -4   0  -1   38.12    2.71
   4   0   1   41.02    2.42
   4   0   1   41.39    2.37
   4   0   1   43.50    2.84
   4   0   1   41.17    2.15
   4   0   1   45.42    2.58
   4   0   1   42.53    1.97
   4   0   1   46.74    2.56
  -5   0  -1  117.75    5.63
  -5   0  -1  124.77    5.65
  -5   0  -1  119.17    6.57
  -5   0  -1  121.98    5.14
   5   0   1  115.91    5.00
   5   0   1  107.95    5.47
   5   0   1  114.76    4.21
   5   0   1  114.38    5.14
   5   0   1  120.35    5.21
   5   0   1  114.10    4.68
  -6   0  -1    3.18    1.34
  -6   0  -1    2.93    2.00
   6   0   1    4.35    1.41
   6   0   1    3.33    1.21
   6   0   1    4.17    1.15
   6   0   1    3.02    1.33
   6   0   1    2.48    0.70
  -7   0  -1   45.15    4.76
  -7   0  -1   45.21    3.37
   7   0   1   40.29    3.32
   7   0   1   42.08    3.51
   7   0   1   45.16    3.12
   7   0   1   40.22    3.08
  -8   0  -1   58.51    5.86
   8   0   1   52.09    3.90
   8   0   1   50.21    4.02
   8   0   1   45.51    4.10
   8   0   1   55.25    3.75
  -9   0  -1    1.37    2.85
   9   0   1    2.77    2.26
   9   0   1    2.01    1.59
   9   0   1   -0.61    1.67
 -10   0  -1    3.41    3.11
  10   0   1   11.21    2.76
  10  -1  -1    2.25    1.75
  10  -1  -1    2.69    1.82
  10  -1  -1    2.96    1.95
  10  -1  -1    2.94    1.63
 -10   1   1    1.34    2.73
   9  -1  -1   82.88    4.89
   9  -1  -1   80.53    4.55
   9  -1  -1   78.47    4.91
  -9   1   1   63.92    6.87
   8  -1  -1   16.43    1.99
   8  -1  -1   15.17    2.25
   8  -1  -1   12.45    2.05
  -8   1   1   10.27    3.47
  -8   1   1   21.67    3.11
   7  -1  -1   32.39    2.38
   7  -1  -1   33.79    2.57
   7  -1  -1   31.65    2.61
   7  -1  -1   32.71    2.16
   7  -1  -1   30.37    2.06
  -7   1   1   30.25    4.35
  -7   1   1   25.41    2.93
   6  -1  -1  166.24    5.82
   6  -1  -1  155.24    5.44
   6  -1  -1  163.47    7.31
   6  -1  -1  158.36    5.83
   6  -1  -1  155.13    6.02
   6  -1  -1  163.26    6.11
  -6   1   1  161.38    8.66
  -6   1   1  161.95    7.27
   5  -1  -1   28.08    1.90
   5  -1  -1   34.68    1.84
   5  -1  -1   35.63    2.09
   5  -1  -1   35.72    2.78
  -5   1   1   40.18    3.75
  -5   1   1   33.50    2.75
   4  -1  -1   65.89    2.68
   4  -1  -1   58.26    3.35
   4  -1  -1   62.73    2.58
  -4   1   1   72.76    4.50
  -4   1   1   63.78    3.54
   3  -1  -1  400.45   11.53
   3  -1  -1  388.25   11.39
  -3   1   1  394.24   13.53
  -3   1   1  381.19   12.65
   2  -1  -1   33.33    2.47
   2  -1  -1   28.69    1.09
  -2   1   1   29.09    1.88
  -2   1   1   34.10    2.35
   1  -1  -1  138.66    3.92
   1  -1  -1  131.08    4.76
   1  -1  -1  128.26    4.02
   1  -1  -1  131.54    4.03
  -1   1   1  135.29    4.60
  -1   1   1  134.76    4.82
  -1   1   1  130.97    3.97
   0  -1  -1  275.02    8.21
   0  -1  -1  272.95    8.15
   0  -1  -1  289.49    8.08
   0  -1  -1  258.72    8.14
   0  -1  -1  273.64    8.01
   0  -1  -1  300.93    8.23
   0  -1  -1  275.20    8.10
   0  -1  -1  287.92    8.07
   0  -1  -1  257.78    7.97
   0  -1  -1  256.82    8.04
   0   1   1  270.18    8.00
   0   1   1  264.50    8.07
   0   1   1  262.29    7.92
   0   1   1  262.39    8.02
   0   1   1  259.09    8.19
  -1  -1  -1  180.53    6.25
  -1  -1  -1  188.73    6.17
  -1  -1  -1  189.43    6.25
  -1  -1  -1  188.37    6.08
  -1  -1  -1  190.32    6.26
  -1  -1  -1  203.96    6.15
   1   1   1  184.28    6.25
   1   1   1  199.05    6.01
   1   1   1  187.79    6.25
   1   1   1  194.65    6.16
   1   1   1  182.64    6.00
  -2  -1  -1   16.47    1.53
  -2  -1  -1   17.26    1.27
  -2  -1  -1   16.61    1.44
  -2  -1  -1   13.88    1.33
  -2  -1  -1   16.09    1.19
  -2  -1  -1   15.86    1.13
  -2  -1  -1   17.96    1.43
  -2  -1  -1   16.23    1.39
   2   1   1   17.97    1.31
   2   1   1   15.42    1.27
   2   1   1   16.33    1.45
   2   1   1   15.64    1.38
   2   1   1   16.45    1.48
   2   1   1   15.07    0.93
   2   1   1   18.28    1.58
  -3  -1  -1   55.78    2.87
  -3  -1  -1   52.22    2.55
  -3  -1  -1   51.42    2.59
  -3  -1  -1   54.54    2.39
  -3  -1  -1   53.37    2.17
  -3  -1  -1   55.58    3.00
  -3  -1  -1   52.87    2.71
   3   1   1   56.99    2.86
   3   1   1   54.87    2.93
   3   1   1   51.98    2.32
   3   1   1   54.17    2.80
   3   1   1   51.21    2.89
   3   1   1   50.21    2.56
   3   1   1   53.00    2.67
  -4  -1  -1  110.33    5.76
  -4  -1  -1  106.08    4.23
  -4  -1  -1  101.20    4.15
  -4  -1  -1  100.98    4.36
  -4  -1  -1  104.51    4.71
  -4  -1  -1  103.26    4.72
   4   1   1   98.38    4.43
   4   1   1   98.08    4.69
   4   1   1  105.90    4.79
   4   1   1  100.24    4.17
   4   1   1  102.06    4.56
   4   1   1   98.89    4.37
  -5  -1  -1   44.86    3.20
  -5  -1  -1   53.98    3.33
  -5  -1  -1   44.47    2.80
  -5  -1  -1   43.30    3.90
   5   1   1   46.60    3.26
   5   1   1   47.16    3.11
   5   1   1   45.69    2.92
   5   1   1   47.36    3.25
   5   1   1   49.90    2.94
  -6  -1  -1   21.29    2.48
  -6  -1  -1   21.04    3.43
  -6  -1  -1   19.49    2.48
   6   1   1   21.33    2.32
   6   1   1   22.06    2.66
   6   1   1   21.54    2.59
   6   1   1   22.12    2.50
   6   1   1   19.74    2.25
  -7  -1  -1   54.75    4.07
  -7  -1  -1   60.01    5.59
   7   1   1   68.22    4.37
   7   1   1   62.03    4.54
   7   1   1   62.83    4.46
   7   1   1   58.95    3.83
   7   1   1   55.49    3.91
  -8  -1  -1   10.34    2.56
  -8  -1  -1    2.51    2.42
   8   1   1    6.63    2.20
   8   1   1   10.24    2.56
   8   1   1    8.56    2.02
  -9  -1  -1    1.55    2.67
   9   1   1   -0.33    1.39
 -10  -1  -1   22.03    5.85
  10   1   1   23.42    3.52
  10  -2  -1    1.73    1.28
  10  -2  -1    0.73    1.59
  10  -2  -1   -0.12    1.31
 -10   2   1   -1.31    2.26
   9  -2  -1   89.57    4.80
   9  -2  -1   82.22    4.24
   9  -2  -1   84.06    4.70
  -9   2   1   82.14    7.60
   8  -2  -1   -0.50    0.73
   8  -2  -1    0.50    0.74
   8  -2  -1   -0.27    0.88
  -8   2   1   -0.98    1.38
  -8   2   1   -0.38    1.87
   7  -2  -1    0.15    0.78
   7  -2  -1    0.35    1.01
  -7   2   1    1.94    1.95
  -7   2   1    0.56    1.33
   6  -2  -1  149.48    5.57
  -6   2   1  170.35    7.66
  -6   2   1  163.09    8.70
   5  -2  -1    1.81    1.09
   5  -2  -1    0.81    0.46
   5  -2  -1    1.00    0.52
  -5   2   1    0.97    1.41
  -5   2   1    1.13    1.06
   4  -2  -1    0.32    0.31
  -4   2   1    0.86    1.29
  -4   2   1    0.58    0.80
  -3   2   1  344.27   11.72
  -3   2   1  344.15   12.44
  -2   2   1   28.76    2.31
  -2   2   1   20.40    1.84
   1  -2  -1    6.54    0.74
   1  -2  -1    5.58    0.73
   1  -2  -1    5.27    0.44
   1  -2  -1    6.52    1.43
   1  -2  -1    6.51    0.53
  -1   2   1    6.86    0.76
  -1   2   1    5.95    1.01
  -1   2   1    5.36    0.68
  -1   2   1    5.14    0.74
   0  -2  -1  412.06   12.51
   0  -2  -1  406.48   12.78
   0  -2  -1  438.79   12.54
   0  -2  -1  422.33   12.63
   0  -2  -1  398.61   12.46
   0  -2  -1  455.99   12.78
   0  -2  -1  437.98   12.77
   0  -2  -1  415.30   12.53
   0  -2  -1  408.59   12.61
   0   2   1  404.27   12.33
   0   2   1  437.78   12.89
   0   2   1  411.53   12.47
   0   2   1  414.89   12.69
   0   2   1  421.58   12.66
   0   2   1  432.31   12.40
   0   2   1  411.71   12.81
   0   2   1  414.51   12.24
   0   2   1  460.99   12.61
  -1  -2  -1    5.18    0.96
  -1  -2  -1    3.22    0.74
  -1  -2  -1    4.10    0.95
  -1  -2  -1    4.44    0.92
  -1  -2  -1    4.32    0.92
  -1  -2  -1    4.30    0.82
   1   2   1    3.55    0.87
   1   2   1    3.84    0.88
   1   2   1    5.63    0.91
   1   2   1    4.74    1.04
   1   2   1    4.06    0.52
   1   2   1    4.34    0.79
   1   2   1    3.82    0.83
   1   2   1    5.38    0.96
  -2  -2  -1   14.27    1.35
  -2  -2  -1   14.51    1.46
  -2  -2  -1   12.62    1.46
  -2  -2  -1   13.49    1.26
  -2  -2  -1   14.57    1.63
  -2  -2  -1   13.09    1.40
  -2  -2  -1   13.59    1.40
  -2  -2  -1   12.73    1.03
  -2  -2  -1   14.96    1.55
   2   2   1   14.46    1.58
   2   2   1   16.33    1.37
   2   2   1   14.40    1.48
   2   2   1   14.33    1.41
   2   2   1   17.31    1.74
   2   2   1   13.64    1.47
  -3  -2  -1  109.38    4.55
  -3  -2  -1  106.26    4.15
  -3  -2  -1  101.95    4.30
  -3  -2  -1  105.00    4.44
  -3  -2  -1  106.88    4.86
  -3  -2  -1  102.33    4.36
  -3  -2  -1  112.60    4.69
   3   2   1  106.17    4.68
   3   2   1  103.20    4.37
   3   2   1  109.93    4.92
   3   2   1  110.27    4.92
   3   2   1  106.72    4.59
   3   2   1  113.33    4.74
   3   2   1   95.35    3.25
  -4  -2  -1  130.60    5.49
  -4  -2  -1  123.80    5.18
  -4  -2  -1  131.81    5.44
  -4  -2  -1  122.72    5.29
  -4  -2  -1  122.76    4.96
  -4  -2  -1  124.99    5.80
  -4  -2  -1  128.32    4.72
   4   2   1  126.84    5.82
   4   2   1  125.43    5.25
   4   2   1  121.11    5.52
   4   2   1  123.11    5.43
   4   2   1  118.16    4.25
   4   2   1  135.46    5.67
   4   2   1  130.49    5.90
  -5  -2  -1    0.88    0.77
  -5  -2  -1    1.99    0.51
  -5  -2  -1    1.63    0.62
  -5  -2  -1    1.27    0.90
  -5  -2  -1    0.65    1.00
  -5  -2  -1    1.92    1.08
  -5  -2  -1    1.25    1.01
   5   2   1    0.66    0.89
   5   2   1    1.83    0.92
   5   2   1    1.03    1.01
   5   2   1    0.69    1.18
   5   2   1    2.01    1.21
   5   2   1    1.61    1.33
  -6  -2  -1   78.21    4.38
  -6  -2  -1   66.71    5.63
  -6  -2  -1   67.09    4.57
   6   2   1   68.47    4.28
   6   2   1   68.60    4.12
   6   2   1   75.21    4.90
   6   2   1   61.96    4.28
   6   2   1   65.07    4.57
  -7  -2  -1   57.75    4.18
  -7  -2  -1   45.30    4.03
  -7  -2  -1   49.40    5.26
   7   2   1   48.65    4.25
   7   2   1   47.32    4.31
   7   2   1   47.83    4.05
   7   2   1   45.29    3.65
  -8  -2  -1    0.10    1.51
  -8  -2  -1   -0.55    2.32
   8   2   1   -1.08    1.23
  -9  -2  -1   10.43    4.03
   9   2   1   22.99    3.28
 -10  -2  -1   32.98    6.76
  10   2   1   29.42    3.85
  10  -3  -1    3.90    1.65
  10  -3  -1    4.10    1.39
 -10   3   1    4.19    3.40
   9  -3  -1   39.95    2.34
   9  -3  -1   37.20    2.65
   9  -3  -1   43.02    3.08
  -9   3   1   37.54    5.62
   8  -3  -1   15.87    1.91
   8  -3  -1   11.28    2.56
  -8   3   1   19.40    3.67
  -8   3   1   12.17    3.74
   7  -3  -1    7.44    1.94
   7  -3  -1   15.81    1.54
  -7   3   1    9.43    2.57
  -7   3   1   14.54    3.91
   6  -3  -1  108.43    3.90
  -6   3   1  114.35    6.34
  -6   3   1  109.31    7.19
  -5   3   1   17.61    2.91
  -5   3   1   18.53    2.44
  -4   3   1   41.60    3.66
  -4   3   1   41.57    3.22
  -3   3   1  237.98    9.13
  -3   3   1  244.98    9.89
   2  -3  -1    1.91    0.59
   2  -3  -1    2.33    0.54
  -2   3   1    5.25    1.56
  -2   3   1    1.18    0.96
  -2   3   1    2.48    0.56
   1  -3  -1   39.58    1.61
   1  -3  -1   47.40    1.96
   1  -3  -1   42.74    2.11
   1  -3  -1   43.70    2.18
   1  -3  -1   46.20    1.89
   1  -3  -1   45.40    1.79
  -1   3   1   39.97    2.50
  -1   3   1   41.39    1.96
  -1   3   1   44.77    2.20
  -1   3   1   41.33    2.14
   0  -3  -1  220.57    7.72
   0  -3  -1  224.30    7.58
   0  -3  -1  234.74    7.63
   0  -3  -1  233.41    7.44
   0  -3  -1  227.15    7.35
   0  -3  -1  223.58    7.66
   0  -3  -1  222.87    7.36
   0   3   1  221.46    7.74
   0   3   1  211.16    7.48
   0   3   1  223.67    7.58
   0   3   1  232.99    7.28
   0   3   1  230.14    6.80
   0   3   1  239.60    7.90
   0   3   1  234.41    6.93
  -1  -3  -1    0.88    0.70
  -1  -3  -1    0.95    0.69
  -1  -3  -1    2.19    0.86
  -1  -3  -1    2.70    0.81
  -1  -3  -1    1.86    0.82
  -1  -3  -1    1.44    0.75
  -1  -3  -1    1.53    0.54
  -1  -3  -1    0.67    0.75
   1   3   1    2.93    0.82
   1   3   1    2.65    0.77
   1   3   1    1.83    0.76
   1   3   1    2.64    0.87
   1   3   1    2.26    0.79
   1   3   1    2.63    0.98
   1   3   1   -0.03    0.59
   1   3   1    1.75    0.57
  -2  -3  -1   52.84    3.09
  -2  -3  -1   52.34    3.22
  -2  -3  -1   48.99    2.86
  -2  -3  -1   50.33    2.63
  -2  -3  -1   56.15    2.86
  -2  -3  -1   47.81    3.03
  -2  -3  -1   55.79    3.03
  -2  -3  -1   52.90    3.06
   2   3   1   47.26    2.92
   2   3   1   57.07    2.84
   2   3   1   56.59    3.02
   2   3   1   52.64    3.28
   2   3   1   52.71    2.96
   2   3   1   49.36    2.75
   2   3   1   56.38    3.18
  -3  -3  -1  298.65   10.30
  -3  -3  -1  296.46   10.22
  -3  -3  -1  293.00   10.16
  -3  -3  -1  300.53   10.88
  -3  -3  -1  314.13   10.62
  -3  -3  -1  296.82   10.04
  -3  -3  -1  287.61   10.48
  -3  -3  -1  280.06    9.31
  -3  -3  -1  313.08   10.64
   3   3   1  296.44   10.89
   3   3   1  298.01   10.79
   3   3   1  295.80   10.43
   3   3   1  305.20   10.61
   3   3   1  300.32   10.11
   3   3   1  295.27   10.47
   3   3   1  289.49   10.17
  -4  -3  -1    0.39    0.81
  -4  -3  -1    0.31    0.91
  -4  -3  -1    0.13    0.70
  -4  -3  -1    0.12    0.66
  -4  -3  -1   -0.21    1.00
  -4  -3  -1    1.43    1.12
  -4  -3  -1   -0.88    0.80
   4   3   1   -1.45    0.74
   4   3   1    1.15    0.87
   4   3   1    0.20    0.68
   4   3   1    0.31    0.68
   4   3   1   -0.08    0.81
   4   3   1    0.45    0.87
   4   3   1    1.23    1.13
  -5  -3  -1   73.91    4.03
  -5  -3  -1   71.18    4.23
  -5  -3  -1   59.14    3.84
  -5  -3  -1   67.87    4.55
  -5  -3  -1   65.00    4.13
  -5  -3  -1   68.62    3.42
  -5  -3  -1   71.45    3.80
   5   3   1   72.76    4.66
   5   3   1   73.68    4.49
   5   3   1   76.81    4.53
   5   3   1   71.37    4.13
   5   3   1   62.19    4.14
   5   3   1   69.42    4.64
  -6  -3  -1   53.48    2.35
  -6  -3  -1   50.76    3.73
  -6  -3  -1   52.78    3.69
  -6  -3  -1   45.63    4.17
  -6  -3  -1   49.05    2.43
   6   3   1   52.25    4.38
   6   3   1   59.44    4.01
   6   3   1   63.46    4.58
   6   3   1   52.24    4.10
  -7  -3  -1   13.16    3.04
  -7  -3  -1   12.90    2.40
  -7  -3  -1   20.04    4.69
   7   3   1    9.50    2.85
   7   3   1    9.73    2.38
  -8  -3  -1   20.26    3.77
  -8  -3  -1   12.24    4.09
   8   3   1   17.11    3.17
  -9  -3  -1   19.97    5.35
   9   3   1   23.93    3.62
  10  -4  -1    2.17    1.05
  10  -4  -1    2.57    1.23
 -10   4   1    3.51    3.66
   9  -4  -1   19.33    2.59
  -9   4   1   19.68    4.88
   8  -4  -1   53.88    2.84
   8  -4  -1   56.25    4.87
  -8   4   1   46.91    5.73
  -8   4   1   63.58    5.42
   7  -4  -1   16.18    1.40
   7  -4  -1   13.51    2.71
  -7   4   1   23.70    3.38
  -7   4   1   14.88    3.89
   6  -4  -1   51.73    4.18
  -6   4   1   48.39    4.26
  -6   4   1   49.09    5.20
  -5   4   1   61.08    5.24
  -5   4   1   69.29    4.77
  -4   4   1   84.47    5.66
  -4   4   1   76.47    4.84
   3  -4  -1   72.51    2.79
  -3   4   1   76.78    4.46
   2  -4  -1   98.17    3.34
   2  -4  -1   95.08    3.40
   2  -4  -1   96.73    3.75
   2  -4  -1   92.36    3.70
  -2   4   1   99.54    3.76
  -2   4   1   89.81    4.71
  -2   4   1   98.10    3.72
   1  -4  -1  116.30    4.57
   1  -4  -1  114.42    4.26
   1  -4  -1  116.58    4.27
   1  -4  -1  121.46    4.45
   1  -4  -1  118.43    4.65
   1  -4  -1  118.84    4.30
  -1   4   1  104.85    4.56
  -1   4   1  110.84    4.27
  -1   4   1  118.14    4.25
  -1   4   1  113.41    4.64
  -1   4   1  112.85    5.03
   0  -4  -1   50.19    2.86
   0  -4  -1   52.78    3.04
   0  -4  -1   56.82    2.70
   0  -4  -1   54.84    2.75
   0  -4  -1   51.31    2.71
   0  -4  -1   55.66    2.99
   0  -4  -1   56.79    2.93
   0   4   1   49.04    2.77
   0   4   1   51.22    2.99
   0   4   1   53.17    2.48
   0   4   1   49.19    2.77
  -1  -4  -1   66.87    3.81
  -1  -4  -1   65.61    3.42
  -1  -4  -1   61.27    3.56
  -1  -4  -1   66.77    3.43
  -1  -4  -1   59.10    3.22
  -1  -4  -1   65.47    3.58
  -1  -4  -1   60.52    2.80
  -1  -4  -1   61.71    3.47
  -1  -4  -1   63.02    3.59
   1   4   1   63.74    3.11
   1   4   1   66.64    3.47
   1   4   1   63.76    2.98
   1   4   1   64.52    2.99
   1   4   1   62.76    3.58
   1   4   1   61.05    2.76
  -2  -4  -1  212.78    8.34
  -2  -4  -1  203.16    7.73
  -2  -4  -1  198.57    8.17
  -2  -4  -1  207.36    7.68
  -2  -4  -1  214.11    8.07
  -2  -4  -1  207.91    7.96
  -2  -4  -1  200.98    7.65
   2   4   1  197.00    7.80
   2   4   1  212.61    8.33
   2   4   1  212.31    7.48
   2   4   1  196.44    7.54
   2   4   1  214.08    7.74
   2   4   1  200.34    7.90
  -3  -4  -1   40.18    3.20
  -3  -4  -1   43.61    3.21
  -3  -4  -1   41.53    3.02
  -3  -4  -1   46.43    3.27
  -3  -4  -1   45.59    3.12
  -3  -4  -1   47.36    3.20
  -3  -4  -1   43.07    3.45
  -3  -4  -1   46.45    2.68
  -3  -4  -1   47.98    2.99
   3   4   1   43.78    3.12
   3   4   1   48.31    3.41
   3   4   1   44.05    3.22
   3   4   1   46.00    3.51
   3   4   1   42.78    2.88
   3   4   1   45.91    3.22
   3   4   1   44.95    2.98
  -4  -4  -1   22.85    2.47
  -4  -4  -1   20.00    2.44
  -4  -4  -1   16.94    2.65
  -4  -4  -1   19.50    2.54
  -4  -4  -1   21.89    2.27
  -4  -4  -1   23.09    2.56
   4   4   1   22.45    2.63
   4   4   1   24.18    2.56
   4   4   1   21.78    2.65
   4   4   1   20.88    2.63
   4   4   1   19.20    2.71
   4   4   1   17.56    2.25
  -5  -4  -1   65.95    4.12
  -5  -4  -1   73.58    4.68
  -5  -4  -1   72.66    3.98
  -5  -4  -1   65.35    4.92
  -5  -4  -1   72.82    4.14
  -5  -4  -1   73.98    4.43
   5   4   1   67.19    4.38
   5   4   1   73.69    5.05
   5   4   1   75.38    5.10
  -6  -4  -1   37.19    3.94
  -6  -4  -1   38.72    3.28
  -6  -4  -1   41.82    3.80
  -6  -4  -1   40.79    2.86
  -6  -4  -1   49.26    3.57
   6   4   1   43.05    4.36
   6   4   1   50.92    3.98
  -7  -4  -1    2.33    1.88
   7   4   1    3.00    2.10
   7   4   1    0.64    1.62
  -8  -4  -1   55.97    6.62
  -8  -4  -1   45.41    5.02
   8   4   1   48.09    5.46
   8   4   1   59.10    4.88
  -9  -4  -1    5.58    3.83
   9   4   1    6.59    2.78
  -9   5   1   -2.45    2.32
   8  -5  -1   88.18    6.37
  -8   5   1   82.91    7.84
  -8   5   1   85.44    6.76
   7  -5  -1    9.23    2.53
  -7   5   1   10.97    3.10
  -7   5   1    9.01    3.49
   6  -5  -1   -0.33    1.25
  -6   5   1    0.68    2.05
  -6   5   1   -0.27    1.27
   5  -5  -1  182.79    8.98
  -5   5   1  185.33    8.97
  -5   5   1  173.45    9.77
   4  -5  -1    9.95    1.06
  -4   5   1   11.86    2.43
   3  -5  -1    1.13    0.48
   3  -5  -1    1.32    0.59
   3  -5  -1    0.95    0.49
  -3   5   1    0.63    0.55
  -3   5   1    1.47    0.69
  -3   5   1    1.04    1.27
   2  -5  -1  140.48    4.85
   2  -5  -1  145.36    5.49
   2  -5  -1  146.99    5.13
   2  -5  -1  146.95    5.19
   2  -5  -1  140.14    5.08
  -2   5   1  132.60    6.45
  -2   5   1  148.93    5.56
  -2   5   1  144.94    5.44
   1  -5  -1   73.84    3.78
   1  -5  -1   79.02    3.91
   1  -5  -1   75.06    3.59
   1  -5  -1   76.69    4.87
   1  -5  -1   77.66    3.57
   1  -5  -1   82.64    3.80
  -1   5   1   79.37    3.92
  -1   5   1   92.95    4.61
  -1   5   1   79.03    4.27
   0  -5  -1   -0.16    0.69
   0  -5  -1    0.64    0.90
   0  -5  -1   -0.36    0.67
   0  -5  -1    1.08    0.73
   0  -5  -1    0.57    0.62
   0  -5  -1   -1.59    0.52
   0  -5  -1    0.95    0.84
   0  -5  -1   -0.58    0.57
   0   5   1   -0.23    0.85
   0   5   1   -0.49    0.62
   0   5   1    0.80    0.71
   0   5   1    0.64    0.71
  -1  -5  -1  193.44    7.66
  -1  -5  -1  195.22    7.90
  -1  -5  -1  184.23    7.33
  -1  -5  -1  186.16    7.94
  -1  -5  -1  191.82    7.65
  -1  -5  -1  198.21    7.53
  -1  -5  -1  180.26    8.03
  -1  -5  -1  188.16    7.77
   1   5   1  184.93    6.73
   1   5   1  187.29    6.57
   1   5   1  205.76    7.68
   1   5   1  186.07    7.00
   1   5   1  187.53    7.84
  -2  -5  -1  125.74    5.71
  -2  -5  -1  119.74    5.75
  -2  -5  -1  118.23    5.87
  -2  -5  -1  122.96    6.23
  -2  -5  -1  122.76    5.59
  -2  -5  -1  129.20    6.36
  -2  -5  -1  120.49    5.72
  -2  -5  -1  129.62    6.11
   2   5   1  135.09    5.60
   2   5   1  128.53    5.44
   2   5   1  136.25    6.11
   2   5   1  132.71    6.39
   2   5   1  129.23    5.36
  -3  -5  -1    0.16    1.17
  -3  -5  -1    4.55    1.65
  -3  -5  -1    1.46    1.16
  -3  -5  -1    0.47    0.79
  -3  -5  -1    1.16    1.19
  -3  -5  -1   -0.73    0.90
  -3  -5  -1    1.86    1.20
  -3  -5  -1    1.91    1.16
  -3  -5  -1    2.14    1.18
   3   5   1   -0.19    1.01
   3   5   1    1.99    1.93
   3   5   1    1.13    1.33
   3   5   1    2.44    1.05
   3   5   1    2.11    1.28
   3   5   1   -0.85    0.94
  -4  -5  -1   41.03    3.91
  -4  -5  -1   39.04    3.40
  -4  -5  -1   41.90    3.25
  -4  -5  -1   41.53    3.72
  -4  -5  -1   40.77    3.44
   4   5   1   42.20    3.32
   4   5   1   40.91    3.48
   4   5   1   46.43    4.14
   4   5   1   43.50    3.49
  -5  -5  -1   80.90    5.68
  -5  -5  -1   76.14    4.49
  -5  -5  -1   81.96    4.56
  -5  -5  -1   66.81    5.01
  -5  -5  -1   70.44    4.62
  -5  -5  -1   73.86    4.83
   5   5   1   72.95    4.84
   5   5   1   80.84    5.75
  -6  -5  -1   -0.61    1.49
  -6  -5  -1    0.93    1.54
  -6  -5  -1    0.32    1.07
   6   5   1    0.35    1.45
   6   5   1   -1.08    1.67
  -7  -5  -1   23.82    2.80
  -7  -5  -1   28.32    4.12
  -7  -5  -1   27.00    2.61
   7   5   1   20.55    3.71
   7   5   1   26.18    4.88
  -8  -5  -1   19.70    5.34
   8   5   1   34.38    5.05
   8   5   1   27.85    4.28
  -9   6   1   16.96    4.82
   8  -6  -1   41.80    5.06
  -8   6   1   47.28    6.32
   7  -6  -1    6.69    2.56
  -7   6   1    6.74    3.56
  -7   6   1    3.64    2.63
   6  -6  -1   18.84    3.84
  -6   6   1   17.16    3.74
   5  -6  -1   82.83    3.39
   5  -6  -1   87.39    6.21
  -5   6   1   88.68    6.06
   4  -6  -1    1.34    0.69
   4  -6  -1    2.12    1.65
   4  -6  -1    3.04    0.95
  -4   6   1    2.30    1.73
   3  -6  -1   25.76    1.48
   3  -6  -1   30.04    2.14
   3  -6  -1   26.22    1.63
   3  -6  -1   27.75    1.93
   3  -6  -1   30.34    3.44
  -3   6   1   29.28    1.93
  -3   6   1   29.71    3.31
   2  -6  -1  198.86    7.62
   2  -6  -1  201.67    7.27
   2  -6  -1  193.88    9.37
   2  -6  -1  207.84    7.51
   2  -6  -1  198.36    7.32
  -2   6   1  210.60    7.63
  -2   6   1  225.04    9.03
   1  -6  -1    3.03    1.53
   1  -6  -1    2.92    1.08
   1  -6  -1    2.66    1.04
   1  -6  -1    2.58    1.30
   1  -6  -1    2.89    1.02
   1  -6  -1    4.83    1.36
   1  -6  -1    1.34    1.02
  -1   6   1    4.52    1.41
  -1   6   1    4.17    1.42
   0  -6  -1   97.19    5.66
   0  -6  -1   88.76    5.30
   0  -6  -1   90.45    4.73
   0  -6  -1   90.82    4.83
   0  -6  -1   85.76    4.40
   0  -6  -1   84.81    4.64
   0  -6  -1   88.86    4.81
   0   6   1   91.19    4.95
   0   6   1   83.97    3.76
  -1  -6  -1   92.19    5.27
  -1  -6  -1   96.79    4.96
  -1  -6  -1   88.46    5.03
  -1  -6  -1   98.19    5.67
  -1  -6  -1   95.97    5.54
  -1  -6  -1   95.38    5.12
  -1  -6  -1   87.93    5.16
  -1  -6  -1   97.26    5.15
   1   6   1  105.32    3.98
   1   6   1   92.63    5.40
   1   6   1  101.33    5.16
   1   6   1   88.72    3.69
   1   6   1   90.19    4.38
  -2  -6  -1    4.79    1.59
  -2  -6  -1    2.36    1.48
  -2  -6  -1    3.41    1.38
  -2  -6  -1    4.22    1.62
  -2  -6  -1    7.72    1.89
  -2  -6  -1    2.02    1.46
   2   6   1    5.42    1.38
   2   6   1    3.78    1.71
   2   6   1    4.89    1.49
   2   6   1    5.67    1.84
   2   6   1    8.99    1.61
  -3  -6  -1   20.41    2.71
  -3  -6  -1   21.77    3.07
  -3  -6  -1   18.49    2.39
  -3  -6  -1   21.75    2.98
   3   6   1   18.28    3.09
   3   6   1   17.43    2.15
   3   6   1   15.86    2.64
   3   6   1   22.88    2.50
  -4  -6  -1   44.26    3.84
  -4  -6  -1   36.49    3.15
  -4  -6  -1   44.56    4.34
   4   6   1   45.52    3.78
   4   6   1   42.44    3.66
   4   6   1   46.92    4.49
   4   6   1   41.48    3.71
  -5  -6  -1   20.56    4.04
  -5  -6  -1   22.36    3.77
  -5  -6  -1   20.39    2.85
   5   6   1   18.48    3.75
   5   6   1   23.86    3.29
  -6  -6  -1   24.44    3.55
  -6  -6  -1   31.72    4.40
  -6  -6  -1   30.68    3.30
   6   6   1   34.76    4.00
   6   6   1   33.67    4.67
  -7  -6  -1   13.71    2.83
  -7  -6  -1   17.34    2.93
  -7  -6  -1   22.42    4.55
   7   6   1   16.91    4.02
   7   6   1   21.35    4.04
   8   6   1   11.25    3.28
   8   6   1   10.29    3.62
   8  -7  -1   10.35    5.79
   7  -7  -1   24.99    4.48
   6  -7  -1   41.04    4.91
  -6   7   1   32.08    4.50
   5  -7  -1   22.97    3.87
   5  -7  -1   22.45    1.96
   5  -7  -1   23.51    1.79
   5  -7  -1   29.74    3.32
  -5   7   1   32.13    4.10
   4  -7  -1   32.64    3.33
   4  -7  -1   29.19    2.18
   4  -7  -1   28.93    1.70
   4  -7  -1   24.58    3.91
   4  -7  -1   26.65    1.77
   4  -7  -1   27.32    2.31
  -4   7   1   33.12    4.01
   3  -7  -1   72.33    3.85
   3  -7  -1   64.02    3.45
   3  -7  -1   70.38    4.79
   3  -7  -1   66.39    3.58
   3  -7  -1   67.62    5.58
   3  -7  -1   74.42    3.65
  -3   7   1   77.54    5.37
  -3   7   1   72.56    3.53
   2  -7  -1   24.41    2.35
   2  -7  -1   24.54    2.47
   2  -7  -1   32.38    3.30
   2  -7  -1   29.95    3.79
   2  -7  -1   25.26    2.35
   2  -7  -1   27.37    2.34
  -2   7   1   25.90    3.13
  -2   7   1   25.67    2.47
   1  -7  -1   23.60    2.53
   1  -7  -1   24.61    2.49
   1  -7  -1   24.13    2.41
   1  -7  -1   22.51    3.36
   1  -7  -1   22.23    3.06
   1  -7  -1   22.27    2.56
  -1   7   1   25.68    2.74
   0  -7  -1   35.60    3.73
   0  -7  -1   26.14    2.71
   0  -7  -1   31.03    3.22
   0  -7  -1   34.73    3.09
   0  -7  -1   33.27    3.26
   0  -7  -1   38.33    3.24
   0  -7  -1   34.18    3.83
   0   7   1   36.37    3.36
  -1  -7  -1   27.88    3.27
  -1  -7  -1   23.18    3.24
  -1  -7  -1   32.23    3.20
  -1  -7  -1   26.77    2.91
  -1  -7  -1   27.23    3.05
   1   7   1   25.19    3.18
  -2  -7  -1   -0.77    1.49
  -2  -7  -1    1.48    1.39
  -2  -7  -1    1.27    1.32
   2   7   1    1.35    1.57
   2   7   1    0.75    1.00
   2   7   1    0.95    1.05
   2   7   1    1.62    1.13
  -3  -7  -1   63.91    5.26
  -3  -7  -1   59.72    4.63
  -3  -7  -1   67.04    4.71
   3   7   1   66.23    4.05
   3   7   1   63.39    4.08
   3   7   1   71.76    5.56
   3   7   1   57.43    4.19
  -4  -7  -1   18.89    3.41
  -4  -7  -1   22.99    3.73
   4   7   1   21.21    3.13
   4   7   1   17.72    3.67
   4   7   1   20.89    3.01
   4   7   1   19.26    2.98
  -5  -7  -1    4.38    2.43
  -5  -7  -1    1.97    2.21
   5   7   1    3.95    2.51
   5   7   1   -0.20    1.64
  -6  -7  -1   29.35    4.65
   6   7   1   37.08    5.01
   6   7   1   36.70    4.38
  -7  -7  -1    4.09    2.15
  -7  -7  -1    2.63    3.80
   7   7   1    1.11    2.37
   7   7   1    6.74    2.81
   6  -8  -1   10.42    2.01
   6  -8  -1    5.67    1.35
   6  -8  -1    7.07    3.06
   5  -8  -1   -0.04    0.96
   5  -8  -1    0.28    0.76
   5  -8  -1    0.21    0.90
   5  -8  -1   -0.16    1.61
   5  -8  -1    0.79    0.72
   4  -8  -1   29.16    2.51
   4  -8  -1   37.10    4.80
   4  -8  -1   30.29    2.73
   4  -8  -1   30.23    2.47
   4  -8  -1   36.45    2.69
   3  -8  -1   30.67    2.67
   3  -8  -1   33.89    2.97
   3  -8  -1   28.37    4.29
   3  -8  -1   27.75    2.74
   3  -8  -1   27.50    2.62
  -3   8   1   29.77    2.53
   2  -8  -1    0.72    0.94
   2  -8  -1   -0.14    0.95
   2  -8  -1    0.77    1.06
   2  -8  -1    0.21    1.49
   2  -8  -1   -0.49    0.94
  -2   8   1   -0.34    1.08
   1  -8  -1   24.89    2.98
   1  -8  -1   28.12    2.87
   1  -8  -1   21.41    3.74
   1  -8  -1   19.27    2.82
   1  -8  -1   21.04    2.60
  -1   8   1   22.32    2.84
   0  -8  -1   52.95    3.94
   0  -8  -1   49.07    4.14
   0  -8  -1   53.36    4.26
   0  -8  -1   45.32    4.74
   0   8   1   48.58    4.21
  -1  -8  -1    1.18    1.66
  -1  -8  -1   -0.47    1.27
   1   8   1    2.84    1.77
  -2  -8  -1   34.29    4.18
  -2  -8  -1   39.84    4.26
  -2  -8  -1   35.02    3.78
   2   8   1   33.39    4.06
   2   8   1   29.03    1.94
   2   8   1   35.11    2.05
  -3  -8  -1   48.30    4.55
  -3  -8  -1   53.73    5.23
   3   8   1   60.30    5.32
   3   8   1   44.73    3.41
   3   8   1   39.31    3.33
  -4  -8  -1   -0.58    1.76
  -4  -8  -1    0.63    2.16
   4   8   1   -0.04    1.26
   4   8   1    2.29    1.63
   4   8   1   -0.29    1.92
  -5  -8  -1    7.74    3.14
   5   8   1    5.83    2.81
   6   8   1   34.75    5.30
   6  -9  -1    1.92    1.15
   6  -9  -1    2.11    1.29
   6  -9  -1   -1.07    0.99
   5  -9  -1    5.02    1.40
   5  -9  -1    8.40    1.93
   5  -9  -1    7.21    1.56
   4  -9  -1   39.90    3.41
   4  -9  -1   47.94    3.76
   4  -9  -1   40.67    3.34
   4  -9  -1   45.66    3.45
   4  -9  -1   38.60    5.50
   3  -9  -1    3.52    1.74
   3  -9  -1    5.24    1.76
   3  -9  -1    5.63    1.83
   3  -9  -1    3.51    2.48
   3  -9  -1    1.90    1.38
  -3   9   1    5.30    1.67
   2  -9  -1   15.09    2.84
   2  -9  -1   11.76    2.74
   2  -9  -1   16.70    2.85
   2  -9  -1   11.16    2.44
   2  -9  -1   14.70    3.76
  -2   9   1    7.97    2.24
   1  -9  -1   38.53    3.89
   1  -9  -1   41.46    3.74
   1  -9  -1   42.61    5.02
  -1   9   1   36.34    3.79
   0  -9  -1   16.55    3.20
   0  -9  -1   27.49    4.21
   0   9   1   19.70    3.35
  -1  -9  -1   22.25    4.33
  -1  -9  -1   23.12    3.44
   1   9   1   19.18    3.90
  -2  -9  -1   32.01    4.23
  -2  -9  -1   32.09    4.52
   2   9   1   41.88    4.84
  -3  -9  -1   10.55    2.90
   3   9   1   14.44    1.90
   3   9   1   13.37    1.90
   3   9   1   16.36    3.58
  -4  -9  -1    5.52    2.87
   4   9   1   11.67    3.68
   4   9   1    7.99    2.19
   4   9   1    4.28    1.93
  -5  -9  -1   22.47    4.49
   5   9   1   18.47    4.75
   5   9   1   14.03    3.40
   5 -10  -1   19.22    2.80
   5 -10  -1   16.06    2.80
   5 -10  -1   23.54    2.90
   4 -10  -1   17.67    2.74
   4 -10  -1   17.16    2.95
   4 -10  -1   14.56    2.81
   3 -10  -1    2.43    1.62
   3 -10  -1    1.71    1.90
   3 -10  -1    2.80    1.65
   2 -10  -1   34.33    3.69
  -2  10   1   33.35    3.71
   1 -10  -1   27.22    3.63
   1 -10  -1   24.96    5.55
  -1  10   1   25.87    3.64
   0 -10  -1    3.39    2.27
   0 -10  -1    5.07    2.90
   0  10   1    4.39    2.31
  -1 -10  -1   56.38    5.06
  -1 -10  -1   49.55    6.00
   1  10   1   48.13    5.15
  -2 -10  -1    8.48    3.11
   2  10   1    8.78    3.25
  -3 -10  -1    2.08    2.46
   3  10   1    3.51    2.93
   1  11  -2    3.01    2.49
  -1 -11   2    1.21    2.28
   0  11  -2   11.89    3.35
   0 -11   2   11.12    3.12
  -1  11  -2   21.23    4.08
   1 -11   2   23.94    3.62
  -2  11  -2    0.71    2.09
   2 -11   2    1.98    1.88
   4  10  -2   15.09    4.04
  -4 -10   2   19.20    4.23
   3  10  -2   15.64    4.27
  -3 -10   2   20.54    4.23
   2  10  -2    5.23    2.83
  -2 -10   2   12.45    3.87
  -2 -10   2   10.29    3.19
   1  10  -2   18.20    3.79
  -1 -10   2   20.88    3.95
  -1 -10   2    9.70    3.34
   0  10  -2   25.86    3.84
   0 -10   2   27.38    3.56
   0 -10   2   27.12    5.10
  -1  10  -2   23.22    3.91
   1 -10   2   18.77    3.39
   1 -10   2   20.44    4.55
  -2  10  -2    4.77    2.18
   2 -10   2    5.13    2.29
   2 -10   2    8.13    2.30
  -3  10  -2   37.77    3.61
   3 -10   2   40.14    3.82
   3 -10   2   40.20    3.78
   3 -10   2   31.25    3.73
   4 -10   2    8.64    2.07
   4 -10   2    3.56    2.00
   4 -10   2    3.98    1.86
   5 -10   2    3.67    1.55
   5 -10   2    3.60    1.67
   5 -10   2    3.99    1.84
   5   9  -2    1.41    2.10
  -5  -9   2    2.39    2.52
   4   9  -2   49.46    3.94
   4   9  -2   52.37    5.59
   4   9  -2   45.64    3.83
  -4  -9   2   50.07    5.08
   3   9  -2   10.70    1.84
   3   9  -2   10.86    3.49
   3   9  -2    8.57    1.74
  -3  -9   2    9.53    2.91
   2   9  -2   -0.13    1.64
  -2  -9   2   -0.50    1.76
  -2  -9   2    0.05    1.62
   1   9  -2   54.65    4.81
  -1  -9   2   54.18    4.52
  -1  -9   2   56.78    5.60
   0   9  -2   34.46    3.82
   0  -9   2   26.30    4.36
   0  -9   2   30.88    3.42
  -1   9  -2    1.59    1.62
   1  -9   2   -0.37    1.36
   1  -9   2    1.55    1.82
   1  -9   2    1.14    1.32
   1  -9   2    1.51    1.73
  -2   9  -2   41.26    3.69
   2  -9   2   39.22    3.59
   2  -9   2   37.10    3.47
   2  -9   2   43.34    5.25
   2  -9   2   47.10    3.71
   2  -9   2   38.77    3.80
  -3   9  -2   28.17    2.89
   3  -9   2   23.38    2.74
   3  -9   2   29.12    5.27
   3  -9   2   27.99    3.09
   3  -9   2   19.89    2.89
   3  -9   2   30.86    3.04
   4  -9   2    0.41    2.17
   4  -9   2    2.04    1.38
   4  -9   2   -0.16    1.33
   4  -9   2   -0.42    1.16
   4  -9   2   -0.30    1.08
   5  -9   2   15.65    2.19
   5  -9   2   13.54    2.31
   5  -9   2   16.53    2.53
   6  -9   2   39.15    3.28
   6  -9   2   38.32    2.91
   6  -9   2   43.41    3.37
   7   8  -2   36.06    5.11
   7   8  -2   34.61    5.69
   6   8  -2    1.72    2.17
   6   8  -2    2.01    2.42
   5   8  -2   25.53    4.36
   5   8  -2   21.50    4.55
  -5  -8   2   21.92    4.06
   4   8  -2   52.27    4.07
   4   8  -2   59.09    5.57
   4   8  -2   49.71    3.88
  -4  -8   2   48.37    4.55
   3   8  -2    4.21    2.40
   3   8  -2    0.77    1.19
   3   8  -2    5.18    1.63
  -3  -8   2    3.37    1.93
  -3  -8   2    4.29    2.27
   2   8  -2   24.01    3.47
   2   8  -2   21.77    1.98
   2   8  -2   23.24    2.00
  -2  -8   2   26.54    3.64
  -2  -8   2   27.68    3.26
   1   8  -2   84.83    5.56
  -1  -8   2   85.48    5.21
  -1  -8   2   75.09    5.92
   0   8  -2    7.51    2.19
   0  -8   2    6.34    1.97
   0  -8   2    4.06    1.90
   0  -8   2    6.87    2.07
   0  -8   2    4.37    2.17
  -1   8  -2   28.75    3.05
   1  -8   2   31.32    3.21
   1  -8   2   24.17    3.83
   1  -8   2   32.29    2.96
   1  -8   2   32.25    3.28
   1  -8   2   34.03    3.09
  -2   8  -2   66.97    4.25
   2  -8   2   65.11    4.20
   2  -8   2   65.42    4.17
   2  -8   2   61.40    4.19
   2  -8   2   71.29    4.17
   2  -8   2   72.93    6.03
  -3   8  -2   15.26    2.35
   3  -8   2   13.93    2.09
   3  -8   2   14.93    2.19
   3  -8   2   11.40    3.19
   3  -8   2   13.94    2.75
   3  -8   2   14.43    2.39
   3  -8   2   15.96    2.43
   4  -8   2   27.29    2.66
   4  -8   2   23.58    4.07
   4  -8   2   24.06    2.45
   4  -8   2   24.79    2.45
   4  -8   2   24.82    2.22
   5  -8   2   47.63    3.16
   5  -8   2   48.86    5.49
   5  -8   2   49.12    3.21
   5  -8   2   45.74    2.79
   6  -8   2   24.70    4.75
   6  -8   2   20.51    2.37
   6  -8   2   20.29    2.10
   6  -8   2   17.93    1.64
   7  -8   2   13.72    1.59
   7  -8   2   12.78    1.35
   7   7  -2   15.50    4.09
   7   7  -2    7.40    2.51
  -7  -7   2   12.49    2.89
  -7  -7   2    9.41    2.49
   6   7  -2   34.04    4.81
   6   7  -2   31.39    3.82
   5   7  -2   37.22    3.77
   5   7  -2   46.32    4.92
  -5  -7   2   30.38    3.86
   4   7  -2   28.20    3.02
   4   7  -2   38.15    3.39
   4   7  -2   30.57    3.22
   4   7  -2   25.45    3.83
  -4  -7   2   36.67    3.69
   3   7  -2   21.72    2.56
   3   7  -2   17.72    2.42
   3   7  -2   22.79    3.38
   3   7  -2   18.34    2.24
  -3  -7   2   19.14    2.92
  -3  -7   2   16.23    2.78
   2   7  -2   91.34    4.92
   2   7  -2   94.33    4.48
   2   7  -2   94.44    4.45
   2   7  -2  102.60    6.07
  -2  -7   2  116.86    7.23
  -2  -7   2   97.96    5.46
  -2  -7   2   92.19    5.92
   1   7  -2   33.95    3.41
  -1  -7   2   29.70    3.12
  -1  -7   2   28.64    2.89
  -1  -7   2   36.48    3.63
  -1  -7   2   28.43    2.84
  -1  -7   2   24.81    3.31
  -1  -7   2   30.85    3.20
   0   7  -2   15.80    2.48
   0  -7   2   17.21    2.99
   0  -7   2   20.60    2.40
   0  -7   2   13.00    2.28
   0  -7   2   16.27    2.19
   0  -7   2   18.60    2.82
   0  -7   2   14.34    2.45
  -1   7  -2  111.84    5.58
   1  -7   2  106.73    5.32
   1  -7   2  107.57    5.19
   1  -7   2  114.29    6.19
   1  -7   2  112.88    5.51
   1  -7   2  105.79    6.71
   1  -7   2  106.08    5.43
  -2   7  -2   33.66    2.79
   2  -7   2   35.73    2.66
   2  -7   2   30.10    2.48
   2  -7   2   32.16    2.65
   2  -7   2   32.22    3.19
   2  -7   2   28.05    2.53
   2  -7   2   35.50    3.91
  -3   7  -2    4.14    1.29
   3  -7   2    3.36    1.41
   3  -7   2    1.74    1.69
   3  -7   2    2.89    1.18
   3  -7   2    3.24    1.06
   3  -7   2    3.14    0.97
   3  -7   2    3.80    1.24
  -4   7  -2   71.17    3.37
   4  -7   2   77.65    4.67
   4  -7   2   79.85    3.82
   4  -7   2   72.23    3.28
   4  -7   2   71.20    3.57
   4  -7   2   81.92    6.15
   4  -7   2   83.62    4.06
   5  -7   2   18.89    3.80
   5  -7   2   19.73    2.02
   6  -7   2    1.09    1.14
   6  -7   2    1.18    1.97
   7  -7   2   38.04    4.97
   7  -7   2   28.41    2.76
   7  -7   2   41.02    2.82
   8  -7   2    5.10    2.95
   8   6  -2    5.12    2.50
   8   6  -2    4.02    3.07
   7   6  -2   -0.89    1.99
   7   6  -2    0.93    1.61
  -7  -6   2    1.86    1.69
  -7  -6   2    0.77    1.36
   6   6  -2   62.29    5.61
   6   6  -2   74.37    5.10
  -6  -6   2   70.56    4.78
  -6  -6   2   73.88    5.20
  -6  -6   2   64.06    4.44
   5   6  -2   44.87    4.52
   5   6  -2   33.79    3.50
  -5  -6   2   38.25    3.70
  -5  -6   2   37.00    3.29
  -5  -6   2   39.48    3.57
   4   6  -2    0.10    1.34
   4   6  -2    1.39    1.27
   4   6  -2    0.94    1.28
   4   6  -2    2.16    1.39
  -4  -6   2    1.02    1.31
  -4  -6   2    2.00    1.33
  -4  -6   2    2.55    1.92
   3   6  -2  115.65    5.44
   3   6  -2  118.24    6.58
   3   6  -2  119.93    5.63
   3   6  -2  122.93    6.68
   3   6  -2  118.03    5.48
  -3  -6   2  111.41    6.12
  -3  -6   2  109.40    5.95
  -3  -6   2  126.81    5.86
  -3  -6   2  117.51    5.93
  -3  -6   2  104.26    6.31
   2   6  -2   66.24    4.47
   2   6  -2   58.96    3.40
   2   6  -2   61.56    3.60
   2   6  -2   61.80    3.99
   2   6  -2   53.10    3.96
   2   6  -2   60.87    3.35
  -2  -6   2   56.82    3.68
  -2  -6   2   58.58    4.25
  -2  -6   2   64.11    4.10
  -2  -6   2   61.80    3.94
  -2  -6   2   57.78    3.97
  -2  -6   2   67.00    4.58
  -2  -6   2   57.33    4.07
  -2  -6   2   55.55    4.10
   1   6  -2    0.04    0.62
   1   6  -2   -0.60    0.84
   1   6  -2    0.08    0.96
   1   6  -2   -0.36    0.56
   1   6  -2    1.42    0.89
   1   6  -2    0.61    1.04
  -1  -6   2   -0.53    0.91
  -1  -6   2   -0.26    0.84
  -1  -6   2    1.89    1.28
  -1  -6   2   -0.60    0.70
  -1  -6   2    0.66    0.85
  -1  -6   2   -0.35    0.66
  -1  -6   2   -0.55    0.88
  -1  -6   2    0.71    1.05
   0   6  -2   58.34    2.84
   0   6  -2   62.63    4.00
   0   6  -2   60.64    3.88
   0  -6   2   60.26    4.15
   0  -6   2   61.09    3.52
   0  -6   2   54.15    4.25
   0  -6   2   62.47    3.71
   0  -6   2   58.05    3.50
   0  -6   2   61.40    3.73
  -1   6  -2  144.66    6.27
   1  -6   2  139.14    6.62
   1  -6   2  142.34    6.10
   1  -6   2  146.21    5.88
   1  -6   2  139.13    7.37
   1  -6   2  142.73    6.02
   1  -6   2  145.85    5.94
  -2   6  -2    0.45    0.87
   2  -6   2    0.53    1.04
   2  -6   2   -0.24    0.66
   2  -6   2   -0.04    0.64
   2  -6   2    0.55    0.60
   2  -6   2    0.05    0.82
   2  -6   2   -0.65    0.75
   2  -6   2    0.65    0.76
  -3   6  -2   26.15    2.14
   3  -6   2   29.87    2.24
   3  -6   2   29.73    2.68
   3  -6   2   29.43    1.75
   3  -6   2   29.68    3.43
   3  -6   2   31.21    2.12
   3  -6   2   26.77    1.91
   4  -6   2   91.60    4.27
   4  -6   2  102.67    4.94
   4  -6   2  108.52    6.56
   4  -6   2   99.63    4.17
   5  -6   2    1.59    0.90
   5  -6   2    0.54    0.87
   5  -6   2    0.63    1.25
   6  -6   2    7.18    2.37
   6  -6   2    7.56    1.37
   6  -6   2    7.87    1.29
   7  -6   2   44.26    5.05
   7  -6   2   56.03    3.03
   7  -6   2   55.28    2.94
   8  -6   2   -0.71    1.70
   9  -6   2    2.15    0.85
   9   5  -2   32.37    4.31
  -9  -5   2   25.71    6.53
   8   5  -2   -0.22    1.86
   8   5  -2    3.83    2.28
   7   5  -2   18.59    3.98
   7   5  -2   14.26    2.95
  -7  -5   2   17.35    2.36
  -7  -5   2   15.22    1.99
   6   5  -2   89.51    6.17
   6   5  -2   88.81    5.50
  -6  -5   2   94.62    5.44
  -6  -5   2   87.15    4.95
  -6  -5   2   97.47    4.89
   5   5  -2    7.96    2.32
   5   5  -2    8.81    2.23
  -5  -5   2    6.70    1.94
  -5  -5   2    7.69    1.91
  -5  -5   2    5.82    1.96
  -5  -5   2    4.57    1.78
   4   5  -2   31.83    3.17
   4   5  -2   42.99    3.76
   4   5  -2   34.91    3.09
   4   5  -2   38.14    3.15
  -4  -5   2   42.66    3.63
  -4  -5   2   39.40    3.17
  -4  -5   2   43.81    3.48
  -4  -5   2   37.59    2.94
  -4  -5   2   35.92    1.84
  -4  -5   2   37.65    3.08
   3   5  -2  112.02    5.22
   3   5  -2  108.04    5.63
   3   5  -2  111.52    5.20
   3   5  -2  109.10    5.92
   3   5  -2  109.25    5.50
   3   5  -2  115.42    5.14
  -3  -5   2  113.21    5.73
  -3  -5   2  114.59    5.26
  -3  -5   2  101.14    5.36
  -3  -5   2  117.36    5.75
  -3  -5   2  110.40    5.89
  -3  -5   2  121.15    4.06
  -3  -5   2  108.01    5.41
  -3  -5   2  106.09    5.30
   2   5  -2    9.86    1.59
   2   5  -2   10.93    1.60
   2   5  -2   11.40    1.70
   2   5  -2   12.72    2.06
   2   5  -2   12.15    2.27
  -2  -5   2   11.20    2.18
  -2  -5   2    9.25    1.58
  -2  -5   2   13.58    2.31
  -2  -5   2   11.69    1.91
  -2  -5   2   13.50    2.12
  -2  -5   2   11.30    1.69
  -2  -5   2   11.15    2.04
   1   5  -2   38.26    2.19
   1   5  -2   37.17    2.74
   1   5  -2   37.72    2.66
   1   5  -2   35.76    2.08
   1   5  -2   33.29    2.84
   1   5  -2   34.07    2.25
  -1  -5   2   33.75    2.53
  -1  -5   2   33.66    2.41
  -1  -5   2   40.04    2.82
  -1  -5   2   30.86    2.52
  -1  -5   2   36.75    3.03
  -1  -5   2   38.40    3.03
  -1  -5   2   30.47    2.55
  -1  -5   2   39.37    2.73
   0   5  -2  145.02    5.71
   0   5  -2  141.30    6.01
   0   5  -2  133.43    5.05
   0   5  -2  143.34    5.72
   0  -5   2  144.84    6.37
   0  -5   2  150.26    5.95
   0  -5   2  140.73    5.70
   0  -5   2  147.52    6.84
   0  -5   2  131.82    5.78
   0  -5   2  144.32    5.64
   0  -5   2  142.40    5.48
   0  -5   2  137.00    5.82
  -1   5  -2   41.51    2.43
  -1   5  -2   40.97    2.80
   1  -5   2   40.08    3.43
   1  -5   2   42.70    2.56
   1  -5   2   44.94    2.55
   1  -5   2   49.12    2.62
   1  -5   2   47.21    2.81
   1  -5   2   48.43    3.13
  -2   5  -2   64.10    3.26
  -2   5  -2   67.18    3.27
   2  -5   2   60.00    2.91
   2  -5   2   67.08    3.02
   2  -5   2   59.50    3.72
   2  -5   2   65.17    4.39
   2  -5   2   60.75    3.11
   2  -5   2   65.93    3.65
   2  -5   2   63.94    2.75
   2  -5   2   64.47    3.23
  -3   5  -2   47.43    2.64
   3  -5   2   48.44    2.99
   3  -5   2   45.91    3.46
   3  -5   2   48.44    2.61
   3  -5   2   47.49    2.66
   3  -5   2   49.43    3.96
   3  -5   2   59.54    2.61
   4  -5   2   63.64    2.79
   4  -5   2   61.57    3.00
   4  -5   2   63.45    4.67
   4  -5   2   61.74    3.30
   5  -5   2   45.95    2.64
   5  -5   2   47.22    2.64
   5  -5   2   53.89    4.32
  -6   5  -2   24.34    3.90
   6  -5   2   24.33    2.06
   6  -5   2   26.63    3.34
  -7   5  -2   47.22    5.54
   7  -5   2   44.74    2.98
   7  -5   2   51.09    2.56
   7  -5   2   43.44    4.52
  -8   5  -2   13.17    4.13
   8  -5   2   13.48    1.81
   8  -5   2   18.61    2.36
   8  -5   2   14.58    3.18
  -9   5  -2    0.34    2.76
   9  -5   2    6.81    1.69
   9  -5   2    5.04    1.16
   9   4  -2   16.90    3.61
  -9  -4   2   28.16    6.35
   8   4  -2   11.55    3.35
   8   4  -2   12.90    2.99
  -8  -4   2    7.84    3.90
   7   4  -2   59.37    4.94
   6   4  -2   45.27    4.08
   6   4  -2   38.86    3.63
  -6  -4   2   39.45    3.34
  -6  -4   2   39.78    2.64
  -6  -4   2   44.07    3.00
   5   4  -2   17.51    2.55
   5   4  -2   15.96    3.43
   5   4  -2   17.97    2.52
   5   4  -2   20.35    2.92
   5   4  -2   18.71    2.65
   5   4  -2   17.06    2.65
  -5  -4   2   15.68    2.55
  -5  -4   2   17.01    2.34
  -5  -4   2   20.87    2.25
  -5  -4   2   17.18    2.06
  -5  -4   2   17.31    2.47
   4   4  -2   88.14    4.85
   4   4  -2   88.32    4.71
   4   4  -2   86.30    4.70
   4   4  -2   78.50    4.70
   4   4  -2   91.25    4.12
   4   4  -2   91.78    5.14
   4   4  -2   81.54    4.82
  -4  -4   2   87.57    4.41
  -4  -4   2   89.91    3.27
  -4  -4   2   84.48    4.46
  -4  -4   2   90.90    2.95
  -4  -4   2   90.38    4.29
  -4  -4   2   81.71    4.84
  -4  -4   2   91.11    4.86
   3   4  -2   26.62    2.27
   3   4  -2   31.26    2.55
   3   4  -2   31.23    2.55
   3   4  -2   33.19    2.50
   3   4  -2   33.56    2.80
   3   4  -2   30.69    2.79
  -3  -4   2   33.25    2.38
  -3  -4   2   31.06    2.48
  -3  -4   2   28.89    2.67
  -3  -4   2   30.77    2.44
  -3  -4   2   30.64    2.46
  -3  -4   2   34.99    2.72
  -3  -4   2   26.82    2.45
   2   4  -2    2.14    0.94
   2   4  -2    2.41    1.04
   2   4  -2    2.58    0.98
   2   4  -2    1.70    0.90
   2   4  -2    2.74    1.00
   2   4  -2    2.76    1.17
   2   4  -2    2.34    0.96
  -2  -4   2    1.59    0.84
  -2  -4   2    3.93    1.33
  -2  -4   2    2.93    1.07
  -2  -4   2    2.11    0.90
  -2  -4   2    1.14    0.86
  -2  -4   2    1.91    0.99
  -2  -4   2    0.94    0.83
  -2  -4   2    2.63    0.96
   1   4  -2  189.38    6.98
   1   4  -2  186.82    7.40
   1   4  -2  180.32    6.40
   1   4  -2  187.11    6.47
   1   4  -2  183.73    7.27
   1   4  -2  188.35    7.44
   1   4  -2  190.98    6.61
   1   4  -2  187.58    7.04
  -1  -4   2  191.87    7.11
  -1  -4   2  184.46    6.83
  -1  -4   2  188.16    6.85
  -1  -4   2  195.24    7.04
  -1  -4   2  189.41    7.13
  -1  -4   2  188.97    6.72
  -1  -4   2  178.21    7.44
  -1  -4   2  191.21    7.47
   0   4  -2   85.90    4.51
   0   4  -2   90.26    3.85
   0   4  -2   86.98    3.80
   0   4  -2   83.34    3.99
   0   4  -2   83.23    3.31
   0   4  -2   85.12    2.74
   0  -4   2   88.09    3.56
   0  -4   2   80.49    3.75
   0  -4   2   92.32    3.79
   0  -4   2   85.73    3.87
   0  -4   2   87.80    4.25
   0  -4   2   88.38    3.59
   0  -4   2   83.97    3.67
   0  -4   2   82.41    4.47
  -1   4  -2    2.38    0.90
  -1   4  -2    1.49    0.69
  -1   4  -2    2.66    0.77
  -1   4  -2    2.35    0.93
   1  -4   2    2.41    0.83
   1  -4   2    2.61    0.68
   1  -4   2    2.38    0.88
   1  -4   2    2.13    0.74
   1  -4   2    2.90    1.16
   1  -4   2    1.93    0.64
   1  -4   2    2.05    0.73
  -2   4  -2  181.18    6.17
  -2   4  -2  177.74    6.25
   2  -4   2  174.70    7.54
   2  -4   2  178.19    5.94
   2  -4   2  168.10    6.13
   2  -4   2  171.90    6.49
   2  -4   2  172.93    6.09
   2  -4   2  180.52    7.05
  -3   4  -2   59.91    2.85
   3  -4   2   60.07    2.45
   3  -4   2   61.97    4.05
   3  -4   2   61.11    2.81
   3  -4   2   55.32    3.57
   3  -4   2   61.45    2.99
  -4   4  -2    8.49    2.46
   4  -4   2    3.71    1.44
   4  -4   2    6.49    1.06
   4  -4   2    7.59    1.27
   4  -4   2    7.73    1.38
  -5   4  -2  133.02    7.69
   5  -4   2  140.90    4.66
   5  -4   2  141.55    6.90
   5  -4   2  120.97    5.18
  -6   4  -2   20.22    4.16
   6  -4   2   18.72    2.73
   6  -4   2   16.09    1.85
   6  -4   2   15.81    1.27
  -7   4  -2   23.68    4.88
   7  -4   2   22.64    3.25
   7  -4   2   20.26    2.26
   7  -4   2   26.77    1.96
  -8   4  -2   47.31    5.73
   8  -4   2   48.63    3.54
   8  -4   2   51.15    2.41
   8  -4   2   47.17    2.98
  -9   4  -2    6.93    3.66
   9  -4   2    7.37    1.77
   9  -4   2    5.79    1.34
   9  -4   2    6.57    1.65
   9  -4   2    4.50    2.94
  10   3  -2    7.18    2.68
 -10  -3   2    5.94    4.62
   9   3  -2   -0.78    1.74
  -9  -3   2    3.34    3.09
  -8  -3   2   49.66    6.42
   7   3  -2   30.65    3.48
   7   3  -2   30.13    3.11
   7   3  -2   36.54    3.89
  -7  -3   2   29.13    4.73
   6   3  -2    0.36    1.12
   6   3  -2    1.40    1.41
   6   3  -2   -0.37    0.92
   6   3  -2   -0.05    0.96
   6   3  -2    1.95    1.25
  -6  -3   2    0.06    2.00
  -6  -3   2    0.31    0.72
   5   3  -2   56.13    3.73
   5   3  -2   62.36    3.95
   5   3  -2   56.76    3.45
   5   3  -2   57.81    3.97
   5   3  -2   56.52    3.82
   5   3  -2   58.98    2.72
   5   3  -2   59.14    4.08
   5   3  -2   55.23    3.58
  -5  -3   2   55.70    3.60
  -5  -3   2   54.81    2.58
  -5  -3   2   57.18    3.38
  -5  -3   2   56.89    3.04
  -5  -3   2   57.36    2.90
   4   3  -2  101.43    5.06
   4   3  -2   92.78    5.00
   4   3  -2   99.52    4.96
   4   3  -2  100.86    4.79
   4   3  -2  103.80    5.00
   4   3  -2  107.33    4.90
   4   3  -2   98.92    4.06
   4   3  -2  103.69    4.59
  -4  -3   2   98.68    4.24
  -4  -3   2   98.42    4.39
  -4  -3   2   95.87    4.76
  -4  -3   2  101.56    5.03
  -4  -3   2   99.63    3.66
  -4  -3   2   96.87    4.47
   3   3  -2    5.54    1.10
   3   3  -2    5.34    1.33
   3   3  -2    4.17    1.21
   3   3  -2    4.16    1.18
   3   3  -2    5.99    1.28
   3   3  -2    4.32    1.24
   3   3  -2    5.73    1.29
  -3  -3   2    4.06    0.57
  -3  -3   2    3.68    1.02
  -3  -3   2    5.39    1.29
  -3  -3   2    5.51    1.30
  -3  -3   2    4.63    1.04
  -3  -3   2    3.89    1.10
  -3  -3   2    5.69    1.34
  -3  -3   2    4.48    1.01
   2   3  -2  109.22    4.91
   2   3  -2  116.48    4.73
   2   3  -2  110.64    4.94
   2   3  -2  114.07    4.47
   2   3  -2  123.15    4.78
   2   3  -2  107.21    4.57
  -2  -3   2  107.69    4.51
  -2  -3   2  116.91    4.79
  -2  -3   2  112.58    4.67
  -2  -3   2  104.56    4.86
  -2  -3   2  101.38    4.45
  -2  -3   2  108.75    4.41
  -2  -3   2  113.60    4.84
   1   3  -2  416.59   13.82
   1   3  -2  416.75   13.10
   1   3  -2  440.22   13.41
   1   3  -2  421.81   13.51
   1   3  -2  434.51   13.79
   1   3  -2  437.46   13.86
   1   3  -2  419.09   13.50
   1   3  -2  435.38   13.36
  -1  -3   2  422.73   13.54
  -1  -3   2  441.72   13.93
  -1  -3   2  435.29   13.34
  -1  -3   2  418.67   13.91
  -1  -3   2  440.84   13.27
  -1  -3   2  440.27   13.62
  -1  -3   2  454.55   13.57
  -1  -3   2  421.26   13.31
   0   3  -2    0.96    0.66
   0   3  -2    2.17    0.51
   0   3  -2    1.84    0.52
   0   3  -2    1.77    0.72
   0   3  -2    0.93    0.58
   0   3  -2    0.22    0.72
   0   3  -2    1.07    0.77
   0   3  -2    0.66    0.58
   0  -3   2    1.57    0.56
   0  -3   2    1.03    0.68
   0  -3   2    0.13    0.50
   0  -3   2    1.58    0.71
   0  -3   2    0.90    0.64
   0  -3   2    0.37    0.55
   0  -3   2    0.47    0.44
   0  -3   2    0.72    0.76
  -1   3  -2   40.63    2.27
  -1   3  -2   38.95    2.72
  -1   3  -2   41.82    1.98
  -1   3  -2   46.55    2.12
   1  -3   2   43.16    2.20
   1  -3   2   43.68    2.04
   1  -3   2   44.56    2.89
   1  -3   2   39.04    2.30
   1  -3   2   45.04    1.83
   1  -3   2   40.01    2.12
   1  -3   2   44.21    1.86
   1  -3   2   46.26    2.10
   1  -3   2   42.62    2.42
  -2   3  -2  285.24    8.74
  -2   3  -2  302.55    8.71
  -2   3  -2  299.28    9.47
   2  -3   2  284.14   10.49
   2  -3   2  305.06    9.50
   2  -3   2  299.51   10.22
   2  -3   2  309.97    9.07
   2  -3   2  291.47    9.23
   2  -3   2  299.29    9.40
  -3   3  -2    3.23    1.44
  -3   3  -2    6.01    1.04
   3  -3   2    3.63    1.14
   3  -3   2    4.25    0.99
   3  -3   2    3.20    0.69
   3  -3   2    3.89    1.18
   3  -3   2    4.77    0.98
  -4   3  -2    9.01    1.02
  -4   3  -2   11.16    2.50
   4  -3   2    9.34    1.30
   4  -3   2    8.43    0.78
   4  -3   2    9.85    1.99
   4  -3   2   10.29    1.74
   4  -3   2    8.21    1.23
  -5   3  -2  203.87    6.39
  -5   3  -2  185.86    9.18
   5  -3   2  210.54    8.47
   5  -3   2  194.23    6.82
   5  -3   2  199.40    7.07
   5  -3   2  202.66    6.32
  -6   3  -2    9.75    2.76
   6  -3   2   11.94    1.26
   6  -3   2   12.01    1.71
   6  -3   2    7.02    1.79
  -7   3  -2    5.78    2.49
   7  -3   2    2.45    1.00
   7  -3   2    2.65    1.21
   7  -3   2    1.89    0.61
   7  -3   2    0.54    1.09
  -8   3  -2  118.53    8.38
   8  -3   2  120.51    5.00
   8  -3   2  114.73    5.66
   8  -3   2  114.20    5.38
   8  -3   2  127.49    5.28
  -9   3  -2    0.07    2.41
   9  -3   2   -0.46    1.25
   9  -3   2    0.47    1.29
   9  -3   2   -0.83    1.43
   9  -3   2    1.84    1.15
 -10   3  -2    1.19    2.88
  10  -3   2    0.20    1.36
  10  -3   2    2.68    1.75
  10  -3   2    1.73    1.66
  10   2  -2   -1.72    1.92
 -10  -2   2    5.64    4.11
  -9  -2   2   10.20    4.67
   8   2  -2   64.14    4.94
  -8  -2   2   59.22    6.46
   7   2  -2    2.70    1.63
   7   2  -2    3.64    1.47
   7   2  -2    5.99    2.01
   7   2  -2    0.59    1.11
   7   2  -2    2.01    1.21
  -7  -2   2    3.85    1.28
  -7  -2   2    2.91    2.57
   6   2  -2   24.61    2.44
   6   2  -2   23.02    2.66
   6   2  -2   29.44    2.66
   6   2  -2   25.23    1.55
   6   2  -2   26.10    2.74
   6   2  -2   22.77    2.60
  -6  -2   2   24.81    2.16
  -6  -2   2   30.75    4.10
   5   2  -2  163.96    6.70
   5   2  -2  153.84    6.88
   5   2  -2  160.92    6.79
   5   2  -2  163.19    6.72
   5   2  -2  178.21    7.18
   5   2  -2  170.50    6.76
  -5  -2   2  159.14    6.46
  -5  -2   2  153.50    5.98
  -5  -2   2  162.01    6.05
   4   2  -2   92.75    4.24
   4   2  -2   90.07    4.35
   4   2  -2   93.40    4.01
   4   2  -2   86.57    4.26
   4   2  -2   86.94    4.42
   4   2  -2  102.74    4.61
   4   2  -2   84.56    4.10
  -4  -2   2   86.88    3.41
  -4  -2   2   87.80    3.62
  -4  -2   2   87.27    3.83
  -4  -2   2   84.79    4.08
  -4  -2   2   89.01    3.57
   3   2  -2  117.36    4.57
   3   2  -2  119.33    4.50
   3   2  -2  120.66    4.79
   3   2  -2  123.12    5.04
   3   2  -2  114.43    4.83
   3   2  -2  120.50    4.82
   3   2  -2  122.28    5.00
   3   2  -2  115.95    5.01
  -3  -2   2  125.98    5.10
  -3  -2   2  116.53    4.51
  -3  -2   2  113.31    4.51
  -3  -2   2  116.85    4.78
  -3  -2   2  114.68    4.37
  -3  -2   2  114.28    4.23
   2   2  -2  275.96    8.89
   2   2  -2  269.73    9.17
   2   2  -2  280.33    9.01
   2   2  -2  267.99    8.69
   2   2  -2  262.48    8.87
   2   2  -2  270.97    9.14
   2   2  -2  262.95    8.91
   2   2  -2  275.65    8.82
  -2  -2   2  265.65    9.12
  -2  -2   2  282.30    8.99
  -2  -2   2  273.35    8.94
  -2  -2   2  271.63    8.64
  -2  -2   2  270.29    8.70
  -2  -2   2  261.24    8.72
  -2  -2   2  267.70    8.80
   1   2  -2  155.00    5.84
   1   2  -2  167.54    5.93
   1   2  -2  160.40    5.44
   1   2  -2  162.97    5.84
   1   2  -2  156.29    5.43
   1   2  -2  169.63    5.63
   1   2  -2  163.30    5.68
   1   2  -2  179.41    5.72
  -1  -2   2  159.06    4.86
  -1  -2   2  160.81    5.54
  -1  -2   2  166.46    5.72
  -1  -2   2  173.01    5.96
  -1  -2   2  159.35    5.62
  -1  -2   2  167.33    5.50
  -1  -2   2  164.34    5.55
   0   2  -2   77.75    3.23
   0   2  -2   80.23    2.88
   0   2  -2   76.70    2.87
   0   2  -2   80.51    3.11
   0   2  -2   79.13    3.26
   0   2  -2   79.15    3.52
   0   2  -2   78.31    3.08
   0   2  -2   80.80    3.02
   0  -2   2   86.32    3.66
   0  -2   2   83.70    2.92
   0  -2   2   82.03    3.14
   0  -2   2   78.78    3.15
   0  -2   2   81.27    3.04
   0  -2   2   81.73    2.99
   0  -2   2   79.09    2.98
   0  -2   2   76.63    3.12
   0  -2   2   82.62    3.29
   0  -2   2   81.94    3.05
  -1   2  -2  100.69    3.86
  -1   2  -2  108.99    4.42
  -1   2  -2  102.92    3.76
  -1   2  -2  101.78    3.59
  -1   2  -2  109.72    3.79
   1  -2   2  100.21    3.75
   1  -2   2  105.97    4.44
   1  -2   2  106.07    3.35
   1  -2   2  105.15    3.20
   1  -2   2   98.52    4.04
   1  -2   2  102.94    3.81
   1  -2   2  112.75    3.45
   1  -2   2  106.92    4.54
   1  -2   2  112.68    3.74
  -2   2  -2  378.94   11.25
  -2   2  -2  379.91   11.23
  -2   2  -2  392.13   11.94
  -2   2  -2  390.42   12.87
   2  -2   2  378.71   11.38
   2  -2   2  383.61   12.56
   2  -2   2  409.06   11.27
   2  -2   2  390.64   11.89
   2  -2   2  378.54   12.51
   2  -2   2  378.47   11.80
  -3   2  -2  117.41    5.50
  -3   2  -2  117.80    4.28
   3  -2   2  119.18    3.73
   3  -2   2  111.74    4.95
   3  -2   2  111.40    4.37
   3  -2   2  114.17    5.16
   3  -2   2  115.97    4.27
  -4   2  -2  109.68    4.24
  -4   2  -2  114.26    5.94
   4  -2   2  112.83    5.07
   4  -2   2  117.28    3.93
   4  -2   2  115.55    4.45
   4  -2   2  106.18    4.30
   4  -2   2  103.77    5.28
   4  -2   2  114.88    3.85
  -5   2  -2  171.51    6.07
  -5   2  -2  168.41    8.19
   5  -2   2  172.98    5.75
   5  -2   2  173.87    7.02
   5  -2   2  173.01    8.69
   5  -2   2  165.04    6.25
   5  -2   2  163.23    6.24
  -6   2  -2   63.05    5.16
  -6   2  -2   69.05    3.30
   6  -2   2   67.37    3.59
   6  -2   2   63.49    2.80
   6  -2   2   66.01    3.12
   6  -2   2   70.85    4.06
  -7   2  -2   23.84    3.81
  -7   2  -2   29.67    2.26
   7  -2   2   27.92    2.06
   7  -2   2   25.58    2.43
   7  -2   2   25.91    2.21
   7  -2   2   23.32    2.53
   7  -2   2   21.91    2.60
  -8   2  -2   41.89    5.09
   8  -2   2   42.22    3.02
   8  -2   2   39.78    3.04
   8  -2   2   43.29    3.58
   8  -2   2   41.36    3.49
  -9   2  -2    3.65    2.88
   9  -2   2    9.69    2.35
   9  -2   2    5.71    2.28
   9  -2   2    8.82    1.96
   9  -2   2   12.81    2.23
 -10   2  -2    1.18    2.99
  10  -2   2    0.57    1.66
  10  -2   2    0.98    1.67
 -10  -1   2    6.49    4.21
   9   1  -2   40.00    4.07
  -9  -1   2   38.15    5.91
   8   1  -2   29.40    3.00
   8   1  -2   29.43    3.23
   8   1  -2   22.09    3.09
  -8  -1   2   26.17    2.89
  -8  -1   2   37.29    5.25
   7   1  -2    4.43    1.51
   7   1  -2    6.84    1.89
   7   1  -2    5.21    1.88
   7   1  -2    4.69    1.46
   7   1  -2    4.83    1.60
   7   1  -2    5.91    1.77
  -7  -1   2    5.32    3.02
  -7  -1   2    6.34    1.71
   6   1  -2  137.19    5.99
   6   1  -2  130.93    5.69
   6   1  -2  135.95    5.91
   6   1  -2  122.91    5.82
   6   1  -2  129.56    5.82
   6   1  -2  125.72    5.56
  -6  -1   2  128.71    5.70
  -6  -1   2  119.86    7.58
   5   1  -2  130.77    5.27
   5   1  -2  129.45    5.44
   5   1  -2  122.53    5.34
   5   1  -2  137.76    5.61
   5   1  -2  123.56    5.39
   5   1  -2  132.55    5.61
  -5  -1   2  126.27    5.37
  -5  -1   2  127.78    5.05
  -5  -1   2  132.03    7.36
   4   1  -2    2.11    0.93
   4   1  -2    2.28    0.88
   4   1  -2    2.60    0.88
   4   1  -2    2.55    0.74
   4   1  -2    1.76    0.82
   4   1  -2    2.99    1.03
   4   1  -2    2.65    0.93
  -4  -1   2    2.73    0.89
  -4  -1   2    2.02    0.80
   3   1  -2  267.14    8.38
   3   1  -2  266.60    8.90
   3   1  -2  264.85    8.49
   3   1  -2  262.59    8.68
   3   1  -2  270.47    8.38
   3   1  -2  257.64    8.82
   3   1  -2  262.62    8.70
   3   1  -2  274.81    8.61
  -3  -1   2  266.89    8.62
  -3  -1   2  270.44    8.30
  -3  -1   2  253.90    8.55
  -3  -1   2  262.35    8.80
   2   1  -2  101.58    4.06
   2   1  -2  103.76    3.45
   2   1  -2  105.32    3.88
   2   1  -2  104.89    3.95
   2   1  -2  109.74    3.85
   2   1  -2  117.47    4.00
   2   1  -2  109.46    3.79
   2   1  -2  108.08    4.17
   2   1  -2  107.37    3.98
  -2  -1   2  105.99    3.63
  -2  -1   2  103.62    4.06
  -2  -1   2  111.54    3.95
  -2  -1   2  104.36    3.91
  -2  -1   2  108.43    3.80
  -2  -1   2  103.72    3.71
  -2  -1   2   98.25    3.61
   1   1  -2    6.00    0.74
   1   1  -2    5.14    0.80
   1   1  -2    4.80    0.71
   1   1  -2    5.01    0.77
   1   1  -2    4.40    0.71
   1   1  -2    5.97    0.82
   1   1  -2    4.41    0.69
   1   1  -2    4.30    0.74
   1   1  -2    6.60    0.83
   1   1  -2    5.48    0.76
  -1  -1   2    5.02    0.69
  -1  -1   2    6.87    0.74
  -1  -1   2    5.87    0.93
  -1  -1   2    5.40    0.80
  -1  -1   2    5.71    0.74
  -1  -1   2    6.94    0.91
   0   1  -2  672.43   17.61
   0   1  -2  563.38   17.36
   0   1  -2  598.59   17.80
   0   1  -2  596.24   17.31
   0   1  -2  616.02   17.38
   0   1  -2  597.06   17.57
   0   1  -2  573.28   17.36
   0   1  -2  591.15   17.48
   0   1  -2  575.80   17.48
   0   1  -2  572.92   17.25
   0   1  -2  658.50   17.64
   0  -1   2  595.02   17.39
   0  -1   2  592.81   17.40
   0  -1   2  599.45   17.43
   0  -1   2  594.56   17.49
   0  -1   2  621.42   17.58
   0  -1   2  590.94   17.57
   0  -1   2  605.55   17.30
  -1   1  -2  120.26    4.47
  -1   1  -2  129.25    4.27
  -1   1  -2  123.30    3.85
  -1   1  -2  117.21    4.44
  -1   1  -2  123.00    4.42
  -1   1  -2  128.22    4.46
  -1   1  -2  120.31    3.89
   1  -1   2  129.19    3.96
   1  -1   2  118.13    4.45
   1  -1   2  119.97    4.43
   1  -1   2  123.04    4.37
   1  -1   2  128.94    3.98
   1  -1   2  128.46    3.81
   1  -1   2  116.92    3.78
   1  -1   2  121.11    4.31
   1  -1   2  123.70    4.50
   1  -1   2  124.09    4.04
   1  -1   2  118.88    3.90
  -2   1  -2    1.43    0.70
  -2   1  -2    1.52    0.83
  -2   1  -2    0.88    0.49
  -2   1  -2    2.64    0.97
  -2   1  -2    1.36    0.70
  -2   1  -2    1.45    0.62
   2  -1   2    0.54    0.50
   2  -1   2    2.38    1.02
   2  -1   2    0.65    0.27
   2  -1   2    1.39    0.62
   2  -1   2    0.51    0.44
   2  -1   2    2.45    0.75
   2  -1   2    2.90    0.63
   2  -1   2    1.67    0.71
  -3   1  -2  389.91   13.20
  -3   1  -2  395.31   12.94
  -3   1  -2  386.50   12.21
  -3   1  -2  410.21   11.75
  -3   1  -2  392.45   12.44
   3  -1   2  383.05   12.05
   3  -1   2  423.35   11.99
   3  -1   2  392.71   11.67
   3  -1   2  380.16   12.28
   3  -1   2  375.47   11.41
   3  -1   2  373.04   12.85
   3  -1   2  382.14   12.24
  -4   1  -2   12.13    1.75
  -4   1  -2   12.53    1.46
  -4   1  -2   14.60    1.16
  -4   1  -2   12.91    1.66
  -4   1  -2   10.36    2.25
   4  -1   2   12.43    1.42
   4  -1   2   15.99    1.29
   4  -1   2   11.83    1.74
   4  -1   2   13.84    1.45
   4  -1   2   15.44    1.55
   4  -1   2   14.76    1.48
   4  -1   2   13.87    1.05
  -5   1  -2   41.73    2.90
  -5   1  -2   43.56    3.34
  -5   1  -2   40.19    2.66
  -5   1  -2   39.20    3.69
   5  -1   2   44.38    2.73
   5  -1   2   42.54    3.32
   5  -1   2   41.88    2.22
   5  -1   2   39.87    2.32
   5  -1   2   40.72    2.72
   5  -1   2   43.37    2.58
   5  -1   2   43.72    2.65
  -6   1  -2  107.17    4.85
  -6   1  -2   98.94    6.39
   6  -1   2  107.59    4.54
   6  -1   2  108.21    5.01
   6  -1   2   99.67    4.94
   6  -1   2  103.87    4.51
   6  -1   2  104.66    4.61
   6  -1   2  105.33    4.90
  -7   1  -2    4.17    1.46
  -7   1  -2    4.62    2.30
   7  -1   2    6.94    1.71
   7  -1   2    6.05    1.39
   7  -1   2    8.13    1.63
   7  -1   2    4.72    1.54
  -8   1  -2   37.11    4.80
  -8   1  -2   36.94    3.16
   8  -1   2   38.05    3.71
   8  -1   2   38.36    3.14
   8  -1   2   38.58    3.54
   8  -1   2   40.11    3.21
  -9   1  -2   23.53    4.97
   9  -1   2   30.19    3.81
   9  -1   2   31.91    3.33
   9  -1   2   34.88    3.22
   9  -1   2   34.20    3.90
 -10   1  -2    3.54    3.43
  10  -1   2    2.32    1.87
  10  -1   2    7.28    2.48
  10   0  -2   28.42    3.80
 -10   0   2   24.10    6.24
   9   0  -2   37.04    3.54
   9   0  -2   25.75    2.96
   9   0  -2   24.68    3.28
  -9   0   2   23.91    3.47
  -9   0   2   30.77    5.35
   8   0  -2    0.59    1.26
   8   0  -2    0.58    1.08
   8   0  -2    0.86    1.06
  -8   0   2    1.11    1.42
  -8   0   2    0.86    2.09
   7   0  -2   41.65    3.11
   7   0  -2   37.80    2.97
   7   0  -2   46.62    2.96
   7   0  -2   42.11    2.87
  -7   0   2   50.48    5.21
  -7   0   2   46.17    3.64
   6   0  -2  154.83    6.15
   6   0  -2  157.34    6.30
   6   0  -2  158.05    6.10
   6   0  -2  151.26    6.18
   6   0  -2  158.00    5.87
   6   0  -2  153.64    6.77
  -6   0   2  161.65    6.89
  -6   0   2  150.86    6.12
  -6   0   2  154.15    8.66
   5   0  -2    0.12    0.63
   5   0  -2    1.11    0.80
   5   0  -2    0.14    0.47
   5   0  -2    0.50    0.64
   5   0  -2    0.59    0.70
   5   0  -2    0.89    0.82
  -5   0   2    1.37    0.88
  -5   0   2    0.99    1.41
  -5   0   2   -0.23    0.71
   4   0  -2   69.87    3.08
   4   0  -2   69.92    2.81
   4   0  -2   68.22    2.82
   4   0  -2   68.19    3.39
   4   0  -2   63.16    3.04
   4   0  -2   70.90    2.74
  -4   0   2   68.72    4.60
  -4   0   2   73.13    3.56
  -4   0   2   63.81    3.01
   3   0  -2  199.70    6.39
   3   0  -2  191.69    6.48
   3   0  -2  192.15    5.89
   3   0  -2  195.80    5.91
   3   0  -2  201.94    6.13
   3   0  -2  196.95    6.14
  -3   0   2  194.40    7.84
  -3   0   2  192.50    6.89
  -3   0   2  191.14    6.39
   2   0  -2    2.49    0.58
   2   0  -2    2.23    0.37
   2   0  -2    2.57    0.60
   2   0  -2    1.46    0.75
   2   0  -2    1.65    0.32
   2   0  -2    1.78    0.43
  -2   0   2    2.41    0.63
  -2   0   2    0.99    0.62
  -2   0   2    3.71    1.19
   1   0  -2   93.46    2.91
   1   0  -2   89.08    2.88
   1   0  -2   89.68    3.03
   1   0  -2   85.12    3.02
   1   0  -2   82.65    3.02
   1   0  -2   92.41    2.82
   1   0  -2   90.84    3.12
  -1   0   2   91.57    2.77
  -1   0   2   86.33    3.43
  -1   0   2   90.95    3.12
  -1   0   2   93.62    3.02
  -1   0   2   86.00    2.69
  -1   0   2   88.96    2.83
  -1   0   2   84.09    2.66
  -1   0   2   86.79    2.83
   0   0  -2  457.20   12.42
   0   0  -2  402.21   12.41
   0   0  -2  412.90   12.19
   0   0  -2  409.69   12.22
   0   0  -2  406.22   12.32
   0   0   2  400.87   12.18
   0   0   2  397.19   12.16
   0   0   2  421.00   12.46
   0   0   2  418.65   12.35
  -1   0  -2    4.50    0.74
  -1   0  -2    4.67    0.67
  -1   0  -2    4.16    0.84
  -1   0  -2    5.68    0.87
  -1   0  -2    5.35    0.67
  -1   0  -2    4.91    0.92
  -1   0  -2    5.68    0.93
  -1   0  -2    4.82    0.77
  -1   0  -2    4.98    0.78
   1   0   2    5.63    1.11
   1   0   2    4.29    0.69
   1   0   2    3.85    0.65
   1   0   2    5.97    0.88
   1   0   2    4.56    0.87
   1   0   2    6.11    0.90
   1   0   2    5.23    0.97
   1   0   2    5.53    0.87
   1   0   2    5.14    0.70
  -2   0  -2    4.54    1.05
  -2   0  -2    3.69    0.48
  -2   0  -2    4.22    0.84
  -2   0  -2    3.54    0.63
  -2   0  -2    3.70    0.58
  -2   0  -2    3.30    0.85
  -2   0  -2    3.52    0.54
  -2   0  -2    3.74    1.20
  -2   0  -2    4.49    0.96
  -2   0  -2    4.57    1.06
   2   0   2    3.77    0.70
   2   0   2    3.56    0.90
   2   0   2    4.00    0.73
   2   0   2    3.29    0.89
   2   0   2    2.74    0.77
   2   0   2    4.66    0.83
   2   0   2    5.10    0.89
  -3   0  -2  303.33    9.46
  -3   0  -2  300.64    9.21
  -3   0  -2  303.42   10.16
  -3   0  -2  322.67    9.87
  -3   0  -2  303.42   10.46
  -3   0  -2  308.12   10.29
  -3   0  -2  311.16   10.84
   3   0   2  304.79    9.73
   3   0   2  304.20    9.65
   3   0   2  313.65   10.17
   3   0   2  309.83   10.06
   3   0   2  315.15    9.84
   3   0   2  293.72   10.09
  -4   0  -2    7.54    1.97
  -4   0  -2    8.74    1.57
  -4   0  -2    9.84    1.62
  -4   0  -2    9.54    1.23
  -4   0  -2    7.96    0.87
   4   0   2   11.27    1.52
   4   0   2   10.56    1.56
   4   0   2    9.02    1.40
   4   0   2    9.05    1.23
   4   0   2    9.71    1.19
  -5   0  -2    4.36    1.39
  -5   0  -2    2.33    1.58
  -5   0  -2    5.26    1.43
   5   0   2    7.46    1.61
   5   0   2    5.07    1.15
   5   0   2    4.61    1.18
   5   0   2    3.98    1.42
   5   0   2    2.18    1.04
  -6   0  -2  172.85    7.34
  -6   0  -2  174.27    8.93
  -6   0  -2  189.74    8.20
   6   0   2  183.23    7.48
   6   0   2  181.41    7.58
   6   0   2  179.99    6.96
   6   0   2  169.21    7.68
   6   0   2  173.22    7.06
  -7   0  -2    0.94    1.25
  -7   0  -2    0.44    1.80
   7   0   2    1.36    1.07
   7   0   2   -0.31    0.99
   7   0   2    1.72    1.19
   7   0   2    1.19    1.30
  -8   0  -2    4.51    2.93
  -8   0  -2    5.43    1.98
   8   0   2    0.01    1.44
   8   0   2    2.63    1.41
   8   0   2    2.80    1.37
   8   0   2    2.42    1.62
  -9   0  -2   76.87    7.21
   9   0   2   74.76    5.86
   9   0   2   80.36    5.05
 -10   0  -2    1.89    3.06
  10   0   2   -2.08    1.60
  10  -1  -2   24.13    3.26
  10  -1  -2   33.60    3.69
  10  -1  -2   28.40    3.17
 -10   1   2   28.25    6.27
   9  -1  -2    5.47    1.63
   9  -1  -2    8.16    2.08
   9  -1  -2    9.23    2.01
  -9   1   2    9.83    2.68
  -9   1   2    8.86    3.64
   8  -1  -2   11.97    1.91
   8  -1  -2   16.78    2.27
  -8   1   2   16.13    2.69
  -8   1   2   13.82    4.18
   7  -1  -2   79.25    3.83
   7  -1  -2   75.89    3.60
   7  -1  -2   70.57    3.80
  -7   1   2   76.52    4.93
  -7   1   2   77.02    6.40
   6  -1  -2   40.31    2.42
   6  -1  -2   33.51    2.34
   6  -1  -2   37.33    3.11
   6  -1  -2   37.91    2.47
   6  -1  -2   37.27    2.17
  -6   1   2   37.90    3.16
  -6   1   2   35.55    4.03
   5  -1  -2   48.70    2.42
   5  -1  -2   47.34    2.08
   5  -1  -2   49.32    2.08
   5  -1  -2   46.73    2.41
   5  -1  -2   51.48    3.27
  -5   1   2   46.26    3.28
  -5   1   2   46.43    4.11
   4  -1  -2   38.08    1.88
   4  -1  -2   39.95    1.86
  -4   1   2   39.90    2.76
  -4   1   2   33.88    3.25
   3  -1  -2  260.28    7.85
  -3   1   2  252.01    8.94
  -3   1   2  262.36    9.80
   2  -1  -2   57.36    2.09
   2  -1  -2   54.14    1.91
  -2   1   2   55.66    2.14
  -2   1   2   51.33    2.72
  -2   1   2   55.14    3.16
   1  -1  -2  132.75    4.85
   1  -1  -2  141.90    4.07
   1  -1  -2  134.55    4.51
   1  -1  -2  135.32    4.38
   1  -1  -2  125.12    4.45
   1  -1  -2  134.13    4.04
  -1   1   2  123.05    4.71
  -1   1   2  135.86    4.24
  -1   1   2  133.70    4.44
  -1   1   2  137.38    4.91
  -1   1   2  133.18    4.51
   0  -1  -2  473.54   14.50
   0  -1  -2  512.87   14.60
   0  -1  -2  480.24   14.32
   0  -1  -2  478.74   14.54
   0  -1  -2  493.96   14.47
   0  -1  -2  468.95   14.29
   0  -1  -2  494.94   14.30
   0  -1  -2  498.71   14.25
   0  -1  -2  471.34   14.20
   0   1   2  480.74   14.31
   0   1   2  536.88   14.49
   0   1   2  462.60   14.32
   0   1   2  503.27   14.31
   0   1   2  472.64   14.48
   0   1   2  483.60   14.45
   0   1   2  462.15   14.44
   0   1   2  478.05   14.22
   0   1   2  472.51   14.14
  -1  -1  -2   21.61    1.62
  -1  -1  -2   19.52    1.45
  -1  -1  -2   18.32    1.31
  -1  -1  -2   19.23    1.51
  -1  -1  -2   20.47    1.50
  -1  -1  -2   21.43    1.41
   1   1   2   21.12    1.52
   1   1   2   21.58    1.56
   1   1   2   17.72    1.54
   1   1   2   19.45    1.33
   1   1   2   17.96    1.29
  -2  -1  -2   50.57    2.57
  -2  -1  -2   45.37    2.48
  -2  -1  -2   49.03    2.35
  -2  -1  -2   50.64    2.26
  -2  -1  -2   47.74    2.47
  -2  -1  -2   49.34    2.73
  -2  -1  -2   45.96    2.53
   2   1   2   50.90    2.60
   2   1   2   48.18    2.40
   2   1   2   48.02    2.58
   2   1   2   48.09    2.32
   2   1   2   51.19    2.51
   2   1   2   48.57    2.71
   2   1   2   47.20    2.70
  -3  -1  -2  251.15    8.64
  -3  -1  -2  238.51    8.53
  -3  -1  -2  245.53    8.27
  -3  -1  -2  225.18    7.81
  -3  -1  -2  241.11    7.54
  -3  -1  -2  230.82    8.06
  -3  -1  -2  235.12    7.79
   3   1   2  236.19    8.50
   3   1   2  233.59    8.34
   3   1   2  238.06    8.57
   3   1   2  241.07    8.06
   3   1   2  230.70    8.16
   3   1   2  235.57    8.21
   3   1   2  239.62    7.66
  -4  -1  -2   40.13    3.46
  -4  -1  -2   49.80    3.14
  -4  -1  -2   40.28    2.97
  -4  -1  -2   48.10    2.69
  -4  -1  -2   47.77    2.80
  -4  -1  -2   41.52    2.40
   4   1   2   44.74    2.67
   4   1   2   47.23    3.09
   4   1   2   42.11    2.68
   4   1   2   48.20    2.93
   4   1   2   48.21    3.14
   4   1   2   42.70    2.87
  -5  -1  -2   16.44    2.73
  -5  -1  -2   15.95    2.16
  -5  -1  -2   16.39    1.62
  -5  -1  -2   17.49    2.19
  -5  -1  -2   17.24    1.76
  -5  -1  -2   12.62    1.82
   5   1   2   19.85    2.36
   5   1   2   15.93    1.90
   5   1   2   17.93    2.22
   5   1   2   15.37    2.05
   5   1   2   13.91    1.79
  -6  -1  -2  133.13    7.74
  -6  -1  -2  137.79    6.65
  -6  -1  -2  143.74    6.81
   6   1   2  144.51    6.66
   6   1   2  139.50    6.93
   6   1   2  146.54    6.82
   6   1   2  139.51    6.18
   6   1   2  147.58    6.49
  -7  -1  -2    9.80    2.31
  -7  -1  -2   11.74    3.31
  -7  -1  -2   10.85    2.44
   7   1   2   13.15    2.74
   7   1   2   11.90    2.41
   7   1   2   15.50    2.44
   7   1   2   14.72    2.44
   7   1   2   10.38    2.38
  -8  -1  -2    8.30    3.38
  -8  -1  -2    8.20    2.49
   8   1   2    9.61    2.36
   8   1   2    8.09    2.58
  -9  -1  -2   54.17    6.37
   9   1   2   77.27    5.26
 -10  -1  -2   -3.95    3.09
  10   1   2    2.35    2.20
  10  -2  -2   18.85    2.73
  10  -2  -2   17.42    2.45
  10  -2  -2   21.65    3.22
 -10   2   2   15.98    5.32
   9  -2  -2    0.55    0.92
   9  -2  -2    1.08    0.78
   9  -2  -2    1.66    1.38
  -9   2   2   -0.70    2.57
  -9   2   2    3.42    2.35
   8  -2  -2   46.62    3.84
   8  -2  -2   45.11    2.52
  -8   2   2   44.98    5.35
  -8   2   2   45.98    4.30
   7  -2  -2   33.97    2.30
  -7   2   2   42.37    3.84
  -7   2   2   39.16    4.59
   6  -2  -2    1.95    0.64
  -6   2   2    2.88    1.81
  -6   2   2    1.63    1.26
   5  -2  -2  105.98    5.43
   5  -2  -2  113.47    3.88
   5  -2  -2  113.88    3.77
  -5   2   2  109.70    5.68
  -5   2   2  104.42    6.41
  -4   2   2  118.07    5.59
  -4   2   2  111.30    6.11
  -3   2   2   43.93    3.33
  -3   2   2   44.45    2.93
   2  -2  -2  395.21   11.43
   2  -2  -2  382.77   11.37
  -2   2   2  383.21   11.26
  -2   2   2  394.12   12.62
  -2   2   2  385.17   13.04
   1  -2  -2   31.83    2.45
   1  -2  -2   29.30    1.05
   1  -2  -2   30.95    1.71
   1  -2  -2   29.55    1.65
   1  -2  -2   29.37    1.33
   1  -2  -2   29.31    1.04
   1  -2  -2   27.70    1.45
  -1   2   2   30.92    1.69
  -1   2   2   29.90    1.66
  -1   2   2   25.69    1.85
  -1   2   2   28.50    1.55
   0  -2  -2  116.56    4.21
   0  -2  -2  119.28    4.18
   0  -2  -2  113.67    4.14
   0  -2  -2  111.40    4.21
   0  -2  -2  118.90    4.45
   0  -2  -2  122.78    4.35
   0  -2  -2  121.60    4.35
   0  -2  -2  116.08    4.51
   0  -2  -2  121.60    4.45
   0   2   2  119.92    4.50
   0   2   2  115.07    4.48
   0   2   2  121.33    4.07
   0   2   2  121.85    4.10
   0   2   2  108.59    4.24
   0   2   2  117.24    3.96
   0   2   2  119.01    4.25
   0   2   2  120.21    4.39
   0   2   2  118.74    4.18
  -1  -2  -2  275.41    9.40
  -1  -2  -2  301.57    9.35
  -1  -2  -2  299.44    9.84
  -1  -2  -2  300.19    9.65
  -1  -2  -2  304.98    9.63
  -1  -2  -2  286.34    9.40
   1   2   2  297.53    9.62
   1   2   2  274.86    8.83
   1   2   2  290.77    9.57
   1   2   2  305.48    9.35
   1   2   2  280.71    9.31
   1   2   2  321.32    9.64
   1   2   2  281.27    9.41
   1   2   2  283.54    9.73
  -2  -2  -2   28.48    2.08
  -2  -2  -2   25.77    1.97
  -2  -2  -2   24.97    1.95
  -2  -2  -2   29.60    2.14
  -2  -2  -2   31.35    2.02
  -2  -2  -2   24.86    2.18
   2   2   2   25.38    2.00
   2   2   2   22.98    1.97
   2   2   2   24.17    2.15
   2   2   2   26.44    1.90
   2   2   2   24.84    1.85
  -3  -2  -2   61.25    3.56
  -3  -2  -2   61.95    3.23
  -3  -2  -2   65.22    3.42
  -3  -2  -2   60.64    3.19
  -3  -2  -2   58.75    3.08
  -3  -2  -2   62.34    3.23
  -3  -2  -2   59.89    2.92
   3   2   2   53.14    3.40
   3   2   2   52.12    3.12
   3   2   2   59.89    3.41
   3   2   2   58.45    3.35
   3   2   2   62.01    3.59
   3   2   2   59.03    3.06
   3   2   2   63.81    3.24
   3   2   2   58.48    2.19
  -4  -2  -2  174.43    7.40
  -4  -2  -2  181.19    7.09
  -4  -2  -2  177.17    6.84
  -4  -2  -2  160.20    6.67
  -4  -2  -2  176.30    6.26
  -4  -2  -2  176.88    7.25
  -4  -2  -2  177.78    6.60
   4   2   2  178.66    7.48
   4   2   2  185.21    7.29
   4   2   2  180.45    6.74
   4   2   2  171.30    7.02
   4   2   2  176.10    7.22
   4   2   2  174.37    5.74
   4   2   2  169.25    6.82
   4   2   2  176.54    7.51
  -5  -2  -2   31.80    1.76
  -5  -2  -2   34.46    2.92
  -5  -2  -2   30.35    1.85
  -5  -2  -2   34.07    3.17
  -5  -2  -2   29.55    2.68
  -5  -2  -2   26.16    2.55
  -5  -2  -2   29.75    3.47
  -5  -2  -2   32.02    2.52
   5   2   2   32.62    2.94
   5   2   2   29.67    3.05
   5   2   2   31.93    2.99
   5   2   2   31.47    3.01
   5   2   2   39.50    2.93
   5   2   2   32.47    2.75
  -6  -2  -2   65.99    4.30
  -6  -2  -2   63.79    4.53
  -6  -2  -2   62.19    5.28
  -6  -2  -2   61.62    3.76
   6   2   2   57.05    4.53
   6   2   2   63.50    4.58
   6   2   2   65.30    4.15
   6   2   2   59.60    4.33
   6   2   2   60.05    4.12
  -7  -2  -2   62.87    4.91
  -7  -2  -2   62.96    4.57
  -7  -2  -2   71.24    6.15
   7   2   2   74.30    4.65
   7   2   2   66.99    5.07
   7   2   2   70.23    5.30
  -8  -2  -2    7.57    2.41
  -8  -2  -2   11.04    3.86
   8   2   2    6.02    1.95
  -9  -2  -2   29.80    5.90
   9   2   2   37.91    4.20
  10  -3  -2    1.16    1.12
  10  -3  -2    2.00    1.20
 -10   3   2    0.61    2.97
   9  -3  -2   15.31    2.17
   9  -3  -2   11.53    1.53
  -9   3   2   20.10    4.07
  -9   3   2   11.96    4.26
   8  -3  -2   51.58    2.90
   8  -3  -2   59.57    4.58
  -8   3   2   39.43    5.50
  -8   3   2   59.48    5.08
   7  -3  -2    2.20    0.77
  -7   3   2   -0.17    1.77
  -7   3   2    6.32    2.29
   6  -3  -2   12.32    1.03
  -6   3   2   11.46    3.13
  -6   3   2   14.54    3.00
  -5   3   2  165.04    7.74
  -5   3   2  166.43    8.68
  -4   3   2    5.31    1.59
  -4   3   2    8.58    2.29
   3  -3  -2   18.61    0.96
   3  -3  -2   18.56    1.08
  -3   3   2   19.08    2.47
  -3   3   2   19.44    2.19
   2  -3  -2  283.84    8.84
   2  -3  -2  295.38    8.91
  -2   3   2  284.10   10.13
  -2   3   2  301.41   10.83
  -2   3   2  269.13    8.67
   1  -3  -2    6.72    1.15
   1  -3  -2    4.11    0.78
   1  -3  -2    4.67    0.80
   1  -3  -2    5.47    0.97
   1  -3  -2    6.59    1.01
   1  -3  -2    5.13    0.73
   1  -3  -2    4.97    0.69
  -1   3   2    5.16    0.91
  -1   3   2    4.19    0.95
  -1   3   2    4.57    1.18
  -1   3   2    5.04    1.01
   0  -3  -2    1.09    0.66
   0  -3  -2    1.11    0.69
   0  -3  -2    1.33    0.69
   0  -3  -2    0.35    0.68
   0  -3  -2    0.95    0.70
   0  -3  -2    0.85    0.66
   0  -3  -2    0.48    0.52
   0   3   2    0.24    0.73
   0   3   2    1.05    0.67
   0   3   2    0.78    0.47
   0   3   2    0.75    0.63
   0   3   2    0.74    0.64
   0   3   2    1.17    0.50
  -1  -3  -2  460.82   14.86
  -1  -3  -2  469.53   15.33
  -1  -3  -2  469.44   15.22
  -1  -3  -2  490.33   15.24
  -1  -3  -2  491.20   14.89
  -1  -3  -2  486.07   15.23
  -1  -3  -2  476.37   14.93
   1   3   2  469.76   15.38
   1   3   2  457.14   14.73
   1   3   2  480.59   15.02
   1   3   2  489.40   15.19
   1   3   2  477.40   14.82
   1   3   2  517.96   15.21
   1   3   2  485.31   14.71
   1   3   2  458.20   14.24
  -2  -3  -2    0.54    0.46
  -2  -3  -2   -0.20    0.94
  -2  -3  -2    0.83    0.61
  -2  -3  -2    1.15    0.79
  -2  -3  -2    1.97    0.89
  -2  -3  -2    0.26    0.76
  -2  -3  -2    1.52    0.89
   2   3   2    0.44    0.65
   2   3   2   -0.05    0.79
   2   3   2    1.00    0.31
   2   3   2    0.19    0.73
   2   3   2    0.44    0.59
   2   3   2    2.52    1.17
   2   3   2    0.37    0.70
   2   3   2    0.90    0.74
  -3  -3  -2   10.79    1.89
  -3  -3  -2    6.92    1.44
  -3  -3  -2    9.85    1.91
  -3  -3  -2    8.12    1.04
  -3  -3  -2    9.35    1.48
  -3  -3  -2    9.00    1.52
  -3  -3  -2    6.99    1.48
  -3  -3  -2    8.58    1.60
   3   3   2    8.08    1.70
   3   3   2    9.31    1.55
   3   3   2   12.47    1.71
   3   3   2    8.99    1.85
   3   3   2    7.89    1.57
   3   3   2   12.21    1.85
  -4  -3  -2  297.26   10.78
  -4  -3  -2  315.37   10.48
  -4  -3  -2  305.69   11.21
  -4  -3  -2  316.37   11.69
  -4  -3  -2  312.33   10.76
  -4  -3  -2  299.79   11.01
   4   3   2  299.80   11.21
   4   3   2  305.28   11.35
   4   3   2  299.25   11.58
   4   3   2  302.27   11.60
   4   3   2  298.96   10.87
   4   3   2  303.76   10.73
  -5  -3  -2   14.70    2.45
  -5  -3  -2   13.65    2.13
  -5  -3  -2   14.06    2.28
  -5  -3  -2   12.44    2.52
  -5  -3  -2   12.88    1.69
  -5  -3  -2   14.49    2.35
  -5  -3  -2   12.91    2.15
   5   3   2   14.91    2.54
   5   3   2   15.98    2.27
   5   3   2    9.23    2.12
   5   3   2    8.72    1.91
   5   3   2   16.50    3.05
  -6  -3  -2    5.55    1.73
  -6  -3  -2    6.81    1.15
  -6  -3  -2    9.96    3.20
  -6  -3  -2    6.65    1.95
  -6  -3  -2    7.61    1.29
  -6  -3  -2    4.26    2.10
   6   3   2    8.69    2.52
   6   3   2    6.19    1.82
  -7  -3  -2  103.48    6.79
  -7  -3  -2  125.67    8.32
  -7  -3  -2  124.22    6.56
   7   3   2  123.91    6.61
   7   3   2  120.20    7.12
  -8  -3  -2    4.02    2.30
  -8  -3  -2    3.72    3.21
   8   3   2    4.19    2.29
  -9  -3  -2   -0.17    2.64
   9   3   2   -0.41    1.95
  10  -4  -2    3.77    1.20
 -10   4   2    4.91    4.03
   9  -4  -2   18.46    2.34
  -9   4   2   22.19    5.27
  -9   4   2   22.92    4.61
   8  -4  -2   22.99    1.68
   8  -4  -2   25.65    3.67
  -8   4   2   30.21    4.12
  -8   4   2   17.86    4.47
  -7   4   2   10.14    3.38
  -7   4   2    5.74    2.18
  -6   4   2   48.01    4.31
  -6   4   2   44.73    4.90
  -5   4   2  119.26    6.66
  -5   4   2  126.31    7.62
   4  -4  -2   45.23    1.81
  -4   4   2   43.75    4.14
  -4   4   2   45.84    3.68
   3  -4  -2   66.03    2.76
   3  -4  -2   68.74    2.70
  -3   4   2   68.31    4.79
  -3   4   2   69.71    4.26
   2  -4  -2  219.96    6.77
   2  -4  -2  210.93    7.20
   2  -4  -2  209.25    7.17
   2  -4  -2  222.83    6.98
  -2   4   2  198.01    8.29
  -2   4   2  211.21    7.13
  -2   4   2  219.19    7.24
   1  -4  -2   24.46    1.70
   1  -4  -2   27.99    1.93
   1  -4  -2   26.81    1.80
   1  -4  -2   26.98    1.96
   1  -4  -2   26.30    1.74
   1  -4  -2   28.59    2.04
  -1   4   2   28.37    2.10
  -1   4   2   23.19    2.12
  -1   4   2   25.24    1.78
  -1   4   2   24.09    1.92
   0  -4  -2   63.66    3.40
   0  -4  -2   67.49    3.41
   0  -4  -2   65.71    3.50
   0  -4  -2   61.81    3.13
   0  -4  -2   63.12    3.34
   0  -4  -2   61.54    3.13
   0  -4  -2   62.64    3.15
   0   4   2   61.49    2.88
   0   4   2   64.08    3.54
   0   4   2   63.39    3.25
   0   4   2   62.48    3.22
  -1  -4  -2  318.36   10.75
  -1  -4  -2  298.51   10.54
  -1  -4  -2  322.20   10.61
  -1  -4  -2  317.94   11.09
  -1  -4  -2  329.12   11.04
  -1  -4  -2  313.04   11.17
  -1  -4  -2  323.19   11.06
   1   4   2  328.57   10.95
   1   4   2  305.32   10.44
   1   4   2  315.63   11.28
   1   4   2  313.06   10.02
   1   4   2  304.51   10.20
   1   4   2  313.83   10.33
  -2  -4  -2   16.04    2.09
  -2  -4  -2   18.03    2.09
  -2  -4  -2   17.25    2.21
  -2  -4  -2   13.81    1.77
  -2  -4  -2   14.10    1.85
  -2  -4  -2   16.07    1.93
  -2  -4  -2   18.81    2.09
  -2  -4  -2   17.09    1.95
   2   4   2   15.88    2.02
   2   4   2   16.07    1.92
   2   4   2   18.60    2.32
   2   4   2   16.83    1.74
   2   4   2   14.41    1.99
   2   4   2   15.19    1.81
  -3  -4  -2   30.82    2.19
  -3  -4  -2   32.41    2.73
  -3  -4  -2   34.88    2.74
  -3  -4  -2   32.95    2.90
  -3  -4  -2   31.95    2.92
  -3  -4  -2   34.20    3.15
  -3  -4  -2   33.25    2.60
  -3  -4  -2   35.83    3.00
  -3  -4  -2   26.77    2.59
   3   4   2   38.81    3.13
   3   4   2   39.22    3.33
   3   4   2   28.48    2.82
   3   4   2   31.43    2.79
   3   4   2   34.19    2.61
   3   4   2   35.17    2.88
   3   4   2   38.74    2.86
  -4  -4  -2  279.95   10.47
  -4  -4  -2  269.38   10.76
  -4  -4  -2  280.95   10.10
  -4  -4  -2  284.86   11.33
  -4  -4  -2  281.50   10.30
  -4  -4  -2  274.56   10.76
   4   4   2  294.37   11.46
   4   4   2  253.30   10.10
   4   4   2  270.07   11.24
   4   4   2  279.55   10.73
   4   4   2  279.80   10.53
  -5  -4  -2   29.17    3.12
  -5  -4  -2   24.00    2.79
  -5  -4  -2   25.85    2.55
  -5  -4  -2   27.16    2.90
  -5  -4  -2   25.25    2.98
  -5  -4  -2   32.58    3.61
   5   4   2   39.28    3.84
   5   4   2   27.70    3.09
  -6  -4  -2    3.95    1.43
  -6  -4  -2    3.58    1.31
  -6  -4  -2    7.84    2.55
  -6  -4  -2    4.20    1.78
  -6  -4  -2    5.61    1.72
   6   4   2    4.77    2.01
   6   4   2    4.96    2.31
  -7  -4  -2   63.71    6.33
  -7  -4  -2   67.27    5.67
   7   4   2   84.85    6.27
   7   4   2   72.56    5.39
  -8  -4  -2    3.41    2.15
  -8  -4  -2   13.58    4.42
   8   4   2    4.20    2.39
   8   4   2    3.63    2.87
  -9  -4  -2   -1.74    3.32
   9   4   2    3.29    2.57
  -9   5   2   13.42    3.90
  -9   5   2    3.27    3.36
   8  -5  -2    3.51    2.06
  -8   5   2    0.74    1.68
  -8   5   2    5.25    3.13
   7  -5  -2   91.19    6.23
  -7   5   2   86.11    7.56
  -7   5   2   79.88    6.25
  -6   5   2   38.97    4.83
  -6   5   2   31.20    3.75
  -5   5   2   14.82    3.10
  -5   5   2   11.76    3.15
   4  -5  -2  131.33    4.66
  -4   5   2  130.49    7.00
   3  -5  -2   44.97    2.45
   3  -5  -2   46.33    2.07
   3  -5  -2   47.69    2.23
  -3   5   2   42.28    2.27
  -3   5   2   47.38    3.78
  -3   5   2   48.90    2.22
   2  -5  -2   85.41    3.47
   2  -5  -2   91.22    4.03
   2  -5  -2   88.71    3.64
   2  -5  -2   86.27    3.97
   2  -5  -2   86.68    3.69
   2  -5  -2   87.75    3.79
  -2   5   2   88.66    3.98
  -2   5   2   86.65    4.91
  -2   5   2   86.47    3.89
   1  -5  -2  188.57    7.18
   1  -5  -2  204.96    7.50
   1  -5  -2  198.76    7.46
   1  -5  -2  205.53    7.14
   1  -5  -2  193.46    7.47
  -1   5   2  197.56    7.93
  -1   5   2  194.00    7.48
   0  -5  -2   72.77    3.91
   0  -5  -2   73.32    3.96
   0  -5  -2   74.78    3.99
   0  -5  -2   76.25    3.73
   0  -5  -2   74.84    3.69
   0  -5  -2   74.24    4.06
   0   5   2   68.90    3.26
   0   5   2   62.19    3.59
   0   5   2   65.96    3.66
   0   5   2   63.32    3.83
  -1  -5  -2   64.38    4.06
  -1  -5  -2   60.09    4.12
  -1  -5  -2   58.49    3.92
  -1  -5  -2   60.93    3.70
  -1  -5  -2   66.40    4.02
  -1  -5  -2   63.31    3.64
  -1  -5  -2   68.97    4.01
  -1  -5  -2   60.27    3.78
   1   5   2   64.15    3.77
   1   5   2   66.56    4.11
   1   5   2   65.93    3.09
   1   5   2   61.27    3.07
   1   5   2   56.69    3.28
   1   5   2   65.76    3.21
  -2  -5  -2  157.41    6.88
  -2  -5  -2  158.86    7.36
  -2  -5  -2  160.68    7.09
  -2  -5  -2  164.76    7.23
  -2  -5  -2  158.41    7.44
  -2  -5  -2  153.22    6.87
  -2  -5  -2  154.83    6.81
   2   5   2  154.50    6.41
   2   5   2  165.59    7.18
   2   5   2  163.05    6.59
   2   5   2  161.62    7.45
   2   5   2  149.85    6.25
  -3  -5  -2   21.81    2.58
  -3  -5  -2   22.76    2.61
  -3  -5  -2   23.92    2.27
  -3  -5  -2   24.43    2.81
  -3  -5  -2   25.43    2.57
  -3  -5  -2   25.24    3.03
  -3  -5  -2   22.27    2.83
   3   5   2   22.25    2.41
   3   5   2   18.06    2.45
   3   5   2   20.53    2.86
   3   5   2   20.48    2.36
   3   5   2   15.23    2.45
  -4  -5  -2   35.78    3.36
  -4  -5  -2   27.89    2.79
  -4  -5  -2   33.18    3.15
  -4  -5  -2   28.48    2.32
  -4  -5  -2   32.02    3.69
  -4  -5  -2   30.67    3.34
   4   5   2   32.47    3.12
   4   5   2   27.25    2.81
   4   5   2   35.81    3.48
   4   5   2   31.49    3.60
  -5  -5  -2   47.23    3.83
  -5  -5  -2   48.88    4.59
  -5  -5  -2   42.10    4.08
  -5  -5  -2   50.55    3.65
  -5  -5  -2   42.89    3.91
  -5  -5  -2   44.06    3.77
   5   5   2   50.25    4.66
   5   5   2   37.80    3.83
  -6  -5  -2    2.55    1.82
  -6  -5  -2    1.50    1.26
  -6  -5  -2    2.04    1.72
   6   5   2    2.24    1.89
   6   5   2   -0.28    1.83
  -7  -5  -2   51.28    3.53
  -7  -5  -2   46.45    3.69
  -7  -5  -2   48.09    5.19
   7   5   2   60.53    5.24
   7   5   2   70.25    6.20
  -8  -5  -2   11.30    4.28
  -8  -5  -2   20.29    4.43
   8   5   2   20.38    3.81
   8   5   2   12.67    4.09
   9  -6  -2    1.04    2.31
  -9   6   2    1.12    2.87
   8  -6  -2    5.30    2.65
  -8   6   2    9.97    3.45
  -8   6   2   10.92    4.02
   7  -6  -2   73.99    6.21
  -7   6   2   71.33    7.11
  -7   6   2   70.52    6.11
   6  -6  -2    2.71    1.95
  -6   6   2    0.20    1.66
   5  -6  -2    2.86    0.73
  -5   6   2    2.35    1.85
   4  -6  -2  151.00    5.73
   4  -6  -2  159.90    5.29
  -4   6   2  151.48    8.07
   3  -6  -2    2.44    0.98
   3  -6  -2    4.90    1.07
   3  -6  -2    2.71    0.72
   3  -6  -2    3.30    0.88
  -3   6   2    3.30    0.99
  -3   6   2    4.47    1.99
   2  -6  -2    1.51    0.83
   2  -6  -2    2.23    1.01
   2  -6  -2    1.57    0.97
   2  -6  -2    2.48    1.06
   2  -6  -2    1.31    0.83
  -2   6   2    1.77    1.50
  -2   6   2    3.10    1.17
   1  -6  -2  193.47    7.88
   1  -6  -2  200.49    7.51
   1  -6  -2  204.38    7.90
   1  -6  -2  206.35    8.03
   1  -6  -2  189.26    7.69
  -1   6   2  188.31    7.85
  -1   6   2  197.03    8.26
   0  -6  -2    2.33    1.37
   0  -6  -2    0.20    1.10
   0  -6  -2    4.32    1.53
   0  -6  -2    0.05    1.01
   0  -6  -2    0.47    0.86
   0  -6  -2    1.97    1.19
   0  -6  -2    1.68    1.11
   0   6   2    2.19    1.17
   0   6   2    1.16    1.21
   0   6   2    1.42    1.01
  -1  -6  -2    5.12    1.54
  -1  -6  -2    8.40    1.83
  -1  -6  -2    4.47    1.64
  -1  -6  -2    6.36    1.69
  -1  -6  -2   12.92    2.27
  -1  -6  -2    8.63    2.11
  -1  -6  -2   11.07    2.46
  -1  -6  -2   10.05    2.20
   1   6   2    6.81    1.61
   1   6   2    4.22    1.70
   1   6   2    9.05    1.99
   1   6   2   11.30    1.34
   1   6   2    6.42    1.10
  -2  -6  -2  130.72    6.76
  -2  -6  -2  121.28    6.30
  -2  -6  -2  119.60    6.20
  -2  -6  -2  124.08    6.79
  -2  -6  -2  107.48    6.44
  -2  -6  -2  120.19    6.04
   2   6   2  122.82    6.19
   2   6   2  119.15    6.58
   2   6   2  112.23    5.27
   2   6   2  114.58    5.33
   2   6   2  114.75    5.54
  -3  -6  -2    2.59    1.83
  -3  -6  -2    4.63    1.77
  -3  -6  -2    5.23    1.69
   3   6   2    4.13    1.39
   3   6   2    4.11    1.45
   3   6   2    5.69    1.82
   3   6   2    3.19    1.72
  -4  -6  -2   17.02    3.17
  -4  -6  -2   20.86    3.88
   4   6   2   21.65    3.04
   4   6   2   25.29    3.63
   4   6   2   20.94    3.00
  -5  -6  -2   82.78    5.63
  -5  -6  -2   77.61    6.14
   5   6   2   81.41    6.33
   5   6   2   88.02    5.60
  -6  -6  -2    9.99    3.11
  -6  -6  -2    8.21    2.17
  -6  -6  -2   12.97    3.23
   6   6   2   19.39    4.54
   6   6   2    9.29    2.86
  -7  -6  -2    2.43    1.79
  -7  -6  -2    5.25    2.87
  -7  -6  -2    2.82    1.66
   7   6   2    2.02    2.57
   7   6   2    5.91    2.55
   8   6   2   37.68    4.98
   7  -7  -2   36.80    5.08
  -7   7   2   35.30    4.93
   6  -7  -2    1.53    0.81
   6  -7  -2    4.77    2.47
  -6   7   2    3.93    2.26
   5  -7  -2    9.80    1.43
   5  -7  -2   13.23    1.63
   5  -7  -2   14.57    3.65
  -5   7   2   23.34    4.36
   4  -7  -2   64.80    3.25
   4  -7  -2   65.43    2.97
   4  -7  -2   69.68    3.33
   4  -7  -2   70.53    3.65
   4  -7  -2   73.77    5.92
  -4   7   2   69.12    5.51
   3  -7  -2   10.17    1.54
   3  -7  -2   13.18    1.89
   3  -7  -2   12.47    1.85
   3  -7  -2   12.40    2.97
   3  -7  -2   10.13    1.64
  -3   7   2   14.86    3.15
  -3   7   2   11.49    1.65
   2  -7  -2    6.64    1.61
   2  -7  -2    6.86    2.41
   2  -7  -2    3.48    1.34
   2  -7  -2    3.94    1.39
   2  -7  -2    5.74    1.62
  -2   7   2    3.32    1.29
  -2   7   2    6.86    2.24
   1  -7  -2  146.51    6.79
   1  -7  -2  137.41    6.53
   1  -7  -2  146.82    6.77
   1  -7  -2  143.01    6.73
   1  -7  -2  143.95    8.03
   1  -7  -2  134.66    8.59
   1  -7  -2  135.52    6.20
  -1   7   2  140.02    6.64
  -1   7   2  142.31    6.93
   0  -7  -2    2.24    1.58
   0  -7  -2    1.50    1.39
   0  -7  -2    1.02    1.10
   0  -7  -2    1.36    1.17
   0  -7  -2    1.42    1.03
   0  -7  -2    1.76    1.17
   0   7   2    2.63    1.52
  -1  -7  -2    2.63    1.72
  -1  -7  -2    1.66    1.53
  -1  -7  -2    3.42    1.49
  -1  -7  -2    1.97    1.71
  -1  -7  -2    4.00    1.47
   1   7   2    1.65    1.84
  -2  -7  -2  153.76    8.22
  -2  -7  -2  161.15    7.71
  -2  -7  -2  157.37    7.92
   2   7   2  171.29    8.55
   2   7   2  154.13    6.39
   2   7   2  162.20    6.35
  -3  -7  -2    3.83    2.04
  -3  -7  -2    2.30    1.56
  -3  -7  -2    3.49    2.17
   3   7   2    4.20    1.53
   3   7   2    3.23    1.59
   3   7   2    3.65    2.14
   3   7   2    0.69    1.25
  -4  -7  -2   -0.08    1.85
  -4  -7  -2    1.94    1.75
   4   7   2    2.01    1.72
   4   7   2    3.17    1.96
   4   7   2    4.61    2.65
  -5  -7  -2   96.42    6.44
  -5  -7  -2   89.51    6.91
   5   7   2   86.37    6.94
   5   7   2   84.23    5.97
  -6  -7  -2    0.94    2.29
   6   7   2    4.77    3.25
   6   7   2    1.54    2.13
  -7  -7  -2    1.83    2.83
  -7  -7  -2    1.11    1.79
   7   7   2    1.55    2.61
   7   7   2    0.00    2.17
   6  -8  -2   23.83    4.86
   6  -8  -2   25.03    2.16
  -6   8   2   26.95    5.25
   5  -8  -2   19.66    1.80
   5  -8  -2   18.42    2.09
   5  -8  -2   16.53    1.85
   5  -8  -2   18.80    4.48
   5  -8  -2   17.12    2.19
  -5   8   2   18.30    4.21
   4  -8  -2   31.72    2.79
   4  -8  -2   32.92    2.64
   4  -8  -2   29.74    4.65
   4  -8  -2   32.61    2.59
   4  -8  -2   26.32    2.54
  -4   8   2   30.95    4.40
   3  -8  -2   46.28    3.26
   3  -8  -2   51.96    3.66
   3  -8  -2   48.25    3.44
   3  -8  -2   48.13    5.30
   3  -8  -2   44.38    3.50
  -3   8   2   45.71    4.68
  -3   8   2   43.03    3.06
   2  -8  -2   30.60    4.21
   2  -8  -2   33.65    3.22
   2  -8  -2   31.23    3.10
   2  -8  -2   35.62    3.27
   2  -8  -2   30.86    2.87
  -2   8   2   31.14    3.01
   1  -8  -2   50.00    5.07
   1  -8  -2   52.42    4.31
   1  -8  -2   53.18    4.20
   1  -8  -2   51.51    4.10
   1  -8  -2   56.58    3.97
  -1   8   2   60.63    4.41
   0  -8  -2   56.14    5.17
   0  -8  -2   58.95    4.72
   0  -8  -2   57.18    4.22
   0  -8  -2   55.81    4.40
   0  -8  -2   55.54    4.62
   0   8   2   47.74    4.27
  -1  -8  -2   20.52    3.56
  -1  -8  -2   18.22    3.71
  -1  -8  -2    9.72    2.78
   1   8   2   10.00    2.71
  -2  -8  -2   48.19    4.88
  -2  -8  -2   55.42    4.57
  -2  -8  -2   37.87    4.40
   2   8   2   52.75    5.02
  -3  -8  -2   33.75    4.08
  -3  -8  -2   38.65    4.74
   3   8   2   36.09    3.16
   3   8   2   34.23    3.10
   3   8   2   38.38    4.67
  -4  -8  -2   10.10    3.07
  -4  -8  -2    9.86    3.22
   4   8   2    9.73    2.30
   4   8   2    8.80    2.42
   4   8   2    8.50    3.25
  -5  -8  -2   43.20    5.15
  -5  -8  -2   35.08    5.20
   5   8   2   35.43    5.18
   6   8   2   11.68    3.94
   6  -9  -2   61.21    3.52
   6  -9  -2   67.40    3.83
   6  -9  -2   55.59    3.56
   5  -9  -2    2.08    1.36
   5  -9  -2    2.32    1.37
   5  -9  -2    2.69    1.36
   4  -9  -2    1.86    1.29
   4  -9  -2    1.11    1.34
   4  -9  -2    1.91    1.18
   4  -9  -2    3.82    1.69
   4  -9  -2    3.04    3.66
   3  -9  -2   66.89    4.75
   3  -9  -2   67.35    6.67
   3  -9  -2   74.74    4.59
   3  -9  -2   82.50    5.13
   3  -9  -2   77.71    4.98
  -3   9   2   64.04    4.11
   2  -9  -2    3.87    1.72
   2  -9  -2    5.61    2.63
   2  -9  -2    6.46    2.09
   2  -9  -2    2.89    1.60
  -2   9   2    3.73    1.94
   1  -9  -2    0.81    2.04
   1  -9  -2    2.58    2.58
   1  -9  -2    4.36    1.90
  -1   9   2    3.13    1.81
   0  -9  -2   63.49    5.90
   0  -9  -2   62.96    4.83
   0   9   2   62.49    5.20
  -1  -9  -2    8.09    2.73
  -1  -9  -2    6.82    2.54
   1   9   2    5.28    2.37
  -2  -9  -2    0.68    2.38
  -2  -9  -2    4.72    2.25
  -2  -9  -2    4.13    3.27
   2   9   2    8.89    3.02
  -3  -9  -2   72.19    6.52
  -3  -9  -2   70.99    5.78
   3   9   2   56.78    2.91
   3   9   2   62.50    3.03
   3   9   2   72.07    6.38
  -4  -9  -2    7.75    3.19
   4   9   2    3.51    1.84
   4   9   2    5.21    2.03
   4   9   2    7.85    3.20
   5 -10  -2    2.00    1.52
   4 -10  -2    1.48    1.76
   4 -10  -2    3.81    1.91
   3 -10  -2   58.40    4.77
   3 -10  -2   62.16    4.62
   3 -10  -2   61.31    5.08
   2 -10  -2    4.60    2.19
  -2  10   2    3.25    2.03
   1 -10  -2    4.37    2.21
  -1  10   2    7.10    2.65
   0 -10  -2   68.34    6.84
   0 -10  -2   77.01    5.77
   0  10   2   75.82    5.94
  -1 -10  -2   -0.61    1.86
  -1 -10  -2    1.08    2.48
   1  10   2    1.29    2.40
  -2 -10  -2    4.41    2.72
   2  10   2    2.92    2.61
   1  11  -3   47.37    5.27
  -1 -11   3   34.27    4.62
   0  11  -3    2.03    2.47
   0 -11   3    2.55    2.18
  -1  11  -3    2.89    2.18
   1 -11   3   -0.78    1.53
  -2  11  -3   29.60    4.03
   2 -11   3   37.30    4.06
   4  10  -3   18.75    3.20
   4  10  -3   31.07    5.51
  -4 -10   3   26.47    4.78
   3  10  -3    8.31    3.17
  -3 -10   3   11.19    3.59
   2  10  -3   15.52    3.68
  -2 -10   3    9.67    3.31
  -2 -10   3   14.26    3.44
   1  10  -3   49.56    5.10
  -1 -10   3   36.89    5.43
  -1 -10   3   57.07    4.95
   0  10  -3    7.77    2.56
   0 -10   3    1.44    2.25
   0 -10   3    4.59    2.14
  -1  10  -3    7.43    2.57
   1 -10   3    8.22    2.55
   1 -10   3    8.59    3.10
  -2  10  -3   52.89    4.67
   2 -10   3   69.83    4.93
  -3  10  -3    2.45    1.85
   3 -10   3    4.58    2.01
   3 -10   3    7.94    2.49
   3 -10   3    5.66    2.05
   4 -10   3    8.60    2.32
   4 -10   3    8.65    2.20
   5 -10   3   48.18    4.10
   5 -10   3   37.41    4.00
   5 -10   3   38.84    3.70
   5   9  -3   18.19    4.25
  -5  -9   3   17.12    4.23
   4   9  -3    9.60    3.41
   4   9  -3    6.11    1.90
   4   9  -3    4.04    1.87
  -4  -9   3    9.85    3.16
   3   9  -3   53.48    3.49
   3   9  -3   52.70    3.35
   3   9  -3   60.17    5.51
  -3  -9   3   47.93    4.81
   2   9  -3   12.75    3.30
  -2  -9   3   18.79    3.51
  -2  -9   3   16.57    3.57
   1   9  -3   22.09    3.29
  -1  -9   3   21.45    4.15
  -1  -9   3   20.51    3.11
   0   9  -3   69.21    5.18
   0  -9   3   64.16    4.74
   0  -9   3   65.16    6.12
  -1   9  -3   17.82    3.29
   1  -9   3   22.86    3.23
   1  -9   3   14.72    3.56
   1  -9   3   18.05    2.85
   1  -9   3   19.78    2.83
  -2   9  -3   33.72    3.50
   2  -9   3   43.09    4.26
   2  -9   3   34.72    3.55
   2  -9   3   32.27    3.31
   2  -9   3   40.36    3.62
   2  -9   3   31.19    4.77
  -3   9  -3   62.31    4.11
   3  -9   3   59.38    6.14
   3  -9   3   62.80    4.51
   3  -9   3   56.66    4.10
   3  -9   3   53.72    4.07
   3  -9   3   57.60    4.19
   4  -9   3    9.27    2.03
   4  -9   3   10.13    2.20
   4  -9   3   10.72    2.12
   4  -9   3    3.77    2.35
   5  -9   3   33.95    3.13
   5  -9   3   31.87    2.91
   5  -9   3   30.05    3.13
   6  -9   3   15.99    2.21
   6  -9   3   14.76    2.56
   6  -9   3   20.17    2.74
   7   8  -3    3.64    2.23
   7   8  -3    0.33    2.86
   6   8  -3   53.35    5.03
   6   8  -3   57.23    6.06
   5   8  -3    0.46    1.97
   5   8  -3    3.90    2.05
  -5  -8   3    0.10    2.01
   4   8  -3    3.14    1.52
   4   8  -3    1.94    2.07
   4   8  -3    1.18    1.71
  -4  -8   3    2.93    2.01
   3   8  -3   97.39    5.05
   3   8  -3  104.46    5.24
   3   8  -3  106.57    6.89
  -3  -8   3  103.63    6.27
   2   8  -3    6.91    1.32
   2   8  -3    3.19    1.16
   2   8  -3    6.31    2.45
  -2  -8   3    2.83    1.76
  -2  -8   3    4.36    1.99
   1   8  -3    2.79    1.81
  -1  -8   3    0.86    1.59
  -1  -8   3    2.72    1.74
   0   8  -3  146.95    7.34
   0  -8   3  132.38    8.20
   0  -8   3  133.51    6.93
   0  -8   3  144.33    7.09
   0  -8   3  141.14    6.79
  -1   8  -3    3.08    1.49
   1  -8   3    8.93    2.79
   1  -8   3    5.10    1.80
   1  -8   3    4.40    1.78
   1  -8   3    5.71    1.76
   1  -8   3    4.77    1.69
  -2   8  -3   10.88    2.33
   2  -8   3    9.03    2.08
   2  -8   3   12.73    2.91
   2  -8   3    8.10    2.07
   2  -8   3    8.28    1.84
   2  -8   3    9.32    2.86
   2  -8   3   13.01    2.40
  -3   8  -3  119.81    5.56
   3  -8   3  109.06    6.33
   3  -8   3  115.33    7.81
   3  -8   3  113.56    5.62
   3  -8   3  116.33    5.52
   3  -8   3  109.82    5.63
   3  -8   3  106.78    5.31
  -4   8  -3    3.84    1.43
   4  -8   3    4.79    2.42
   4  -8   3    4.28    1.47
   4  -8   3    5.68    1.65
   4  -8   3    3.42    1.21
   5  -8   3   17.63    1.83
   5  -8   3   14.48    2.23
   5  -8   3   17.73    4.07
   5  -8   3   15.86    2.24
   6  -8   3   65.26    4.00
   6  -8   3   77.56    6.96
   6  -8   3   74.68    4.18
   6  -8   3   75.56    3.66
   7  -8   3    3.13    1.09
   7  -8   3    2.54    1.17
   7  -8   3    2.69    1.57
   8   7  -3    6.14    2.85
   8   7  -3    3.14    2.74
   7   7  -3   21.07    3.83
   7   7  -3   10.66    3.36
  -7  -7   3   21.55    3.14
  -7  -7   3   13.27    3.02
   6   7  -3   56.32    4.76
   6   7  -3   49.92    5.50
  -6  -7   3   57.45    5.44
   5   7  -3    9.96    2.54
   5   7  -3    6.32    2.62
  -5  -7   3    7.07    2.45
   4   7  -3   18.99    3.70
   4   7  -3   16.92    2.64
   4   7  -3   14.40    2.55
   4   7  -3   15.42    2.49
  -4  -7   3   19.88    3.50
   3   7  -3  142.07    7.64
   3   7  -3  132.94    6.09
   3   7  -3  137.88    6.24
   3   7  -3  132.63    6.42
  -3  -7   3  129.38    6.76
   2   7  -3    1.63    1.07
   2   7  -3    2.12    1.23
   2   7  -3    3.32    1.67
   2   7  -3    2.80    1.13
  -2  -7   3    2.19    1.97
  -2  -7   3    2.89    1.55
  -2  -7   3    1.25    1.22
   1   7  -3    9.92    2.42
  -1  -7   3   14.23    2.43
  -1  -7   3   12.86    2.21
  -1  -7   3   12.02    2.72
  -1  -7   3    9.18    2.29
  -1  -7   3   11.85    2.31
  -1  -7   3   13.12    2.53
   0   7  -3  174.12    8.01
   0  -7   3  186.19    8.04
   0  -7   3  178.12    7.80
   0  -7   3  170.44    7.48
   0  -7   3  188.23    9.30
   0  -7   3  187.12    7.92
   0  -7   3  186.97    7.48
   0  -7   3  189.52    8.64
  -1   7  -3   10.95    2.21
   1  -7   3   12.33    2.18
   1  -7   3   11.71    2.45
   1  -7   3   10.88    2.72
   1  -7   3   13.21    1.97
   1  -7   3   11.27    1.91
   1  -7   3   12.09    1.97
  -2   7  -3    5.06    1.66
   2  -7   3    4.21    1.96
   2  -7   3    6.54    1.62
   2  -7   3    6.07    1.35
   2  -7   3    5.73    1.51
   2  -7   3    8.24    1.97
   2  -7   3    6.27    1.60
  -3   7  -3  163.91    6.71
   3  -7   3  163.98    6.44
   3  -7   3  162.90    9.00
   3  -7   3  158.22    6.63
   3  -7   3  158.61    7.39
   3  -7   3  173.23    6.86
   3  -7   3  163.28    6.78
  -4   7  -3    6.46    1.47
   4  -7   3    6.50    1.40
   4  -7   3    5.74    1.46
   4  -7   3    4.39    1.11
   4  -7   3    7.52    1.96
   4  -7   3    6.45    2.43
   5  -7   3    0.56    1.73
   5  -7   3    1.35    0.98
   5  -7   3    1.49    1.18
   5  -7   3    1.46    0.85
   5  -7   3    2.02    0.76
   6  -7   3  113.92    7.62
   6  -7   3   90.02    3.83
   6  -7   3   96.99    4.71
   6  -7   3   98.81    3.74
   6  -7   3  104.53    4.76
   7  -7   3    7.67    1.95
   7  -7   3    3.68    2.56
   7  -7   3    7.61    2.25
   7  -7   3    3.82    0.90
   7  -7   3    3.87    0.87
   8  -7   3   -0.92    2.40
   8  -7   3    0.52    0.77
   8  -7   3    0.39    0.82
   8   6  -3   29.10    4.74
   8   6  -3   28.14    4.10
   7   6  -3   26.35    3.72
   7   6  -3   22.51    4.28
  -7  -6   3   27.33    2.88
  -7  -6   3   25.91    3.23
   6   6  -3   33.53    4.32
   6   6  -3   30.41    3.53
  -6  -6   3   23.33    2.99
  -6  -6   3   26.75    3.20
  -6  -6   3   26.92    3.65
   5   6  -3   77.20    5.71
   5   6  -3   65.50    4.69
  -5  -6   3   67.94    4.77
  -5  -6   3   76.18    4.57
  -5  -6   3   64.13    4.54
   4   6  -3   36.57    3.22
   4   6  -3   36.00    3.25
   4   6  -3   31.36    2.88
   4   6  -3   28.20    3.53
  -4  -6   3   30.83    2.92
  -4  -6   3   27.24    3.15
  -4  -6   3   33.04    3.22
   3   6  -3   90.92    4.63
   3   6  -3   88.56    5.50
   3   6  -3   81.95    4.53
   3   6  -3   90.33    5.58
   3   6  -3   81.23    4.61
  -3  -6   3   89.47    4.85
  -3  -6   3   90.50    5.28
  -3  -6   3   94.88    5.76
  -3  -6   3   85.95    5.09
  -3  -6   3   92.92    5.08
   2   6  -3  115.62    5.88
   2   6  -3  118.23    5.07
   2   6  -3  124.86    5.18
   2   6  -3  122.79    5.91
   2   6  -3  116.66    6.18
   2   6  -3  107.50    5.18
  -2  -6   3  111.15    6.24
  -2  -6   3  118.32    5.98
  -2  -6   3  116.59    6.03
  -2  -6   3  115.14    5.87
  -2  -6   3  113.47    5.81
  -2  -6   3  115.90    6.29
  -2  -6   3  113.31    5.50
  -2  -6   3  128.00    5.86
   1   6  -3   31.22    2.80
   1   6  -3   31.64    1.96
   1   6  -3   30.86    2.28
   1   6  -3   36.16    2.96
   1   6  -3   26.11    1.96
   1   6  -3   32.43    2.98
  -1  -6   3   29.06    2.67
  -1  -6   3   27.51    2.61
  -1  -6   3   29.83    2.80
  -1  -6   3   33.73    2.60
  -1  -6   3   32.59    3.24
  -1  -6   3   27.55    2.68
  -1  -6   3   28.13    3.06
  -1  -6   3   31.98    2.83
   0   6  -3   81.99    4.62
   0   6  -3   74.63    3.47
   0   6  -3   84.45    4.39
   0  -6   3   82.42    4.14
   0  -6   3   80.83    4.30
   0  -6   3   82.55    4.24
   0  -6   3   84.68    5.41
   0  -6   3   78.19    4.41
   0  -6   3   89.70    4.55
   0  -6   3   81.69    4.84
   0  -6   3   82.08    5.74
  -1   6  -3  135.63    6.01
   1  -6   3  132.38    5.78
   1  -6   3  137.37    7.23
   1  -6   3  129.04    5.75
   1  -6   3  131.18    5.92
   1  -6   3  127.58    5.54
   1  -6   3  135.81    6.41
   1  -6   3  127.29    5.56
  -2   6  -3   17.33    2.05
   2  -6   3   19.08    1.75
   2  -6   3   17.00    2.74
   2  -6   3   20.46    1.96
   2  -6   3   18.60    2.31
   2  -6   3   19.22    2.23
   2  -6   3   19.32    2.01
   2  -6   3   17.78    1.82
  -3   6  -3   95.99    4.57
   3  -6   3  105.54    5.13
   3  -6   3  103.47    4.67
   3  -6   3   97.88    4.42
   3  -6   3   96.97    4.61
   3  -6   3   95.83    4.43
   3  -6   3  101.71    4.10
   3  -6   3  107.04    6.51
  -4   6  -3   66.64    3.32
   4  -6   3   59.72    2.86
   4  -6   3   75.16    5.53
   4  -6   3   66.81    3.81
   4  -6   3   69.46    3.48
   4  -6   3   66.21    3.60
   4  -6   3   66.65    2.73
   5  -6   3    7.67    1.70
   5  -6   3    7.87    2.46
   5  -6   3    7.46    1.45
   6  -6   3   70.71    3.68
   6  -6   3   65.07    5.62
   6  -6   3   67.34    3.66
   7  -6   3   18.17    2.15
   7  -6   3   16.08    3.59
   7  -6   3   20.35    2.33
   8  -6   3    2.87    1.57
   8  -6   3    3.01    0.89
   8  -6   3    1.20    2.17
   9  -6   3   42.68    2.92
   9   5  -3    2.07    2.24
  -9  -5   3   -4.28    3.04
   8   5  -3   75.19    6.40
   8   5  -3   67.13    5.44
   7   5  -3    8.48    2.49
   7   5  -3    3.00    2.34
  -7  -5   3    5.49    1.44
  -7  -5   3    4.06    1.50
   6   5  -3    0.20    1.55
  -6  -5   3    1.20    1.46
  -6  -5   3    0.46    1.47
  -6  -5   3    1.00    1.21
   5   5  -3  161.22    7.93
   5   5  -3  145.56    7.43
  -5  -5   3  124.94    7.19
  -5  -5   3  158.86    6.72
  -5  -5   3  135.99    6.64
  -5  -5   3  151.93    6.49
   4   5  -3    2.48    1.43
   4   5  -3    0.84    1.07
   4   5  -3   11.22    2.48
   4   5  -3    4.56    1.45
   4   5  -3    3.84    1.48
  -4  -5   3    7.97    2.04
  -4  -5   3    4.42    1.51
  -4  -5   3    6.26    1.01
  -4  -5   3    6.63    1.83
  -4  -5   3    4.91    1.73
  -4  -5   3    6.44    1.62
   3   5  -3    7.33    1.86
   3   5  -3    7.76    1.96
   3   5  -3    6.06    1.96
   3   5  -3    3.00    1.45
   3   5  -3    6.38    1.52
  -3  -5   3    3.78    1.53
  -3  -5   3    6.76    1.71
  -3  -5   3    2.24    1.47
  -3  -5   3    5.35    1.51
  -3  -5   3    4.74    1.62
  -3  -5   3    6.08    1.63
  -3  -5   3    4.98    1.70
   2   5  -3  288.12    9.81
   2   5  -3  277.05   10.79
   2   5  -3  286.50   10.46
   2   5  -3  294.14   11.05
   2   5  -3  305.36   10.68
  -2  -5   3  298.85   11.09
  -2  -5   3  286.64   10.49
  -2  -5   3  282.27   10.50
  -2  -5   3  292.40   10.38
  -2  -5   3  255.46   10.62
  -2  -5   3  266.25    9.98
  -2  -5   3  292.80   10.32
   1   5  -3    2.05    0.93
   1   5  -3    1.39    0.75
   1   5  -3    1.54    0.99
   1   5  -3    1.55    1.01
   1   5  -3    2.03    0.75
   1   5  -3    1.24    1.07
   1   5  -3    1.70    0.99
  -1  -5   3    2.51    1.08
  -1  -5   3    1.77    0.98
  -1  -5   3    2.02    1.06
  -1  -5   3    0.75    0.94
  -1  -5   3    3.78    1.27
  -1  -5   3    0.98    0.72
  -1  -5   3    1.15    1.02
  -1  -5   3    0.77    0.75
   0   5  -3   34.80    2.49
   0   5  -3   35.63    2.75
   0   5  -3   34.79    2.02
   0   5  -3   35.42    2.49
   0  -5   3   38.60    2.62
   0  -5   3   35.98    2.38
   0  -5   3   41.94    2.45
   0  -5   3   38.37    2.53
   0  -5   3   37.44    2.54
   0  -5   3   36.24    2.45
   0  -5   3   37.19    2.91
   0  -5   3   32.98    3.10
   0  -5   3   36.40    2.61
  -1   5  -3  258.15    9.30
  -1   5  -3  257.76    8.80
   1  -5   3  270.44    8.95
   1  -5   3  248.84    9.02
   1  -5   3  259.21    8.83
   1  -5   3  252.43    9.03
   1  -5   3  251.90    9.27
   1  -5   3  260.37   10.51
   1  -5   3  261.91    9.62
  -2   5  -3   17.02    1.83
  -2   5  -3   16.95    1.80
   2  -5   3   15.52    1.56
   2  -5   3   16.50    1.41
   2  -5   3   15.87    1.70
   2  -5   3   12.78    2.27
   2  -5   3   17.81    1.69
   2  -5   3   14.56    1.82
   2  -5   3   16.14    1.58
   2  -5   3   15.27    1.94
  -3   5  -3   56.93    3.25
  -3   5  -3   63.85    3.07
   3  -5   3   55.74    2.98
   3  -5   3   65.87    4.64
   3  -5   3   66.90    4.77
   3  -5   3   62.63    2.65
   3  -5   3   58.39    3.17
   3  -5   3   67.13    3.48
   3  -5   3   59.97    2.44
  -4   5  -3  190.47    6.21
  -4   5  -3  168.94    6.38
   4  -5   3  181.11    6.74
   4  -5   3  185.12    6.55
   4  -5   3  174.17    8.63
   4  -5   3  189.20    6.77
   5  -5   3    9.88    1.67
   5  -5   3   11.43    2.59
   5  -5   3   11.87    1.48
   6  -5   3   22.20    3.37
   6  -5   3   23.54    1.93
   6  -5   3   25.96    2.40
  -7   5  -3   97.20    7.50
   7  -5   3   90.88    6.39
   7  -5   3   85.38    4.59
   7  -5   3   92.78    4.17
  -8   5  -3   11.47    4.01
   8  -5   3    5.67    1.15
   8  -5   3    8.89    1.86
   8  -5   3   13.10    2.21
  -9   5  -3   10.39    4.29
   9  -5   3    8.65    1.72
   9  -5   3   14.36    2.43
   9   4  -3   13.72    3.30
  -9  -4   3   14.91    5.46
   8   4  -3   59.02    5.42
  -8  -4   3   47.07    6.54
   7   4  -3    6.75    2.45
   6   4  -3   10.17    2.33
   6   4  -3    9.49    2.48
  -6  -4   3    7.96    2.11
  -6  -4   3    9.91    1.66
  -6  -4   3   11.91    1.93
   5   4  -3  169.55    7.77
   5   4  -3  165.37    7.78
   5   4  -3  169.65    7.97
   5   4  -3  172.75    7.89
   5   4  -3  167.43    6.51
   5   4  -3  162.87    8.24
   5   4  -3  182.16    7.91
   5   4  -3  163.91    7.61
  -5  -4   3  166.92    6.61
  -5  -4   3  163.34    7.75
  -5  -4   3  159.85    6.70
  -5  -4   3  152.42    6.85
  -5  -4   3  173.68    7.47
  -5  -4   3  171.48    5.73
   4   4  -3   18.67    2.32
   4   4  -3   17.60    1.93
   4   4  -3   16.59    2.38
   4   4  -3   15.79    2.14
   4   4  -3   17.74    2.23
   4   4  -3   18.55    2.23
   4   4  -3   16.86    2.05
   4   4  -3   16.43    2.30
  -4  -4   3   19.45    2.11
  -4  -4   3   14.03    2.13
  -4  -4   3   18.14    1.45
  -4  -4   3   18.33    2.14
  -4  -4   3   20.75    1.98
  -4  -4   3   20.40    2.35
   3   4  -3    7.01    1.50
   3   4  -3    8.19    1.59
   3   4  -3    8.16    1.72
   3   4  -3    8.59    1.52
   3   4  -3    7.93    1.86
   3   4  -3    6.48    1.38
  -3  -4   3    7.50    1.57
  -3  -4   3    5.96    1.43
  -3  -4   3   11.91    1.73
  -3  -4   3    9.09    1.74
  -3  -4   3    7.86    1.71
  -3  -4   3    8.25    1.48
  -3  -4   3    6.67    1.61
   2   4  -3  332.72   11.46
   2   4  -3  321.26   11.37
   2   4  -3  326.91   11.82
   2   4  -3  334.19   11.33
   2   4  -3  330.85   11.75
   2   4  -3  338.42   11.30
   2   4  -3  342.99   11.65
   2   4  -3  336.96   10.92
  -2  -4   3  335.10   11.08
  -2  -4   3  336.28   11.57
  -2  -4   3  320.17    9.70
  -2  -4   3  325.75   11.34
  -2  -4   3  328.17   11.18
  -2  -4   3  335.29   11.88
  -2  -4   3  333.68   11.25
  -2  -4   3  336.19   11.49
   1   4  -3    1.37    0.92
   1   4  -3    2.00    0.96
   1   4  -3    1.60    0.74
   1   4  -3    1.60    0.91
   1   4  -3    1.88    0.85
   1   4  -3    0.39    0.85
  -1  -4   3    1.46    0.57
  -1  -4   3    1.05    0.67
  -1  -4   3    3.63    0.99
  -1  -4   3    1.25    0.68
  -1  -4   3    1.77    0.99
  -1  -4   3    1.66    0.86
  -1  -4   3    1.15    0.71
  -1  -4   3    1.51    0.85
  -1  -4   3    3.11    1.01
   0   4  -3    3.11    1.10
   0   4  -3    2.03    1.08
   0   4  -3    2.81    0.55
   0   4  -3    3.16    0.63
   0   4  -3    0.83    0.65
   0   4  -3    3.49    1.06
   0   4  -3    2.19    0.82
   0  -4   3    2.58    0.87
   0  -4   3    4.12    1.06
   0  -4   3    1.53    1.01
   0  -4   3    1.66    0.81
   0  -4   3    2.05    0.80
   0  -4   3    1.94    0.75
   0  -4   3    2.28    0.79
   0  -4   3    2.03    0.85
   0  -4   3    0.79    0.76
  -1   4  -3  683.76   20.05
  -1   4  -3  685.37   19.91
  -1   4  -3  639.23   19.02
  -1   4  -3  665.63   20.43
   1  -4   3  674.66   20.59
   1  -4   3  670.46   20.20
   1  -4   3  660.69   20.18
   1  -4   3  648.48   21.51
   1  -4   3  654.02   20.20
   1  -4   3  672.75   20.02
   1  -4   3  655.22   20.48
   1  -4   3  679.70   19.92
  -2   4  -3   14.90    1.61
   2  -4   3   11.78    1.02
   2  -4   3   13.62    1.20
   2  -4   3   14.61    1.75
   2  -4   3   15.29    1.48
   2  -4   3   12.17    1.43
   2  -4   3   11.68    1.46
   2  -4   3   13.42    2.03
  -3   4  -3    2.43    0.99
   3  -4   3    2.11    0.75
   3  -4   3    1.74    1.08
   3  -4   3    2.82    0.87
   3  -4   3    0.90    1.10
   3  -4   3    1.68    0.86
  -4   4  -3  281.88    9.31
   4  -4   3  277.52    9.77
   4  -4   3  303.26    8.98
   4  -4   3  280.01    9.06
   4  -4   3  296.77   11.44
   4  -4   3  295.81    9.12
   4  -4   3  270.32    9.68
  -5   4  -3    6.89    1.04
  -5   4  -3    5.74    2.30
   5  -4   3    5.80    1.42
   5  -4   3    2.57    1.43
   5  -4   3    7.91    1.09
  -6   4  -3   -0.89    1.53
   6  -4   3    1.03    0.83
   6  -4   3    0.49    1.11
   6  -4   3   -0.16    1.03
  -7   4  -3  145.25    9.02
   7  -4   3  125.78    4.78
   7  -4   3  142.48    7.54
   7  -4   3  139.82    5.48
   7  -4   3  131.51    6.02
  -8   4  -3    1.03    2.71
   8  -4   3   -0.61    1.00
   8  -4   3    0.28    1.34
   8  -4   3    1.31    0.86
  -9   4  -3   -0.02    3.07
   9  -4   3    0.50    1.35
   9  -4   3   -0.64    1.22
   9  -4   3    0.76    1.04
  10   3  -3   20.84    3.88
 -10  -3   3   15.01    5.59
  -9  -3   3   18.18    5.42
  -8  -3   3   33.86    6.63
   7   3  -3   62.32    4.79
   7   3  -3   56.83    4.58
   7   3  -3   63.04    4.45
   7   3  -3   55.90    5.58
  -7  -3   3   74.58    6.82
   6   3  -3   37.44    3.25
   6   3  -3   33.58    3.31
   6   3  -3   29.89    2.94
   6   3  -3   35.47    3.30
   6   3  -3   35.09    3.27
  -6  -3   3   29.16    2.19
   5   3  -3  119.84    5.91
   5   3  -3  130.18    5.66
   5   3  -3  124.90    5.89
   5   3  -3  131.90    6.12
   5   3  -3  134.81    6.32
   5   3  -3  121.96    6.18
   5   3  -3  124.89    5.87
   5   3  -3  121.79    5.08
  -5  -3   3  123.23    5.38
  -5  -3   3  129.48    5.87
  -5  -3   3  118.01    4.77
  -5  -3   3  123.63    4.95
  -5  -3   3  125.92    4.88
   4   3  -3  155.77    6.54
   4   3  -3  152.99    6.60
   4   3  -3  158.37    6.84
   4   3  -3  158.58    6.38
   4   3  -3  148.58    6.39
   4   3  -3  157.92    6.05
   4   3  -3  145.21    6.10
   4   3  -3  157.26    6.72
  -4  -3   3  146.09    5.73
  -4  -3   3  154.50    5.56
  -4  -3   3  141.99    5.90
  -4  -3   3  157.61    6.06
  -4  -3   3  158.01    6.46
   3   3  -3   64.68    3.20
   3   3  -3   61.53    3.58
   3   3  -3   55.86    3.52
   3   3  -3   62.37    3.37
   3   3  -3   60.95    3.20
   3   3  -3   61.05    3.26
   3   3  -3   58.52    3.34
  -3  -3   3   60.15    3.32
  -3  -3   3   58.25    3.14
  -3  -3   3   56.79    3.51
  -3  -3   3   59.56    3.00
  -3  -3   3   56.67    3.07
  -3  -3   3   38.14    3.77
  -3  -3   3   63.50    3.22
   2   3  -3  352.67   11.32
   2   3  -3  333.04   11.78
   2   3  -3  358.27   12.00
   2   3  -3  357.87   11.64
   2   3  -3  358.34   11.80
   2   3  -3  364.82   11.60
   2   3  -3  348.38   11.27
   2   3  -3  339.99   11.52
  -2  -3   3  339.16   11.87
  -2  -3   3  353.41   11.62
  -2  -3   3  343.92   11.24
  -2  -3   3  347.88   11.35
  -2  -3   3  351.21   11.65
  -2  -3   3  361.26   11.45
   1   3  -3  221.73    7.36
   1   3  -3  234.00    7.69
   1   3  -3  210.90    7.85
   1   3  -3  228.09    7.38
   1   3  -3  224.77    8.08
   1   3  -3  227.86    7.79
   1   3  -3  226.12    8.19
   1   3  -3  218.85    7.71
   1   3  -3  221.43    7.52
  -1  -3   3  214.42    7.51
  -1  -3   3  216.89    7.45
  -1  -3   3  213.77    7.99
  -1  -3   3  240.03    7.89
  -1  -3   3  222.97    7.80
  -1  -3   3  216.49    6.83
  -1  -3   3  219.03    7.51
  -1  -3   3  222.68    7.71
   0   3  -3  103.28    4.32
   0   3  -3   96.89    4.59
   0   3  -3  106.05    4.11
   0   3  -3  103.73    3.69
   0   3  -3  105.04    4.11
   0   3  -3  100.05    4.32
   0  -3   3  111.32    4.25
   0  -3   3  102.27    3.94
   0  -3   3   97.93    4.29
   0  -3   3  100.50    3.82
   0  -3   3  102.48    4.04
   0  -3   3  103.05    3.93
   0  -3   3   99.63    4.02
   0  -3   3   97.30    4.11
   0  -3   3   99.01    4.72
   0  -3   3   95.22    4.11
  -1   3  -3  241.97    7.97
  -1   3  -3  233.24    8.02
  -1   3  -3  241.37    8.76
  -1   3  -3  234.95    7.61
  -1   3  -3  234.32    7.74
   1  -3   3  233.14    8.14
   1  -3   3  237.88    7.81
   1  -3   3  230.45    7.50
   1  -3   3  240.23    7.98
   1  -3   3  236.83    7.78
   1  -3   3  241.79    7.56
   1  -3   3  225.71    7.85
   1  -3   3  219.17    7.80
   1  -3   3  235.61    7.31
   1  -3   3  235.06    8.81
  -2   3  -3  238.95    8.11
  -2   3  -3  236.44    8.88
  -2   3  -3  231.71    7.55
  -2   3  -3  235.56    7.34
   2  -3   3  234.86    8.95
   2  -3   3  233.38    7.13
   2  -3   3  235.10    7.71
   2  -3   3  230.23    7.18
   2  -3   3  231.52    7.94
   2  -3   3  251.21    7.77
   2  -3   3  217.44    8.45
  -3   3  -3    8.80    2.06
  -3   3  -3    8.52    1.46
   3  -3   3    9.66    1.57
   3  -3   3    8.58    1.40
   3  -3   3    7.87    0.93
   3  -3   3    7.60    0.87
   3  -3   3    9.20    1.00
   3  -3   3    4.57    1.35
   3  -3   3    7.96    1.65
  -4   3  -3  254.24    8.63
  -4   3  -3  252.32   10.61
   4  -3   3  261.56    8.96
   4  -3   3  264.71    8.98
   4  -3   3  260.63   10.17
   4  -3   3  262.76    8.26
   4  -3   3  263.26   10.05
  -5   3  -3   64.80    3.12
  -5   3  -3   64.40    4.92
   5  -3   3   60.14    3.44
   5  -3   3   69.02    4.34
   5  -3   3   68.55    3.26
   5  -3   3   66.24    3.42
   5  -3   3   72.30    3.04
  -6   3  -3   20.02    3.95
  -6   3  -3   17.24    1.66
   6  -3   3   15.43    2.14
   6  -3   3   13.68    1.62
   6  -3   3   16.71    2.49
   6  -3   3   13.52    1.24
  -7   3  -3  122.29    7.93
  -7   3  -3  135.52    4.96
   7  -3   3  135.56    6.75
   7  -3   3  128.57    5.39
   7  -3   3  121.44    5.87
   7  -3   3  120.26    5.01
  -8   3  -3   15.44    3.79
   8  -3   3   14.29    2.16
   8  -3   3   14.69    2.36
   8  -3   3   14.12    2.52
   8  -3   3   13.58    1.92
  -9   3  -3    1.84    2.41
   9  -3   3    2.04    1.62
   9  -3   3    1.78    1.45
   9  -3   3    3.96    1.47
   9  -3   3    3.48    2.04
  10  -3   3   28.24    3.66
  10  -3   3   27.61    3.96
 -10  -2   3   28.35    6.14
  -9  -2   3    4.54    3.88
   8   2  -3    4.75    2.11
   8   2  -3    1.97    1.81
  -8  -2   3    3.10    2.80
   7   2  -3  180.77    7.75
   7   2  -3  163.01    7.58
   7   2  -3  175.83    8.02
   7   2  -3  173.70    8.10
   7   2  -3  168.69    7.77
  -7  -2   3  173.70   10.36
  -7  -2   3  174.59    7.13
   6   2  -3   12.01    2.23
   6   2  -3   10.69    1.98
   6   2  -3   10.96    2.26
   6   2  -3   11.00    1.79
   6   2  -3   14.65    2.45
  -6  -2   3    9.98    3.15
  -6  -2   3    8.98    1.54
   5   2  -3   13.80    1.90
   5   2  -3   11.04    1.76
   5   2  -3   15.08    2.12
   5   2  -3    9.85    1.75
   5   2  -3   13.64    2.01
   5   2  -3   12.50    1.81
  -5  -2   3   13.23    1.56
  -5  -2   3   13.25    1.73
  -5  -2   3   10.43    1.47
   4   2  -3  408.82   13.61
   4   2  -3  421.02   13.19
   4   2  -3  408.25   13.43
   4   2  -3  383.21   13.24
   4   2  -3  409.49   13.30
   4   2  -3  391.61   13.52
   4   2  -3  405.48   12.94
  -4  -2   3  402.63   12.31
  -4  -2   3  399.27   12.81
  -4  -2   3  403.36   12.26
  -4  -2   3  404.82   12.72
  -4  -2   3  406.53   13.16
   3   2  -3   16.57    1.79
   3   2  -3   17.71    1.59
   3   2  -3   18.10    1.80
   3   2  -3   20.88    1.73
   3   2  -3   18.45    1.77
   3   2  -3   18.41    1.70
   3   2  -3   20.16    1.68
  -3  -2   3   18.01    1.71
  -3  -2   3   17.31    1.43
  -3  -2   3   15.99    1.46
  -3  -2   3   16.74    1.47
  -3  -2   3   17.11    1.47
   2   2  -3   69.80    3.13
   2   2  -3   74.91    3.39
   2   2  -3   69.61    3.45
   2   2  -3   70.65    3.54
   2   2  -3   75.69    3.19
   2   2  -3   77.76    3.38
   2   2  -3   70.62    3.30
   2   2  -3   72.26    3.35
  -2  -2   3   72.90    3.35
  -2  -2   3   77.32    3.25
  -2  -2   3   71.72    3.15
  -2  -2   3   72.02    3.11
  -2  -2   3   77.80    3.33
   1   2  -3  669.58   19.55
   1   2  -3  690.01   19.81
   1   2  -3  673.54   19.79
   1   2  -3  671.75   19.87
   1   2  -3  655.38   19.57
   1   2  -3  657.96   20.09
   1   2  -3  658.84   20.25
   1   2  -3  635.23   18.97
   1   2  -3  661.66   20.01
  -1  -2   3  650.37   19.80
  -1  -2   3  674.04   20.12
  -1  -2   3  657.89   19.85
  -1  -2   3  663.97   19.59
  -1  -2   3  652.07   19.62
  -1  -2   3  678.32   19.64
  -1  -2   3  680.02   19.80
   0   2  -3    5.42    0.81
   0   2  -3    4.63    0.73
   0   2  -3    4.04    0.85
   0   2  -3    5.53    0.82
   0   2  -3    3.82    0.95
   0   2  -3    4.38    0.74
   0   2  -3    5.03    0.93
   0   2  -3    6.17    1.02
   0   2  -3    3.45    0.93
   0   2  -3    5.56    0.85
   0  -2   3    6.02    1.01
   0  -2   3    5.41    0.86
   0  -2   3    4.20    0.74
   0  -2   3    5.93    0.99
   0  -2   3    5.56    0.98
   0  -2   3    5.11    0.85
   0  -2   3    6.53    0.95
   0  -2   3    5.06    0.90
  -1   2  -3   69.17    2.97
  -1   2  -3   84.18    3.77
  -1   2  -3   75.34    3.01
  -1   2  -3   74.05    3.20
  -1   2  -3   72.86    3.33
  -1   2  -3   74.61    3.39
   1  -2   3   74.86    2.86
   1  -2   3   73.34    2.73
   1  -2   3   73.87    3.66
   1  -2   3   79.06    3.13
   1  -2   3   78.53    3.17
   1  -2   3   77.84    3.63
   1  -2   3   78.13    3.43
   1  -2   3   71.68    3.23
  -2   2  -3  358.22   11.92
  -2   2  -3  352.33   10.90
  -2   2  -3  363.50   11.54
  -2   2  -3  350.84   11.78
  -2   2  -3  337.85   10.55
  -2   2  -3  354.09   11.80
   2  -2   3  359.12   10.75
   2  -2   3  349.55   11.34
   2  -2   3  355.25   10.38
   2  -2   3  357.62   10.59
   2  -2   3  358.07   11.82
   2  -2   3  341.54   11.83
   2  -2   3  378.08   10.90
   2  -2   3  356.65   11.46
  -3   2  -3   45.53    3.11
  -3   2  -3   49.96    2.16
  -3   2  -3   52.64    2.81
  -3   2  -3   52.74    3.09
  -3   2  -3   44.19    3.24
   3  -2   3   51.93    3.21
   3  -2   3   51.95    3.09
   3  -2   3   51.58    1.96
   3  -2   3   50.39    2.83
   3  -2   3   56.90    2.35
   3  -2   3   45.59    2.63
   3  -2   3   51.29    1.98
  -4   2  -3  104.95    4.35
  -4   2  -3   98.75    5.45
  -4   2  -3  103.47    5.26
   4  -2   3  104.55    4.02
   4  -2   3  101.54    4.82
   4  -2   3   94.46    5.13
   4  -2   3  102.29    4.47
   4  -2   3   95.34    4.27
   4  -2   3  102.07    3.87
   4  -2   3   95.88    3.52
  -5   2  -3  198.90    7.37
  -5   2  -3  210.12    9.32
   5  -2   3  203.20    7.60
   5  -2   3  209.91    8.14
   5  -2   3  208.89    7.60
   5  -2   3  209.53    7.12
   5  -2   3  194.20    6.78
  -6   2  -3    5.91    2.48
  -6   2  -3    9.92    1.73
   6  -2   3    7.23    1.70
   6  -2   3    7.11    1.38
   6  -2   3    7.80    1.28
   6  -2   3    9.26    1.80
   6  -2   3    8.65    1.46
  -7   2  -3   42.35    4.77
  -7   2  -3   45.15    3.08
   7  -2   3   45.25    2.94
   7  -2   3   44.52    3.48
   7  -2   3   49.76    3.17
   7  -2   3   41.65    3.32
   7  -2   3   47.44    5.01
  -8   2  -3   51.23    3.42
  -8   2  -3   44.81    5.38
   8  -2   3   48.30    3.50
   8  -2   3   49.42    4.00
   8  -2   3   52.12    3.62
   8  -2   3   57.23    4.22
  -9   2  -3    2.93    2.64
   9  -2   3    5.08    2.08
   9  -2   3    1.37    1.48
   9  -2   3    2.70    1.93
 -10   2  -3    9.29    4.07
  10  -2   3    7.58    2.75
  10  -2   3   13.81    2.84
 -10  -1   3   53.69    7.46
   9   1  -3    0.23    1.84
   9   1  -3    2.11    1.63
  -9  -1   3    3.46    3.18
   8   1  -3    8.12    2.11
   8   1  -3    5.93    1.76
   8   1  -3    8.32    2.17
  -8  -1   3    5.02    3.15
  -8  -1   3    9.89    2.45
   7   1  -3  167.46    7.36
   7   1  -3  166.85    7.10
   7   1  -3  157.66    6.95
   7   1  -3  160.63    7.16
   7   1  -3  155.83    7.22
   7   1  -3  161.28    7.21
  -7  -1   3  174.54    7.32
  -7  -1   3  160.40    9.75
   6   1  -3   11.64    1.84
   6   1  -3   11.37    1.88
   6   1  -3   13.44    2.04
   6   1  -3   12.82    1.88
   6   1  -3   13.94    1.77
   6   1  -3   12.07    1.89
  -6  -1   3   14.27    1.85
  -6  -1   3   11.27    3.11
   5   1  -3    2.61    0.86
   5   1  -3    2.45    0.98
   5   1  -3    1.58    0.88
   5   1  -3    2.68    0.95
   5   1  -3    3.02    1.20
   5   1  -3    1.07    0.81
  -5  -1   3    3.57    1.96
  -5  -1   3    5.81    1.39
   4   1  -3  482.04   15.65
   4   1  -3  494.32   15.36
   4   1  -3  507.66   15.22
   4   1  -3  504.76   15.22
   4   1  -3  508.00   15.91
   4   1  -3  485.11   15.49
   4   1  -3  476.06   15.48
  -4  -1   3  504.54   15.70
   3   1  -3    7.67    1.31
   3   1  -3    7.58    1.08
   3   1  -3    7.69    1.12
   3   1  -3    6.22    1.05
   3   1  -3    7.89    1.34
   3   1  -3    7.96    1.17
   3   1  -3    6.28    1.07
  -3  -1   3    4.91    0.88
  -3  -1   3    7.22    1.20
  -3  -1   3    6.70    0.61
   2   1  -3    1.24    0.62
   2   1  -3    1.49    0.61
   2   1  -3    0.67    0.64
   2   1  -3    2.15    0.66
   2   1  -3    2.12    0.74
   2   1  -3    2.12    0.73
   2   1  -3    2.06    0.66
  -2  -1   3    2.27    0.84
  -2  -1   3    1.83    0.58
  -2  -1   3    2.00    0.65
  -2  -1   3    2.44    0.66
  -2  -1   3    2.52    0.65
   1   1  -3  721.30   21.90
   1   1  -3  735.32   22.20
   1   1  -3  759.23   22.09
   1   1  -3  715.73   21.92
   1   1  -3  799.05   22.09
   1   1  -3  764.05   21.85
  -1  -1   3  745.67   22.22
  -1  -1   3  738.62   21.86
  -1  -1   3  797.84   22.62
  -1  -1   3  771.40   22.05
  -1  -1   3  725.44   21.89
  -1  -1   3  785.35   21.90
   0   1  -3   13.61    1.29
   0   1  -3   14.48    1.27
   0   1  -3   14.58    1.15
   0   1  -3   12.84    1.09
   0   1  -3   18.17    1.30
   0   1  -3   14.37    1.16
   0  -1   3   16.46    1.26
   0  -1   3   16.00    1.24
   0  -1   3   13.77    1.25
   0  -1   3   17.71    1.33
   0  -1   3   14.50    1.15
  -1   1  -3   35.67    1.51
  -1   1  -3   34.34    2.12
  -1   1  -3   32.87    1.56
  -1   1  -3   34.79    1.72
  -1   1  -3   36.52    1.65
  -1   1  -3   36.68    2.27
  -1   1  -3   37.80    2.12
  -1   1  -3   36.00    2.14
  -1   1  -3   34.22    1.49
   1  -1   3   36.71    1.76
   1  -1   3   34.35    1.90
   1  -1   3   33.10    2.10
   1  -1   3   36.69    2.22
   1  -1   3   37.37    1.95
   1  -1   3   39.80    1.94
   1  -1   3   34.93    1.71
  -2   1  -3  678.37   20.95
  -2   1  -3  700.22   20.91
  -2   1  -3  688.50   21.16
  -2   1  -3  657.01   20.78
  -2   1  -3  715.43   20.00
  -2   1  -3  693.55   20.76
  -2   1  -3  701.50   20.44
   2  -1   3  677.74   20.93
   2  -1   3  679.68   20.06
   2  -1   3  674.02   20.89
   2  -1   3  717.53   20.28
   2  -1   3  697.49   20.69
   2  -1   3  687.66   20.37
   2  -1   3  701.89   20.04
   2  -1   3  703.66   20.33
  -3   1  -3    1.84    0.92
  -3   1  -3    1.45    1.11
  -3   1  -3    1.07    0.71
  -3   1  -3   -0.26    0.83
  -3   1  -3    1.84    0.96
  -3   1  -3    1.37    0.65
   3  -1   3    0.25    0.58
   3  -1   3    1.86    0.83
   3  -1   3    0.45    0.73
   3  -1   3    0.93    0.76
   3  -1   3    1.89    0.56
   3  -1   3    1.60    0.78
  -4   1  -3    2.24    1.07
  -4   1  -3    2.85    1.40
  -4   1  -3    2.37    1.05
  -4   1  -3    3.14    0.80
  -4   1  -3    2.99    1.08
   4  -1   3    3.50    0.87
   4  -1   3    2.47    1.11
   4  -1   3    4.44    1.08
   4  -1   3    4.28    1.14
   4  -1   3    2.46    0.70
   4  -1   3    4.82    1.55
  -5   1  -3  197.92    7.61
  -5   1  -3  194.78    7.98
  -5   1  -3  215.16    9.09
  -5   1  -3  211.25    8.65
   5  -1   3  191.47    7.11
   5  -1   3  187.44    7.60
   5  -1   3  197.45    7.73
   5  -1   3  202.65    7.22
   5  -1   3  206.22    7.70
  -6   1  -3    0.99    1.08
  -6   1  -3    0.19    1.14
  -6   1  -3    2.29    1.67
   6  -1   3   -0.01    0.98
   6  -1   3   -0.44    1.25
   6  -1   3    1.16    1.08
   6  -1   3    0.68    0.90
   6  -1   3    1.29    0.85
  -7   1  -3    6.31    2.51
  -7   1  -3    3.41    1.54
   7  -1   3    4.05    1.42
   7  -1   3    3.42    1.34
   7  -1   3    2.00    1.42
   7  -1   3    4.81    1.79
  -8   1  -3   90.51    6.95
  -8   1  -3   76.33    4.83
   8  -1   3   83.05    5.63
   8  -1   3   86.94    5.06
   8  -1   3   82.62    4.86
   8  -1   3   84.47    5.31
  -9   1  -3   -1.04    2.34
   9  -1   3    2.12    1.77
   9  -1   3    1.53    1.63
 -10   1  -3    3.26    3.14
  10  -1   3    2.01    1.89
  10   0  -3   23.97    3.56
 -10   0   3   24.26    6.13
   9   0  -3   35.73    3.37
   9   0  -3   36.91    3.61
   9   0  -3   33.77    3.63
  -9   0   3   40.95    5.86
  -9   0   3   35.67    3.87
   8   0  -3   17.22    2.26
   8   0  -3   14.48    2.22
   8   0  -3   17.92    2.57
  -8   0   3   12.81    4.06
  -8   0   3   17.02    2.70
   7   0  -3   99.69    4.89
   7   0  -3  105.82    5.62
   7   0  -3   95.19    4.77
   7   0  -3   90.64    4.50
   7   0  -3   98.16    4.85
  -7   0   3   98.94    7.33
  -7   0   3  103.89    5.57
   6   0  -3   71.16    3.57
   6   0  -3   72.30    3.74
   6   0  -3   78.16    3.91
   6   0  -3   74.15    4.23
   6   0  -3   79.33    4.01
  -6   0   3   71.28    3.74
  -6   0   3   60.72    5.46
  -6   0   3   75.75    4.42
   5   0  -3   40.71    2.71
   5   0  -3   39.96    2.19
   5   0  -3   37.75    2.40
   5   0  -3   38.60    2.17
   5   0  -3   38.81    2.20
   5   0  -3   38.03    2.44
  -5   0   3   41.02    3.98
  -5   0   3   39.03    2.37
  -5   0   3   35.90    2.77
   4   0  -3  371.48   11.66
   4   0  -3  369.27   11.29
   4   0  -3  359.96   11.55
   4   0  -3  348.45   11.11
   4   0  -3  383.68   11.26
  -4   0   3  372.93   12.35
  -4   0   3  377.09   13.75
  -4   0   3  361.60   11.54
   3   0  -3  161.50    5.64
   3   0  -3  162.75    5.40
   3   0  -3  170.07    5.17
   3   0  -3  155.41    5.24
   3   0  -3  163.08    5.03
   3   0  -3  165.40    5.47
   3   0  -3  169.15    5.34
   3   0  -3  158.71    5.70
  -3   0   3  170.02    7.08
  -3   0   3  167.90    6.28
  -3   0   3  176.23    5.76
   2   0  -3    7.43    1.00
   2   0  -3    4.87    0.71
   2   0  -3    5.58    0.66
   2   0  -3    5.61    0.86
   2   0  -3    4.75    0.67
   2   0  -3    5.49    0.83
   2   0  -3    5.35    0.89
   2   0  -3    5.69    0.71
  -2   0   3    7.26    1.08
  -2   0   3    6.23    1.46
  -2   0   3    4.81    1.06
   1   0  -3  599.90   16.45
   1   0  -3  559.27   16.68
   1   0  -3  568.98   16.22
   1   0  -3  541.24   16.39
   1   0  -3  542.97   16.50
   1   0  -3  531.91   16.60
   1   0  -3  565.78   16.54
   1   0  -3  572.95   16.35
  -1   0   3  581.74   16.14
  -1   0   3  551.28   16.46
  -1   0   3  537.99   16.63
  -1   0   3  589.24   16.29
  -1   0   3  533.20   16.71
  -1   0   3  527.05   16.19
  -1   0   3  555.72   16.40
  -1   0   3  598.72   16.30
   0   0  -3  155.69    5.78
   0   0  -3  147.63    5.26
   0   0  -3  138.66    4.92
   0   0  -3  145.04    4.90
   0   0  -3  137.31    4.89
   0   0  -3  144.77    5.09
   0   0  -3  145.62    5.09
   0   0   3  143.23    5.27
   0   0   3  141.84    4.89
   0   0   3  142.08    4.88
   0   0   3  147.11    5.82
   0   0   3  137.52    5.02
   0   0   3  124.44    4.21
  -1   0  -3   13.86    1.15
  -1   0  -3   12.85    1.34
  -1   0  -3   16.95    1.39
  -1   0  -3   13.58    0.94
  -1   0  -3   15.44    1.63
  -1   0  -3   14.08    1.37
  -1   0  -3   15.95    1.25
  -1   0  -3   18.55    1.55
   1   0   3   15.66    1.23
   1   0   3   15.63    1.46
   1   0   3   15.78    1.50
   1   0   3   14.07    1.43
   1   0   3   17.70    1.34
   1   0   3   15.03    1.28
   1   0   3   13.67    1.53
  -2   0  -3  480.32   15.05
  -2   0  -3  463.16   14.45
  -2   0  -3  449.23   13.89
  -2   0  -3  462.15   14.32
  -2   0  -3  484.05   14.20
  -2   0  -3  461.23   14.78
  -2   0  -3  479.69   14.01
  -2   0  -3  458.21   14.43
   2   0   3  453.43   14.71
   2   0   3  481.53   14.13
   2   0   3  473.53   14.83
   2   0   3  485.98   14.40
   2   0   3  452.88   14.37
   2   0   3  472.57   14.55
   2   0   3  471.42   14.26
  -3   0  -3  132.94    5.07
  -3   0  -3  131.49    4.84
  -3   0  -3  131.07    4.61
  -3   0  -3  129.88    5.46
  -3   0  -3  124.91    4.38
  -3   0  -3  133.03    5.64
  -3   0  -3  129.49    5.68
   3   0   3  132.63    4.78
   3   0   3  131.12    4.96
   3   0   3  128.37    5.23
   3   0   3  133.01    5.48
   3   0   3  131.57    5.02
   3   0   3  134.98    5.17
   3   0   3  128.63    5.38
  -4   0  -3    3.20    1.49
  -4   0  -3    1.72    0.85
  -4   0  -3    1.95    1.08
  -4   0  -3    1.51    1.03
  -4   0  -3    2.03    0.52
  -4   0  -3   -0.07    0.50
   4   0   3    0.88    0.59
   4   0   3    1.22    0.98
   4   0   3    1.60    0.87
   4   0   3    2.01    1.07
   4   0   3    2.54    0.95
  -5   0  -3  180.25    7.36
  -5   0  -3  186.72    7.92
  -5   0  -3  187.64    8.38
   5   0   3  175.98    7.17
   5   0   3  177.43    7.59
   5   0   3  161.95    6.83
   5   0   3  170.60    6.77
   5   0   3  186.38    7.44
  -6   0  -3   17.69    2.94
  -6   0  -3    8.05    1.95
  -6   0  -3   18.29    2.65
   6   0   3   14.53    1.98
   6   0   3   12.64    2.48
   6   0   3    9.40    1.86
   6   0   3   14.12    2.34
   6   0   3   13.31    1.94
  -7   0  -3    3.88    2.46
  -7   0  -3    2.48    1.76
  -7   0  -3    6.21    2.00
   7   0   3   10.92    2.21
   7   0   3    5.66    1.87
   7   0   3    5.61    1.56
   7   0   3    4.08    1.86
  -8   0  -3   87.58    7.08
  -8   0  -3   79.54    5.29
   8   0   3   97.92    5.85
   8   0   3   88.50    5.30
   8   0   3   87.24    6.03
  -9   0  -3   -0.12    1.56
  -9   0  -3    0.87    2.30
   9   0   3    0.64    1.71
   9   0   3    0.15    3.23
 -10   0  -3    3.87    3.45
  10   0   3    3.13    2.17
  10  -1  -3    1.02    1.72
  10  -1  -3    2.19    1.60
  10  -1  -3    2.56    1.55
 -10   1   3    2.51    2.33
 -10   1   3    0.07    2.80
   9  -1  -3   78.35    4.49
   9  -1  -3   82.05    4.84
   9  -1  -3   84.86    4.81
  -9   1   3   82.45    5.82
  -9   1   3   87.46    7.97
   8  -1  -3   11.39    2.01
   8  -1  -3   12.62    1.69
   8  -1  -3   10.91    1.75
  -8   1   3    5.56    3.03
  -8   1   3   12.30    2.84
   7  -1  -3   29.49    2.40
   7  -1  -3   30.38    2.54
   7  -1  -3   27.05    1.99
  -7   1   3   33.34    4.41
  -7   1   3   30.90    3.24
   6  -1  -3  206.47    8.60
   6  -1  -3  215.77    7.12
   6  -1  -3  225.73    7.11
   6  -1  -3  210.66    7.41
   6  -1  -3  213.10    7.46
  -6   1   3  194.75   10.13
  -6   1   3  205.81    8.90
   5  -1  -3   15.97    1.25
   5  -1  -3   17.20    1.22
   5  -1  -3   17.65    1.49
   5  -1  -3   18.00    1.49
  -5   1   3   15.97    2.66
  -5   1   3   15.41    2.08
   4  -1  -3   62.84    2.67
  -4   1   3   62.80    3.62
  -4   1   3   59.96    4.27
   3  -1  -3  326.30    9.47
   3  -1  -3  323.76    9.31
  -3   1   3  314.17   10.57
  -3   1   3  257.90    9.19
  -3   1   3  317.12   11.29
   2  -1  -3    4.94    0.78
   2  -1  -3    4.29    0.54
   2  -1  -3    3.94    0.57
   2  -1  -3    5.38    0.93
  -2   1   3    5.99    1.51
  -2   1   3    5.83    1.05
  -2   1   3    5.30    0.84
  -2   1   3    4.12    1.06
   1  -1  -3  175.50    5.31
   1  -1  -3  169.34    5.34
   1  -1  -3  153.81    5.73
   1  -1  -3  164.62    5.65
   1  -1  -3  165.60    5.29
   1  -1  -3  161.77    5.29
   1  -1  -3  157.22    5.78
   1  -1  -3  167.47    5.16
   1  -1  -3  165.63    5.08
  -1   1   3  164.11    5.81
  -1   1   3  161.74    5.72
  -1   1   3  165.41    5.10
  -1   1   3  166.49    5.80
  -1   1   3  167.14    5.93
  -1   1   3  166.27    5.50
   0  -1  -3  532.18   15.62
   0  -1  -3  526.62   15.88
   0  -1  -3  533.39   16.34
   0  -1  -3  512.62   15.89
   0  -1  -3  536.15   16.24
   0  -1  -3  537.72   16.38
   0  -1  -3  520.43   15.95
   0  -1  -3  515.89   16.09
   0   1   3  559.81   16.23
   0   1   3  533.09   15.85
   0   1   3  526.28   15.99
   0   1   3  580.69   15.93
   0   1   3  566.33   16.04
   0   1   3  516.44   16.31
   0   1   3  522.02   16.18
  -1  -1  -3   10.40    1.28
  -1  -1  -3   14.09    1.31
  -1  -1  -3   15.00    1.30
  -1  -1  -3    9.31    1.36
  -1  -1  -3   11.01    1.34
  -1  -1  -3   10.04    1.28
   1   1   3   10.22    1.18
   1   1   3   10.94    1.36
   1   1   3   10.71    1.34
   1   1   3   10.82    1.45
  -2  -1  -3  176.04    6.12
  -2  -1  -3  178.75    6.69
  -2  -1  -3  165.85    6.17
  -2  -1  -3  177.80    6.36
  -2  -1  -3  168.23    6.22
  -2  -1  -3  169.85    6.43
   2   1   3  166.56    5.99
   2   1   3  168.53    6.28
   2   1   3  166.36    6.50
   2   1   3  171.67    6.29
   2   1   3  170.05    6.12
   2   1   3  172.93    6.40
   2   1   3  166.15    6.54
  -3  -1  -3  202.11    7.88
  -3  -1  -3  208.36    6.39
  -3  -1  -3  214.57    8.00
  -3  -1  -3  204.75    6.86
  -3  -1  -3  200.11    7.13
  -3  -1  -3  205.85    7.45
  -3  -1  -3  196.21    7.02
  -3  -1  -3  217.91    8.16
  -3  -1  -3  207.94    7.57
   3   1   3  203.49    7.52
   3   1   3  212.95    7.64
   3   1   3  202.98    7.86
   3   1   3  207.77    7.97
   3   1   3  200.78    7.59
   3   1   3  201.16    7.32
   3   1   3  209.10    7.25
  -4  -1  -3   21.74    2.10
  -4  -1  -3   23.96    1.79
  -4  -1  -3   22.96    2.08
  -4  -1  -3   25.26    2.46
  -4  -1  -3   26.51    2.54
  -4  -1  -3   21.81    1.41
  -4  -1  -3   22.82    1.31
  -4  -1  -3   24.63    2.61
   4   1   3   20.84    2.31
   4   1   3   24.36    2.45
   4   1   3   20.62    2.12
   4   1   3   21.10    2.02
   4   1   3   23.52    2.36
   4   1   3   25.11    2.03
   4   1   3   25.76    2.13
  -5  -1  -3  139.31    7.15
  -5  -1  -3  138.04    6.51
  -5  -1  -3  131.44    5.55
  -5  -1  -3  142.52    6.72
  -5  -1  -3  131.79    5.34
  -5  -1  -3  130.07    5.90
   5   1   3  139.24    6.30
   5   1   3  149.82    6.66
   5   1   3  134.08    6.15
   5   1   3  149.79    6.13
   5   1   3  141.92    6.35
   5   1   3  142.91    6.73
  -6  -1  -3  125.78    7.20
  -6  -1  -3  121.72    6.46
  -6  -1  -3  114.68    6.12
   6   1   3  124.61    5.79
   6   1   3  104.76    6.19
   6   1   3  114.01    5.87
   6   1   3  116.75    6.02
   6   1   3  116.23    6.23
  -7  -1  -3   21.58    3.77
  -7  -1  -3   20.48    3.00
  -7  -1  -3   25.80    3.34
   7   1   3   24.84    2.93
   7   1   3   26.67    3.41
   7   1   3   20.01    3.19
   7   1   3   24.02    3.11
  -8  -1  -3   33.67    4.85
  -8  -1  -3   29.55    3.67
   8   1   3   36.16    3.67
  -9  -1  -3   21.89    3.64
  -9  -1  -3   18.94    4.92
   9   1   3   19.50    3.60
  10  -2  -3    2.35    1.34
  10  -2  -3    0.77    1.22
  10  -2  -3    2.80    1.83
 -10   2   3    1.82    2.88
 -10   2   3    2.49    2.39
   9  -2  -3   76.27    3.91
   9  -2  -3   87.48    4.53
   9  -2  -3   79.00    4.16
  -9   2   3   83.52    7.81
  -9   2   3   96.19    6.50
   8  -2  -3    0.35    0.70
   8  -2  -3    0.46    1.02
  -8   2   3   -0.42    1.46
  -8   2   3    1.11    2.11
   7  -2  -3   -0.67    0.67
   7  -2  -3    1.27    0.80
  -7   2   3    2.85    2.26
  -7   2   3    1.42    1.46
   6  -2  -3  220.92    7.30
  -6   2   3  204.53   10.54
  -6   2   3  229.78    9.65
   5  -2  -3   13.73    1.10
   5  -2  -3   13.41    1.16
  -5   2   3   11.98    2.00
  -5   2   3   14.39    2.98
   4  -2  -3    6.88    0.72
   4  -2  -3    5.91    0.84
  -4   2   3    4.32    1.34
  -4   2   3    8.55    2.30
   3  -2  -3  413.88   12.48
   3  -2  -3  437.72   12.78
  -3   2   3  425.07   12.31
  -3   2   3  437.86   14.97
  -3   2   3  412.85   12.35
  -3   2   3  427.71   14.25
   2  -2  -3    2.82    0.42
   2  -2  -3    3.78    0.83
   2  -2  -3    3.73    0.76
   2  -2  -3    3.69    0.47
  -2   2   3    5.98    1.35
  -2   2   3    3.58    0.45
  -2   2   3    1.88    1.16
  -2   2   3    5.43    0.95
  -2   2   3    3.11    0.76
   1  -2  -3    5.32    0.91
   1  -2  -3    3.33    0.56
   1  -2  -3    4.83    0.96
   1  -2  -3    4.01    0.64
   1  -2  -3    5.52    1.10
   1  -2  -3    3.93    0.73
   1  -2  -3    2.73    0.56
   1  -2  -3    5.68    1.06
   1  -2  -3    5.68    1.46
  -1   2   3    3.59    0.85
  -1   2   3    4.04    0.94
  -1   2   3    6.24    1.10
  -1   2   3    3.18    1.00
   0  -2  -3  785.63   22.98
   0  -2  -3  777.90   22.99
   0  -2  -3  798.29   23.22
   0  -2  -3  788.68   23.53
   0  -2  -3  794.68   23.50
   0  -2  -3  777.92   23.32
   0  -2  -3  783.03   23.07
   0   2   3  765.69   23.03
   0   2   3  742.93   23.07
   0   2   3  761.55   23.36
   0   2   3  785.08   22.94
   0   2   3  756.40   22.71
   0   2   3  811.01   23.23
   0   2   3  837.06   22.87
   0   2   3  764.64   23.24
  -1  -2  -3    9.28    1.34
  -1  -2  -3   11.37    1.64
  -1  -2  -3    8.50    1.38
  -1  -2  -3   10.85    1.54
  -1  -2  -3    9.57    1.29
  -1  -2  -3    9.42    1.26
   1   2   3   10.39    1.31
   1   2   3   13.01    1.42
   1   2   3    9.09    1.25
   1   2   3   10.82    1.31
   1   2   3    9.00    1.30
   1   2   3    8.28    1.17
   1   2   3   10.51    1.52
   1   2   3    7.36    0.99
  -2  -2  -3   10.75    1.77
  -2  -2  -3   12.58    1.54
  -2  -2  -3   10.73    1.58
  -2  -2  -3   12.87    1.76
  -2  -2  -3   13.73    1.77
  -2  -2  -3   11.40    1.41
   2   2   3    9.85    1.39
   2   2   3    9.75    1.53
   2   2   3   11.12    2.03
   2   2   3   12.33    1.48
   2   2   3   11.11    1.62
  -3  -2  -3  456.25   14.37
  -3  -2  -3  433.84   13.64
  -3  -2  -3  419.20   14.54
  -3  -2  -3  422.71   13.91
  -3  -2  -3  417.28   13.86
  -3  -2  -3  407.06   13.87
  -3  -2  -3  431.96   13.89
   3   2   3  415.57   13.85
   3   2   3  435.49   14.61
   3   2   3  413.32   14.52
   3   2   3  462.57   14.39
   3   2   3  435.88   14.31
   3   2   3  425.82   14.17
   3   2   3  430.98   13.84
  -4  -2  -3    5.99    1.19
  -4  -2  -3    8.08    2.06
  -4  -2  -3    3.58    1.15
  -4  -2  -3    4.00    1.28
  -4  -2  -3    5.90    1.54
  -4  -2  -3    5.58    1.44
  -4  -2  -3    5.37    1.49
   4   2   3    4.02    1.29
   4   2   3    4.91    1.45
   4   2   3    5.16    1.40
   4   2   3    5.23    0.97
   4   2   3    5.10    1.40
   4   2   3    5.29    1.57
   4   2   3    4.73    1.56
   4   2   3    5.85    1.92
  -5  -2  -3    2.07    1.40
  -5  -2  -3    2.52    0.95
  -5  -2  -3    2.16    1.58
  -5  -2  -3    2.06    0.97
  -5  -2  -3    3.28    0.83
  -5  -2  -3    2.00    1.40
  -5  -2  -3    2.30    1.45
  -5  -2  -3    2.89    1.27
   5   2   3    2.56    1.48
   5   2   3    1.38    1.24
   5   2   3    2.99    1.34
   5   2   3    3.15    1.51
   5   2   3    2.85    1.26
   5   2   3    1.63    1.26
   5   2   3    2.10    1.33
  -6  -2  -3  161.39    7.69
  -6  -2  -3  162.28    8.42
  -6  -2  -3  151.38    6.55
  -6  -2  -3  149.42    7.60
   6   2   3  160.32    7.24
   6   2   3  152.75    7.63
   6   2   3  141.67    7.74
   6   2   3  148.61    7.33
  -7  -2  -3    3.27    2.35
  -7  -2  -3    2.98    1.75
  -7  -2  -3    2.25    1.78
   7   2   3    3.89    1.96
   7   2   3    3.80    2.00
  -8  -2  -3    7.32    2.72
  -8  -2  -3    2.82    2.00
  -8  -2  -3    4.57    3.02
   8   2   3    7.02    2.21
  -9  -2  -3   44.42    5.00
  -9  -2  -3   50.00    6.37
   9   2   3   49.06    4.74
  10  -3  -3    1.69    1.19
  10  -3  -3    3.85    1.37
 -10   3   3    1.33    2.43
 -10   3   3   -0.60    2.78
   9  -3  -3   51.15    3.16
  -9   3   3   50.91    5.23
  -9   3   3   44.53    6.10
   8  -3  -3   26.09    2.14
   8  -3  -3   27.42    1.91
  -8   3   3   32.68    4.07
  -8   3   3   28.96    4.83
   7  -3  -3    7.87    1.16
  -7   3   3    4.63    2.72
  -7   3   3    2.87    1.82
   6  -3  -3  146.30    4.82
  -6   3   3  138.59    7.38
  -6   3   3  144.46    8.54
   5  -3  -3   60.96    2.24
  -5   3   3   61.96    4.36
  -5   3   3   60.16    5.02
   4  -3  -3   21.94    1.19
  -4   3   3   25.69    2.65
  -4   3   3   24.33    3.03
   3  -3  -3  540.01   16.45
   3  -3  -3  568.66   16.29
  -3   3   3  540.74   15.92
  -3   3   3  549.16   18.28
  -3   3   3  570.49   16.00
  -3   3   3  552.58   18.99
   2  -3  -3  140.91    4.42
   2  -3  -3  137.79    5.03
   2  -3  -3  137.94    4.53
   2  -3  -3  133.10    4.90
  -2   3   3  130.41    4.21
  -2   3   3  134.25    4.80
  -2   3   3  136.97    5.04
  -2   3   3  129.08    6.19
  -2   3   3  137.18    5.85
   1  -3  -3   75.97    3.29
   1  -3  -3   69.90    3.00
   1  -3  -3   67.41    2.93
   1  -3  -3   68.01    3.11
   1  -3  -3   70.05    3.34
   1  -3  -3   75.49    3.00
   1  -3  -3   69.51    3.26
  -1   3   3   70.45    3.60
  -1   3   3   69.88    3.32
  -1   3   3   65.44    3.13
  -1   3   3   70.75    3.35
   0  -3  -3  370.53   11.76
   0  -3  -3  368.12   12.21
   0  -3  -3  370.17   12.27
   0  -3  -3  380.26   12.20
   0  -3  -3  351.59   11.97
   0  -3  -3  404.68   11.99
   0  -3  -3  363.92   11.76
   0   3   3  381.53   12.06
   0   3   3  378.85   11.76
   0   3   3  358.89   11.86
   0   3   3  367.35   11.31
   0   3   3  369.02   12.25
   0   3   3  367.65   11.16
  -1  -3  -3   50.53    2.89
  -1  -3  -3   52.85    3.09
  -1  -3  -3   55.78    2.97
  -1  -3  -3   56.82    3.05
  -1  -3  -3   53.02    3.10
  -1  -3  -3   56.87    3.32
  -1  -3  -3   53.88    3.14
   1   3   3   56.62    2.90
   1   3   3   53.92    2.86
   1   3   3   49.76    3.21
   1   3   3   54.82    3.02
   1   3   3   51.27    2.87
   1   3   3   50.77    3.04
   1   3   3   50.56    2.51
  -2  -3  -3   11.15    1.88
  -2  -3  -3   11.31    1.52
  -2  -3  -3   13.80    1.84
  -2  -3  -3   10.21    1.61
  -2  -3  -3   12.00    1.92
   2   3   3   10.00    1.47
   2   3   3   10.00    1.68
   2   3   3   12.06    1.88
   2   3   3   12.83    1.67
   2   3   3    9.44    1.58
   2   3   3   11.24    0.98
   2   3   3   12.66    1.56
   2   3   3   11.87    1.72
  -3  -3  -3  261.30    9.33
  -3  -3  -3  252.17    9.54
  -3  -3  -3  257.71    9.70
  -3  -3  -3  270.76    9.26
  -3  -3  -3  242.36    9.35
  -3  -3  -3  255.53    9.98
  -3  -3  -3  242.10    9.25
   3   3   3  261.65    9.65
   3   3   3  255.44    9.57
   3   3   3  247.67    9.85
   3   3   3  255.87    9.97
   3   3   3  253.64    9.26
  -4  -3  -3   12.15    2.44
  -4  -3  -3    9.72    1.92
  -4  -3  -3   10.57    1.95
  -4  -3  -3   10.67    1.78
  -4  -3  -3   11.97    2.13
  -4  -3  -3   12.45    2.18
   4   3   3   13.30    2.25
   4   3   3   10.23    2.00
   4   3   3   12.64    2.01
   4   3   3   13.86    2.23
   4   3   3   16.04    2.91
   4   3   3   16.07    2.52
  -5  -3  -3   12.92    2.22
  -5  -3  -3    6.70    2.17
  -5  -3  -3    5.11    1.93
  -5  -3  -3   10.44    1.64
  -5  -3  -3    9.59    1.89
  -5  -3  -3    5.51    1.84
   5   3   3    7.81    1.81
   5   3   3    7.20    1.95
   5   3   3   11.09    2.46
   5   3   3    6.18    1.82
  -6  -3  -3  144.20    8.29
  -6  -3  -3  128.51    5.27
  -6  -3  -3  139.53    5.26
  -6  -3  -3  145.01    7.27
  -6  -3  -3  137.75    6.76
  -6  -3  -3  144.89    7.70
   6   3   3  149.93    7.15
   6   3   3  150.53    7.86
  -7  -3  -3    2.69    2.46
  -7  -3  -3   -0.40    1.49
  -7  -3  -3    2.07    1.95
   7   3   3    1.12    1.65
   7   3   3    0.62    1.80
  -8  -3  -3    4.94    3.12
  -8  -3  -3    5.22    2.48
   8   3   3    8.91    2.62
  -9  -3  -3   36.34    4.79
  -9  -3  -3   39.45    5.94
   9   3   3   40.88    4.76
 -10   4   3    4.46    3.81
 -10   4   3    3.79    2.75
  -9   4   3   10.01    3.18
  -9   4   3    7.77    4.06
  -8   4   3   87.91    6.47
  -8   4   3   79.36    7.30
  -7   4   3    8.10    2.72
  -7   4   3   13.69    3.74
  -6   4   3   38.72    4.62
  -6   4   3   47.47    4.31
  -5   4   3  220.89    9.86
  -5   4   3  223.11   10.95
   4  -4  -3   37.53    1.95
  -4   4   3   41.44    3.52
  -4   4   3   40.06    4.00
   3  -4  -3   75.54    3.13
   3  -4  -3   73.15    3.22
  -3   4   3   82.77    2.95
  -3   4   3   69.75    4.91
  -3   4   3   72.31    4.55
  -3   4   3   74.51    3.10
   2  -4  -3  248.77    8.13
   2  -4  -3  256.25    7.90
   2  -4  -3  248.14    7.59
   2  -4  -3  243.51    8.39
   2  -4  -3  227.74    7.71
   2  -4  -3  253.12    8.36
  -2   4   3  242.72    8.21
  -2   4   3  252.45    9.55
  -2   4   3  244.51    8.37
   1  -4  -3    2.56    0.96
   1  -4  -3    5.23    1.12
   1  -4  -3    3.43    0.97
   1  -4  -3    3.58    0.92
   1  -4  -3    1.47    0.91
  -1   4   3    2.27    1.00
  -1   4   3    2.86    0.86
  -1   4   3    2.18    1.06
  -1   4   3    2.33    1.02
   0  -4  -3  203.74    7.67
   0  -4  -3  196.61    7.11
   0  -4  -3  198.05    7.51
   0  -4  -3  194.69    7.15
   0  -4  -3  196.27    7.45
   0  -4  -3  203.15    7.25
   0  -4  -3  200.83    7.64
   0   4   3  193.49    7.28
   0   4   3  196.66    7.69
   0   4   3  185.27    6.01
   0   4   3  199.29    5.98
   0   4   3  192.90    6.95
   0   4   3  202.85    7.39
  -1  -4  -3  164.84    6.84
  -1  -4  -3  178.94    7.00
  -1  -4  -3  160.26    6.96
  -1  -4  -3  160.71    6.47
  -1  -4  -3  158.64    6.58
  -1  -4  -3  160.16    6.54
  -1  -4  -3  166.42    6.89
   1   4   3  172.32    6.83
   1   4   3  162.09    6.18
   1   4   3  171.37    6.40
   1   4   3  162.35    5.97
   1   4   3  171.49    7.17
   1   4   3  166.29    6.24
  -2  -4  -3   53.26    3.73
  -2  -4  -3   45.90    3.30
  -2  -4  -3   49.93    3.24
  -2  -4  -3   48.80    3.22
  -2  -4  -3   53.62    3.56
  -2  -4  -3   48.08    3.26
   2   4   3   45.32    2.09
   2   4   3   43.22    3.53
   2   4   3   50.25    3.19
   2   4   3   50.70    3.38
   2   4   3   52.62    3.03
   2   4   3   52.59    3.16
   2   4   3   42.75    3.16
  -3  -4  -3  101.72    5.43
  -3  -4  -3   87.19    5.02
  -3  -4  -3  105.81    5.74
  -3  -4  -3  102.04    5.41
  -3  -4  -3   98.90    4.93
  -3  -4  -3  103.22    5.18
  -3  -4  -3   97.07    4.40
  -3  -4  -3   94.86    4.95
   3   4   3  103.60    5.39
   3   4   3  103.19    5.06
   3   4   3  106.89    5.37
   3   4   3  103.22    5.71
   3   4   3  100.78    5.53
   3   4   3   99.78    4.86
  -4  -4  -3   99.26    6.00
  -4  -4  -3   99.48    3.95
  -4  -4  -3  104.24    5.16
  -4  -4  -3  101.81    5.63
  -4  -4  -3  100.36    5.41
  -4  -4  -3  104.91    5.34
  -4  -4  -3  102.56    6.03
   4   4   3  102.71    5.69
   4   4   3  102.88    5.22
   4   4   3  100.15    5.33
   4   4   3  110.26    6.29
  -5  -4  -3   23.24    2.95
  -5  -4  -3   24.15    2.95
  -5  -4  -3   23.83    2.88
  -5  -4  -3   25.51    2.63
  -5  -4  -3   23.33    2.99
  -5  -4  -3   28.01    3.52
   5   4   3   23.74    3.01
   5   4   3   27.33    3.61
  -6  -4  -3   32.97    3.75
  -6  -4  -3   36.68    4.22
  -6  -4  -3   41.12    3.87
  -6  -4  -3   30.83    3.06
  -6  -4  -3   39.75    2.98
   6   4   3   37.80    3.83
   6   4   3   48.72    4.62
  -7  -4  -3   21.59    4.12
  -7  -4  -3   16.16    4.47
   7   4   3   19.44    3.91
   7   4   3   24.59    3.57
  -8  -4  -3    5.23    2.65
  -8  -4  -3    5.39    3.37
   8   4   3    8.65    2.76
   9  -5  -3    0.21    2.04
  -9   5   3   -1.40    2.71
  -9   5   3   -0.04    1.88
   8  -5  -3   99.31    7.02
  -8   5   3   93.46    8.40
  -8   5   3  102.13    7.43
  -7   5   3    1.64    2.43
  -7   5   3    1.70    1.84
  -6   5   3    1.75    2.25
  -6   5   3   -1.35    1.23
   5  -5  -3  181.63    6.00
  -5   5   3  192.13   10.20
  -5   5   3  181.76    9.13
   4  -5  -3    0.50    0.59
  -4   5   3    0.36    1.31
   3  -5  -3   13.03    1.23
   3  -5  -3   14.18    1.50
   3  -5  -3   13.27    1.49
   3  -5  -3   12.34    1.44
  -3   5   3   10.29    1.44
  -3   5   3   15.20    2.87
  -3   5   3   13.00    1.33
   2  -5  -3  223.32    8.17
   2  -5  -3  224.12    7.74
   2  -5  -3  230.35    8.01
   2  -5  -3  224.14    8.19
   2  -5  -3  219.66    8.18
   2  -5  -3  234.31    7.83
  -2   5   3  229.93    8.25
  -2   5   3  241.41    9.49
  -2   5   3  238.66    8.18
   1  -5  -3    7.34    1.57
   1  -5  -3    7.92    1.63
   1  -5  -3    8.77    1.47
   1  -5  -3    6.97    1.52
   1  -5  -3   10.09    1.71
  -1   5   3    7.06    1.60
  -1   5   3    6.71    1.67
   0  -5  -3    9.65    1.87
   0  -5  -3    7.40    1.50
   0  -5  -3    6.10    1.51
   0  -5  -3    6.42    1.46
   0  -5  -3    5.88    1.54
   0  -5  -3    7.03    1.74
   0   5   3    6.02    1.47
   0   5   3    7.98    1.85
   0   5   3    4.53    1.37
   0   5   3    8.08    1.52
  -1  -5  -3  327.26   11.44
  -1  -5  -3  316.94   11.41
  -1  -5  -3  342.16   11.95
  -1  -5  -3  318.03   11.96
  -1  -5  -3  313.22   11.73
  -1  -5  -3  318.99   11.85
  -1  -5  -3  321.55   11.31
   1   5   3  323.33   10.55
   1   5   3  315.11   11.03
   1   5   3  317.18   10.70
   1   5   3  318.19   10.65
   1   5   3  317.39   12.07
   1   5   3  335.20   11.71
  -2  -5  -3    3.18    1.38
  -2  -5  -3    0.08    0.64
  -2  -5  -3    2.21    1.50
  -2  -5  -3    0.34    0.95
  -2  -5  -3    1.61    1.11
  -2  -5  -3    0.24    0.90
  -2  -5  -3    1.14    0.94
  -2  -5  -3    0.65    0.95
   2   5   3    1.40    0.99
   2   5   3    0.18    1.11
   2   5   3    0.52    0.97
   2   5   3    0.51    0.92
   2   5   3   -0.10    0.88
  -3  -5  -3   14.69    3.10
  -3  -5  -3   14.52    2.18
  -3  -5  -3   11.58    1.86
  -3  -5  -3   12.88    2.64
  -3  -5  -3   10.00    2.38
  -3  -5  -3   11.08    2.42
  -3  -5  -3    8.25    2.08
   3   5   3   11.91    2.98
   3   5   3   14.54    2.53
   3   5   3   13.96    2.14
   3   5   3   15.25    3.00
   3   5   3   13.50    2.32
  -4  -5  -3   85.65    5.58
  -4  -5  -3   89.83    5.38
  -4  -5  -3   90.83    5.08
  -4  -5  -3   91.90    6.06
  -4  -5  -3   94.67    5.35
  -4  -5  -3   89.50    4.92
   4   5   3   85.82    5.17
   4   5   3   89.60    5.47
   4   5   3   90.62    6.00
  -5  -5  -3    9.63    2.63
  -5  -5  -3    3.95    2.09
  -5  -5  -3    2.68    1.92
  -5  -5  -3    3.53    1.72
  -5  -5  -3    7.44    2.10
   5   5   3    4.45    1.98
   5   5   3    7.93    2.49
  -6  -5  -3   13.39    2.42
  -6  -5  -3   17.94    3.96
  -6  -5  -3    9.93    2.47
   6   5   3    8.74    2.62
   6   5   3    9.22    2.69
  -7  -5  -3   29.61    4.56
  -7  -5  -3   31.36    2.98
  -7  -5  -3   28.93    3.09
   7   5   3   41.84    4.53
   7   5   3   43.38    5.28
  -8  -5  -3    9.47    3.67
  -8  -5  -3    6.87    3.54
   8   5   3    3.91    3.39
   8   5   3    7.19    3.03
   9  -6  -3    2.67    3.72
  -9   6   3    0.49    2.88
  -9   6   3   -0.98    2.27
   8  -6  -3   74.33    6.51
  -8   6   3   63.11    7.32
  -8   6   3   67.07    6.23
   7  -6  -3   10.99    3.40
  -7   6   3   18.14    3.98
  -7   6   3    9.20    3.71
  -6   6   3    6.43    2.65
   5  -6  -3  124.00    4.67
  -5   6   3  117.08    7.44
   4  -6  -3   22.33    1.97
   4  -6  -3   23.58    1.69
  -4   6   3   24.15    3.38
   3  -6  -3    3.27    0.86
   3  -6  -3    5.58    1.19
   3  -6  -3    2.82    1.19
   3  -6  -3    5.10    1.18
  -3   6   3    4.73    2.13
  -3   6   3    3.89    1.12
   2  -6  -3  183.89    7.24
   2  -6  -3  175.52    7.24
   2  -6  -3  171.17    6.89
   2  -6  -3  178.19    7.20
   2  -6  -3  181.73    6.84
  -2   6   3  177.10    7.11
  -2   6   3  185.31    8.35
   1  -6  -3   14.00    1.92
   1  -6  -3   14.66    2.24
   1  -6  -3   13.39    2.19
   1  -6  -3   15.59    2.04
   1  -6  -3   16.47    2.17
  -1   6   3   13.04    2.23
  -1   6   3   12.13    2.04
   0  -6  -3    7.81    1.82
   0  -6  -3    7.18    1.73
   0  -6  -3    5.88    1.72
   0  -6  -3    2.41    1.41
   0  -6  -3    7.02    1.77
   0   6   3    7.98    2.01
   0   6   3    5.59    1.61
  -1  -6  -3  141.81    6.96
  -1  -6  -3  145.73    7.51
  -1  -6  -3  141.85    7.17
  -1  -6  -3  151.59    6.75
  -1  -6  -3  147.02    7.00
  -1  -6  -3  143.73    7.15
  -1  -6  -3  149.59    7.15
   1   6   3  148.65    7.20
   1   6   3  138.99    5.26
   1   6   3  141.92    5.80
   1   6   3  142.50    6.10
   1   6   3  140.56    5.17
  -2  -6  -3    0.84    1.34
  -2  -6  -3    0.12    0.98
  -2  -6  -3   -0.19    1.17
  -2  -6  -3    1.83    1.77
  -2  -6  -3    0.04    1.04
   2   6   3    1.17    1.15
   2   6   3    1.23    1.10
   2   6   3    1.05    1.27
   2   6   3    0.67    1.27
  -3  -6  -3    3.00    1.81
  -3  -6  -3   -0.40    1.15
  -3  -6  -3    0.82    1.15
   3   6   3    1.45    1.23
   3   6   3    2.43    1.77
   3   6   3    1.12    1.41
   3   6   3    0.72    1.12
  -4  -6  -3  124.56    7.50
  -4  -6  -3  123.33    6.74
   4   6   3  123.14    7.36
   4   6   3  107.13    6.32
   4   6   3  110.50    6.31
  -5  -6  -3   -0.17    1.64
  -5  -6  -3    0.60    1.70
   5   6   3   -0.43    1.44
   5   6   3    0.33    1.72
  -6  -6  -3    3.21    2.42
  -6  -6  -3    4.77    2.03
   6   6   3    2.13    2.58
   6   6   3    2.41    1.93
  -7  -6  -3   56.92    4.46
  -7  -6  -3   52.68    4.16
  -7  -6  -3   52.75    5.88
   7   6   3   49.26    5.12
   7   6   3   54.62    6.28
  -8   7   3   27.24    5.49
   7  -7  -3   46.62    5.67
  -7   7   3   54.62    5.74
   6  -7  -3    1.70    1.95
   6  -7  -3    4.80    1.09
  -6   7   3    2.91    2.44
   5  -7  -3   45.98    2.58
   5  -7  -3   48.38    2.79
   5  -7  -3   43.25    5.16
  -5   7   3   45.34    4.96
   4  -7  -3   48.99    2.98
   4  -7  -3   50.56    3.16
   4  -7  -3   50.18    2.87
   4  -7  -3   50.62    2.67
  -4   7   3   48.39    4.75
   3  -7  -3   12.26    1.79
   3  -7  -3   15.75    2.03
   3  -7  -3   14.79    1.85
   3  -7  -3   14.45    2.07
  -3   7   3   13.99    1.83
  -3   7   3   11.41    2.91
   2  -7  -3   86.89    4.95
   2  -7  -3   86.28    4.79
   2  -7  -3   82.25    4.68
   2  -7  -3   90.24    4.59
  -2   7   3   92.57    5.75
  -2   7   3   91.93    4.79
   1  -7  -3   54.75    5.07
   1  -7  -3   70.51    4.35
   1  -7  -3   66.41    4.40
   1  -7  -3   68.81    4.56
   1  -7  -3   65.89    4.03
   1  -7  -3   59.95    4.26
  -1   7   3   62.21    4.30
  -1   7   3   69.40    4.58
   0  -7  -3   17.87    3.10
   0  -7  -3   18.29    2.87
   0  -7  -3   21.51    2.73
   0  -7  -3   24.72    2.68
   0  -7  -3   18.64    2.62
   0  -7  -3   15.76    2.57
   0   7   3   20.89    2.97
   0   7   3   21.40    2.52
  -1  -7  -3   91.88    5.30
  -1  -7  -3   77.87    5.43
  -1  -7  -3   74.04    5.48
   1   7   3   82.28    5.59
  -2  -7  -3   26.83    3.40
  -2  -7  -3   25.28    3.63
  -2  -7  -3   27.45    3.55
   2   7   3   33.53    2.54
   2   7   3   26.00    3.63
   2   7   3   29.08    2.49
  -3  -7  -3   29.89    3.57
  -3  -7  -3   22.42    4.14
  -3  -7  -3   18.46    3.66
   3   7   3   23.92    3.79
   3   7   3   22.36    2.76
   3   7   3   22.95    2.76
  -4  -7  -3   44.57    4.92
  -4  -7  -3   40.70    4.40
   4   7   3   39.60    4.90
   4   7   3   40.79    4.17
   4   7   3   39.64    3.86
  -5  -7  -3   22.86    4.22
  -5  -7  -3   21.94    4.38
   5   7   3   14.14    3.15
   5   7   3   19.63    4.48
  -6  -7  -3   19.23    4.54
   6   7   3   11.34    3.21
   6   7   3   15.18    4.24
  -7   8   3   55.85    6.43
   6  -8  -3    4.81    1.31
  -6   8   3    1.95    2.40
   5  -8  -3    9.07    1.49
   5  -8  -3    8.38    1.72
   5  -8  -3    9.89    1.75
   5  -8  -3    8.68    3.15
   5  -8  -3    7.97    1.52
  -5   8   3    6.00    2.57
   4  -8  -3  102.19    7.82
   4  -8  -3  108.43    5.39
   4  -8  -3  114.02    5.60
   4  -8  -3  106.59    5.18
   4  -8  -3  118.99    5.28
  -4   8   3  124.85    7.78
   3  -8  -3    4.09    1.56
   3  -8  -3    2.13    1.32
   3  -8  -3    4.64    1.63
   3  -8  -3    5.32    2.53
   3  -8  -3    4.91    1.62
  -3   8   3    3.85    1.43
  -3   8   3    6.77    2.53
   2  -8  -3    2.50    1.54
   2  -8  -3    4.26    1.66
   2  -8  -3    2.22    1.46
   2  -8  -3    4.01    2.06
   2  -8  -3    4.83    1.83
  -2   8   3    8.39    2.68
  -2   8   3    3.31    1.62
   1  -8  -3  109.26    6.25
   1  -8  -3  111.89    5.85
   1  -8  -3  105.68    7.46
   1  -8  -3  108.66    6.07
  -1   8   3  110.07    6.35
  -1   8   3  103.05    6.03
   0  -8  -3    5.95    2.55
   0  -8  -3    8.96    2.31
   0   8   3    7.48    2.42
  -1  -8  -3    8.04    2.63
  -1  -8  -3    7.39    2.41
  -1  -8  -3    6.90    2.35
   1   8   3    2.76    1.92
  -2  -8  -3   85.52    5.89
  -2  -8  -3   85.15    6.09
  -2  -8  -3   90.17    6.52
   2   8   3   84.94    6.53
  -3  -8  -3   15.12    3.41
  -3  -8  -3    8.33    3.09
   3   8   3   11.08    2.11
   3   8   3    8.98    1.86
   3   8   3   11.41    3.31
  -4  -8  -3   -0.38    2.10
  -4  -8  -3    4.49    2.69
   4   8   3    4.36    1.98
   4   8   3   -1.24    1.45
   4   8   3   -1.51    2.02
  -5  -8  -3   26.04    5.08
  -5  -8  -3   35.15    4.82
   5   8   3   25.20    5.11
   6  -9  -3    3.34    1.29
   6  -9  -3   -0.03    1.25
   6  -9  -3    4.90    1.59
   5  -9  -3    6.38    1.74
   5  -9  -3    6.50    1.82
   5  -9  -3    7.16    1.80
   4  -9  -3   74.06    4.75
   4  -9  -3   69.68    4.43
   4  -9  -3   67.82    4.53
   4  -9  -3   72.50    4.83
   3  -9  -3    7.55    2.12
   3  -9  -3    6.10    2.02
   3  -9  -3    9.51    2.34
   3  -9  -3    7.38    2.17
   3  -9  -3    6.87    3.02
  -3   9   3    5.90    1.88
   2  -9  -3    4.65    2.09
   2  -9  -3    2.73    1.64
   2  -9  -3    1.22    1.46
   2  -9  -3    0.77    1.90
  -2   9   3    1.24    1.56
   1  -9  -3   90.90    7.43
   1  -9  -3   91.67    5.64
  -1   9   3   81.28    5.70
   0  -9  -3    0.21    1.57
   0  -9  -3    1.02    2.09
   0   9   3    2.32    1.94
  -1  -9  -3    2.96    2.19
  -1  -9  -3    6.01    2.58
   1   9   3    2.55    2.06
  -2  -9  -3   65.81    5.50
  -2  -9  -3   63.56    6.05
   2   9   3   61.28    5.77
  -3  -9  -3    1.75    2.27
  -3  -9  -3   -0.96    2.18
   3   9   3   -0.89    1.90
  -4  -9  -3    2.11    2.83
  -4  -9  -3    1.68    2.67
   4   9   3   -0.11    1.44
   4   9   3   -0.16    1.42
   4   9   3   -0.99    2.25
   4 -10  -3   18.77    3.14
   4 -10  -3   19.39    3.27
   3 -10  -3   12.15    2.81
   3 -10  -3   19.07    3.38
   2 -10  -3   14.43    3.22
  -2  10   3    6.06    2.37
   1 -10  -3   32.42    3.99
  -1  10   3   28.26    3.92
   0 -10  -3   14.75    3.46
   0 -10  -3   17.17    4.36
   0  10   3    9.95    3.26
  -1 -10  -3    7.20    2.99
   1  10   3    5.07    2.87
  -2 -10  -3   34.42    4.64
   2  10   3   18.87    4.43
   1  11  -4    6.12    2.91
  -1 -11   4    5.96    2.66
   0  11  -4    4.80    2.65
   0 -11   4    6.14    2.51
  -1  11  -4   37.42    4.68
   1 -11   4   45.48    4.61
  -2  11  -4    7.12    2.79
   2 -11   4    6.23    2.70
   4  10  -4   44.63    5.50
   4  10  -4   32.23    3.14
  -4 -10   4   43.51    5.25
   3  10  -4    4.83    2.72
  -3 -10   4    3.76    2.79
   2  10  -4   19.48    4.17
  -2 -10   4   18.44    3.90
   1  10  -4   46.25    4.91
  -1 -10   4   56.39    4.96
  -1 -10   4   42.70    5.68
   0  10  -4   13.21    3.27
   0 -10   4    8.31    3.35
   0 -10   4   22.72    3.89
  -1  10  -4   25.82    3.62
   1 -10   4   32.97    3.88
   1 -10   4   30.72    7.14
  -2  10  -4   30.04    3.78
   2 -10   4   37.81    3.85
  -3  10  -4   11.81    2.64
   3 -10   4    6.91    2.31
   3 -10   4    5.85    2.12
   4 -10   4   32.58    3.63
   4 -10   4   25.82    3.38
   5   9  -4    0.06    2.11
  -5  -9   4    0.71    2.39
   4   9  -4   89.65    6.97
   4   9  -4   76.24    4.93
   4   9  -4   83.92    5.00
  -4  -9   4   78.02    6.06
   3   9  -4    3.38    1.35
   3   9  -4    1.45    1.26
   3   9  -4    1.13    2.00
  -3  -9   4    2.52    2.12
   2   9  -4    0.10    1.40
  -2  -9   4    3.93    2.03
   1   9  -4  110.07    6.95
  -1  -9   4  104.75    7.65
  -1  -9   4  110.02    6.43
   0   9  -4    5.50    2.20
   0  -9   4    4.50    2.27
   0  -9   4    2.44    1.82
  -1   9  -4    7.65    2.30
   1  -9   4   10.50    2.56
   1  -9   4    7.17    2.73
   1  -9   4    7.48    2.35
  -2   9  -4   80.44    5.24
   2  -9   4   83.12    5.22
   2  -9   4   76.89    5.16
   2  -9   4   86.82    5.11
   2  -9   4   77.94    6.91
  -3   9  -4   10.75    2.51
   3  -9   4   12.02    2.58
   3  -9   4    5.48    1.83
   3  -9   4   10.80    2.54
   3  -9   4    5.88    2.86
   4  -9   4    2.66    2.73
   4  -9   4    3.62    1.55
   4  -9   4    1.76    1.56
   4  -9   4    7.08    2.09
   5  -9   4   43.37    3.96
   5  -9   4   61.89    4.23
   5  -9   4   51.39    3.75
   6  -9   4    7.07    1.82
   6  -9   4    7.85    2.20
   6  -9   4    5.91    1.98
   7   8  -4   53.66    5.35
   7   8  -4   50.24    6.20
  -7  -8   4   43.33    5.80
   6   8  -4    4.39    2.42
   6   8  -4    9.82    3.24
   5   8  -4    1.18    2.14
   5   8  -4    5.49    2.32
  -5  -8   4    5.60    2.34
   4   8  -4   86.16    6.60
   4   8  -4   92.11    5.38
   4   8  -4   89.19    5.30
   4   8  -4  101.81    6.94
  -4  -8   4   89.11    6.02
   3   8  -4    5.05    1.64
   3   8  -4    5.52    1.63
   3   8  -4    8.96    2.87
  -3  -8   4    8.01    2.50
   2   8  -4    0.75    1.44
   2   8  -4    3.10    1.06
   2   8  -4    2.47    1.06
  -2  -8   4    7.05    2.38
   1   8  -4  152.67    7.93
  -1  -8   4  153.86    7.45
  -1  -8   4  147.17    8.62
   0   8  -4    2.37    1.60
   0  -8   4    2.56    1.72
   0  -8   4    3.77    1.67
   0  -8   4    1.50    1.56
   0  -8   4    4.01    1.65
  -1   8  -4    5.08    1.89
   1  -8   4    1.86    1.90
   1  -8   4    4.38    1.61
   1  -8   4    5.75    1.84
   1  -8   4    7.06    2.08
   1  -8   4    5.47    1.78
  -2   8  -4  117.24    6.18
   2  -8   4  123.67    6.03
   2  -8   4  128.36    6.20
   2  -8   4  125.90    6.84
   2  -8   4  122.75    6.34
   2  -8   4  122.70    6.13
  -3   8  -4    4.04    1.71
   3  -8   4    1.41    1.27
   3  -8   4    4.29    1.83
   3  -8   4    2.05    2.10
   3  -8   4    1.32    1.38
   3  -8   4    1.13    1.14
  -4   8  -4    6.26    1.79
   4  -8   4    5.17    1.65
   4  -8   4    2.48    1.14
   4  -8   4    5.06    1.61
   4  -8   4    0.61    2.03
   5  -8   4   73.01    3.98
   5  -8   4   82.31    7.05
   5  -8   4   68.84    4.46
   5  -8   4   68.99    4.26
   6  -8   4    3.48    1.41
   6  -8   4    0.01    0.96
   6  -8   4    0.19    2.21
   6  -8   4    0.81    1.36
   7  -8   4    0.80    1.00
   7  -8   4    0.99    1.66
   7  -8   4    0.54    1.37
   8   7  -4    4.74    3.18
   8   7  -4    6.33    2.81
   7   7  -4   27.16    4.50
   7   7  -4   26.98    3.91
  -7  -7   4   21.57    3.20
  -7  -7   4   23.10    3.63
   6   7  -4   46.46    4.45
   6   7  -4   43.87    5.09
  -6  -7   4   46.94    4.19
   5   7  -4   13.77    3.01
   5   7  -4   16.57    3.77
  -5  -7   4   21.67    3.72
   4   7  -4   68.87    4.55
   4   7  -4   62.41    4.38
   4   7  -4   71.52    5.57
   4   7  -4   68.38    4.63
  -4  -7   4   72.63    5.03
   3   7  -4   83.10    4.56
   3   7  -4   85.72    5.78
   3   7  -4   83.31    4.61
   3   7  -4   84.83    4.86
  -3  -7   4   78.28    5.08
   2   7  -4   22.55    3.07
   2   7  -4   25.57    2.27
   2   7  -4   24.49    2.33
   2   7  -4   27.37    2.60
  -2  -7   4   26.59    2.96
   1   7  -4   69.93    4.98
  -1  -7   4   89.70    5.23
  -1  -7   4   97.99    5.31
  -1  -7   4   86.59    4.98
  -1  -7   4   91.45    5.69
  -1  -7   4   87.24    5.96
  -1  -7   4   88.33    4.23
   0   7  -4   82.70    5.05
   0  -7   4   89.23    4.99
   0  -7   4   77.65    5.75
   0  -7   4   80.72    4.67
   0  -7   4   82.90    4.85
   0  -7   4   86.85    5.41
   0  -7   4   87.23    4.56
   0  -7   4   85.34    5.06
  -1   7  -4   21.58    2.64
   1  -7   4   20.87    2.37
   1  -7   4   20.46    2.48
   1  -7   4   24.58    2.88
   1  -7   4   18.82    2.47
   1  -7   4   20.88    2.38
   1  -7   4   19.29    3.50
   1  -7   4   20.47    2.47
  -2   7  -4   88.53    4.85
   2  -7   4   78.76    4.97
   2  -7   4   88.38    4.57
   2  -7   4   84.29    4.47
   2  -7   4   83.22    6.15
   2  -7   4   94.80    4.81
   2  -7   4   83.86    4.71
  -3   7  -4   49.75    3.41
   3  -7   4   53.00    3.50
   3  -7   4   42.02    3.26
   3  -7   4   38.06    3.36
   3  -7   4   42.78    2.93
   3  -7   4   51.70    4.92
   3  -7   4   47.93    3.23
  -4   7  -4   15.84    2.14
   4  -7   4   17.78    3.50
   4  -7   4   22.60    2.34
   4  -7   4   17.13    2.20
   4  -7   4   18.38    2.28
   4  -7   4   17.69    1.81
   5  -7   4   64.22    3.76
   5  -7   4   49.11    3.39
   5  -7   4   54.81    3.04
   5  -7   4   63.61    5.82
   5  -7   4   54.80    3.69
   6  -7   4    4.38    1.24
   6  -7   4    0.60    2.15
   6  -7   4    8.09    1.84
   6  -7   4    9.70    1.52
   6  -7   4    5.18    1.56
   7  -7   4   10.08    1.66
   7  -7   4   12.56    1.80
   7  -7   4   14.42    3.76
   7  -7   4   13.31    2.78
   7  -7   4   11.30    2.54
   8  -7   4   22.50    3.07
   8  -7   4    9.95    1.82
   8   6  -4   -0.61    2.06
   8   6  -4    6.35    2.81
   7   6  -4    2.82    2.33
   7   6  -4    1.56    2.07
  -7  -6   4    1.59    1.77
  -7  -6   4    0.37    1.35
   6   6  -4  156.53    8.61
   6   6  -4  145.69    7.53
  -6  -6   4  144.78    7.78
  -6  -6   4  148.08    7.07
  -6  -6   4  142.06    6.80
   5   6  -4    9.32    2.76
  -5  -6   4    5.13    2.09
  -5  -6   4    3.57    1.55
  -5  -6   4    4.63    1.76
   4   6  -4    9.07    2.63
   4   6  -4    5.95    1.79
  -4  -6   4    7.03    1.97
  -4  -6   4    5.48    1.66
  -4  -6   4    4.74    1.70
   3   6  -4  204.91    7.94
   3   6  -4  195.62    9.00
   3   6  -4  229.34   11.22
   3   6  -4  202.99    9.18
  -3  -6   4  209.93    8.82
  -3  -6   4  186.42    8.26
  -3  -6   4  191.61    8.12
  -3  -6   4  186.60    9.00
  -3  -6   4  190.52    8.39
   2   6  -4    9.70    2.08
   2   6  -4    7.81    1.61
   2   6  -4   11.36    2.33
   2   6  -4    9.61    2.01
   2   6  -4   11.65    1.86
   2   6  -4   12.62    2.51
   2   6  -4    8.61    2.21
  -2  -6   4    7.48    1.89
  -2  -6   4    7.95    2.00
  -2  -6   4    6.91    1.05
  -2  -6   4    9.18    2.05
  -2  -6   4   11.52    2.22
  -2  -6   4   10.72    2.25
  -2  -6   4    5.92    1.90
   1   6  -4   16.77    1.54
   1   6  -4   18.63    2.27
   1   6  -4   19.08    2.29
   1   6  -4   19.46    2.60
   1   6  -4   15.24    2.27
   1   6  -4   16.42    1.64
   1   6  -4   17.50    1.89
  -1  -6   4   20.16    2.60
  -1  -6   4   17.98    2.27
  -1  -6   4   20.37    2.21
  -1  -6   4   15.30    2.11
  -1  -6   4   20.80    2.41
  -1  -6   4   20.37    2.30
  -1  -6   4   18.56    1.71
  -1  -6   4   15.31    2.86
  -1  -6   4   17.15    2.18
   0   6  -4  197.27    7.01
   0   6  -4  195.96    7.90
   0   6  -4  199.45    8.38
   0  -6   4  204.37    7.95
   0  -6   4  205.49    7.72
   0  -6   4  200.78    8.17
   0  -6   4  204.95    8.27
   0  -6   4  204.11    7.74
   0  -6   4  214.50    8.21
   0  -6   4  208.25    8.74
   0  -6   4  204.30    9.45
  -1   6  -4   11.54    1.93
   1  -6   4   13.96    1.92
   1  -6   4   18.90    2.01
   1  -6   4   12.88    1.88
   1  -6   4   14.27    1.80
   1  -6   4   14.53    1.91
   1  -6   4   17.19    3.20
   1  -6   4   16.56    2.27
  -2   6  -4   23.86    2.37
   2  -6   4   16.16    2.81
   2  -6   4   21.03    1.95
   2  -6   4   20.89    2.23
   2  -6   4   22.17    2.25
   2  -6   4   24.83    2.30
   2  -6   4   24.80    2.19
   2  -6   4   21.36    2.39
   2  -6   4   20.13    2.44
  -3   6  -4  125.67    5.67
   3  -6   4  129.45    7.43
   3  -6   4  121.81    5.07
   3  -6   4  132.56    5.89
   3  -6   4  129.04    5.57
   3  -6   4  124.74    5.57
   3  -6   4  130.04    5.66
  -4   6  -4   16.47    2.06
   4  -6   4   19.22    2.07
   4  -6   4   13.38    3.06
   4  -6   4   20.42    2.22
   4  -6   4   17.22    1.54
   4  -6   4   18.56    1.86
   4  -6   4   13.66    1.98
   5  -6   4   13.36    3.09
   5  -6   4   15.93    1.60
   5  -6   4   18.61    2.21
   5  -6   4   17.65    2.19
   5  -6   4   15.27    1.42
   6  -6   4   58.16    3.68
   6  -6   4   52.97    2.85
   6  -6   4   61.15    5.51
   6  -6   4   59.52    2.88
   6  -6   4   64.13    3.77
   7  -6   4   16.27    1.71
   7  -6   4   15.80    2.49
   7  -6   4   20.27    4.04
   7  -6   4   13.38    2.19
   7  -6   4   13.19    1.63
   8  -6   4    3.26    1.19
   8  -6   4    3.91    1.75
   9   5  -4   53.00    5.25
  -9  -5   4   47.59    7.82
   8   5  -4    8.70    3.11
   7   5  -4    9.03    2.68
  -7  -5   4    7.10    1.56
  -7  -5   4    6.68    1.67
   6   5  -4  139.09    7.61
  -6  -5   4  133.08    6.55
  -6  -5   4  115.89    5.67
  -6  -5   4  129.87    5.99
   5   5  -4    8.75    2.33
   5   5  -4    8.10    2.30
  -5  -5   4    8.72    2.01
  -5  -5   4    6.08    1.64
  -5  -5   4   13.62    2.52
   4   5  -4    1.84    1.23
   4   5  -4    0.71    1.03
   4   5  -4    4.69    1.60
   4   5  -4    6.46    1.94
   4   5  -4    5.10    1.79
  -4  -5   4    2.44    1.26
  -4  -5   4    6.17    1.74
  -4  -5   4    2.03    1.39
  -4  -5   4    3.57    1.31
  -4  -5   4    5.09    1.60
   3   5  -4  243.84    9.82
   3   5  -4  232.02    9.79
   3   5  -4  231.35    9.37
   3   5  -4  244.04    8.79
   3   5  -4  245.10    9.45
   3   5  -4  233.02    9.22
  -3  -5   4  236.91    9.30
  -3  -5   4  221.68    8.95
  -3  -5   4  232.03    8.87
  -3  -5   4  236.24    9.58
  -3  -5   4  247.71    9.25
  -3  -5   4  241.25    9.91
  -3  -5   4  225.00    9.30
   2   5  -4    7.23    1.60
   2   5  -4    8.59    1.88
   2   5  -4    8.67    1.51
   2   5  -4    8.11    1.76
   2   5  -4    5.28    1.60
  -2  -5   4    6.01    1.45
  -2  -5   4    6.26    1.49
  -2  -5   4    6.41    1.61
  -2  -5   4    7.54    1.64
  -2  -5   4    5.21    1.31
  -2  -5   4    5.02    0.71
  -2  -5   4    5.95    1.67
   1   5  -4    4.42    0.98
   1   5  -4    2.46    1.05
   1   5  -4    6.07    1.49
   1   5  -4    2.24    1.06
   1   5  -4    2.68    1.15
   1   5  -4    4.77    1.09
  -1  -5   4    4.34    1.47
  -1  -5   4    3.61    1.25
  -1  -5   4    1.54    0.76
  -1  -5   4    5.16    1.27
  -1  -5   4    4.92    1.39
  -1  -5   4    3.31    1.19
  -1  -5   4    3.87    0.88
  -1  -5   4    3.56    1.11
  -1  -5   4    4.74    1.35
   0   5  -4  285.39   10.63
   0   5  -4  291.89   10.01
   0   5  -4  304.83   10.11
   0   5  -4  273.29   10.36
   0  -5   4  287.65    9.97
   0  -5   4  298.38   10.18
   0  -5   4  295.24   10.26
   0  -5   4  273.67    9.72
   0  -5   4  286.40    9.80
   0  -5   4  269.34   11.20
   0  -5   4  286.95   10.64
   0  -5   4  281.14    9.71
   0  -5   4  295.38   10.35
  -1   5  -4    1.91    1.15
  -1   5  -4    1.95    0.92
  -1   5  -4    2.02    0.61
   1  -5   4    2.67    1.03
   1  -5   4    1.90    0.86
   1  -5   4    2.65    1.06
   1  -5   4    1.66    0.82
   1  -5   4    3.08    1.03
   1  -5   4    1.69    0.83
   1  -5   4    2.09    0.95
   1  -5   4    0.92    1.02
  -2   5  -4    2.78    1.10
   2  -5   4    5.46    1.38
   2  -5   4    3.22    0.85
   2  -5   4    5.65    1.56
   2  -5   4    1.87    0.89
   2  -5   4    3.11    1.14
   2  -5   4    2.20    1.33
   2  -5   4    4.15    1.20
  -3   5  -4  221.81    8.21
   3  -5   4  217.50    7.71
   3  -5   4  229.40    8.04
   3  -5   4  217.29    8.02
   3  -5   4  222.56    9.84
   3  -5   4  201.12    8.77
   3  -5   4  220.61    7.91
   3  -5   4  207.29    7.29
  -4   5  -4    4.48    1.33
   4  -5   4    5.03    1.96
   4  -5   4    2.96    1.16
   4  -5   4    2.95    0.92
   4  -5   4    2.51    0.65
   4  -5   4    1.65    0.92
   4  -5   4    3.52    0.82
  -5   5  -4    4.63    1.07
   5  -5   4    5.94    0.96
   5  -5   4    5.31    1.41
   5  -5   4    3.61    1.36
   5  -5   4    3.77    0.74
   5  -5   4    5.57    2.05
   6  -5   4  103.17    5.09
   6  -5   4  103.47    6.59
   6  -5   4  103.42    4.63
   6  -5   4  102.28    3.98
   6  -5   4   88.93    3.86
   7  -5   4    6.12    1.83
   7  -5   4    3.50    1.45
   7  -5   4    5.72    1.27
   7  -5   4    4.08    2.09
  -8   5  -4    2.42    2.51
   8  -5   4    0.77    1.07
   8  -5   4    0.26    1.26
   8  -5   4    2.18    1.67
  -9   5  -4   34.20    5.77
   9  -5   4   30.60    3.04
   9  -5   4   31.88    3.28
   9  -5   4   33.45    3.45
  -9  -4   4   18.03    5.51
   8   4  -4   43.00    4.73
  -8  -4   4   55.08    6.91
   7   4  -4    8.02    2.45
   6   4  -4   99.61    5.89
   6   4  -4  102.19    6.10
  -6  -4   4  100.74    4.42
  -6  -4   4   98.39    5.58
  -6  -4   4   99.33    4.55
   5   4  -4   83.18    4.36
   5   4  -4   83.43    5.20
   5   4  -4   82.27    5.31
   5   4  -4   84.14    5.01
   5   4  -4   85.50    6.68
   5   4  -4   79.26    5.08
   5   4  -4   88.93    5.10
  -5  -4   4   82.89    4.24
  -5  -4   4   78.84    4.80
  -5  -4   4   91.82    3.91
  -5  -4   4   80.70    4.38
  -5  -4   4   80.46    4.12
   4   4  -4   24.87    2.40
   4   4  -4   21.74    2.59
   4   4  -4   23.31    2.50
   4   4  -4   26.35    2.45
   4   4  -4   27.23    2.43
   4   4  -4   23.39    2.43
   4   4  -4   23.68    2.37
   4   4  -4   23.27    2.66
  -4  -4   4   22.10    2.26
  -4  -4   4   27.22    2.26
  -4  -4   4   22.14    2.25
  -4  -4   4   26.51    2.67
   3   4  -4  164.57    7.20
   3   4  -4  169.21    7.02
   3   4  -4  167.52    6.93
   3   4  -4  168.86    6.86
   3   4  -4  166.54    7.29
   3   4  -4  172.70    6.62
   3   4  -4  174.22    7.03
   3   4  -4  169.10    6.63
  -3  -4   4  152.72    6.85
  -3  -4   4  160.25    6.61
  -3  -4   4  172.47    7.02
  -3  -4   4  159.73    6.43
  -3  -4   4  156.07    7.19
  -3  -4   4  161.23    6.71
  -3  -4   4  163.97    6.69
   2   4  -4  128.07    5.90
   2   4  -4  136.21    5.64
   2   4  -4  124.89    5.13
   2   4  -4  122.15    5.07
   2   4  -4  123.72    5.80
   2   4  -4  119.54    5.26
   2   4  -4  125.78    5.52
   2   4  -4  130.08    5.45
   2   4  -4  121.18    5.72
  -2  -4   4  139.27    5.74
  -2  -4   4  115.76    5.44
  -2  -4   4  124.19    5.48
  -2  -4   4  128.23    5.25
  -2  -4   4  120.74    5.27
  -2  -4   4  122.84    5.83
   1   4  -4   64.56    3.77
   1   4  -4   65.55    3.13
   1   4  -4   65.47    3.99
   1   4  -4   69.95    3.58
   1   4  -4   59.52    3.62
   1   4  -4   70.84    3.57
  -1  -4   4   66.02    3.36
  -1  -4   4   63.12    3.36
  -1  -4   4   68.59    3.32
  -1  -4   4   65.03    3.46
  -1  -4   4   66.67    2.77
  -1  -4   4   66.42    3.59
  -1  -4   4   70.44    3.87
  -1  -4   4   63.60    3.54
   0   4  -4  235.89    8.15
   0   4  -4  239.83    7.42
   0   4  -4  240.73    8.14
   0   4  -4  230.96    8.51
   0   4  -4  219.26    7.10
   0   4  -4  232.99    8.50
   0  -4   4  226.51    7.79
   0  -4   4  227.63    8.24
   0  -4   4  218.46    7.79
   0  -4   4  238.55    8.56
   0  -4   4  230.24    8.12
   0  -4   4  215.40    7.84
   0  -4   4  226.61    8.16
   0  -4   4  220.89    8.21
   0  -4   4  226.43    8.02
   0  -4   4  221.34    9.09
  -1   4  -4   87.84    4.06
  -1   4  -4   82.68    3.64
  -1   4  -4   80.93    4.03
  -1   4  -4   84.73    3.80
   1  -4   4   83.30    3.97
   1  -4   4   81.77    3.79
   1  -4   4   80.81    3.97
   1  -4   4   78.47    3.63
   1  -4   4   75.67    4.65
   1  -4   4   82.19    4.03
   1  -4   4   90.27    4.04
  -2   4  -4   75.67    3.81
   2  -4   4   70.69    3.49
   2  -4   4   72.92    4.56
   2  -4   4   79.52    3.31
   2  -4   4   76.36    3.23
   2  -4   4   68.81    3.46
   2  -4   4   70.71    3.48
   2  -4   4   74.30    3.64
   2  -4   4   73.11    4.05
  -3   4  -4  156.21    6.39
   3  -4   4  155.03    6.02
   3  -4   4  155.73    5.46
   3  -4   4  166.54    7.62
   3  -4   4  160.91    5.71
   3  -4   4  152.41    5.57
   3  -4   4  165.26    6.37
   3  -4   4  166.75    5.87
   3  -4   4  161.23    6.43
   3  -4   4  168.24    7.22
  -4   4  -4   32.43    2.48
   4  -4   4   31.32    2.60
   4  -4   4   30.73    2.08
   4  -4   4   35.77    2.78
   4  -4   4   40.96    3.57
   4  -4   4   30.53    1.74
   4  -4   4   32.70    1.75
   4  -4   4   38.21    2.34
  -5   4  -4   40.60    2.50
  -5   4  -4   36.17    3.94
   5  -4   4   38.46    2.00
   5  -4   4   37.20    2.96
   5  -4   4   41.32    3.74
   5  -4   4   37.00    2.42
   5  -4   4   43.21    2.08
  -6   4  -4   82.83    3.53
  -6   4  -4   72.32    5.91
   6  -4   4   70.90    3.36
   6  -4   4   82.41    4.56
   6  -4   4   81.81    3.90
   6  -4   4   87.03    5.50
  -7   4  -4    6.02    2.91
   7  -4   4    1.72    1.42
   7  -4   4    0.38    1.53
   7  -4   4    0.66    0.84
   7  -4   4    0.02    1.10
  -8   4  -4   18.58    4.48
   8  -4   4   21.27    2.58
   8  -4   4   17.86    2.19
   8  -4   4   18.58    2.53
  -9   4  -4   22.86    5.18
   9  -4   4   17.83    3.09
   9  -4   4   23.63    2.84
   9  -4   4   26.96    3.14
 -10  -3   4   -0.73    3.47
  -9  -3   4    5.72    3.99
  -8  -3   4   95.20    8.54
   7   3  -4    5.89    2.09
   7   3  -4    4.85    1.98
   7   3  -4    3.84    1.78
   7   3  -4    6.42    2.18
  -7  -3   4    6.72    3.21
   6   3  -4   10.12    2.17
   6   3  -4   12.59    2.40
   6   3  -4   15.74    2.49
   6   3  -4   15.44    2.84
   6   3  -4   15.28    2.36
  -6  -3   4   17.93    1.89
   5   3  -4  239.81    8.70
   5   3  -4  239.71    9.48
   5   3  -4  240.11    9.02
   5   3  -4  224.34    9.07
   5   3  -4  242.73    9.53
   5   3  -4  242.96    9.40
   5   3  -4  226.52    8.72
   5   3  -4  227.31    9.16
  -5  -3   4  216.72    8.78
  -5  -3   4  229.42    8.27
  -5  -3   4  230.21    7.86
  -5  -3   4  233.85    8.46
  -5  -3   4  227.29    7.93
   4   3  -4   12.39    1.71
   4   3  -4   14.82    1.92
   4   3  -4   12.98    1.72
   4   3  -4   10.53    1.72
   4   3  -4   16.10    2.12
   4   3  -4   14.91    1.82
   4   3  -4   11.67    1.91
   4   3  -4   11.50    1.73
  -4  -3   4   13.76    1.58
  -4  -3   4   15.71    1.63
  -4  -3   4   14.63    1.85
  -4  -3   4   14.55    1.73
  -4  -3   4   11.02    1.63
   3   3  -4   29.08    2.53
   3   3  -4   32.45    2.39
   3   3  -4   26.94    2.26
   3   3  -4   26.30    2.26
   3   3  -4   29.61    2.18
   3   3  -4   27.69    2.09
   3   3  -4   31.48    2.57
   3   3  -4   25.48    2.27
  -3  -3   4   27.09    2.18
  -3  -3   4   29.29    2.17
  -3  -3   4   26.10    2.21
  -3  -3   4   26.97    2.03
   2   3  -4  454.32   14.74
   2   3  -4  451.42   14.97
   2   3  -4  464.94   15.21
   2   3  -4  432.92   14.33
   2   3  -4  459.05   14.32
   2   3  -4  470.52   15.21
   2   3  -4  465.84   14.72
   2   3  -4  484.11   14.81
  -2  -3   4  465.43   14.58
  -2  -3   4  457.25   14.74
  -2  -3   4  446.72   14.42
  -2  -3   4  451.27   14.65
  -2  -3   4  469.03   14.80
  -2  -3   4  460.10   14.40
   1   3  -4   63.76    3.41
   1   3  -4   59.69    3.21
   1   3  -4   65.69    3.13
   1   3  -4   62.46    2.96
   1   3  -4   66.95    3.56
   1   3  -4   61.12    2.93
   1   3  -4   66.83    3.29
   1   3  -4   67.61    3.19
   1   3  -4   65.85    3.69
  -1  -3   4   70.17    3.38
  -1  -3   4   62.13    3.22
  -1  -3   4   65.71    3.13
  -1  -3   4   62.55    3.18
  -1  -3   4   64.14    3.02
  -1  -3   4   63.13    3.45
  -1  -3   4   65.50    3.32
  -1  -3   4   58.58    3.02
   0   3  -4   80.32    3.39
   0   3  -4   76.21    3.47
   0   3  -4   78.59    3.79
   0   3  -4   82.75    3.63
   0   3  -4   74.09    2.98
   0   3  -4   72.74    3.66
   0   3  -4   72.99    4.03
   0   3  -4   80.37    3.25
   0  -3   4   79.15    3.54
   0  -3   4   75.96    3.28
   0  -3   4   80.06    3.46
   0  -3   4   81.09    3.70
   0  -3   4   75.93    3.44
   0  -3   4   74.74    3.31
   0  -3   4   77.47    3.70
   0  -3   4   76.11    3.62
  -1   3  -4  299.40   10.15
  -1   3  -4  306.44    9.91
  -1   3  -4  296.44   10.16
  -1   3  -4  302.03    9.70
  -1   3  -4  303.61    9.90
  -1   3  -4  288.35   10.69
   1  -3   4  306.51    9.44
   1  -3   4  317.00    9.97
   1  -3   4  293.20    9.99
   1  -3   4  284.09   10.78
   1  -3   4  292.60   10.12
   1  -3   4  304.82   10.10
   1  -3   4  307.70    9.73
  -2   3  -4   75.25    4.21
  -2   3  -4   74.24    3.12
  -2   3  -4   75.03    3.37
  -2   3  -4   74.47    3.17
  -2   3  -4   69.83    3.89
  -2   3  -4   70.80    3.70
   2  -3   4   83.37    4.40
   2  -3   4   76.53    3.32
   2  -3   4   74.00    3.93
   2  -3   4   69.50    3.39
   2  -3   4   69.48    3.60
  -3   3  -4   34.21    2.86
  -3   3  -4   32.33    2.50
  -3   3  -4   33.85    3.52
   3  -3   4   33.89    2.46
   3  -3   4   33.79    2.09
   3  -3   4   34.22    2.81
   3  -3   4   36.40    2.00
   3  -3   4   30.88    2.53
   3  -3   4   30.04    1.75
   3  -3   4   33.31    1.79
   3  -3   4   34.34    2.85
  -4   3  -4  107.02    5.86
  -4   3  -4  102.21    4.63
   4  -3   4  105.82    4.86
   4  -3   4  106.70    4.87
   4  -3   4   94.10    3.83
   4  -3   4  108.18    5.52
   4  -3   4  103.33    4.21
  -5   3  -4   48.12    2.96
  -5   3  -4   50.45    4.30
   5  -3   4   46.37    2.66
   5  -3   4   47.04    2.46
   5  -3   4   48.68    3.21
   5  -3   4   49.29    3.66
   5  -3   4   41.11    3.04
  -6   3  -4   15.08    1.91
  -6   3  -4   19.92    3.86
   6  -3   4   17.00    2.33
   6  -3   4   16.31    2.47
   6  -3   4   16.83    1.92
   6  -3   4   16.88    1.69
  -7   3  -4   29.67    4.21
  -7   3  -4   28.54    2.45
   7  -3   4   24.67    2.36
   7  -3   4   28.19    2.49
   7  -3   4   21.86    2.46
   7  -3   4   28.71    3.17
   7  -3   4   24.88    2.93
  -8   3  -4   19.10    4.47
  -8   3  -4   21.74    3.17
   8  -3   4   20.77    2.55
   8  -3   4   22.30    2.49
   8  -3   4   21.45    2.89
   8  -3   4   21.44    3.09
  -9   3  -4    3.31    3.06
   9  -3   4    4.99    2.14
   9  -3   4    4.15    1.78
   9  -3   4    2.48    1.70
   9  -3   4    3.60    1.72
 -10  -2   4    0.29    3.25
  -9  -2   4   -2.57    2.60
   8   2  -4  124.68    6.97
   8   2  -4  125.09    8.59
   8   2  -4  118.93    6.68
  -8  -2   4  136.52    9.69
   7   2  -4    2.89    1.60
   7   2  -4    1.43    1.44
   7   2  -4    6.43    1.90
   7   2  -4    6.93    2.06
   7   2  -4    2.39    1.53
  -7  -2   4    4.72    2.72
  -7  -2   4    7.25    1.84
   6   2  -4    2.37    1.34
   6   2  -4    5.65    1.69
   6   2  -4    4.90    1.19
   6   2  -4    3.46    1.41
   6   2  -4    2.49    1.25
   6   2  -4    4.35    1.44
  -6  -2   4    3.71    1.24
  -6  -2   4    4.55    2.35
   5   2  -4  297.68   11.11
   5   2  -4  295.74   10.89
   5   2  -4  314.92   10.95
   5   2  -4  317.06    9.99
   5   2  -4  298.97   11.01
   5   2  -4  324.70   10.81
   5   2  -4  316.01   11.28
  -5  -2   4  291.19    9.94
  -5  -2   4  303.51   10.64
   4   2  -4    0.61    0.52
   4   2  -4    1.83    0.96
   4   2  -4    0.67    0.70
   4   2  -4   -0.06    0.43
   4   2  -4    1.01    0.96
   4   2  -4    1.67    0.90
   4   2  -4    0.13    0.70
   4   2  -4    0.98    0.83
  -4  -2   4    2.00    0.77
  -4  -2   4    1.15    0.72
  -4  -2   4    1.77    0.90
  -4  -2   4    2.26    0.86
   3   2  -4    8.51    1.48
   3   2  -4    9.32    0.71
   3   2  -4    7.67    1.40
   3   2  -4    9.91    1.50
   3   2  -4   11.82    1.38
   3   2  -4    8.00    1.28
   3   2  -4    8.85    1.30
   3   2  -4    8.00    1.42
   3   2  -4   11.16    1.55
  -3  -2   4    9.50    1.28
  -3  -2   4   10.72    1.24
  -3  -2   4    9.01    1.21
   2   2  -4  586.39   17.64
   2   2  -4  561.52   17.83
   2   2  -4  553.76   17.58
   2   2  -4  585.16   17.32
   2   2  -4  572.79   17.43
   2   2  -4  573.76   17.39
   2   2  -4  582.31   17.66
   2   2  -4  529.77   17.88
   2   2  -4  553.19   17.62
  -2  -2   4  598.65   17.60
  -2  -2   4  585.72   17.37
  -2  -2   4  575.35   17.32
  -2  -2   4  585.77   17.31
   1   2  -4   11.04    1.43
   1   2  -4   11.31    0.98
   1   2  -4   10.92    1.27
   1   2  -4   11.35    1.22
   1   2  -4   10.43    1.40
   1   2  -4    9.32    1.11
   1   2  -4    9.42    1.25
   1   2  -4   12.10    1.28
   1   2  -4   10.84    1.21
  -1  -2   4   11.49    1.25
  -1  -2   4    9.15    1.17
   0   2  -4    3.47    0.77
   0   2  -4    5.91    1.20
   0   2  -4    3.95    0.93
   0   2  -4    4.90    1.00
   0   2  -4    3.71    0.79
   0   2  -4    4.31    0.88
   0   2  -4    5.04    1.02
   0   2  -4    4.26    0.94
   0   2  -4    5.38    1.25
   0   2  -4    3.69    0.83
   0   2  -4    4.38    0.80
   0  -2   4    6.46    1.07
   0  -2   4    4.95    1.03
   0  -2   4    3.93    0.96
   0  -2   4    4.02    0.91
   0  -2   4    4.43    0.94
  -1   2  -4  365.68   11.59
  -1   2  -4  384.89   11.37
  -1   2  -4  382.98   10.94
  -1   2  -4  365.43   10.87
  -1   2  -4  373.86   12.52
  -1   2  -4  380.61   11.98
  -1   2  -4  370.60   12.17
  -1   2  -4  351.56   12.05
   1  -2   4  387.15   11.91
   1  -2   4  377.83   12.00
   1  -2   4  370.79   11.42
   1  -2   4  371.25   12.15
   1  -2   4  361.03   12.01
   1  -2   4  385.22   11.68
  -2   2  -4    3.06    1.05
  -2   2  -4    5.05    1.19
  -2   2  -4    3.97    0.70
  -2   2  -4    2.83    1.10
  -2   2  -4    3.88    1.06
   2  -2   4    4.27    0.76
   2  -2   4    4.90    1.29
   2  -2   4    3.70    0.88
   2  -2   4    5.01    0.88
   2  -2   4    4.75    1.26
   2  -2   4    6.68    1.24
   2  -2   4    4.36    1.11
   2  -2   4    3.47    0.79
  -3   2  -4    1.05    0.89
  -3   2  -4    1.73    0.89
  -3   2  -4    0.23    0.83
  -3   2  -4    0.04    0.60
  -3   2  -4   -0.48    0.87
   3  -2   4    0.54    0.67
   3  -2   4    0.65    0.66
   3  -2   4    2.17    0.67
   3  -2   4    2.10    0.87
   3  -2   4    1.00    0.74
   3  -2   4    2.31    1.16
   3  -2   4    0.18    0.68
  -4   2  -4  162.42    6.42
  -4   2  -4  148.09    7.03
  -4   2  -4  164.11    7.19
   4  -2   4  157.55    5.86
   4  -2   4  163.05    6.63
   4  -2   4  156.05    5.69
   4  -2   4  159.66    6.66
   4  -2   4  153.27    7.14
   4  -2   4  152.24    6.26
  -5   2  -4   24.99    2.33
  -5   2  -4   28.78    3.13
  -5   2  -4   26.15    2.97
   5  -2   4   25.24    2.46
   5  -2   4   28.60    2.26
   5  -2   4   28.24    2.18
   5  -2   4   25.93    2.02
   5  -2   4   22.94    2.42
  -6   2  -4   -0.45    1.04
  -6   2  -4    1.00    1.61
   6  -2   4    0.53    0.86
   6  -2   4    0.24    1.00
   6  -2   4    0.09    0.84
   6  -2   4   -0.30    1.00
  -7   2  -4   51.00    5.01
  -7   2  -4   55.38    3.64
   7  -2   4   51.63    4.00
   7  -2   4   59.64    3.69
   7  -2   4   54.53    4.10
   7  -2   4   53.30    3.57
  -8   2  -4    8.09    1.97
  -8   2  -4   13.16    3.81
   8  -2   4   18.22    2.54
   8  -2   4   21.10    3.19
   8  -2   4   17.54    2.63
   8  -2   4   15.29    2.73
  -9   2  -4   -1.00    2.37
  -9   2  -4   -0.68    1.94
   9  -2   4    1.19    1.52
   9  -2   4    3.41    1.92
   9  -2   4    0.57    1.89
 -10  -1   4   23.85    6.02
   9   1  -4   10.81    2.66
   9   1  -4   11.59    2.75
  -9  -1   4   13.19    4.47
   8   1  -4   72.38    4.69
   8   1  -4   73.41    4.67
   8   1  -4   75.40    4.94
  -8  -1   4   75.75    4.84
  -8  -1   4   66.39    6.94
   7   1  -4   52.54    3.74
   7   1  -4   57.95    3.77
   7   1  -4   67.78    4.24
   7   1  -4   65.36    4.17
   7   1  -4   56.93    3.88
   7   1  -4   60.54    4.05
  -7  -1   4   55.96    5.86
  -7  -1   4   59.76    4.05
   6   1  -4   33.17    2.60
   6   1  -4   31.58    2.51
   6   1  -4   34.33    2.84
   6   1  -4   33.52    2.79
   6   1  -4   30.45    2.63
   6   1  -4   28.08    2.52
  -6  -1   4   33.49    4.08
  -6  -1   4   32.91    2.79
   5   1  -4  232.23    8.70
   5   1  -4  229.31    8.58
   5   1  -4  244.64    9.09
   5   1  -4  233.92    8.61
   5   1  -4  233.22    8.46
   5   1  -4  246.30    8.38
  -5  -1   4  241.82    8.90
  -5  -1   4  235.03   10.85
   4   1  -4   69.72    3.33
   4   1  -4   72.55    3.47
   4   1  -4   71.69    3.52
   4   1  -4   74.42    3.64
   4   1  -4   77.18    3.37
   4   1  -4   75.91    3.94
  -4  -1   4   78.02    3.85
  -4  -1   4   58.55    2.72
  -4  -1   4   75.52    4.88
   3   1  -4   48.87    2.70
   3   1  -4   52.75    2.67
   3   1  -4   54.17    2.61
   3   1  -4   52.05    2.86
   3   1  -4   51.12    2.64
   3   1  -4   52.86    2.74
   3   1  -4   54.84    2.56
  -3  -1   4   56.32    3.04
  -3  -1   4   48.95    1.99
  -3  -1   4   51.02    2.32
  -3  -1   4   53.81    1.95
   2   1  -4  387.02   11.65
   2   1  -4  374.20   11.91
   2   1  -4  370.89   11.84
   2   1  -4  373.36   12.06
   2   1  -4  360.88   11.74
   2   1  -4  371.24   11.71
  -2  -1   4  406.74   11.75
  -2  -1   4  373.46   11.57
  -2  -1   4  371.85   11.83
  -2  -1   4  380.29   11.50
  -2  -1   4  397.87   11.88
  -2  -1   4  376.44   11.57
   1   1  -4   33.33    2.10
   1   1  -4   32.56    1.81
   1   1  -4   33.16    1.91
   1   1  -4   33.81    1.92
   1   1  -4   32.47    1.99
   1   1  -4   34.19    1.95
  -1  -1   4   29.67    1.91
  -1  -1   4   31.64    1.77
  -1  -1   4   30.98    1.86
  -1  -1   4   33.08    1.90
  -1  -1   4   34.67    1.86
   0   1  -4   39.53    2.29
   0   1  -4   42.08    2.33
   0   1  -4   37.68    2.11
   0   1  -4   42.31    2.19
   0   1  -4   41.44    2.45
   0   1  -4   38.22    2.06
   0  -1   4   41.52    2.25
   0  -1   4   39.28    2.15
   0  -1   4   40.14    2.35
   0  -1   4   42.67    2.22
   0  -1   4   45.90    2.42
  -1   1  -4  233.61    8.55
  -1   1  -4  247.21    8.37
  -1   1  -4  244.64    7.90
  -1   1  -4  241.73    8.50
  -1   1  -4  248.30    7.73
  -1   1  -4  255.23    7.99
  -1   1  -4  232.95    7.65
   1  -1   4  240.34    7.90
   1  -1   4  259.61    8.35
   1  -1   4  228.67    8.38
   1  -1   4  244.53    8.20
   1  -1   4  248.48    7.97
   1  -1   4  251.89    8.71
   1  -1   4  237.70    7.77
  -2   1  -4   27.12    2.05
  -2   1  -4   26.62    1.95
  -2   1  -4   26.00    1.60
  -2   1  -4   28.28    2.31
  -2   1  -4   24.39    1.82
  -2   1  -4   24.17    2.18
  -2   1  -4   23.72    1.02
   2  -1   4   23.22    1.98
   2  -1   4   21.62    2.15
   2  -1   4   20.87    1.80
   2  -1   4   26.77    1.79
   2  -1   4   21.16    1.77
   2  -1   4   24.27    1.71
   2  -1   4   26.24    1.65
   2  -1   4   27.56    1.85
  -3   1  -4   63.74    3.71
  -3   1  -4   57.08    3.42
  -3   1  -4   56.55    3.35
  -3   1  -4   58.28    2.94
  -3   1  -4   59.72    3.11
   3  -1   4   62.02    2.97
   3  -1   4   59.98    3.26
   3  -1   4   57.91    2.90
   3  -1   4   59.06    3.16
   3  -1   4   60.65    3.49
   3  -1   4   58.83    2.90
  -4   1  -4  192.52    8.29
  -4   1  -4  200.57    7.77
  -4   1  -4  204.10    8.17
  -4   1  -4  192.16    7.11
   4  -1   4  204.48    7.19
   4  -1   4  198.32    7.77
   4  -1   4  198.65    7.55
   4  -1   4  190.93    7.57
   4  -1   4  195.40    7.15
  -5   1  -4    5.09    2.02
  -5   1  -4    2.24    1.28
  -5   1  -4    2.39    1.37
   5  -1   4    2.70    1.19
   5  -1   4    2.53    1.06
   5  -1   4    1.91    0.89
   5  -1   4    2.04    1.15
   5  -1   4    3.41    1.33
  -6   1  -4   31.60    3.59
  -6   1  -4   32.80    3.43
  -6   1  -4   34.72    3.00
   6  -1   4   39.68    2.85
   6  -1   4   31.03    3.00
   6  -1   4   34.62    3.23
   6  -1   4   30.70    3.07
   6  -1   4   33.66    2.75
  -7   1  -4   48.59    4.51
  -7   1  -4   41.70    3.57
  -7   1  -4   38.25    4.44
   7  -1   4   46.15    3.44
   7  -1   4   45.67    3.46
   7  -1   4   44.83    3.99
   7  -1   4   45.04    3.92
  -8   1  -4    4.21    1.82
  -8   1  -4    2.05    2.55
   8  -1   4    1.88    1.54
   8  -1   4    0.25    1.67
   8  -1   4    1.86    1.45
   8  -1   4    0.45    1.68
  -9   1  -4   10.76    3.92
  -9   1  -4   10.96    2.48
   9  -1   4    9.80    2.45
   9  -1   4   13.80    3.22
  10   0  -4   58.04    4.82
  10   0  -4   63.91    5.79
 -10   0   4   51.13    7.20
   9   0  -4    6.47    1.96
   9   0  -4    2.90    1.77
   9   0  -4    4.26    1.68
  -9   0   4    8.14    3.65
  -9   0   4    7.46    2.53
   8   0  -4   15.61    2.42
   8   0  -4   15.25    2.18
   8   0  -4   19.03    2.41
  -8   0   4   24.30    5.50
  -8   0   4   21.22    2.91
   7   0  -4  146.35    6.98
   7   0  -4  139.55    6.25
   7   0  -4  147.69    6.18
   7   0  -4  163.99    6.89
   7   0  -4  153.46    6.48
  -7   0   4  150.64    9.26
  -7   0   4  159.58    7.46
   6   0  -4   33.61    2.47
   6   0  -4   35.21    2.81
   6   0  -4   25.81    2.11
   6   0  -4   30.07    2.19
   6   0  -4   28.30    2.60
   6   0  -4   29.13    2.39
  -6   0   4   23.12    3.67
  -6   0   4   36.54    3.06
  -6   0   4   27.76    2.60
   5   0  -4   54.11    2.68
   5   0  -4   52.46    2.97
   5   0  -4   55.28    2.65
   5   0  -4   52.37    2.72
   5   0  -4   53.90    2.91
  -5   0   4   53.25    4.55
  -5   0   4   49.24    2.83
  -5   0   4   50.89    3.42
   4   0  -4  247.11    8.18
   4   0  -4  246.18    8.31
   4   0  -4  232.87    7.81
   4   0  -4  235.55    8.15
   4   0  -4  233.98    7.89
   4   0  -4  249.57    7.84
  -4   0   4  254.24    9.09
  -4   0   4  229.02    9.95
  -4   0   4  253.69    8.29
   3   0  -4   33.35    1.98
   3   0  -4   35.30    1.97
   3   0  -4   34.41    1.68
   3   0  -4   34.94    2.02
   3   0  -4   39.57    1.86
   3   0  -4   35.90    2.12
   3   0  -4   34.54    1.77
   3   0  -4   39.28    2.42
  -3   0   4   37.29    2.11
  -3   0   4   31.73    2.82
  -3   0   4   37.36    2.54
   2   0  -4   75.26    3.33
   2   0  -4   77.23    3.12
   2   0  -4   80.98    3.45
   2   0  -4   71.01    3.21
   2   0  -4   79.85    3.26
   2   0  -4   83.67    3.08
   2   0  -4   82.01    3.14
   2   0  -4   81.26    2.94
  -2   0   4   78.02    3.34
  -2   0   4   78.19    2.82
  -2   0   4   80.34    3.82
  -2   0   4   81.97    3.19
  -2   0   4   79.33    3.92
   1   0  -4  310.86   10.46
   1   0  -4  327.73   10.80
   1   0  -4  374.10   10.64
   1   0  -4  340.07   10.29
   1   0  -4  346.87   10.70
   1   0  -4  331.01   10.62
   1   0  -4  332.81   10.85
  -1   0   4  322.09   10.30
  -1   0   4  353.13   10.39
  -1   0   4  334.77   10.61
  -1   0   4  342.63   10.86
  -1   0   4  324.18   10.51
  -1   0   4  344.20   10.34
  -1   0   4  346.24   10.17
  -1   0   4  338.56   10.92
  -1   0   4  330.47   10.60
   0   0  -4  100.76    4.10
   0   0  -4   91.75    3.87
   0   0  -4   94.29    3.83
   0   0  -4   96.47    3.95
   0   0  -4  105.32    4.37
   0   0  -4   97.61    4.13
   0   0   4   96.19    4.06
   0   0   4   86.47    3.04
   0   0   4   93.66    3.85
   0   0   4  110.49    4.15
   0   0   4  100.83    3.92
   0   0   4   91.40    4.24
  -1   0  -4   48.45    2.53
  -1   0  -4   51.83    3.01
  -1   0  -4   43.14    2.57
  -1   0  -4   43.49    2.54
  -1   0  -4   43.75    2.47
  -1   0  -4   51.26    2.84
  -1   0  -4   48.83    2.40
   1   0   4   49.45    2.50
   1   0   4   45.28    2.86
   1   0   4   47.90    2.74
   1   0   4   48.75    2.55
   1   0   4   47.92    2.72
   1   0   4   48.39    2.63
   1   0   4   53.29    2.73
  -2   0  -4  150.21    5.51
  -2   0  -4  160.73    6.03
  -2   0  -4  153.15    5.87
  -2   0  -4  157.38    6.40
  -2   0  -4  164.33    5.67
  -2   0  -4  149.08    5.54
   2   0   4  158.57    5.99
   2   0   4  158.23    5.66
   2   0   4  168.81    6.54
   2   0   4  151.99    6.06
   2   0   4  166.28    6.00
   2   0   4  154.49    5.77
   2   0   4  161.69    6.33
  -3   0  -4  116.79    4.98
  -3   0  -4  121.78    4.69
  -3   0  -4  120.45    5.56
  -3   0  -4  120.95    4.11
  -3   0  -4  124.66    5.79
  -3   0  -4  120.04    4.04
  -3   0  -4  119.54    4.82
  -3   0  -4  122.56    5.21
   3   0   4  126.05    4.81
   3   0   4  124.27    5.16
   3   0   4  123.99    5.09
   3   0   4  124.43    5.49
   3   0   4  121.93    5.46
   3   0   4  114.78    4.87
   3   0   4  123.83    5.28
  -4   0  -4   38.23    2.13
  -4   0  -4   39.77    2.36
  -4   0  -4   35.19    1.84
  -4   0  -4   39.80    3.20
  -4   0  -4   40.92    2.69
  -4   0  -4   36.87    2.93
  -4   0  -4   34.74    2.98
   4   0   4   34.30    2.54
   4   0   4   35.50    2.78
   4   0   4   38.00    2.89
   4   0   4   38.45    3.03
   4   0   4   37.70    2.85
   4   0   4   37.91    2.55
  -5   0  -4   39.14    3.15
  -5   0  -4   38.94    3.48
  -5   0  -4   36.21    3.39
   5   0   4   36.40    3.07
   5   0   4   30.19    3.08
   5   0   4   36.28    3.19
   5   0   4   36.16    2.78
   5   0   4   35.20    2.69
  -6   0  -4   43.48    4.24
  -6   0  -4   46.85    3.73
  -6   0  -4   48.09    4.15
   6   0   4   47.96    3.32
   6   0   4   41.24    3.69
   6   0   4   48.34    4.02
   6   0   4   42.47    3.32
   6   0   4   45.58    3.69
  -7   0  -4   25.97    3.14
  -7   0  -4   22.13    4.25
  -7   0  -4   27.00    3.49
   7   0   4   18.99    3.11
   7   0   4   23.30    3.25
   7   0   4   22.49    2.77
   7   0   4   21.14    2.80
  -8   0  -4    7.58    2.36
  -8   0  -4    4.02    2.67
   8   0   4    4.38    1.89
   8   0   4    4.11    1.95
  -9   0  -4   33.62    4.96
  -9   0  -4   28.52    3.84
   9   0   4   32.34    3.78
  10  -1  -4   76.81    5.09
  10  -1  -4   67.04    4.81
  10  -1  -4   68.49    4.70
 -10   1   4   85.96    6.40
 -10   1   4   71.70    7.79
   9  -1  -4   -0.11    1.16
   9  -1  -4    0.16    1.43
   9  -1  -4    0.60    1.24
  -9   1   4    0.06    2.43
  -9   1   4    1.21    1.84
   8  -1  -4    0.51    0.87
   8  -1  -4    1.80    1.14
  -8   1   4    3.19    1.79
  -8   1   4   -0.53    2.16
   7  -1  -4  165.47    6.25
   7  -1  -4  166.20    6.54
   7  -1  -4  163.53    6.04
  -7   1   4  174.26    8.19
  -7   1   4  165.50    9.67
   6  -1  -4    0.45    0.74
   6  -1  -4    0.20    0.79
   6  -1  -4    0.50    0.86
   6  -1  -4    0.23    0.47
   6  -1  -4    0.56    0.46
   6  -1  -4   -0.63    0.70
   6  -1  -4   -1.01    1.00
  -6   1   4    0.00    0.94
  -6   1   4   -0.48    0.52
  -6   1   4    0.07    1.58
   5  -1  -4    1.50    0.57
   5  -1  -4   -0.26    0.57
   5  -1  -4   -0.12    0.61
   5  -1  -4   -0.02    0.61
  -5   1   4   -0.26    1.20
  -5   1   4    0.03    0.44
  -5   1   4    0.81    0.95
   4  -1  -4  311.62    9.23
   4  -1  -4  301.52    9.80
   4  -1  -4  299.23    9.65
   4  -1  -4  305.05    9.48
  -4   1   4  301.14   11.98
  -4   1   4  305.86    9.65
  -4   1   4  330.09   11.25
   3  -1  -4    0.88    0.63
   3  -1  -4    1.89    0.64
   3  -1  -4    2.34    0.72
   3  -1  -4    2.37    0.53
  -3   1   4    3.23    0.81
  -3   1   4   -0.20    0.74
  -3   1   4    2.57    0.91
  -3   1   4    1.28    1.06
   2  -1  -4    7.36    0.64
   2  -1  -4    4.51    0.69
   2  -1  -4    6.77    0.69
   2  -1  -4    5.84    0.77
   2  -1  -4    7.10    0.70
   2  -1  -4    6.29    0.98
   2  -1  -4    7.16    1.23
   2  -1  -4    8.32    1.05
  -2   1   4    7.33    1.35
  -2   1   4    6.49    1.08
  -2   1   4    7.24    1.52
  -2   1   4    6.97    0.84
  -2   1   4    8.89    1.74
   1  -1  -4  431.05   13.58
   1  -1  -4  425.78   13.35
   1  -1  -4  432.61   13.49
   1  -1  -4  422.60   13.93
   1  -1  -4  441.39   13.15
   1  -1  -4  450.06   13.76
   1  -1  -4  458.65   13.49
   1  -1  -4  435.57   13.34
   1  -1  -4  457.76   13.26
  -1   1   4  460.27   13.10
  -1   1   4  412.41   13.52
  -1   1   4  438.37   13.60
  -1   1   4  457.03   14.14
  -1   1   4  447.84   12.72
  -1   1   4  418.05   13.80
  -1   1   4  433.45   13.91
  -1   1   4  462.44   13.20
  -1   1   4  437.42   12.77
   0  -1  -4   34.89    2.24
   0  -1  -4   37.24    2.21
   0  -1  -4   38.67    2.46
   0  -1  -4   35.14    2.32
   0  -1  -4   33.51    1.62
   0  -1  -4   38.41    2.23
   0  -1  -4   35.65    2.50
   0  -1  -4   37.26    2.19
   0   1   4   40.27    2.59
   0   1   4   38.60    2.39
   0   1   4   36.71    2.17
   0   1   4   35.45    2.05
   0   1   4   36.69    2.24
   0   1   4   40.98    2.23
   0   1   4   37.03    2.11
  -1  -1  -4    2.69    0.87
  -1  -1  -4    3.34    0.99
  -1  -1  -4    2.60    1.12
  -1  -1  -4    3.03    0.90
  -1  -1  -4    2.84    1.00
  -1  -1  -4    0.70    0.56
  -1  -1  -4    1.34    0.91
   1   1   4    2.08    0.74
   1   1   4    3.09    0.99
   1   1   4    2.47    0.85
   1   1   4    2.09    0.85
   1   1   4    1.57    0.87
  -2  -1  -4  264.00   10.05
  -2  -1  -4  276.36    9.59
  -2  -1  -4  280.76    9.45
  -2  -1  -4  280.08    9.76
  -2  -1  -4  288.99    9.89
   2   1   4  284.28    9.77
   2   1   4  273.54    9.59
   2   1   4  279.09    9.31
   2   1   4  283.24    9.48
   2   1   4  279.14    9.99
   2   1   4  273.64    9.95
   2   1   4  283.43    9.67
  -3  -1  -4   74.78    3.82
  -3  -1  -4   70.01    3.67
  -3  -1  -4   77.52    3.30
  -3  -1  -4   71.74    4.14
  -3  -1  -4   63.95    3.40
  -3  -1  -4   73.59    3.83
   3   1   4   74.30    3.55
   3   1   4   68.74    3.58
   3   1   4   69.52    3.88
   3   1   4   68.14    3.80
   3   1   4   76.74    4.16
   3   1   4   68.71    3.71
   3   1   4   72.99    4.14
  -4  -1  -4    1.43    1.04
  -4  -1  -4    2.20    1.37
  -4  -1  -4    2.97    1.28
  -4  -1  -4    2.29    1.24
  -4  -1  -4    3.25    1.55
  -4  -1  -4    2.36    0.71
  -4  -1  -4    1.90    0.76
  -4  -1  -4    1.81    0.77
   4   1   4    1.55    1.20
   4   1   4    2.16    1.00
   4   1   4    1.30    0.97
   4   1   4    2.18    1.18
   4   1   4    1.72    1.00
   4   1   4    2.09    1.01
   4   1   4    1.97    1.10
  -5  -1  -4   84.70    5.15
  -5  -1  -4   91.18    4.06
  -5  -1  -4   85.45    5.38
  -5  -1  -4   86.12    4.40
  -5  -1  -4   96.60    5.60
  -5  -1  -4  100.09    5.59
   5   1   4   91.71    5.05
   5   1   4   83.57    4.80
   5   1   4   85.84    4.60
   5   1   4   94.73    5.15
   5   1   4   88.65    5.36
   5   1   4   88.40    5.18
  -6  -1  -4   48.92    3.41
  -6  -1  -4   51.44    4.45
  -6  -1  -4   44.67    3.94
  -6  -1  -4   47.55    4.19
   6   1   4   42.69    4.10
   6   1   4   44.41    3.79
   6   1   4   46.84    3.54
   6   1   4   48.37    3.77
   6   1   4   54.14    4.20
  -7  -1  -4    0.41    1.87
  -7  -1  -4    1.33    1.60
  -7  -1  -4    3.67    1.90
   7   1   4    1.18    1.37
   7   1   4    0.96    1.98
   7   1   4    2.59    1.69
  -8  -1  -4   42.78    5.21
  -8  -1  -4   35.97    4.63
  -8  -1  -4   42.63    4.40
   8   1   4   35.61    3.81
  -9  -1  -4   15.58    3.27
  -9  -1  -4   20.82    5.17
   9   1   4   19.10    3.55
  10  -2  -4   27.37    2.79
  10  -2  -4   28.21    2.96
 -10   2   4   30.43    4.52
 -10   2   4   18.50    5.51
   9  -2  -4   19.31    2.59
   9  -2  -4   22.75    2.32
  -9   2   4   26.19    3.96
  -9   2   4   21.46    5.26
   8  -2  -4    7.48    1.15
   8  -2  -4   11.77    1.64
   8  -2  -4   11.58    1.78
  -8   2   4   17.17    3.55
  -8   2   4    8.27    3.37
   7  -2  -4  103.50    4.04
   7  -2  -4  102.36    4.40
  -7   2   4  104.04    7.45
  -7   2   4  103.08    6.29
   6  -2  -4   29.03    1.95
   6  -2  -4   28.65    1.86
  -6   2   4   25.56    3.00
  -6   2   4   31.41    3.90
   5  -2  -4   32.14    1.80
   5  -2  -4   32.59    1.89
  -5   2   4   31.78    3.52
  -5   2   4   31.99    3.03
   4  -2  -4  219.66    7.17
   4  -2  -4  218.77    7.39
  -4   2   4  220.35    9.65
  -4   2   4  227.21    6.91
  -4   2   4  226.64    7.05
  -4   2   4  237.11    9.13
   3  -2  -4   25.74    1.19
   3  -2  -4   25.64    1.14
   3  -2  -4   25.72    1.59
   3  -2  -4   26.73    1.86
  -3   2   4   24.33    1.63
  -3   2   4   25.88    2.38
  -3   2   4   27.61    2.74
   2  -2  -4   71.91    2.63
   2  -2  -4   80.95    2.95
   2  -2  -4   79.61    2.65
   2  -2  -4   73.72    3.37
   2  -2  -4   74.29    3.45
   2  -2  -4   77.29    2.93
  -2   2   4   74.21    4.01
  -2   2   4   83.19    3.54
  -2   2   4   76.64    3.39
  -2   2   4   78.03    2.93
  -2   2   4   72.59    3.94
   1  -2  -4  442.95   13.34
   1  -2  -4  464.71   13.88
   1  -2  -4  438.71   14.02
   1  -2  -4  442.35   13.46
   1  -2  -4  455.11   13.58
   1  -2  -4  437.81   13.66
   1  -2  -4  446.80   13.36
   1  -2  -4  453.21   14.09
  -1   2   4  461.70   13.20
  -1   2   4  421.82   14.02
  -1   2   4  419.19   13.75
  -1   2   4  419.49   14.17
  -1   2   4  434.44   13.96
   0  -2  -4    0.92    0.72
   0  -2  -4    2.80    0.91
   0  -2  -4    1.26    0.78
   0  -2  -4    1.32    0.67
   0  -2  -4    2.46    0.98
   0  -2  -4    2.04    0.80
   0  -2  -4    0.69    0.86
   0  -2  -4    2.06    0.79
   0   2   4    2.18    0.87
   0   2   4    1.88    0.95
   0   2   4    2.32    0.81
   0   2   4    1.91    0.71
   0   2   4    0.34    0.67
   0   2   4    1.46    0.85
   0   2   4    1.72    0.86
  -1  -2  -4  120.58    5.38
  -1  -2  -4  127.13    5.15
  -1  -2  -4  126.95    5.18
  -1  -2  -4  131.25    5.56
  -1  -2  -4  128.03    5.21
  -1  -2  -4  137.79    5.80
   1   2   4  131.10    5.44
   1   2   4  130.51    5.23
   1   2   4  134.00    5.16
   1   2   4  132.43    5.47
   1   2   4  129.20    5.15
   1   2   4  129.48    5.59
   1   2   4  134.49    5.49
  -2  -2  -4  195.41    7.55
  -2  -2  -4  200.89    7.54
  -2  -2  -4  207.82    7.92
  -2  -2  -4  189.33    8.01
  -2  -2  -4  216.61    7.89
  -2  -2  -4  195.44    7.48
  -2  -2  -4  200.94    7.30
   2   2   4  211.16    8.01
   2   2   4  200.65    8.01
   2   2   4  197.60    7.68
   2   2   4  212.79    7.76
   2   2   4  202.18    7.49
  -3  -2  -4    4.75    1.48
  -3  -2  -4    3.37    1.19
  -3  -2  -4    1.46    0.94
  -3  -2  -4    6.67    1.64
  -3  -2  -4    2.11    1.16
   3   2   4    3.87    1.65
   3   2   4   -0.13    0.44
   3   2   4    2.18    0.90
   3   2   4    2.05    1.00
   3   2   4    2.60    1.13
   3   2   4    2.92    1.08
   3   2   4    1.46    1.03
  -4  -2  -4   56.21    3.07
  -4  -2  -4   57.82    3.38
  -4  -2  -4   53.28    4.06
  -4  -2  -4   55.89    3.76
  -4  -2  -4   58.68    4.13
  -4  -2  -4   52.71    3.57
  -4  -2  -4   50.87    3.23
   4   2   4   52.16    3.39
   4   2   4   54.60    4.01
   4   2   4   51.60    3.69
   4   2   4   50.85    3.91
   4   2   4   58.73    3.76
   4   2   4   55.06    3.51
  -5  -2  -4   92.65    5.67
  -5  -2  -4   99.73    5.76
  -5  -2  -4   88.10    3.82
  -5  -2  -4   89.04    3.97
  -5  -2  -4   85.42    4.51
  -5  -2  -4   92.39    5.09
  -5  -2  -4   76.03    5.23
   5   2   4   94.46    5.33
   5   2   4   89.04    5.10
   5   2   4   92.46    4.98
   5   2   4   94.14    5.78
   5   2   4   88.33    5.40
  -6  -2  -4    8.64    2.37
  -6  -2  -4    7.66    2.22
  -6  -2  -4    6.13    2.76
  -6  -2  -4    5.67    1.64
   6   2   4    3.82    2.14
   6   2   4    8.58    2.63
   6   2   4    8.12    2.12
  -7  -2  -4   36.74    4.24
  -7  -2  -4   31.15    3.95
  -7  -2  -4   38.51    4.65
   7   2   4   38.11    4.25
   7   2   4   35.34    3.71
  -8  -2  -4   22.97    3.83
  -8  -2  -4   30.10    4.15
  -8  -2  -4   32.47    4.87
   8   2   4   27.85    3.70
  -9  -2  -4    7.80    3.04
   9   2   4    2.91    2.38
  10  -3  -4    6.81    1.54
 -10   3   4    3.49    3.37
 -10   3   4   10.53    3.43
   9  -3  -4   53.48    3.16
   9  -3  -4   54.63    3.31
  -9   3   4   55.38    5.43
  -9   3   4   48.81    6.57
   8  -3  -4   18.18    1.85
   8  -3  -4   17.62    1.66
   8  -3  -4   19.67    1.77
  -8   3   4   24.48    5.41
  -8   3   4   20.89    3.53
   7  -3  -4   30.80    2.00
   7  -3  -4   30.15    1.92
  -7   3   4   34.98    3.88
  -7   3   4   23.25    4.05
   6  -3  -4  107.37    3.98
  -6   3   4  106.02    6.38
  -6   3   4  117.06    7.59
   5  -3  -4   56.71    2.42
  -5   3   4   61.54    5.02
  -5   3   4   54.30    4.18
   4  -3  -4   53.69    2.47
   4  -3  -4   55.87    2.40
  -4   3   4   59.23    4.52
  -4   3   4   52.78    3.83
   3  -3  -4  179.06    5.33
   3  -3  -4  168.42    6.13
   3  -3  -4  175.87    5.35
   3  -3  -4  169.62    5.96
  -3   3   4  165.99    5.69
  -3   3   4  170.33    7.37
  -3   3   4  158.83    7.71
   2  -3  -4  142.70    5.56
   2  -3  -4  146.87    4.93
   2  -3  -4  144.45    5.13
   2  -3  -4  146.27    4.80
   2  -3  -4  144.77    5.53
   2  -3  -4  138.07    4.73
  -2   3   4  135.13    6.18
  -2   3   4  152.04    6.63
  -2   3   4  137.77    4.91
  -2   3   4  148.26    5.62
  -2   3   4  142.28    5.37
   1  -3  -4   57.12    2.82
   1  -3  -4   54.80    2.80
   1  -3  -4   52.43    3.05
   1  -3  -4   55.99    3.13
   1  -3  -4   63.54    2.86
   1  -3  -4   56.66    3.08
  -1   3   4   54.78    3.10
  -1   3   4   56.68    3.30
  -1   3   4   50.18    2.87
  -1   3   4   56.27    3.62
   0  -3  -4  136.54    5.40
   0  -3  -4  132.30    5.77
   0  -3  -4  139.20    5.57
   0  -3  -4  135.69    5.80
   0  -3  -4  131.06    5.31
   0  -3  -4  129.60    5.67
   0  -3  -4  137.22    5.33
   0   3   4  135.35    4.83
   0   3   4  133.30    4.89
   0   3   4  136.91    5.60
   0   3   4  141.42    5.85
   0   3   4  136.77    5.49
   0   3   4  135.82    5.26
  -1  -3  -4   81.18    3.99
  -1  -3  -4   87.35    4.24
  -1  -3  -4   77.91    4.34
  -1  -3  -4   77.43    4.16
  -1  -3  -4   85.31    4.32
  -1  -3  -4   78.71    3.94
  -1  -3  -4   84.62    4.05
   1   3   4   83.32    4.21
   1   3   4   80.59    4.05
   1   3   4   75.24    3.56
   1   3   4   84.84    3.94
   1   3   4   82.27    3.82
   1   3   4   88.85    4.55
   1   3   4   81.16    3.88
  -2  -3  -4   36.41    2.79
  -2  -3  -4   34.90    2.68
  -2  -3  -4   39.72    2.99
  -2  -3  -4   41.77    3.20
  -2  -3  -4   33.86    2.68
  -2  -3  -4   42.62    3.06
   2   3   4   43.37    3.10
   2   3   4   37.59    2.69
   2   3   4   45.44    3.18
   2   3   4   39.21    2.88
   2   3   4   40.10    2.68
   2   3   4   44.31    2.95
   2   3   4   43.19    3.26
   2   3   4   35.58    2.12
  -3  -3  -4   23.49    2.54
  -3  -3  -4   34.36    2.86
  -3  -3  -4   29.24    2.59
  -3  -3  -4   25.90    2.65
  -3  -3  -4   31.48    3.15
   3   3   4   26.41    2.57
   3   3   4   32.52    2.55
   3   3   4   31.48    3.15
   3   3   4   32.78    3.01
   3   3   4   27.95    1.65
   3   3   4   26.86    2.50
   3   3   4   35.03    2.89
  -4  -3  -4   93.75    5.05
  -4  -3  -4  100.10    5.20
  -4  -3  -4  102.55    5.87
  -4  -3  -4   98.11    5.18
  -4  -3  -4   95.48    4.76
  -4  -3  -4  103.68    5.55
   4   3   4   98.36    5.47
   4   3   4  106.70    5.91
   4   3   4   95.46    5.70
   4   3   4   88.26    5.02
   4   3   4  103.62    5.12
   4   3   4  101.46    5.48
   4   3   4  106.24    5.61
  -5  -3  -4   33.06    3.67
  -5  -3  -4   30.69    3.00
  -5  -3  -4   36.79    3.76
  -5  -3  -4   28.34    3.18
  -5  -3  -4   30.12    2.59
  -5  -3  -4   30.94    2.89
   5   3   4   29.38    3.15
   5   3   4   33.85    3.76
  -6  -3  -4    9.17    1.67
  -6  -3  -4    7.01    2.75
  -6  -3  -4    7.53    1.36
  -6  -3  -4    5.64    2.18
  -6  -3  -4   12.29    3.21
  -6  -3  -4    6.75    2.06
   6   3   4    8.13    2.17
   6   3   4    8.28    2.36
  -7  -3  -4   33.55    4.33
  -7  -3  -4   33.53    4.32
  -7  -3  -4   33.22    4.50
   7   3   4   37.03    4.58
   7   3   4   36.09    3.89
  -8  -3  -4    6.45    2.98
  -8  -3  -4    3.34    3.34
   8   3   4    4.42    2.25
  -9  -3  -4   -2.81    1.93
   9   3   4   -0.26    2.10
 -10   4   4    1.17    2.14
 -10   4   4    3.66    3.44
  -9   4   4   66.92    7.26
  -9   4   4   73.11    6.33
   8  -4  -4    1.61    0.77
   8  -4  -4    0.12    0.69
  -8   4   4    2.46    2.18
  -8   4   4    1.41    2.45
   7  -4  -4    1.91    0.64
  -7   4   4    0.26    1.58
  -7   4   4    0.85    2.34
   6  -4  -4  132.34    4.77
  -6   4   4  162.75    8.23
  -6   4   4  138.91    8.74
   5  -4  -4    5.08    0.94
  -5   4   4    5.04    1.96
  -5   4   4    4.94    2.11
   4  -4  -4    1.09    0.74
   4  -4  -4    1.18    0.69
  -4   4   4    2.70    1.57
  -4   4   4    2.58    1.87
   3  -4  -4  179.10    6.61
   3  -4  -4  192.11    5.96
   3  -4  -4  178.75    6.08
   3  -4  -4  177.62    6.40
  -3   4   4  180.96    8.56
  -3   4   4  182.45    8.09
  -3   4   4  175.65    6.16
   2  -4  -4   32.80    2.20
   2  -4  -4   29.10    1.91
   2  -4  -4   31.21    2.05
   2  -4  -4   32.63    1.90
   2  -4  -4   31.55    2.30
   2  -4  -4   33.27    2.33
  -2   4   4   29.97    2.33
  -2   4   4   25.99    2.57
  -2   4   4   31.30    2.21
   1  -4  -4    0.85    0.64
   1  -4  -4    0.58    0.66
   1  -4  -4   -0.14    0.68
   1  -4  -4    0.23    0.75
   1  -4  -4   -0.35    0.67
  -1   4   4    0.33    0.86
  -1   4   4    0.55    0.80
  -1   4   4    0.29    0.48
  -1   4   4    1.38    0.88
   0  -4  -4  110.42    5.05
   0  -4  -4  131.90    5.21
   0  -4  -4  119.86    5.44
   0  -4  -4  114.32    5.32
   0  -4  -4  126.63    5.60
   0  -4  -4  129.79    5.70
   0  -4  -4  122.75    5.23
   0   4   4  108.66    5.41
   0   4   4  120.23    4.92
   0   4   4  116.73    5.25
   0   4   4  116.56    4.11
   0   4   4  121.44    4.06
   0   4   4  110.84    5.11
  -1  -4  -4   65.66    3.85
  -1  -4  -4   58.90    3.89
  -1  -4  -4   53.60    3.51
  -1  -4  -4   59.44    3.50
  -1  -4  -4   56.01    3.66
  -1  -4  -4   57.50    3.48
  -1  -4  -4   63.74    3.67
   1   4   4   60.10    3.65
   1   4   4   54.61    3.01
   1   4   4   60.61    3.27
   1   4   4   56.79    3.29
   1   4   4   56.21    3.13
   1   4   4   59.89    3.93
  -2  -4  -4    0.29    0.73
  -2  -4  -4   -0.02    0.99
  -2  -4  -4   -0.29    0.69
  -2  -4  -4    0.39    0.99
  -2  -4  -4    0.15    0.97
  -2  -4  -4    1.96    1.25
   2   4   4   -0.07    0.94
   2   4   4    1.17    1.03
   2   4   4    0.15    0.92
   2   4   4    0.59    1.01
   2   4   4    1.04    0.64
   2   4   4    0.66    0.84
  -3  -4  -4   81.12    4.62
  -3  -4  -4   81.09    4.63
  -3  -4  -4   70.05    5.37
  -3  -4  -4   69.57    4.71
  -3  -4  -4   78.03    4.85
  -3  -4  -4   92.02    5.46
   3   4   4   78.63    4.33
   3   4   4   77.60    4.83
   3   4   4   83.35    4.79
   3   4   4   81.23    4.53
   3   4   4   84.88    5.30
  -4  -4  -4   47.36    2.49
  -4  -4  -4   46.50    4.19
  -4  -4  -4   46.54    3.72
  -4  -4  -4   52.41    3.97
  -4  -4  -4   46.59    3.76
  -4  -4  -4   47.40    3.47
   4   4   4   45.98    4.07
   4   4   4   52.26    4.43
   4   4   4   49.34    3.76
  -5  -4  -4    0.48    1.42
  -5  -4  -4    0.25    1.29
  -5  -4  -4   -0.37    1.16
  -5  -4  -4    0.35    1.35
  -5  -4  -4    0.31    1.41
  -5  -4  -4    0.08    1.68
   5   4   4    0.22    1.43
   5   4   4    1.46    1.86
  -6  -4  -4   12.30    3.08
  -6  -4  -4   15.73    2.70
  -6  -4  -4    7.58    2.65
  -6  -4  -4   11.20    2.02
   6   4   4   10.71    2.64
   6   4   4    8.10    2.82
  -7  -4  -4   27.40    4.47
  -7  -4  -4   26.11    4.22
   7   4   4   30.25    3.90
   7   4   4   22.48    4.26
  -8  -4  -4   -0.57    2.04
   8   4   4   -1.09    1.76
  -9   5   4   30.61    4.90
  -9   5   4   37.39    6.14
  -8   5   4    5.52    2.72
  -8   5   4   12.36    4.21
  -7   5   4   14.29    4.08
  -7   5   4   12.62    3.26
   6  -5  -4   75.99    3.10
  -6   5   4   88.51    6.25
  -6   5   4   78.05    6.76
   5  -5  -4    4.33    0.96
  -5   5   4    2.55    2.28
  -5   5   4    8.02    2.62
   4  -5  -4   23.05    1.84
   4  -5  -4   20.96    1.40
  -4   5   4   22.77    3.05
   3  -5  -4  140.34    4.92
   3  -5  -4  149.85    5.32
   3  -5  -4  145.66    5.13
   3  -5  -4  145.97    5.81
   3  -5  -4  137.54    5.62
  -3   5   4  143.75    5.42
  -3   5   4  154.26    7.48
   2  -5  -4    1.08    0.91
   2  -5  -4    0.27    0.63
   2  -5  -4    0.24    0.68
   2  -5  -4    1.46    0.98
   2  -5  -4    0.51    0.74
  -2   5   4    1.23    1.12
  -2   5   4   -0.05    0.86
  -2   5   4    1.97    1.25
   1  -5  -4   21.23    2.10
   1  -5  -4   21.46    2.00
   1  -5  -4   20.93    2.27
   1  -5  -4   25.63    2.43
   1  -5  -4   20.74    2.21
  -1   5   4   20.21    2.28
  -1   5   4   22.14    2.45
   0  -5  -4  104.76    5.41
   0  -5  -4  106.83    5.15
   0  -5  -4  115.15    5.15
   0  -5  -4   99.85    5.24
   0  -5  -4  105.18    5.30
   0  -5  -4   95.99    5.26
   0   5   4  105.80    5.43
   0   5   4  108.81    5.12
   0   5   4  102.80    4.62
   0   5   4  107.94    5.82
  -1  -5  -4    9.18    2.04
  -1  -5  -4   12.16    2.03
  -1  -5  -4    9.65    1.99
  -1  -5  -4   11.72    2.45
  -1  -5  -4    9.94    2.14
  -1  -5  -4   11.89    2.16
  -1  -5  -4   11.22    2.08
   1   5   4   12.48    1.67
   1   5   4   10.12    2.17
   1   5   4   10.98    1.56
   1   5   4   12.23    1.78
   1   5   4   13.22    1.66
   1   5   4   14.32    2.26
  -2  -5  -4   32.15    3.03
  -2  -5  -4   32.14    3.07
  -2  -5  -4   35.15    3.37
  -2  -5  -4   33.08    3.47
  -2  -5  -4   30.53    2.97
   2   5   4   32.27    1.96
   2   5   4   30.12    2.77
   2   5   4   33.80    2.84
   2   5   4   24.32    2.97
   2   5   4   31.88    3.39
   2   5   4   30.92    2.64
  -3  -5  -4   71.65    4.15
  -3  -5  -4   69.95    4.66
  -3  -5  -4   74.76    5.25
  -3  -5  -4   56.01    4.61
   3   5   4   69.83    4.44
   3   5   4   63.07    4.04
   3   5   4   67.63    5.12
   3   5   4   74.97    4.60
  -4  -5  -4   17.34    2.90
  -4  -5  -4    8.92    2.37
  -4  -5  -4   12.42    3.09
  -4  -5  -4   11.53    2.31
   4   5   4    9.31    2.67
   4   5   4   10.60    2.47
  -5  -5  -4   14.04    2.86
  -5  -5  -4   18.13    2.76
  -5  -5  -4   23.15    4.33
  -5  -5  -4   16.02    3.09
   5   5   4   12.86    2.81
   5   5   4   22.58    3.80
  -6  -5  -4   27.53    4.34
  -6  -5  -4   34.13    3.40
  -6  -5  -4   25.91    3.32
   6   5   4   26.41    4.24
   6   5   4   28.74    3.85
  -7  -5  -4    9.26    3.31
  -7  -5  -4    5.97    1.72
  -7  -5  -4   11.42    2.34
  -7  -5  -4   12.12    3.94
   7   5   4    8.78    3.10
   7   5   4   12.24    3.17
  -8  -5  -4    4.53    2.62
   8   5   4   15.10    3.73
   8   5   4    9.61    3.52
  -9   6   4   14.56    4.04
  -9   6   4    8.90    4.53
   8  -6  -4   26.98    5.08
  -8   6   4   22.29    5.76
  -8   6   4   31.78    4.63
  -7   6   4   25.24    5.88
  -7   6   4   25.88    4.21
   6  -6  -4   31.82    1.96
   6  -6  -4   32.23    1.97
  -6   6   4   33.59    4.29
   5  -6  -4   27.18    2.09
   5  -6  -4   34.08    1.88
  -5   6   4   43.23    4.62
   4  -6  -4   44.55    2.44
   4  -6  -4   38.52    1.88
   4  -6  -4   41.16    2.02
   4  -6  -4   46.55    2.81
  -4   6   4   42.49    4.25
   3  -6  -4   39.61    2.82
   3  -6  -4   36.57    2.45
   3  -6  -4   44.46    2.70
   3  -6  -4   42.10    2.91
  -3   6   4   42.93    2.64
  -3   6   4   41.63    3.90
   2  -6  -4   24.95    2.25
   2  -6  -4   17.96    2.38
   2  -6  -4   19.91    2.30
   2  -6  -4   23.47    2.32
   2  -6  -4   18.04    2.30
  -2   6   4   23.10    2.89
  -2   6   4   21.68    2.35
   1  -6  -4   63.29    3.73
   1  -6  -4   57.28    3.94
   1  -6  -4   55.61    3.82
   1  -6  -4   68.57    4.23
   1  -6  -4   61.47    4.09
  -1   6   4   62.54    4.20
  -1   6   4   65.52    4.05
   0  -6  -4   46.99    3.47
   0  -6  -4   59.63    4.08
   0  -6  -4   57.54    4.01
   0  -6  -4   46.45    3.79
   0  -6  -4   49.95    3.89
   0   6   4   52.01    3.58
   0   6   4   45.86    3.80
  -1  -6  -4   22.60    2.73
  -1  -6  -4   21.25    3.42
  -1  -6  -4   19.92    2.69
  -1  -6  -4   19.20    2.88
   1   6   4   19.60    2.09
   1   6   4   15.38    2.20
   1   6   4   17.16    1.67
   1   6   4   19.24    1.65
   1   6   4   16.77    3.00
  -2  -6  -4   89.97    5.25
  -2  -6  -4   83.08    5.19
  -2  -6  -4   88.87    5.75
   2   6   4   72.84    4.59
   2   6   4   74.21    4.25
   2   6   4   78.07    4.26
   2   6   4   83.43    5.60
  -3  -6  -4   16.76    3.17
  -3  -6  -4   20.93    3.41
  -3  -6  -4   18.45    2.57
   3   6   4   15.68    2.73
   3   6   4   13.31    3.09
   3   6   4   18.48    2.78
   3   6   4   12.49    2.33
  -4  -6  -4    1.16    1.68
  -4  -6  -4    1.84    1.90
   4   6   4    3.18    2.10
   4   6   4   -0.54    1.47
  -5  -6  -4   47.57    5.30
  -5  -6  -4   47.42    4.86
   5   6   4   58.16    5.49
   5   6   4   47.67    4.39
  -6  -6  -4   12.02    2.67
  -6  -6  -4   11.39    3.67
   6   6   4   11.05    3.71
   6   6   4   10.92    2.95
  -7  -6  -4    1.97    2.61
  -7  -6  -4   -1.90    1.45
  -7  -6  -4   -0.06    2.15
   7   6   4   -2.91    2.10
   7   6   4    2.93    2.23
  -8   7   4   44.74    5.62
   7  -7  -4   10.16    3.42
  -7   7   4    4.56    2.66
   6  -7  -4    2.43    0.98
   6  -7  -4    0.76    0.85
  -6   7   4   -1.70    1.80
   5  -7  -4   50.66    2.55
   5  -7  -4   51.55    2.90
   5  -7  -4   52.91    3.17
   5  -7  -4   53.52    2.37
  -5   7   4   54.95    5.40
   4  -7  -4   19.22    2.31
   4  -7  -4   20.99    1.94
   4  -7  -4   22.36    2.11
   4  -7  -4   15.16    1.99
  -4   7   4   19.35    3.99
   3  -7  -4    0.39    0.89
   3  -7  -4   -0.20    0.97
   3  -7  -4   -0.21    1.01
   3  -7  -4   -0.95    0.95
  -3   7   4   -1.55    1.15
  -3   7   4   -0.60    0.89
   2  -7  -4   72.43    4.46
   2  -7  -4   67.81    4.05
   2  -7  -4   63.65    4.24
   2  -7  -4   73.21    4.63
  -2   7   4   67.63    4.22
  -2   7   4   71.95    5.11
   1  -7  -4   49.50    4.10
   1  -7  -4   43.28    3.83
   1  -7  -4   40.01    3.32
   1  -7  -4   41.64    3.70
   1  -7  -4   44.14    3.74
  -1   7   4   44.99    3.78
  -1   7   4   41.45    3.76
   0  -7  -4   -0.45    1.35
   0  -7  -4   -0.59    1.17
   0  -7  -4    0.45    1.42
   0  -7  -4    1.89    1.46
   0   7   4    2.12    1.62
   0   7   4    0.53    1.23
  -1  -7  -4   49.54    4.62
  -1  -7  -4   48.05    4.10
  -1  -7  -4   53.48    4.64
   1   7   4   49.50    4.49
  -2  -7  -4   37.01    3.96
  -2  -7  -4   39.70    3.89
  -2  -7  -4   37.11    4.22
   2   7   4   34.52    2.62
   2   7   4   35.80    4.03
   2   7   4   31.11    2.60
  -3  -7  -4    0.73    1.67
  -3  -7  -4    2.94    2.35
   3   7   4    0.63    1.40
   3   7   4    1.51    1.53
   3   7   4    1.75    1.77
  -4  -7  -4   27.73    4.94
  -4  -7  -4   22.14    4.06
   4   7   4   24.83    3.30
   4   7   4   16.63    3.86
  -5  -7  -4   38.44    5.33
  -5  -7  -4   50.92    5.23
   5   7   4   37.06    4.43
   5   7   4   38.28    5.31
  -6  -7  -4    0.93    2.70
   6   7   4   -1.14    2.28
   6   7   4    0.14    2.76
  -7   8   4    2.27    2.43
   6  -8  -4   14.76    2.06
   6  -8  -4   11.27    1.68
   6  -8  -4   11.54    1.49
  -6   8   4   11.20    3.60
   5  -8  -4   38.56    2.76
   5  -8  -4   43.52    2.99
   5  -8  -4   42.56    3.15
   5  -8  -4   36.48    5.22
   5  -8  -4   38.16    3.04
  -5   8   4   36.89    4.91
   4  -8  -4    2.80    2.49
   4  -8  -4    2.47    1.43
   4  -8  -4    0.93    1.21
   4  -8  -4    2.52    1.15
   4  -8  -4    0.44    1.19
  -4   8   4   -0.37    1.69
   3  -8  -4   22.24    2.74
   3  -8  -4   22.56    2.63
   3  -8  -4   26.18    5.02
   3  -8  -4   18.67    2.74
   3  -8  -4   20.95    2.77
  -3   8   4   19.70    2.43
  -3   8   4   24.92    3.81
   2  -8  -4   62.13    6.02
   2  -8  -4   58.53    4.63
   2  -8  -4   58.02    4.49
   2  -8  -4   63.21    4.41
   2  -8  -4   63.72    4.31
  -2   8   4   64.55    4.42
  -2   8   4   62.58    5.16
   1  -8  -4    6.53    2.02
   1  -8  -4    7.56    2.11
   1  -8  -4    7.26    2.19
   1  -8  -4    2.80    2.05
  -1   8   4    9.27    2.39
  -1   8   4    4.97    2.00
   0  -8  -4   22.36    3.10
   0  -8  -4   26.29    4.14
   0   8   4   18.31    3.48
  -1  -8  -4   48.50    4.95
  -1  -8  -4   41.42    4.18
  -1  -8  -4   43.76    4.72
   1   8   4   39.49    4.55
  -2  -8  -4    9.27    2.73
  -2  -8  -4   11.60    2.97
  -2  -8  -4   11.09    3.25
   2   8   4   12.05    3.43
  -3  -8  -4   21.19    4.17
  -3  -8  -4   11.21    3.47
   3   8   4   14.32    2.33
   3   8   4   15.46    4.06
   3   8   4   11.76    2.11
  -4  -8  -4   30.25    4.42
  -4  -8  -4   21.01    4.45
   4   8   4   32.91    5.02
   4   8   4   24.61    3.43
   4   8   4   20.78    3.25
  -5  -8  -4    6.15    3.06
  -5  -8  -4    7.64    3.17
   5   8   4    2.91    3.06
   6  -9  -4   11.01    2.19
   6  -9  -4   18.47    2.60
   6  -9  -4   16.13    2.28
  -6   9   4   15.13    4.46
   5  -9  -4   16.82    2.58
   5  -9  -4   16.95    2.75
   5  -9  -4   15.88    2.54
  -5   9   4   15.55    4.20
   4  -9  -4    7.00    2.08
   4  -9  -4    8.43    2.27
   4  -9  -4    7.83    2.23
   4  -9  -4   13.01    2.59
  -4   9   4   10.43    3.43
   3  -9  -4   38.00    3.63
   3  -9  -4   38.22    5.85
   3  -9  -4   38.86    3.83
   3  -9  -4   41.00    4.06
  -3   9   4   37.06    3.35
  -3   9   4   34.25    4.52
   2  -9  -4    9.03    3.34
   2  -9  -4   17.11    3.32
   2  -9  -4   24.84    3.75
  -2   9   4   19.43    3.09
  -2   9   4   15.38    3.51
   1  -9  -4    2.56    2.58
   1  -9  -4    3.90    2.21
  -1   9   4    4.44    2.23
   0  -9  -4   34.65    4.97
   0  -9  -4   27.19    3.75
   0   9   4   24.81    3.79
  -1  -9  -4   13.82    3.77
  -1  -9  -4   23.17    4.10
   1   9   4    8.87    3.04
  -2  -9  -4    0.63    2.11
  -2  -9  -4   -0.76    2.66
   2   9   4   -0.91    1.82
  -3  -9  -4   30.85    5.45
  -3  -9  -4   36.28    4.88
   3   9   4   32.25    4.99
   4 -10  -4   21.03    3.28
   4 -10  -4   22.90    3.65
   3 -10  -4   18.36    3.28
   2 -10  -4   -0.89    1.81
  -2  10   4    0.18    1.79
   1 -10  -4    6.63    2.65
  -1  10   4    6.63    2.80
   0 -10  -4   30.59    4.31
   0  10   4   28.26    4.48
  -1 -10  -4    1.08    2.19
   1  10   4   -1.90    1.86
   1  11  -5   10.43    3.52
  -1 -11   5   18.18    3.99
   0  11  -5    6.91    2.88
   0 -11   5    9.30    2.88
  -1  11  -5    8.25    3.03
   1 -11   5    8.60    2.94
   4  10  -5    9.18    3.33
   4  10  -5    6.16    1.80
  -4 -10   5    0.75    2.58
   3  10  -5   -0.63    1.89
  -3 -10   5   -0.63    2.18
   2  10  -5   39.39    4.84
  -2 -10   5   39.76    4.58
   1  10  -5   15.96    3.63
  -1 -10   5   17.79    3.94
   0  10  -5    1.54    2.06
   0 -10   5   -0.18    1.71
   0 -10   5    0.65    2.21
  -1  10  -5   32.43    4.13
   1 -10   5   35.85    3.96
  -2  10  -5   24.15    3.56
   2 -10   5   19.10    3.56
  -3  10  -5   -1.33    1.58
   3 -10   5   -0.48    1.60
   3 -10   5    0.09    1.66
   4 -10   5   13.55    2.78
   4 -10   5   15.62    2.99
   6   9  -5    7.28    3.35
   5   9  -5   36.85    5.17
  -5  -9   5   47.93    5.15
   4   9  -5   -0.91    1.70
   4   9  -5    1.25    1.73
   4   9  -5   -0.11    1.51
  -4  -9   5    1.36    2.05
   3   9  -5   10.99    1.95
   3   9  -5   21.69    4.57
   3   9  -5   11.98    2.06
  -3  -9   5   17.02    3.67
   2   9  -5   60.05    5.34
  -2  -9   5   55.99    4.80
   1   9  -5    3.96    2.40
  -1  -9   5    2.43    2.05
  -1  -9   5    0.93    1.68
   0   9  -5   19.87    3.36
   0  -9   5   22.39    3.70
   0  -9   5   20.32    4.14
  -1   9  -5   52.86    4.58
   1  -9   5   47.15    5.55
   1  -9   5   59.86    4.48
  -2   9  -5    8.17    2.39
   2  -9   5   17.61    3.26
   2  -9   5    9.33    2.95
   2  -9   5   11.69    2.64
  -3   9  -5   17.03    2.95
   3  -9   5   19.40    3.25
   3  -9   5   10.19    3.07
   3  -9   5   20.27    2.82
   3  -9   5   12.60    2.55
   4  -9   5   32.32    3.40
   4  -9   5   32.60    3.69
   4  -9   5   40.22    3.61
   5  -9   5    7.00    2.09
   5  -9   5   15.07    2.64
   5  -9   5   11.12    2.59
   6  -9   5    6.83    1.57
   6  -9   5   11.62    2.55
   6  -9   5   11.19    2.41
   7   8  -5   19.55    3.89
   7   8  -5   23.69    4.95
  -7  -8   5   12.25    3.02
   6   8  -5   21.98    3.95
   6   8  -5   20.75    4.66
   5   8  -5   15.40    3.20
   5   8  -5   25.67    5.19
  -5  -8   5   16.55    3.51
   4   8  -5   28.14    3.05
   4   8  -5   15.76    3.47
   4   8  -5   25.33    3.91
   4   8  -5   19.89    2.98
  -4  -8   5   14.72    3.19
   3   8  -5   46.33    3.48
   3   8  -5   50.73    4.76
   3   8  -5   46.71    3.44
  -3  -8   5   42.48    4.11
   2   8  -5   36.34    4.02
   2   8  -5   37.11    2.50
   2   8  -5   39.73    2.73
  -2  -8   5   37.16    3.78
   1   8  -5   12.62    2.72
  -1  -8   5   15.09    2.88
  -1  -8   5   15.26    3.34
   0   8  -5   72.43    5.17
   0  -8   5   71.12    4.74
   0  -8   5   73.71    4.96
   0  -8   5   72.41    6.03
   0  -8   5   73.69    4.88
  -1   8  -5   23.73    3.10
   1  -8   5   27.66    3.11
   1  -8   5   27.86    3.05
   1  -8   5   28.15    3.21
   1  -8   5   27.54    4.08
   1  -8   5   26.23    3.09
  -2   8  -5    9.80    2.35
   2  -8   5    4.92    1.70
   2  -8   5    4.43    1.72
   2  -8   5    5.83    2.42
   2  -8   5    6.29    1.84
   2  -8   5    3.97    1.77
  -3   8  -5   50.35    3.91
   3  -8   5   59.32    5.71
   3  -8   5   60.32    4.08
   3  -8   5   53.13    4.14
   3  -8   5   58.02    3.98
  -4   8  -5   15.71    2.57
   4  -8   5   13.37    2.68
   4  -8   5   11.79    2.24
   4  -8   5    8.20    2.86
   4  -8   5   12.92    2.22
   5  -8   5    0.77    1.15
   5  -8   5    1.96    1.31
   5  -8   5    1.76    1.55
   5  -8   5   -0.18    1.36
   5  -8   5    0.56    1.70
   6  -8   5   33.35    3.46
   6  -8   5   30.69    3.29
   6  -8   5   29.01    3.21
   7  -8   5    3.64    1.96
   7  -8   5    2.95    1.84
   7  -8   5    4.12    1.54
   8   7  -5   -1.10    2.02
   8   7  -5   -2.09    2.56
   7   7  -5   34.98    4.86
   7   7  -5   37.75    4.43
  -7  -7   5   29.58    3.90
  -7  -7   5   35.43    3.66
   6   7  -5   17.69    3.64
   6   7  -5   21.08    4.54
  -6  -7   5   22.40    3.55
   5   7  -5   -1.02    1.60
   5   7  -5    0.68    1.74
  -5  -7   5    1.31    1.86
   4   7  -5   93.78    5.43
   4   7  -5   99.85    5.70
   4   7  -5  105.72    6.74
  -4  -7   5   95.99    5.83
   3   7  -5   42.91    3.59
   3   7  -5   43.81    3.31
   3   7  -5   45.80    4.27
   3   7  -5   41.87    3.36
  -3  -7   5   41.08    3.73
   2   7  -5    0.41    1.23
   2   7  -5   -1.69    0.78
   2   7  -5    0.68    0.90
   2   7  -5    0.51    1.35
  -2  -7   5   -0.72    1.26
   1   7  -5   70.54    4.86
   1   7  -5   69.35    2.78
   1   7  -5   66.91    2.87
  -1  -7   5   71.11    5.04
  -1  -7   5   65.09    5.20
  -1  -7   5   71.60    4.47
  -1  -7   5   63.18    4.40
  -1  -7   5   67.83    4.61
   0   7  -5   52.07    4.09
   0  -7   5   51.99    3.85
   0  -7   5   56.73    3.96
   0  -7   5   50.88    4.18
   0  -7   5   55.34    3.76
   0  -7   5   45.61    3.32
   0  -7   5   55.42    4.89
   0  -7   5   52.75    3.98
  -1   7  -5   -0.59    1.01
   1  -7   5    1.12    1.27
   1  -7   5    0.82    1.19
   1  -7   5    0.00    0.93
   1  -7   5   -0.49    1.03
   1  -7   5   -0.09    0.92
   1  -7   5    1.38    1.10
   1  -7   5    0.16    1.32
  -2   7  -5   39.04    3.28
   2  -7   5   34.92    3.32
   2  -7   5   32.95    2.89
   2  -7   5   39.27    3.13
   2  -7   5   34.75    4.14
   2  -7   5   31.87    3.10
  -3   7  -5   65.88    4.17
   3  -7   5   63.76    5.58
   3  -7   5   65.03    4.23
   3  -7   5   61.67    4.05
   3  -7   5   65.54    4.27
   3  -7   5   59.99    3.75
   3  -7   5   65.35    4.00
  -4   7  -5    0.50    1.32
   4  -7   5    0.13    0.97
   4  -7   5    0.22    1.12
   4  -7   5   -0.10    0.85
   4  -7   5   -0.34    1.04
   4  -7   5    0.57    1.49
   5  -7   5   13.17    2.41
   5  -7   5   10.32    2.16
   5  -7   5   13.45    3.38
   5  -7   5   13.90    1.87
   5  -7   5   15.34    2.35
   6  -7   5   57.57    3.98
   6  -7   5   50.84    3.89
   6  -7   5   47.84    3.65
   6  -7   5   58.68    3.50
   6  -7   5   48.56    5.47
   7  -7   5    1.26    2.20
   7  -7   5   -0.07    1.65
   7  -7   5   -0.07    1.09
   8   6  -5    9.95    3.09
   8   6  -5   13.54    4.01
   7   6  -5   62.25    5.63
  -7  -6   5   56.82    3.81
  -7  -6   5   49.42    3.97
   6   6  -5    3.17    2.03
  -6  -6   5    0.03    2.14
  -6  -6   5    0.76    1.50
  -6  -6   5   -1.71    1.28
   5   6  -5   29.33    3.76
  -5  -6   5   30.47    3.23
  -5  -6   5   26.53    3.16
  -5  -6   5   34.51    3.23
   4   6  -5   79.86    4.74
   4   6  -5   92.41    5.88
  -4  -6   5   95.72    5.61
  -4  -6   5   82.58    5.03
  -4  -6   5   88.85    4.95
   3   6  -5    9.19    2.37
   3   6  -5    9.71    1.98
   3   6  -5    6.43    2.11
  -3  -6   5    7.07    2.23
  -3  -6   5   11.75    2.33
  -3  -6   5    3.48    2.00
  -3  -6   5    6.87    1.90
   2   6  -5   21.34    2.22
   2   6  -5   25.61    2.95
   2   6  -5   28.61    3.18
   2   6  -5   20.19    2.61
   2   6  -5   26.09    2.80
  -2  -6   5   29.54    3.10
  -2  -6   5   18.93    2.41
  -2  -6   5   24.30    2.78
  -2  -6   5   24.70    2.54
  -2  -6   5   26.32    2.73
  -2  -6   5   26.22    2.71
   1   6  -5   89.22    4.79
   1   6  -5   87.10    3.92
   1   6  -5   82.27    5.14
   1   6  -5   82.52    5.03
   1   6  -5   90.78    4.81
   1   6  -5   80.58    3.67
  -1  -6   5   85.14    4.63
  -1  -6   5   89.99    5.25
  -1  -6   5   90.25    4.91
  -1  -6   5   86.79    4.92
  -1  -6   5   84.64    3.84
  -1  -6   5   85.62    4.76
  -1  -6   5   84.49    4.66
  -1  -6   5   86.91    4.53
   0   6  -5   19.22    2.29
   0   6  -5   17.64    1.68
   0   6  -5   17.05    2.39
   0   6  -5   16.99    2.43
   0  -6   5   17.38    2.08
   0  -6   5   15.83    2.30
   0  -6   5   15.98    2.20
   0  -6   5   20.23    2.06
   0  -6   5   17.01    2.74
   0  -6   5   18.75    2.34
   0  -6   5   22.47    2.15
   0  -6   5   18.10    2.17
  -1   6  -5   42.43    3.34
   1  -6   5   42.63    3.30
   1  -6   5   44.91    3.24
   1  -6   5   43.76    4.10
   1  -6   5   45.69    3.11
   1  -6   5   39.12    3.13
   1  -6   5   41.88    3.10
   1  -6   5   48.62    3.52
   1  -6   5   44.40    3.20
  -2   6  -5   79.53    4.52
   2  -6   5   83.18    4.48
   2  -6   5   78.86    5.65
   2  -6   5   82.68    4.31
   2  -6   5   78.38    4.45
   2  -6   5   86.33    4.27
   2  -6   5   74.16    4.39
  -3   6  -5   43.37    3.36
   3  -6   5   42.04    3.12
   3  -6   5   39.82    3.20
   3  -6   5   40.64    4.19
   3  -6   5   49.88    3.31
   3  -6   5   43.93    3.24
   3  -6   5   48.62    2.95
  -4   6  -5   39.83    3.09
   4  -6   5   38.23    3.06
   4  -6   5   33.72    2.45
   4  -6   5   45.01    4.44
   4  -6   5   37.23    2.98
   4  -6   5   30.06    2.73
  -5   6  -5   46.54    2.89
   5  -6   5   38.99    2.63
   5  -6   5   35.35    2.78
   5  -6   5   44.46    3.31
   5  -6   5   41.34    4.49
   5  -6   5   42.87    3.31
   6  -6   5   37.38    4.48
   6  -6   5   36.29    3.31
   6  -6   5   38.82    2.65
   6  -6   5   40.86    2.91
   6  -6   5   35.11    3.18
   7  -6   5   10.50    3.12
   7  -6   5   18.14    2.93
   7  -6   5   17.16    2.16
   7  -6   5   13.67    2.46
   8  -6   5   10.74    2.42
   8  -6   5   13.93    2.33
  -9  -5   5   14.76    5.62
   8   5  -5   24.44    4.50
   7   5  -5   28.80    3.90
  -7  -5   5   22.16    2.17
  -7  -5   5   23.91    2.34
   6   5  -5   20.83    3.92
  -6  -5   5   22.62    3.89
  -6  -5   5   21.18    2.66
  -6  -5   5   20.44    2.48
   5   5  -5   58.87    4.67
  -5  -5   5   50.44    3.73
  -5  -5   5   58.19    3.70
  -5  -5   5   61.73    3.26
  -5  -5   5   56.68    3.94
   4   5  -5   54.79    3.86
   4   5  -5   48.05    3.42
   4   5  -5   42.78    3.82
   4   5  -5   49.97    4.04
   4   5  -5   45.23    3.35
  -4  -5   5   45.57    3.64
  -4  -5   5   45.19    3.39
  -4  -5   5   40.35    3.27
  -4  -5   5   44.47    3.29
   3   5  -5   15.12    2.15
   3   5  -5   10.62    2.27
   3   5  -5   15.95    2.28
   3   5  -5   15.22    2.04
   3   5  -5   15.39    2.20
   3   5  -5   12.77    2.49
  -3  -5   5   15.50    1.98
  -3  -5   5   13.38    1.96
  -3  -5   5   11.45    2.25
  -3  -5   5    7.12    1.69
  -3  -5   5   15.45    2.11
  -3  -5   5   15.29    2.22
  -3  -5   5   15.90    2.26
   2   5  -5  133.83    6.02
   2   5  -5  118.03    6.26
   2   5  -5  127.90    5.36
   2   5  -5  119.28    6.17
   2   5  -5  124.19    5.94
  -2  -5   5  133.27    6.08
  -2  -5   5  124.02    5.77
  -2  -5   5  131.97    5.66
  -2  -5   5  123.96    6.32
  -2  -5   5  128.38    6.05
  -2  -5   5  126.73    5.87
  -2  -5   5  120.11    5.61
   1   5  -5   50.53    3.25
   1   5  -5   48.20    2.78
   1   5  -5   47.83    3.21
   1   5  -5   52.65    3.67
   1   5  -5   40.99    3.27
  -1  -5   5   48.82    3.29
  -1  -5   5   48.52    3.51
  -1  -5   5   49.15    3.37
  -1  -5   5   46.35    2.47
  -1  -5   5   47.69    3.12
  -1  -5   5   49.84    3.18
  -1  -5   5   50.10    3.03
   0   5  -5   11.96    1.89
   0   5  -5   11.76    1.67
   0   5  -5   12.77    1.93
   0   5  -5   12.25    1.79
   0   5  -5   12.23    1.04
   0   5  -5   12.21    0.93
   0  -5   5    6.69    1.79
   0  -5   5   12.19    1.81
   0  -5   5   11.04    1.78
   0  -5   5   12.03    1.86
   0  -5   5    9.02    1.40
   0  -5   5   10.47    1.83
   0  -5   5   11.76    1.85
   0  -5   5    8.93    1.60
   0  -5   5   11.97    1.71
   0  -5   5   10.65    1.61
  -1   5  -5  188.54    7.67
  -1   5  -5  190.83    7.76
  -1   5  -5  186.36    7.30
   1  -5   5  199.26    7.61
   1  -5   5  192.88    7.33
   1  -5   5  188.86    8.75
   1  -5   5  189.88    7.68
   1  -5   5  192.18    7.66
   1  -5   5  179.70    7.42
   1  -5   5  192.11    7.36
  -2   5  -5   60.46    3.71
   2  -5   5   62.56    3.67
   2  -5   5   63.13    3.72
   2  -5   5   64.88    4.66
   2  -5   5   57.24    3.23
   2  -5   5   64.98    3.60
   2  -5   5   63.60    3.60
   2  -5   5   57.63    3.85
  -3   5  -5    2.80    1.30
   3  -5   5    1.95    0.75
   3  -5   5    2.23    1.03
   3  -5   5    3.32    1.14
   3  -5   5    4.13    1.32
   3  -5   5    1.83    1.31
  -4   5  -5  109.54    5.41
   4  -5   5  121.83    5.59
   4  -5   5  118.45    6.90
   4  -5   5  113.87    5.03
   4  -5   5  116.90    5.33
  -5   5  -5   16.54    2.05
   5  -5   5   16.71    2.21
   5  -5   5   15.28    2.40
   5  -5   5   20.66    3.15
   5  -5   5   20.96    1.81
   5  -5   5   18.91    1.82
  -6   5  -5    7.15    1.37
   6  -5   5    6.57    1.40
   6  -5   5    4.22    1.66
   6  -5   5    6.57    2.39
   6  -5   5    6.32    1.68
   7  -5   5   51.83    3.61
   7  -5   5   56.63    5.21
   7  -5   5   42.67    3.14
   8  -5   5    2.32    1.34
   8  -5   5    5.14    1.95
   8  -5   5    6.68    2.27
   9  -5   5    4.87    2.16
   9  -5   5    5.54    2.24
   9  -5   5    3.33    1.62
  -9  -4   5   33.98    7.33
   8   4  -5   18.95    3.93
  -8  -4   5   15.96    5.34
   7   4  -5    1.55    1.80
   6   4  -5   87.56    5.53
   6   4  -5   72.61    5.18
  -6  -4   5   82.05    3.93
  -6  -4   5   83.91    4.12
  -6  -4   5   73.74    3.72
   5   4  -5   49.08    3.73
   5   4  -5   58.99    4.20
   5   4  -5   45.84    3.68
   5   4  -5   51.28    4.07
   5   4  -5   52.28    3.91
  -5  -4   5   53.88    3.17
  -5  -4   5   43.80    3.66
  -5  -4   5   45.62    3.27
  -5  -4   5   47.04    3.22
  -5  -4   5   49.95    3.11
   4   4  -5    1.01    0.77
   4   4  -5    1.00    0.91
   4   4  -5    0.55    0.83
   4   4  -5    0.63    0.89
   4   4  -5    0.48    0.92
   4   4  -5    0.79    0.99
   4   4  -5    1.48    1.16
   4   4  -5    1.34    1.32
  -4  -4   5   -0.11    0.83
  -4  -4   5   -0.01    0.82
  -4  -4   5    0.43    0.92
  -4  -4   5    1.08    0.90
   3   4  -5  106.38    5.14
   3   4  -5  103.84    5.42
   3   4  -5  100.91    5.48
   3   4  -5  111.74    4.94
   3   4  -5  104.14    5.09
   3   4  -5  105.79    5.20
   3   4  -5  112.97    4.86
  -3  -4   5  105.50    4.82
  -3  -4   5  102.50    4.88
  -3  -4   5  104.60    4.97
  -3  -4   5  108.61    5.23
  -3  -4   5   97.79    5.49
   2   4  -5  136.58    5.92
   2   4  -5  133.88    5.47
   2   4  -5  133.22    6.25
   2   4  -5  132.96    5.41
   2   4  -5  133.25    5.75
   2   4  -5  137.93    6.25
   2   4  -5  132.72    5.88
   2   4  -5  138.21    5.78
  -2  -4   5  126.44    5.60
  -2  -4   5  130.75    5.51
  -2  -4   5  135.27    5.92
  -2  -4   5  135.31    5.81
  -2  -4   5  137.45    5.98
   1   4  -5    0.05    0.71
   1   4  -5    0.62    0.75
   1   4  -5   -0.32    0.62
   1   4  -5    0.66    0.81
   1   4  -5   -0.21    0.73
   1   4  -5    1.00    0.60
  -1  -4   5    1.21    0.83
  -1  -4   5    0.07    0.74
  -1  -4   5    0.52    0.68
  -1  -4   5   -0.29    0.64
  -1  -4   5   -0.06    0.49
  -1  -4   5    0.90    0.82
  -1  -4   5    0.62    0.85
  -1  -4   5   -0.12    0.74
   0   4  -5   84.60    4.31
   0   4  -5   84.56    4.39
   0   4  -5   87.61    3.55
   0   4  -5   81.77    4.07
   0   4  -5   89.14    4.08
   0  -4   5   85.62    3.83
   0  -4   5   79.47    4.24
   0  -4   5   75.90    4.10
   0  -4   5   88.68    4.00
   0  -4   5   86.06    3.84
   0  -4   5   80.65    4.11
   0  -4   5   77.87    3.96
   0  -4   5   87.79    4.13
  -1   4  -5  217.60    7.89
  -1   4  -5  229.50    8.08
  -1   4  -5  222.24    8.45
  -1   4  -5  229.28    8.31
   1  -4   5  215.21    8.15
   1  -4   5  227.88    8.35
   1  -4   5  233.55    8.11
   1  -4   5  220.64    9.27
   1  -4   5  227.53    7.71
   1  -4   5  219.22    8.39
   1  -4   5  218.23    8.30
  -2   4  -5    2.19    1.14
  -2   4  -5    2.47    0.90
   2  -4   5    1.02    0.66
   2  -4   5    1.47    0.93
   2  -4   5    3.67    1.18
   2  -4   5    1.66    1.15
   2  -4   5    3.36    1.28
   2  -4   5    2.72    1.11
  -3   4  -5   17.68    2.22
   3  -4   5   17.02    2.09
   3  -4   5   17.37    2.06
   3  -4   5   16.16    2.46
   3  -4   5   18.52    1.95
   3  -4   5   15.66    1.55
   3  -4   5   17.82    2.41
   3  -4   5   14.73    1.62
  -4   4  -5  127.01    5.71
   4  -4   5  120.29    4.92
   4  -4   5  123.97    5.04
   4  -4   5  131.28    5.47
   4  -4   5  128.88    6.80
   4  -4   5  124.26    5.85
   4  -4   5  129.59    5.98
  -5   4  -5    1.91    1.11
   5  -4   5    0.10    1.15
   5  -4   5    0.31    0.89
   5  -4   5    2.27    1.26
   5  -4   5    0.78    0.82
  -6   4  -5    4.99    2.28
  -6   4  -5    2.87    1.17
   6  -4   5    2.35    1.51
   6  -4   5    2.54    1.16
   6  -4   5    2.87    1.52
   6  -4   5    2.05    1.01
  -7   4  -5   75.06    3.85
  -7   4  -5   87.92    6.74
   7  -4   5   83.71    5.21
   7  -4   5   82.35    4.55
   7  -4   5   82.55    4.41
  -8   4  -5   -0.44    2.37
   8  -4   5    0.16    1.29
   8  -4   5    1.20    1.29
   8  -4   5    0.47    1.26
   8  -4   5    4.68    2.09
  -9   4  -5    2.09    3.19
   9  -4   5    0.49    1.85
   9  -4   5    1.39    1.72
   9  -4   5    2.90    1.47
 -10  -3   5    7.96    4.86
  -9  -3   5   40.41    6.70
  -8  -3   5   -0.78    2.72
   7   3  -5   13.13    3.84
   7   3  -5   19.84    3.00
   7   3  -5   19.36    3.08
   7   3  -5   20.90    2.98
  -7  -3   5   25.01    5.29
  -7  -3   5   19.94    2.35
   6   3  -5   94.80    5.60
   6   3  -5   99.17    5.54
   6   3  -5  104.96    5.72
   6   3  -5   95.92    5.41
   6   3  -5   99.81    5.72
  -6  -3   5  107.10    5.00
   5   3  -5   25.14    2.59
   5   3  -5   22.80    2.47
   5   3  -5   25.95    2.61
   5   3  -5   21.32    2.48
   5   3  -5   24.78    2.58
   5   3  -5   22.35    2.57
   5   3  -5   25.68    2.77
   5   3  -5   24.90    2.74
  -5  -3   5   24.62    2.22
  -5  -3   5   29.49    2.10
  -5  -3   5   26.46    2.32
  -5  -3   5   25.27    1.94
   4   3  -5   51.70    3.58
   4   3  -5   43.32    3.30
   4   3  -5   48.36    3.25
   4   3  -5   49.94    3.29
   4   3  -5   50.88    3.34
   4   3  -5   46.24    3.00
   4   3  -5   46.76    3.02
   4   3  -5   51.18    3.36
  -4  -3   5   45.05    2.78
  -4  -3   5   51.07    2.96
  -4  -3   5   46.46    2.73
   3   3  -5  181.56    7.13
   3   3  -5  170.77    7.43
   3   3  -5  184.70    6.84
   3   3  -5  182.45    7.15
   3   3  -5  187.41    7.49
   3   3  -5  178.98    6.85
   3   3  -5  168.47    7.08
  -3  -3   5  181.45    6.79
  -3  -3   5  178.56    6.67
  -3  -3   5  181.00    6.84
   2   3  -5   82.56    4.08
   2   3  -5   82.67    4.02
   2   3  -5   81.25    4.34
   2   3  -5   81.00    3.72
   2   3  -5   85.33    3.83
   2   3  -5   81.73    4.25
   2   3  -5   76.58    3.86
   2   3  -5   79.20    4.40
  -2  -3   5   81.88    3.82
  -2  -3   5   83.22    3.86
  -2  -3   5   78.84    3.72
  -2  -3   5   88.77    4.09
   1   3  -5   61.37    3.77
   1   3  -5   55.42    3.06
   1   3  -5   60.79    3.22
   1   3  -5   57.55    2.91
   1   3  -5   56.35    2.90
   1   3  -5   57.27    2.59
   1   3  -5   59.03    3.43
   1   3  -5   62.18    3.14
   1   3  -5   60.75    3.22
   1   3  -5   58.19    3.40
  -1  -3   5   63.71    3.08
  -1  -3   5   61.66    3.31
  -1  -3   5   58.37    3.06
  -1  -3   5   63.31    3.08
   0   3  -5  146.97    5.68
   0   3  -5  151.15    6.67
   0   3  -5  145.68    5.30
   0   3  -5  158.77    6.03
   0   3  -5  152.41    6.23
   0   3  -5  150.66    5.85
   0   3  -5  151.15    6.07
   0   3  -5  154.84    5.59
   0  -3   5  157.13    5.91
   0  -3   5  150.95    6.10
   0  -3   5  151.53    6.06
   0  -3   5  156.36    5.83
   0  -3   5  151.29    5.62
  -1   3  -5  133.78    5.39
  -1   3  -5  126.79    5.18
  -1   3  -5  131.82    5.53
  -1   3  -5  127.54    5.60
  -1   3  -5  129.61    6.05
  -1   3  -5  126.10    5.09
   1  -3   5  134.13    5.38
   1  -3   5  130.83    4.90
   1  -3   5  134.88    5.24
   1  -3   5  132.02    5.54
   1  -3   5  129.07    5.46
  -2   3  -5   44.64    2.46
  -2   3  -5   46.91    2.84
  -2   3  -5   46.41    3.17
  -2   3  -5   45.68    2.56
  -2   3  -5   47.23    3.22
   2  -3   5   49.28    3.10
   2  -3   5   50.24    2.87
   2  -3   5   43.83    3.09
   2  -3   5   49.14    3.12
   2  -3   5   50.10    2.91
  -3   3  -5   56.40    3.81
  -3   3  -5   56.64    3.60
   3  -3   5   52.34    3.71
   3  -3   5   55.14    2.97
   3  -3   5   59.12    3.51
   3  -3   5   56.79    3.84
   3  -3   5   59.07    3.19
   3  -3   5   59.65    3.68
  -4   3  -5   99.13    5.01
  -4   3  -5  102.58    5.67
  -4   3  -5   96.06    5.64
   4  -3   5  100.48    5.14
   4  -3   5  100.09    4.37
   4  -3   5  107.59    5.22
   4  -3   5  104.72    4.59
   4  -3   5  111.79    5.68
  -5   3  -5   32.77    3.57
  -5   3  -5   35.01    2.78
  -5   3  -5   36.14    3.62
   5  -3   5   32.13    2.39
   5  -3   5   32.45    3.04
   5  -3   5   34.54    2.56
   5  -3   5   35.30    3.02
  -6   3  -5   20.18    2.40
  -6   3  -5   22.34    3.62
   6  -3   5   25.50    2.51
   6  -3   5   28.95    2.91
   6  -3   5   23.58    2.44
   6  -3   5   22.38    2.21
  -7   3  -5   57.16    5.42
  -7   3  -5   64.39    3.91
   7  -3   5   62.05    3.86
   7  -3   5   57.88    4.43
   7  -3   5   68.42    4.14
   7  -3   5   61.54    4.37
  -8   3  -5    6.39    3.14
  -8   3  -5    8.99    1.99
   8  -3   5    6.03    2.11
   8  -3   5    6.16    2.19
   8  -3   5    6.37    1.91
   8  -3   5    9.70    2.09
  -9   3  -5    1.00    3.00
   9  -3   5    2.58    2.08
   9  -3   5    3.43    2.47
   9  -3   5    2.16    1.61
 -10  -2   5   25.45    6.34
  -9  -2   5   18.06    5.32
   8   2  -5    6.80    2.24
   8   2  -5    8.78    2.32
   8   2  -5    9.53    2.52
  -8  -2   5    5.15    1.88
  -8  -2   5    8.81    3.65
   7   2  -5   70.92    4.75
   7   2  -5   72.41    4.64
   7   2  -5   77.16    4.77
   7   2  -5   72.20    4.75
   7   2  -5   61.59    4.37
  -7  -2   5   67.32    4.25
  -7  -2   5   53.27    5.91
   6   2  -5   64.92    4.06
   6   2  -5   65.87    4.17
   6   2  -5   63.86    4.22
   6   2  -5   58.52    3.83
   6   2  -5   57.15    3.98
   6   2  -5   70.31    3.41
  -6  -2   5   62.02    5.75
  -6  -2   5   59.04    3.74
   5   2  -5    5.19    1.45
   5   2  -5    7.56    1.80
   5   2  -5    3.98    0.96
   5   2  -5    4.24    1.29
   5   2  -5    5.01    1.32
   5   2  -5    3.26    1.34
   5   2  -5    3.88    1.19
   5   2  -5    4.63    1.33
  -5  -2   5    5.76    1.24
  -5  -2   5    2.94    1.26
   4   2  -5  167.69    6.96
   4   2  -5  179.08    7.01
   4   2  -5  179.78    6.97
   4   2  -5  182.41    7.46
   4   2  -5  181.21    7.24
   4   2  -5  180.85    6.71
   4   2  -5  176.96    5.83
   4   2  -5  170.21    6.93
   4   2  -5  179.41    6.69
  -4  -2   5  173.53    6.00
  -4  -2   5  181.52    7.09
  -4  -2   5  172.35    6.00
  -4  -2   5  168.79    6.31
   3   2  -5  102.19    4.50
   3   2  -5  102.64    4.49
   3   2  -5   92.20    4.55
   3   2  -5   91.79    4.15
   3   2  -5   91.77    4.21
   3   2  -5   90.56    4.70
   3   2  -5   95.59    4.14
   3   2  -5   94.47    4.39
   3   2  -5  103.56    4.51
  -3  -2   5   97.85    3.99
  -3  -2   5   92.09    3.99
  -3  -2   5   96.99    3.99
   2   2  -5    3.55    1.00
   2   2  -5    3.33    0.90
   2   2  -5    2.66    1.03
   2   2  -5    3.60    1.07
   2   2  -5    1.90    0.85
   2   2  -5    3.17    1.21
   2   2  -5    5.01    1.09
   2   2  -5    4.70    1.11
   2   2  -5    1.01    0.72
  -2  -2   5    1.43    0.80
  -2  -2   5    3.42    1.01
  -2  -2   5    2.16    0.87
  -2  -2   5    1.96    0.81
  -2  -2   5    2.62    0.92
   1   2  -5  285.35    9.32
   1   2  -5  287.88    9.61
   1   2  -5  293.06    9.51
   1   2  -5  288.81    9.40
   1   2  -5  291.61    9.68
   1   2  -5  288.67    9.71
  -1  -2   5  286.57    9.69
  -1  -2   5  278.49    9.50
  -1  -2   5  287.18    9.41
   0   2  -5   80.41    3.63
   0   2  -5   76.93    3.60
   0   2  -5   66.36    3.33
   0   2  -5   64.99    3.56
   0   2  -5   78.19    3.37
   0   2  -5   69.00    3.24
   0   2  -5   74.45    3.17
   0   2  -5   71.85    3.26
   0  -2   5   74.49    3.42
   0  -2   5   79.66    3.71
   0  -2   5   73.24    3.60
   0  -2   5   70.27    3.23
   0  -2   5   71.58    3.45
  -1   2  -5    8.09    1.57
  -1   2  -5    6.80    0.87
  -1   2  -5    8.30    1.45
  -1   2  -5    8.52    1.40
  -1   2  -5    8.53    1.68
  -1   2  -5    8.95    1.03
  -1   2  -5    8.05    1.10
   1  -2   5    8.87    1.18
   1  -2   5    8.27    1.52
   1  -2   5    7.96    1.64
   1  -2   5    7.20    1.45
   1  -2   5    4.41    1.29
   1  -2   5    8.25    1.30
   1  -2   5    6.97    1.42
  -2   2  -5  258.03    8.10
  -2   2  -5  255.23    9.47
  -2   2  -5  250.77    8.87
  -2   2  -5  245.20    8.20
  -2   2  -5  240.48    9.36
  -2   2  -5  253.27    9.45
   2  -2   5  262.09    8.89
   2  -2   5  256.92    8.94
   2  -2   5  252.38    9.45
   2  -2   5  255.80    8.38
   2  -2   5  260.15    8.50
   2  -2   5  260.34    9.24
  -3   2  -5   43.41    3.14
  -3   2  -5   38.74    1.80
  -3   2  -5   41.26    3.01
  -3   2  -5   40.23    2.50
  -3   2  -5   43.23    3.29
  -3   2  -5   45.00    3.03
   3  -2   5   45.51    3.03
   3  -2   5   42.72    3.12
   3  -2   5   47.25    2.70
   3  -2   5   42.91    2.58
  -4   2  -5   21.71    2.63
  -4   2  -5   22.06    2.39
  -4   2  -5   20.76    2.47
   4  -2   5   21.18    2.39
   4  -2   5   20.45    1.83
   4  -2   5   20.68    2.28
   4  -2   5   19.48    1.90
  -5   2  -5  123.11    6.44
  -5   2  -5  131.91    6.81
  -5   2  -5  120.66    5.74
   5  -2   5  113.14    5.64
   5  -2   5  116.16    5.81
   5  -2   5  125.23    5.39
   5  -2   5  119.47    5.67
   5  -2   5  114.71    5.21
  -6   2  -5   14.20    2.96
  -6   2  -5   16.00    2.27
  -6   2  -5   19.28    3.07
   6  -2   5   15.07    2.06
   6  -2   5   18.67    2.66
   6  -2   5   17.99    2.51
   6  -2   5   22.26    2.29
  -7   2  -5   21.26    2.84
  -7   2  -5   25.75    3.74
   7  -2   5   25.02    3.13
   7  -2   5   22.57    2.64
   7  -2   5   18.84    3.05
   7  -2   5   23.97    2.66
  -8   2  -5   37.41    4.72
  -8   2  -5   41.90    3.63
   8  -2   5   37.65    3.61
   8  -2   5   37.74    4.12
   8  -2   5   38.68    3.52
   8  -2   5   37.96    4.19
  -9   2  -5    1.49    1.84
  -9   2  -5    5.57    2.99
   9  -2   5    3.34    2.16
   9  -2   5    2.74    1.53
  10   1  -5   11.86    4.40
 -10  -1   5   15.66    5.36
   9   1  -5    1.14    1.59
   9   1  -5    1.23    1.50
  -9  -1   5    0.98    2.69
  -9  -1   5    1.41    1.82
   8   1  -5   37.38    3.70
   8   1  -5   38.17    3.65
   8   1  -5   41.73    3.71
   8   1  -5   41.16    3.57
  -8  -1   5   43.85    3.87
  -8  -1   5   30.32    5.20
   7   1  -5   72.08    4.19
   7   1  -5   63.91    4.36
   7   1  -5   68.63    4.27
   7   1  -5   65.24    4.30
   7   1  -5   59.84    4.06
   7   1  -5   60.89    4.02
  -7  -1   5   62.15    6.11
  -7  -1   5   65.06    4.38
   6   1  -5    2.64    0.99
   6   1  -5    0.28    0.87
   6   1  -5    1.25    1.18
   6   1  -5    0.42    1.06
   6   1  -5    2.43    1.11
   6   1  -5    3.20    1.20
  -6  -1   5    1.58    1.95
  -6  -1   5    3.40    1.60
   5   1  -5   79.51    3.98
   5   1  -5   77.16    4.03
   5   1  -5   76.55    4.11
   5   1  -5   75.21    3.79
   5   1  -5   71.46    3.87
   5   1  -5   78.94    4.46
  -5  -1   5   81.91    4.38
  -5  -1   5   80.60    5.75
   4   1  -5  211.30    7.76
   4   1  -5  225.58    7.78
   4   1  -5  210.73    7.49
   4   1  -5  213.74    7.86
   4   1  -5  225.69    8.12
   4   1  -5  210.93    7.89
  -4  -1   5  232.44    8.49
  -4  -1   5  220.03    9.65
  -4  -1   5  214.09    6.99
   3   1  -5    1.61    0.85
   3   1  -5    1.82    0.77
   3   1  -5    1.42    0.70
   3   1  -5    1.79    0.94
   3   1  -5    1.65    0.89
   3   1  -5    1.36    0.82
   3   1  -5    2.42    1.02
  -3  -1   5    1.19    0.65
  -3  -1   5    2.25    0.67
  -3  -1   5    1.46    0.56
   2   1  -5   68.87    3.22
   2   1  -5   67.56    3.03
   2   1  -5   73.53    3.31
   2   1  -5   73.62    3.56
   2   1  -5   66.53    3.20
   2   1  -5   68.51    3.29
  -2  -1   5   74.27    3.37
  -2  -1   5   69.09    3.01
  -2  -1   5   71.99    3.00
  -2  -1   5   69.94    3.12
  -2  -1   5   66.78    3.22
   1   1  -5  288.14   10.00
   1   1  -5  298.10    9.47
   1   1  -5  297.38    9.86
   1   1  -5  305.90    9.84
   1   1  -5  283.80    9.64
  -1  -1   5  286.96    9.79
  -1  -1   5  314.47    9.75
  -1  -1   5  297.69    9.92
  -1  -1   5  291.75    9.54
  -1  -1   5  297.97    9.46
  -1  -1   5  289.57    9.58
   0   1  -5    0.37    0.67
   0   1  -5    1.76    0.71
   0   1  -5    0.05    0.49
   0   1  -5    0.88    0.67
   0   1  -5    0.75    0.79
   0   1  -5    2.09    0.97
   0  -1   5    1.28    0.78
   0  -1   5    1.29    0.86
   0  -1   5    0.98    0.77
   0  -1   5    0.91    0.69
   0  -1   5    2.45    0.99
   0  -1   5    1.48    0.77
  -1   1  -5   13.33    1.35
  -1   1  -5   17.13    1.83
  -1   1  -5   13.99    1.46
  -1   1  -5   13.87    1.50
  -1   1  -5   16.98    1.96
  -1   1  -5   15.08    1.35
   1  -1   5   15.04    1.61
   1  -1   5   12.81    1.59
   1  -1   5   14.39    1.57
   1  -1   5   14.45    1.56
   1  -1   5   13.33    1.58
   1  -1   5   17.28    1.85
   1  -1   5   15.62    1.21
   1  -1   5   15.84    1.93
  -2   1  -5  351.98   11.51
  -2   1  -5  313.07   10.47
  -2   1  -5  332.71   11.15
  -2   1  -5  337.64   10.61
  -2   1  -5  322.84   10.03
  -2   1  -5  325.66   11.62
  -2   1  -5  315.33   11.60
   2  -1   5  327.16   11.31
   2  -1   5  337.42   10.98
   2  -1   5  334.82   10.65
   2  -1   5  330.12   11.26
   2  -1   5  319.62   10.74
   2  -1   5  333.85   10.70
   2  -1   5  337.25   11.11
   2  -1   5  329.19   11.53
  -3   1  -5    1.25    1.14
  -3   1  -5    3.28    1.11
  -3   1  -5    0.84    1.08
  -3   1  -5    0.77    0.77
  -3   1  -5    0.55    0.83
  -3   1  -5    1.40    0.73
   3  -1   5    1.73    1.05
   3  -1   5    2.13    0.99
   3  -1   5    1.90    1.02
   3  -1   5    1.79    0.84
   3  -1   5    0.67    0.86
   3  -1   5    0.66    0.82
   3  -1   5    2.52    0.95
  -4   1  -5    1.06    0.92
  -4   1  -5    0.50    0.98
  -4   1  -5    1.13    0.66
  -4   1  -5    0.73    0.95
  -4   1  -5    0.80    1.19
   4  -1   5    0.67    0.81
   4  -1   5    1.34    0.78
   4  -1   5    0.38    0.80
   4  -1   5   -0.01    0.97
   4  -1   5    0.59    0.80
  -5   1  -5  155.26    7.73
  -5   1  -5  145.22    6.99
  -5   1  -5  173.26    7.67
   5  -1   5  160.03    6.68
   5  -1   5  149.56    6.49
   5  -1   5  152.88    6.97
   5  -1   5  166.57    7.23
   5  -1   5  160.36    7.32
  -6   1  -5   -0.03    1.33
  -6   1  -5   -0.81    1.17
  -6   1  -5   -1.24    1.09
   6  -1   5   -0.19    1.13
   6  -1   5    1.31    1.27
   6  -1   5    0.80    1.25
   6  -1   5    1.88    1.61
   6  -1   5   -0.42    0.97
  -7   1  -5    2.13    1.75
  -7   1  -5    0.23    1.62
  -7   1  -5    4.27    2.42
   7  -1   5    2.74    1.77
   7  -1   5    0.21    1.33
   7  -1   5    0.10    1.46
   7  -1   5    0.39    1.27
  -8   1  -5   70.54    6.17
  -8   1  -5   68.08    4.96
   8  -1   5   80.29    6.03
   8  -1   5   74.61    4.94
  -9   1  -5    1.39    1.95
  -9   1  -5    1.72    2.77
   9  -1   5    0.90    1.60
  10   0  -5    1.08    1.60
  10   0  -5    0.86    2.01
  10   0  -5    5.68    2.02
 -10   0   5    4.62    4.03
 -10   0   5    3.79    3.52
   9   0  -5    5.80    1.80
   9   0  -5    7.62    2.02
   9   0  -5    5.48    1.82
  -9   0   5    8.47    2.49
  -9   0   5   11.50    3.97
   8   0  -5   68.80    4.31
   8   0  -5   73.10    6.42
   8   0  -5   61.90    4.05
   8   0  -5   73.10    4.39
  -8   0   5   80.64    5.40
  -8   0   5   60.26    6.57
   7   0  -5   16.39    2.74
   7   0  -5   14.33    2.34
   7   0  -5   11.41    1.84
   7   0  -5   13.16    2.12
  -7   0   5   16.11    3.86
  -7   0   5   14.65    2.49
   6   0  -5   45.20    3.24
   6   0  -5   52.26    3.09
   6   0  -5   48.24    3.09
   6   0  -5   42.18    2.79
   6   0  -5   46.07    2.83
   6   0  -5   48.69    3.16
  -6   0   5   53.44    5.04
  -6   0   5   54.41    3.81
   5   0  -5  112.59    4.80
   5   0  -5  114.25    4.92
   5   0  -5  108.22    4.79
   5   0  -5  117.08    4.52
   5   0  -5  108.96    4.57
   5   0  -5  115.47    4.66
  -5   0   5  114.48    4.81
  -5   0   5  115.27    5.68
  -5   0   5  107.72    6.63
   4   0  -5   70.44    3.32
   4   0  -5   71.91    3.20
   4   0  -5   69.36    3.07
   4   0  -5   69.23    3.38
   4   0  -5   73.20    3.47
   4   0  -5   76.74    3.61
  -4   0   5   75.02    3.52
  -4   0   5   77.36    4.18
  -4   0   5   67.50    4.74
   3   0  -5   64.67    3.02
   3   0  -5   60.17    2.58
   3   0  -5   61.01    2.71
   3   0  -5   58.07    3.05
   3   0  -5   61.97    2.95
   3   0  -5   58.14    3.04
   3   0  -5   59.29    2.74
  -3   0   5   62.53    3.97
  -3   0   5   65.00    3.60
  -3   0   5   62.15    3.07
   2   0  -5   69.54    3.28
   2   0  -5   70.93    3.45
   2   0  -5   65.78    3.21
   2   0  -5   74.32    3.14
   2   0  -5   73.59    3.34
   2   0  -5   68.84    3.43
   2   0  -5   73.02    2.93
  -2   0   5   72.65    2.84
  -2   0   5   70.89    3.17
  -2   0   5   71.84    2.56
  -2   0   5   73.90    2.52
  -2   0   5   70.45    3.70
   1   0  -5  185.92    6.58
   1   0  -5  186.60    6.88
   1   0  -5  176.58    6.57
   1   0  -5  182.42    6.55
   1   0  -5  186.03    6.93
   1   0  -5  195.26    6.34
   1   0  -5  182.76    6.64
  -1   0   5  177.07    6.08
  -1   0   5  179.45    6.94
  -1   0   5  190.13    6.57
  -1   0   5  175.28    6.29
  -1   0   5  174.99    6.26
  -1   0   5  179.74    6.27
  -1   0   5  181.49    6.65
  -1   0   5  196.44    6.42
   0   0  -5   72.57    3.89
   0   0  -5   80.68    3.47
   0   0  -5   70.47    3.59
   0   0  -5   71.63    3.67
   0   0  -5   78.48    3.51
   0   0  -5   72.75    3.54
   0   0   5   78.00    3.49
   0   0   5   62.20    2.41
   0   0   5   77.85    3.51
   0   0   5   74.95    3.66
   0   0   5   75.30    3.37
   0   0   5   73.05    3.89
   0   0   5   73.10    3.60
   0   0   5   78.18    3.63
  -1   0  -5   87.66    4.22
  -1   0  -5   86.35    3.88
  -1   0  -5   85.70    4.04
  -1   0  -5   83.77    3.74
  -1   0  -5   90.43    4.54
  -1   0  -5   83.08    3.96
  -1   0  -5   90.67    4.17
   1   0   5   92.45    4.04
   1   0   5   80.94    3.94
   1   0   5   80.79    4.15
   1   0   5   94.36    4.33
   1   0   5   90.45    4.26
   1   0   5   89.21    3.88
   1   0   5   85.51    4.39
  -2   0  -5  224.28    8.03
  -2   0  -5  206.82    7.49
  -2   0  -5  230.43    8.63
  -2   0  -5  227.23    8.15
  -2   0  -5  216.32    7.38
  -2   0  -5  213.89    7.85
  -2   0  -5  215.15    7.10
   2   0   5  220.01    7.98
   2   0   5  203.16    8.04
   2   0   5  233.17    8.46
   2   0   5  222.43    7.68
   2   0   5  229.08    8.15
   2   0   5  213.35    7.80
   2   0   5  210.82    8.53
  -3   0  -5   42.84    3.23
  -3   0  -5   36.61    2.04
  -3   0  -5   40.64    2.63
  -3   0  -5   34.85    2.62
  -3   0  -5   38.60    2.00
  -3   0  -5   36.40    3.13
  -3   0  -5   42.89    2.62
  -3   0  -5   36.72    2.53
   3   0   5   37.89    2.68
   3   0   5   41.84    2.92
   3   0   5   45.30    3.06
   3   0   5   39.33    3.00
   3   0   5   34.93    2.58
   3   0   5   39.43    2.54
   3   0   5   37.03    2.99
  -4   0  -5   28.27    1.77
  -4   0  -5   33.99    3.19
  -4   0  -5   30.04    2.30
  -4   0  -5   27.66    2.67
  -4   0  -5   32.75    2.19
  -4   0  -5   31.52    2.94
  -4   0  -5   29.90    2.54
   4   0   5   29.89    2.79
   4   0   5   30.65    2.86
   4   0   5   28.55    2.42
   4   0   5   31.57    2.54
   4   0   5   33.05    2.75
   4   0   5   28.37    2.80
  -5   0  -5  163.32    7.81
  -5   0  -5  143.49    7.07
  -5   0  -5  151.34    5.15
  -5   0  -5  147.90    7.16
   5   0   5  155.19    7.04
   5   0   5  135.99    6.52
   5   0   5  138.31    6.38
   5   0   5  149.21    7.10
   5   0   5  163.27    7.57
  -6   0  -5   22.61    3.08
  -6   0  -5   25.79    3.28
  -6   0  -5   28.53    3.43
   6   0   5   26.39    2.86
   6   0   5   27.51    2.75
   6   0   5   22.98    3.11
   6   0   5   26.22    3.42
   6   0   5   24.55    3.23
  -7   0  -5   12.61    2.98
  -7   0  -5   10.63    2.60
  -7   0  -5    7.81    2.70
   7   0   5    8.41    2.59
   7   0   5   11.75    2.89
   7   0   5   11.39    2.48
  -8   0  -5   57.19    4.88
  -8   0  -5   59.34    5.60
   8   0   5   57.15    4.50
  -9   0  -5    3.81    2.28
   9   0   5    7.43    2.64
  10  -1  -5    1.81    1.65
  10  -1  -5    4.32    1.84
  10  -1  -5    3.08    2.15
  10  -1  -5    1.22    1.46
 -10   1   5    1.25    2.20
 -10   1   5    2.74    3.17
   9  -1  -5   41.02    3.26
   9  -1  -5   48.06    3.45
   9  -1  -5   35.63    3.27
   9  -1  -5   40.14    3.45
  -9   1   5   51.84    6.45
  -9   1   5   40.51    4.46
   8  -1  -5   28.93    2.69
   8  -1  -5   23.34    2.25
   8  -1  -5   25.18    2.50
  -8   1   5   22.03    3.27
  -8   1   5   20.48    4.88
   7  -1  -5    0.36    0.71
   7  -1  -5    1.43    0.95
   7  -1  -5    1.32    1.06
   7  -1  -5   -0.03    1.02
  -7   1   5    5.31    2.66
  -7   1   5    1.79    1.45
   6  -1  -5   85.95    3.70
   6  -1  -5   77.92    3.34
   6  -1  -5   89.23    4.00
   6  -1  -5   82.06    3.58
   6  -1  -5   84.57    4.05
   6  -1  -5   86.17    3.91
  -6   1   5   89.35    6.33
  -6   1   5   86.86    5.19
   5  -1  -5   62.47    2.49
   5  -1  -5   63.10    2.78
   5  -1  -5   63.73    3.12
   5  -1  -5   62.07    2.59
   5  -1  -5   61.80    2.95
   5  -1  -5   65.96    3.22
  -5   1   5   66.75    3.02
  -5   1   5   74.80    4.47
  -5   1   5   72.22    5.16
   4  -1  -5    9.82    1.30
   4  -1  -5   13.38    1.43
   4  -1  -5   12.18    1.29
   4  -1  -5   13.88    1.11
   4  -1  -5   11.22    0.88
   4  -1  -5   10.69    0.93
  -4   1   5   14.27    1.66
  -4   1   5   11.96    2.63
  -4   1   5   11.72    1.85
  -4   1   5   12.77    1.32
   3  -1  -5  183.24    6.30
   3  -1  -5  191.70    6.90
   3  -1  -5  196.68    6.18
   3  -1  -5  196.79    6.30
   3  -1  -5  181.06    6.63
   3  -1  -5  191.62    6.57
  -3   1   5  190.93    6.70
  -3   1   5  192.52    7.05
  -3   1   5  204.73    8.15
  -3   1   5  195.49    7.79
   2  -1  -5   71.25    3.34
   2  -1  -5   74.99    3.11
   2  -1  -5   72.33    3.25
   2  -1  -5   73.54    3.66
   2  -1  -5   75.73    3.35
   2  -1  -5   76.68    2.88
   2  -1  -5   78.57    3.14
  -2   1   5   76.59    3.77
  -2   1   5   75.89    3.91
  -2   1   5   71.93    3.52
  -2   1   5   73.44    3.97
  -2   1   5   72.66    3.16
   1  -1  -5   26.60    1.94
   1  -1  -5   27.68    2.14
   1  -1  -5   28.55    1.77
   1  -1  -5   28.83    2.32
   1  -1  -5   26.94    1.99
   1  -1  -5   26.68    1.92
   1  -1  -5   28.01    2.00
   1  -1  -5   29.93    2.01
  -1   1   5   27.64    1.52
  -1   1   5   28.77    1.62
  -1   1   5   25.87    2.31
  -1   1   5   25.62    2.04
  -1   1   5   28.83    1.77
  -1   1   5   23.94    1.76
   0  -1  -5  349.40   11.27
   0  -1  -5  344.92   11.72
   0  -1  -5  343.86   10.28
   0  -1  -5  347.84   11.78
   0  -1  -5  329.08   11.27
   0  -1  -5  349.73   11.24
   0  -1  -5  325.55   11.44
   0  -1  -5  341.90   11.84
   0   1   5  347.28   11.85
   0   1   5  388.02   11.61
   0   1   5  347.19   11.60
   0   1   5  351.55   11.26
   0   1   5  354.07   11.36
   0   1   5  344.13   11.07
   0   1   5  313.11   10.93
  -1  -1  -5   96.11    4.49
  -1  -1  -5   90.06    4.40
  -1  -1  -5   87.30    4.22
  -1  -1  -5   86.52    4.53
  -1  -1  -5   84.69    4.18
  -1  -1  -5   87.71    3.96
  -1  -1  -5   83.63    4.05
   1   1   5   97.44    4.36
   1   1   5   84.82    4.51
   1   1   5   90.33    4.10
   1   1   5   83.79    3.87
   1   1   5   89.34    4.32
   1   1   5   88.50    4.08
  -2  -1  -5   55.48    3.36
  -2  -1  -5   56.99    3.10
  -2  -1  -5   50.52    3.05
  -2  -1  -5   46.41    3.05
  -2  -1  -5   52.95    3.52
  -2  -1  -5   51.21    3.50
  -2  -1  -5   47.63    2.51
  -2  -1  -5   47.53    2.77
   2   1   5   49.64    3.22
   2   1   5   53.55    3.47
   2   1   5   52.76    3.46
   2   1   5   47.23    3.09
   2   1   5   51.67    2.91
   2   1   5   48.44    2.96
  -3  -1  -5  228.70    8.39
  -3  -1  -5  228.71    9.13
  -3  -1  -5  220.74    8.00
  -3  -1  -5  209.95    8.39
  -3  -1  -5  217.97    8.01
   3   1   5  218.18    8.85
   3   1   5  222.23    8.10
   3   1   5  232.06    9.10
   3   1   5  219.14    8.30
   3   1   5  221.42    8.51
   3   1   5  214.46    8.48
   3   1   5  222.90    8.67
  -4  -1  -5   41.15    3.63
  -4  -1  -5   32.21    2.92
  -4  -1  -5   40.18    2.42
  -4  -1  -5   35.59    3.30
  -4  -1  -5   39.46    2.24
  -4  -1  -5   38.61    2.47
  -4  -1  -5   39.63    2.95
  -4  -1  -5   40.60    3.17
  -4  -1  -5   39.77    2.15
   4   1   5   38.24    3.32
   4   1   5   36.96    3.19
   4   1   5   35.42    2.74
   4   1   5   40.41    3.46
   4   1   5   32.62    2.84
   4   1   5   38.96    3.30
   4   1   5   35.18    2.85
  -5  -1  -5   26.87    3.08
  -5  -1  -5   28.57    2.70
  -5  -1  -5   26.85    2.17
  -5  -1  -5   26.90    3.08
  -5  -1  -5   30.97    3.60
   5   1   5   27.23    3.06
   5   1   5   27.69    3.30
   5   1   5   26.68    2.77
   5   1   5   34.34    2.93
   5   1   5   23.40    3.05
  -6  -1  -5   80.45    5.52
  -6  -1  -5   80.87    5.77
  -6  -1  -5   79.81    5.39
   6   1   5   95.14    6.02
   6   1   5   75.03    5.20
   6   1   5   79.72    5.49
   6   1   5   76.01    4.80
  -7  -1  -5   11.01    3.34
  -7  -1  -5   12.30    3.05
  -7  -1  -5    9.23    2.54
   7   1   5    6.38    1.98
  -8  -1  -5   28.61    4.61
  -8  -1  -5   31.58    4.25
   8   1   5   29.14    3.55
  -9  -1  -5    9.34    3.01
   9   1   5   19.58    3.70
  10  -2  -5   16.16    2.53
  10  -2  -5   18.09    2.51
 -10   2   5    8.03    4.32
 -10   2   5   20.75    4.50
   9  -2  -5   41.51    3.19
   9  -2  -5   33.62    2.73
   9  -2  -5   43.25    3.12
  -9   2   5   36.75    5.53
  -9   2   5   40.75    4.65
   8  -2  -5    2.34    1.10
   8  -2  -5    3.77    1.15
   8  -2  -5    3.42    0.99
   8  -2  -5    5.52    1.27
  -8   2   5    3.83    2.08
  -8   2   5    4.11    2.72
   7  -2  -5   15.50    1.74
   7  -2  -5   20.06    1.81
   7  -2  -5   18.67    1.96
  -7   2   5   19.86    2.93
  -7   2   5   22.53    4.71
   6  -2  -5  130.77    4.84
   6  -2  -5  130.62    5.10
   6  -2  -5  133.72    5.08
  -6   2   5  141.73    7.24
  -6   2   5  130.06    7.94
   5  -2  -5    2.80    0.68
   5  -2  -5    3.18    1.15
   5  -2  -5    3.22    0.86
   5  -2  -5    3.45    0.82
  -5   2   5    6.94    2.02
  -5   2   5    3.44    0.72
  -5   2   5    2.95    1.72
  -5   2   5    4.71    0.90
   4  -2  -5   26.68    1.42
   4  -2  -5   27.62    1.53
   4  -2  -5   24.23    1.94
   4  -2  -5   30.31    1.87
  -4   2   5   28.53    2.73
  -4   2   5   25.68    3.04
  -4   2   5   27.18    1.89
   3  -2  -5  274.71    9.49
   3  -2  -5  279.30    8.61
   3  -2  -5  266.74    9.10
   3  -2  -5  270.21    8.22
   3  -2  -5  277.29    8.20
   3  -2  -5  285.98    8.74
  -3   2   5  284.94    9.16
  -3   2   5  285.96   10.77
  -3   2   5  263.08   10.32
  -3   2   5  283.46    9.31
   2  -2  -5    3.24    0.74
   2  -2  -5    4.58    1.00
   2  -2  -5    3.16    1.02
   2  -2  -5    4.23    1.21
   2  -2  -5    6.68    0.96
   2  -2  -5    5.04    1.01
  -2   2   5    2.11    1.08
  -2   2   5    2.19    1.01
  -2   2   5    4.65    0.95
  -2   2   5    2.29    1.18
  -2   2   5    3.92    1.20
   1  -2  -5   31.90    2.49
   1  -2  -5   35.32    2.27
   1  -2  -5   37.84    2.20
   1  -2  -5   33.25    2.12
   1  -2  -5   36.86    2.27
   1  -2  -5   33.68    2.35
   1  -2  -5   40.48    2.75
  -1   2   5   34.20    2.35
  -1   2   5   30.40    2.49
  -1   2   5   37.48    2.02
  -1   2   5   37.26    2.64
   0  -2  -5  453.32   14.46
   0  -2  -5  427.58   14.51
   0  -2  -5  437.46   13.86
   0  -2  -5  443.27   13.97
   0  -2  -5  428.75   13.75
   0  -2  -5  439.96   14.23
   0  -2  -5  412.34   14.34
   0  -2  -5  435.25   13.41
   0   2   5  426.68   14.41
   0   2   5  430.04   13.56
   0   2   5  435.67   13.58
   0   2   5  412.21   14.10
   0   2   5  472.15   14.39
   0   2   5  433.34   13.82
   0   2   5  425.13   14.18
  -1  -2  -5    1.60    0.87
  -1  -2  -5    1.66    0.86
  -1  -2  -5    2.47    1.15
  -1  -2  -5    3.09    1.06
  -1  -2  -5    1.35    0.94
  -1  -2  -5    2.12    1.09
   1   2   5    2.49    0.99
   1   2   5    2.19    0.96
   1   2   5    3.11    1.17
   1   2   5    3.82    1.37
   1   2   5    2.40    1.14
   1   2   5    2.23    0.95
   1   2   5    1.12    0.84
  -2  -2  -5    0.47    0.75
  -2  -2  -5   -0.67    0.86
  -2  -2  -5    0.75    0.95
  -2  -2  -5    0.51    0.90
  -2  -2  -5    1.42    1.04
  -2  -2  -5    0.66    0.76
  -2  -2  -5    0.52    0.71
   2   2   5    0.38    0.75
   2   2   5    1.05    1.08
   2   2   5    0.42    0.83
   2   2   5    1.45    0.96
   2   2   5   -0.03    0.50
   2   2   5    0.32    0.68
   2   2   5   -0.06    0.78
  -3  -2  -5  205.29    8.35
  -3  -2  -5  219.77    8.61
  -3  -2  -5  219.41    9.32
  -3  -2  -5  228.11    8.89
   3   2   5  222.13    8.56
   3   2   5  229.29    8.44
   3   2   5  225.76    8.91
   3   2   5  219.25    9.13
   3   2   5  227.42    9.31
  -4  -2  -5    0.79    1.00
  -4  -2  -5    1.72    1.41
  -4  -2  -5    1.26    1.13
  -4  -2  -5    1.19    0.62
  -4  -2  -5    1.64    0.92
  -4  -2  -5    4.14    1.80
  -4  -2  -5    0.40    1.07
  -4  -2  -5    0.68    1.31
   4   2   5    1.93    1.14
   4   2   5    1.61    1.48
   4   2   5    2.72    1.38
   4   2   5    2.54    1.62
   4   2   5   -0.33    1.03
   4   2   5    2.86    1.36
   4   2   5   -0.96    0.89
  -5  -2  -5    6.63    2.42
  -5  -2  -5    2.82    1.86
  -5  -2  -5    5.01    1.44
  -5  -2  -5    2.95    1.00
  -5  -2  -5    5.34    2.10
  -5  -2  -5    3.48    1.22
  -5  -2  -5    2.78    1.59
   5   2   5    3.38    1.59
   5   2   5    2.97    1.76
   5   2   5    2.32    1.53
   5   2   5    5.46    2.09
  -6  -2  -5  104.30    6.60
  -6  -2  -5  120.63    7.18
  -6  -2  -5   98.77    6.52
   6   2   5  116.88    6.24
   6   2   5  116.51    6.84
  -7  -2  -5   -0.85    1.72
  -7  -2  -5    1.94    2.10
  -7  -2  -5    3.83    2.13
   7   2   5    3.81    2.22
   7   2   5    2.27    1.73
  -8  -2  -5    0.37    2.14
   8   2   5    1.62    1.81
  -9  -2  -5   32.49    4.80
   9   2   5   37.70    4.60
  10  -3  -5   25.66    2.49
 -10   3   5   29.38    4.58
 -10   3   5   25.61    6.27
   9  -3  -5   10.65    1.47
   9  -3  -5   13.02    2.05
   9  -3  -5   14.73    1.41
   9  -3  -5   17.11    2.11
   9  -3  -5   13.31    1.93
  -9   3   5   19.18    5.41
  -9   3   5   24.62    4.16
   8  -3  -5   10.30    1.58
   8  -3  -5    7.08    1.40
   8  -3  -5    9.61    1.56
  -8   3   5    5.72    3.25
  -8   3   5   12.13    3.24
   7  -3  -5   58.01    2.82
   7  -3  -5   48.35    2.73
  -7   3   5   49.33    5.43
  -7   3   5   59.01    5.00
   6  -3  -5   49.94    2.57
  -6   3   5   58.34    5.35
  -6   3   5   52.89    4.44
   5  -3  -5   36.33    2.10
  -5   3   5   39.63    4.12
  -5   3   5   37.40    3.49
   4  -3  -5   76.77    2.78
   4  -3  -5   73.43    3.42
   4  -3  -5   72.30    3.38
   4  -3  -5   76.01    2.75
  -4   3   5   72.30    2.88
  -4   3   5   79.98    5.29
  -4   3   5   71.50    2.91
  -4   3   5   68.30    4.58
   3  -3  -5  144.21    4.77
   3  -3  -5  158.05    5.33
   3  -3  -5  154.93    6.02
   3  -3  -5  166.03    5.35
   3  -3  -5  151.92    5.88
   3  -3  -5  152.44    4.79
  -3   3   5  155.52    7.41
  -3   3   5  151.56    7.00
  -3   3   5  156.06    5.82
  -3   3   5  155.28    5.64
   2  -3  -5   54.69    3.18
   2  -3  -5   54.55    2.84
   2  -3  -5   52.78    2.70
   2  -3  -5   52.84    2.62
   2  -3  -5   56.75    3.16
   2  -3  -5   51.61    2.64
  -2   3   5   49.19    3.46
  -2   3   5   53.66    3.21
  -2   3   5   59.10    3.09
  -2   3   5   47.98    3.46
  -2   3   5   52.68    2.97
   1  -3  -5   46.56    2.75
   1  -3  -5   49.05    2.76
   1  -3  -5   48.16    3.13
   1  -3  -5   48.73    3.13
   1  -3  -5   43.42    2.62
   1  -3  -5   51.91    3.10
  -1   3   5   48.64    3.07
  -1   3   5   48.14    3.22
  -1   3   5   48.43    2.36
  -1   3   5   44.52    2.84
   0  -3  -5  210.47    8.31
   0  -3  -5  215.23    7.79
   0  -3  -5  210.97    7.93
   0  -3  -5  223.59    8.28
   0  -3  -5  193.22    7.62
   0  -3  -5  208.47    7.59
   0  -3  -5  206.80    8.33
   0   3   5  203.98    7.86
   0   3   5  216.38    7.61
   0   3   5  203.23    8.17
   0   3   5  210.61    7.97
   0   3   5  214.28    7.16
   0   3   5  212.29    7.23
  -1  -3  -5   10.69    1.76
  -1  -3  -5   15.64    2.19
  -1  -3  -5   15.17    2.04
  -1  -3  -5   15.36    1.90
  -1  -3  -5   13.96    1.89
  -1  -3  -5   13.67    1.89
  -1  -3  -5   16.07    1.97
   1   3   5   12.10    1.70
   1   3   5   14.79    1.85
   1   3   5   15.24    2.20
   1   3   5   11.97    2.01
   1   3   5   11.03    1.58
   1   3   5   14.26    1.75
  -2  -3  -5   13.68    1.81
  -2  -3  -5   15.20    2.32
  -2  -3  -5   13.47    2.21
  -2  -3  -5   15.22    2.09
  -2  -3  -5   12.62    2.04
  -2  -3  -5   14.49    2.37
  -2  -3  -5    8.43    1.76
   2   3   5    8.17    1.83
   2   3   5    8.40    1.67
   2   3   5   13.88    1.87
   2   3   5   15.01    2.03
   2   3   5   13.89    1.93
   2   3   5   12.25    1.49
   2   3   5   14.23    2.32
  -3  -3  -5  170.52    7.52
  -3  -3  -5  153.37    7.13
  -3  -3  -5  164.92    7.19
  -3  -3  -5  162.29    7.79
  -3  -3  -5  160.18    7.09
   3   3   5  153.61    7.19
   3   3   5  170.65    6.92
   3   3   5  168.51    7.16
   3   3   5  166.52    7.86
   3   3   5  178.75    7.50
   3   3   5  169.52    7.77
  -4  -3  -5   14.09    2.24
  -4  -3  -5   17.04    2.74
  -4  -3  -5   14.11    3.02
  -4  -3  -5   16.63    2.54
  -4  -3  -5   14.34    2.09
   4   3   5   17.01    3.10
   4   3   5   10.55    2.26
   4   3   5   14.79    3.10
   4   3   5   16.10    2.30
  -5  -3  -5    2.47    1.72
  -5  -3  -5    4.30    2.12
  -5  -3  -5    3.29    2.07
  -5  -3  -5    4.53    1.81
  -5  -3  -5    2.98    1.30
  -5  -3  -5    4.02    1.59
  -5  -3  -5    3.40    1.96
   5   3   5    4.93    1.86
   5   3   5    4.78    1.96
  -6  -3  -5   99.36    4.47
  -6  -3  -5  116.71    7.17
  -6  -3  -5  101.68    6.45
  -6  -3  -5   92.77    4.30
  -6  -3  -5   91.89    6.50
   6   3   5   94.83    5.95
   6   3   5   95.52    6.69
  -7  -3  -5    4.24    2.45
  -7  -3  -5    2.24    2.25
  -7  -3  -5    2.72    2.43
   7   3   5    5.75    2.84
   7   3   5    4.77    2.19
  -8  -3  -5    0.87    2.28
   8   3   5    0.37    1.98
  10  -4  -5   13.81    1.57
 -10   4   5   16.14    4.14
 -10   4   5   12.45    4.52
  -9   4   5   -0.28    2.31
  -9   4   5    0.34    2.04
   8  -4  -5   47.93    2.55
  -8   4   5   54.27    6.19
  -8   4   5   46.74    5.00
   7  -4  -5   24.54    1.79
  -7   4   5   30.79    3.92
  -7   4   5   34.85    4.83
   6  -4  -5    6.00    1.05
  -6   4   5    4.37    2.17
  -6   4   5   10.64    3.18
   5  -4  -5  106.62    4.47
  -5   4   5  105.72    7.07
  -5   4   5  103.78    6.37
   4  -4  -5   54.89    2.76
   4  -4  -5   50.93    2.99
   4  -4  -5   51.91    2.34
   4  -4  -5   53.63    2.30
  -4   4   5   52.48    2.29
  -4   4   5   53.46    4.65
  -4   4   5   47.84    2.21
  -4   4   5   55.39    4.26
   3  -4  -5   43.72    2.72
   3  -4  -5   50.09    2.44
   3  -4  -5   40.90    2.06
   3  -4  -5   43.76    2.49
   3  -4  -5   38.86    2.01
   3  -4  -5   41.48    2.80
  -3   4   5   46.63    2.87
  -3   4   5   44.91    2.53
  -3   4   5   45.68    3.64
   2  -4  -5  117.14    5.25
   2  -4  -5  112.59    4.75
   2  -4  -5  114.35    5.21
   2  -4  -5  119.34    4.77
   2  -4  -5  120.40    5.10
  -2   4   5  113.91    5.84
  -2   4   5  119.67    5.13
  -2   4   5  114.74    5.32
   1  -4  -5   42.35    3.02
   1  -4  -5   38.15    2.64
   1  -4  -5   38.74    2.88
   1  -4  -5   31.18    2.67
   1  -4  -5   39.23    2.56
  -1   4   5   27.02    1.77
  -1   4   5   37.83    2.88
  -1   4   5   35.48    2.89
  -1   4   5   38.34    3.40
   0  -4  -5   86.31    4.72
   0  -4  -5   79.13    4.14
   0  -4  -5   79.54    4.31
   0  -4  -5   74.76    4.04
   0  -4  -5   78.69    4.55
   0  -4  -5   75.93    4.41
   0  -4  -5   79.01    4.18
   0   4   5   88.49    4.01
   0   4   5   73.66    4.19
   0   4   5   69.97    4.36
   0   4   5   80.18    4.17
   0   4   5   79.88    3.20
   0   4   5   82.72    3.15
  -1  -4  -5  103.63    5.26
  -1  -4  -5  113.90    5.40
  -1  -4  -5  113.90    5.64
  -1  -4  -5  113.99    5.35
  -1  -4  -5  111.62    5.90
  -1  -4  -5  112.00    5.81
  -1  -4  -5  116.37    5.74
   1   4   5  111.86    5.21
   1   4   5  115.64    5.95
   1   4   5  108.39    4.89
   1   4   5  120.39    5.68
   1   4   5  118.26    5.06
   1   4   5  110.49    4.98
  -2  -4  -5   20.88    2.80
  -2  -4  -5   18.69    2.40
  -2  -4  -5   19.53    2.58
  -2  -4  -5   21.38    2.45
  -2  -4  -5   19.73    2.41
   2   4   5   20.34    2.26
   2   4   5   18.17    1.67
   2   4   5   14.68    2.44
   2   4   5   17.00    2.62
   2   4   5   18.03    2.36
   2   4   5   23.46    2.42
  -3  -4  -5   54.72    4.04
  -3  -4  -5   54.89    4.22
  -3  -4  -5   57.29    4.02
  -3  -4  -5   57.66    4.56
   3   4   5   57.62    2.52
   3   4   5   51.17    3.61
   3   4   5   63.34    4.32
   3   4   5   60.70    4.63
   3   4   5   50.22    4.14
   3   4   5   51.43    3.81
  -4  -4  -5   62.54    4.19
  -4  -4  -5   68.81    4.56
  -4  -4  -5   63.24    4.63
  -4  -4  -5   64.88    5.21
  -4  -4  -5   68.24    4.69
   4   4   5   70.01    4.62
   4   4   5   61.39    5.04
  -5  -4  -5    9.06    2.72
  -5  -4  -5   11.29    2.37
  -5  -4  -5   10.96    2.56
  -5  -4  -5   16.06    2.72
  -5  -4  -5   14.37    2.73
  -5  -4  -5   13.86    3.41
   5   4   5   18.13    3.70
   5   4   5   10.62    2.50
  -6  -4  -5   39.93    3.38
  -6  -4  -5   46.68    5.17
  -6  -4  -5   45.63    4.97
  -6  -4  -5   49.33    3.78
  -6  -4  -5   40.13    4.60
   6   4   5   45.36    4.39
   6   4   5   50.87    5.28
  -7  -4  -5   21.67    4.50
   7   4   5   25.26    3.91
   7   4   5   34.64    4.91
  -8  -4  -5    4.26    2.66
   8   4   5    3.58    2.35
  -9   5   5    6.85    3.94
  -9   5   5    3.73    2.55
  -8   5   5   56.13    6.68
  -8   5   5   52.54    5.60
   7  -5  -5    3.13    0.88
  -7   5   5   -0.43    1.90
  -7   5   5    0.38    1.72
   6  -5  -5    4.81    1.19
  -6   5   5    2.62    2.64
  -6   5   5    3.47    2.12
   5  -5  -5  127.56    4.40
   5  -5  -5  121.59    5.10
  -5   5   5  124.71    7.49
  -5   5   5  128.63    8.21
   4  -5  -5    5.06    0.58
   4  -5  -5    8.97    1.67
   4  -5  -5    7.12    1.17
  -4   5   5    6.28    1.04
  -4   5   5    5.52    2.11
   3  -5  -5    1.71    0.89
   3  -5  -5    1.18    0.98
   3  -5  -5    0.35    0.67
   3  -5  -5   -0.02    0.62
   3  -5  -5    1.04    1.07
  -3   5   5    2.20    1.11
  -3   5   5    1.94    1.24
   2  -5  -5  158.48    6.89
   2  -5  -5  166.17    6.82
   2  -5  -5  153.17    6.35
   2  -5  -5  154.88    6.63
   2  -5  -5  162.68    6.27
  -2   5   5  155.16    7.51
  -2   5   5  156.08    6.50
   1  -5  -5    3.29    1.40
   1  -5  -5    4.61    1.34
   1  -5  -5    3.47    1.31
   1  -5  -5    3.82    1.32
   1  -5  -5    3.46    1.45
  -1   5   5    2.38    1.42
  -1   5   5    3.47    1.47
   0  -5  -5    0.19    0.87
   0  -5  -5    1.24    1.13
   0  -5  -5    1.68    1.15
   0  -5  -5    0.52    1.21
   0  -5  -5    0.26    0.82
   0  -5  -5    1.38    0.97
   0   5   5    1.37    1.25
   0   5   5    1.75    1.08
   0   5   5    1.64    1.08
  -1  -5  -5  208.26   10.89
  -1  -5  -5  185.08    8.36
  -1  -5  -5  171.27    7.77
  -1  -5  -5  188.89    8.27
  -1  -5  -5  185.62    8.50
  -1  -5  -5  197.58    8.86
  -1  -5  -5  183.49    8.28
   1   5   5  182.73    7.57
   1   5   5  195.22    7.01
   1   5   5  184.72    7.27
   1   5   5  185.09    8.53
   1   5   5  183.73    6.99
   1   5   5  188.67    8.10
  -2  -5  -5    4.95    1.76
  -2  -5  -5    5.33    1.97
  -2  -5  -5    4.78    1.84
   2   5   5    4.72    1.14
   2   5   5    4.02    1.88
   2   5   5    5.69    1.59
   2   5   5    6.13    1.82
   2   5   5    5.14    1.55
  -3  -5  -5    3.73    1.94
  -3  -5  -5    3.79    1.92
  -3  -5  -5    1.79    1.47
   3   5   5    2.91    1.50
   3   5   5    1.22    1.48
   3   5   5    1.79    1.63
   3   5   5    5.02    1.79
  -4  -5  -5  128.39    7.77
  -4  -5  -5  133.45    7.04
   4   5   5  130.49    6.88
   4   5   5  134.55    7.89
  -5  -5  -5    3.12    1.88
  -5  -5  -5    2.19    1.90
  -5  -5  -5    5.58    2.77
   5   5   5    2.44    1.99
   5   5   5    3.14    2.35
  -6  -5  -5    4.34    2.98
  -6  -5  -5    5.20    2.28
  -6  -5  -5    5.09    1.87
   6   5   5    6.68    3.04
   6   5   5    3.63    1.95
  -7  -5  -5   37.97    5.38
  -7  -5  -5   42.66    3.42
  -7  -5  -5   45.20    3.58
   7   5   5   48.54    4.91
   7   5   5   57.92    6.24
  -9   6   5    7.25    4.25
  -9   6   5   16.86    4.39
  -8   6   5   36.31    5.09
  -8   6   5   43.16    6.19
   7  -6  -5    5.93    1.06
  -7   6   5    9.35    3.13
  -7   6   5    7.25    3.33
   6  -6  -5   19.76    1.58
   6  -6  -5   20.53    1.83
  -6   6   5   19.76    4.18
   5  -6  -5   63.46    3.46
   5  -6  -5   69.99    3.20
  -5   6   5   68.75    5.61
   4  -6  -5   11.64    1.50
   4  -6  -5   11.13    1.40
   4  -6  -5   11.71    1.98
   4  -6  -5   10.05    1.65
  -4   6   5   10.83    1.33
  -4   6   5   10.31    2.79
   3  -6  -5   17.23    1.99
   3  -6  -5   18.22    2.02
   3  -6  -5   16.91    2.12
   3  -6  -5   17.90    2.16
  -3   6   5   20.46    3.08
  -3   6   5   17.06    2.03
   2  -6  -5  115.71    5.78
   2  -6  -5  125.36    5.52
   2  -6  -5  110.42    5.85
   2  -6  -5  121.49    5.72
   2  -6  -5  124.63    6.10
  -2   6   5  121.63    5.72
  -2   6   5  116.79    6.58
   1  -6  -5   19.07    2.66
   1  -6  -5   17.81    2.50
   1  -6  -5   15.71    2.32
   1  -6  -5   14.00    2.35
   1  -6  -5   21.43    2.41
  -1   6   5   20.12    2.71
  -1   6   5   17.66    2.57
   0  -6  -5   14.97    2.77
   0  -6  -5   22.31    2.57
   0  -6  -5   15.43    2.46
   0  -6  -5   17.16    2.82
   0  -6  -5   19.43    2.74
   0   6   5   16.11    2.71
   0   6   5   16.58    2.33
  -1  -6  -5  133.46    7.07
  -1  -6  -5  144.23    7.42
  -1  -6  -5  136.76    6.73
   1   6   5  129.07    4.91
   1   6   5  133.34    5.88
   1   6   5  130.91    7.29
   1   6   5  129.77    5.05
  -2  -6  -5    5.17    2.34
  -2  -6  -5    8.78    2.36
   2   6   5    4.03    1.39
   2   6   5    5.10    2.09
   2   6   5    2.71    1.23
   2   6   5    5.73    1.81
  -3  -6  -5    4.47    2.57
  -3  -6  -5    2.05    1.69
  -3  -6  -5    5.57    2.45
   3   6   5    1.49    1.33
   3   6   5    5.78    2.22
   3   6   5    5.84    2.56
   3   6   5    4.96    1.96
  -4  -6  -5   78.75    5.81
  -4  -6  -5   81.15    6.58
   4   6   5   82.94    5.63
   4   6   5  104.77    7.14
  -5  -6  -5    1.60    2.29
  -5  -6  -5    2.09    2.58
   5   6   5   -1.54    1.73
   5   6   5   -0.74    2.02
  -6  -6  -5    2.01    2.83
  -6  -6  -5    0.15    2.10
   6   6   5    2.00    2.27
   6   6   5    2.09    2.62
  -7  -6  -5   38.17    5.82
  -7  -6  -5   46.08    4.27
  -7  -6  -5   44.63    4.16
   7   6   5   41.10    5.29
   7   6   5   43.14    5.98
  -8   7   5    6.37    3.23
  -7   7   5   25.68    5.24
   6  -7  -5   12.26    1.90
   6  -7  -5   14.47    1.81
  -6   7   5   20.45    4.54
   5  -7  -5   11.47    1.55
   5  -7  -5   16.60    1.90
   5  -7  -5   16.76    2.25
   5  -7  -5   18.70    2.02
  -5   7   5   12.53    3.27
   4  -7  -5   60.64    3.85
   4  -7  -5   52.86    3.73
   4  -7  -5   56.28    3.44
   4  -7  -5   56.76    3.51
  -4   7   5   61.82    5.51
  -4   7   5   56.95    2.87
   3  -7  -5   18.37    2.38
   3  -7  -5   18.43    2.58
   3  -7  -5   18.14    2.59
   3  -7  -5   21.42    2.42
  -3   7   5   15.58    3.42
  -3   7   5   20.35    2.30
   2  -7  -5   40.57    3.29
   2  -7  -5   35.21    3.47
   2  -7  -5   32.77    3.35
   2  -7  -5   36.07    3.34
  -2   7   5   31.51    3.25
  -2   7   5   33.23    3.82
   1  -7  -5   66.44    4.71
   1  -7  -5   68.20    4.97
   1  -7  -5   60.20    4.54
   1  -7  -5   62.26    4.19
  -1   7   5   54.68    4.29
  -1   7   5   71.75    4.90
   0  -7  -5   17.91    3.01
   0  -7  -5   14.83    3.06
   0  -7  -5   16.71    2.88
   0  -7  -5   16.22    3.08
   0   7   5   15.08    2.53
   0   7   5   20.94    3.09
  -1  -7  -5   57.89    4.92
  -1  -7  -5   44.16    4.13
   1   7   5   55.48    4.82
  -2  -7  -5   45.53    4.50
  -2  -7  -5   42.08    4.79
  -2  -7  -5   49.13    4.49
   2   7   5   44.65    4.61
   2   7   5   42.04    2.95
   2   7   5   42.62    2.93
  -3  -7  -5   11.69    3.22
  -3  -7  -5   10.31    2.82
   3   7   5    8.66    2.02
   3   7   5   18.58    2.68
   3   7   5   12.48    3.44
  -4  -7  -5   35.76    4.91
  -4  -7  -5   33.98    4.47
   4   7   5   32.98    3.80
   4   7   5   20.80    4.23
  -5  -7  -5   17.73    4.35
  -5  -7  -5   22.32    4.27
   5   7   5   23.35    4.97
  -6  -7  -5   10.85    4.15
   6   7   5    2.87    3.40
   7  -8  -5   36.19    2.36
   7  -8  -5   37.60    2.25
  -7   8   5   34.58    5.39
   6  -8  -5    2.05    1.04
   6  -8  -5    3.57    1.35
   6  -8  -5    3.57    1.47
  -6   8   5    0.20    1.95
   5  -8  -5   -0.14    1.23
   5  -8  -5    0.53    1.05
   5  -8  -5    1.03    1.16
   5  -8  -5    0.91    1.31
  -5   8   5   -0.81    2.02
   4  -8  -5   67.50    4.73
   4  -8  -5   75.05    4.67
   4  -8  -5   70.01    4.26
   4  -8  -5   70.06    4.50
  -4   8   5   75.13    6.29
   3  -8  -5    1.12    1.41
   3  -8  -5    4.18    1.95
   3  -8  -5    5.60    1.96
   3  -8  -5    2.91    1.66
  -3   8   5   11.78    3.06
  -3   8   5    4.79    1.68
   2  -8  -5   -1.15    1.39
   2  -8  -5   -1.36    1.26
   2  -8  -5    0.67    1.59
  -2   8   5   -1.02    1.58
  -2   8   5   -0.12    1.33
   1  -8  -5   88.33    5.58
   1  -8  -5  108.16    7.48
  -1   8   5   97.96    6.17
  -1   8   5   89.30    5.95
   0  -8  -5    2.56    1.98
   0  -8  -5    0.11    1.45
   0   8   5    4.50    2.34
  -1  -8  -5   -0.23    2.04
  -1  -8  -5    0.41    1.71
  -1  -8  -5    2.32    2.21
   1   8   5    4.11    2.39
  -2  -8  -5   72.90    6.22
  -2  -8  -5   67.70    5.55
   2   8   5   59.58    5.76
  -3  -8  -5    4.53    2.87
  -3  -8  -5    2.09    2.24
   3   8   5    0.80    1.24
   3   8   5    4.04    2.45
   3   8   5    2.51    1.30
  -4  -8  -5    6.68    3.13
  -4  -8  -5    4.23    3.01
   4   8   5    2.06    2.05
   4   8   5    3.98    1.85
   4   8   5    2.63    2.83
   6  -9  -5    1.31    1.25
   5  -9  -5   11.80    2.57
   5  -9  -5    6.98    2.14
   5  -9  -5    7.14    2.17
  -5   9   5    8.23    3.59
   4  -9  -5   51.16    4.18
   4  -9  -5   43.20    4.33
   4  -9  -5   39.92    4.00
   4  -9  -5   47.01    4.09
  -4   9   5   47.00    5.52
   3  -9  -5    2.49    1.98
   3  -9  -5    6.37    2.15
   3  -9  -5    3.08    1.92
  -3   9   5    3.61    2.58
  -3   9   5    5.45    2.01
   2  -9  -5    1.90    2.51
   2  -9  -5    2.14    1.76
  -2   9   5    4.60    2.19
  -2   9   5    2.89    2.37
   1  -9  -5   55.86    4.77
   1  -9  -5   51.44    6.15
  -1   9   5   49.92    4.67
   0  -9  -5    2.34    2.61
   0  -9  -5   -0.55    1.68
   0   9   5    4.59    2.33
  -1  -9  -5   -1.48    1.67
  -1  -9  -5   -1.49    2.05
   1   9   5    0.73    2.26
  -2  -9  -5   55.97    5.55
   2   9   5   41.00    5.42
  -3  -9  -5    0.01    2.32
  -3  -9  -5   -2.57    2.45
   3   9   5   -0.71    2.52
   3 -10  -5   13.51    3.08
   2 -10  -5    6.11    2.65
  -2  10   5    8.22    2.74
   1 -10  -5   24.60    4.32
  -1  10   5   31.62    4.49
   0 -10  -5   10.67    3.11
   0  10   5   11.68    3.43
   0 -11   6   10.03    2.96
   4  10  -6   27.30    2.89
   4  10  -6   37.14    5.17
  -4 -10   6   25.77    4.79
   3  10  -6   18.80    4.37
  -3 -10   6   19.70    4.14
   2  10  -6    5.67    2.88
  -2 -10   6    8.26    2.93
   1  10  -6   38.49    4.71
  -1 -10   6   39.36    4.46
   0  10  -6   17.85    3.76
   0 -10   6   13.36    3.20
  -1  10  -6   21.80    3.98
   1 -10   6   23.99    3.56
  -2  10  -6   33.84    4.10
   2 -10   6   37.26    3.95
  -3  10  -6   12.45    3.04
   3 -10   6   16.22    3.21
   4 -10   6   35.46    3.84
   4 -10   6   28.85    3.63
   5   9  -6    1.82    2.24
  -5  -9   6    2.13    2.34
   4   9  -6   60.73    4.35
   4   9  -6   63.35    6.07
   4   9  -6   63.34    4.54
  -4  -9   6   73.30    5.75
   3   9  -6    1.07    1.18
   3   9  -6    1.03    1.20
   3   9  -6   -1.48    1.53
  -3  -9   6    1.42    2.01
   2   9  -6   -1.68    1.35
  -2  -9   6    2.32    2.03
   1   9  -6   90.53    6.42
  -1  -9   6   93.26    6.08
   0   9  -6   11.55    3.09
   0  -9   6   15.04    3.14
  -1   9  -6    2.55    1.80
   1  -9   6    3.85    1.85
   1  -9   6   -0.97    1.74
  -2   9  -6   94.65    5.96
   2  -9   6   98.73    5.89
   2  -9   6   99.78    6.01
   2  -9   6   92.49    7.68
  -3   9  -6    2.45    1.84
   3  -9   6    1.34    1.63
   3  -9   6    3.05    1.60
   3  -9   6    4.88    2.91
  -4   9  -6    1.09    1.81
   4  -9   6    1.41    1.14
   4  -9   6    6.25    2.11
   5  -9   6   55.54    4.41
   5  -9   6   59.77    5.05
   5  -9   6   65.58    4.79
   7   8  -6   34.34    4.66
   7   8  -6   38.16    6.82
  -7  -8   6   17.84    3.54
   6   8  -6    1.29    2.17
   6   8  -6    8.59    3.53
   5   8  -6   16.44    3.76
   5   8  -6   17.54    3.48
  -5  -8   6   12.34    3.34
   4   8  -6   67.25    5.85
   4   8  -6   59.07    5.49
   4   8  -6   80.17    4.95
   4   8  -6   55.98    5.21
  -4  -8   6   69.51    5.28
   3   8  -6    2.21    1.32
   3   8  -6    6.50    1.88
   3   8  -6    5.51    2.48
  -3  -8   6    3.79    1.78
   2   8  -6   16.77    1.97
   2   8  -6   26.33    3.53
   2   8  -6   18.18    1.96
  -2  -8   6   20.71    3.23
   1   8  -6  124.37    7.28
  -1  -8   6  138.47    7.01
   0   8  -6   18.98    3.00
   0  -8   6   15.52    3.39
   0  -8   6   17.69    2.80
  -1   8  -6    9.51    2.58
   1  -8   6    6.35    1.82
   1  -8   6    6.74    2.62
   1  -8   6   12.17    2.47
  -2   8  -6   82.10    5.26
   2  -8   6   86.86    5.08
   2  -8   6   79.31    5.42
   2  -8   6   85.42    6.78
   2  -8   6   74.88    5.22
   2  -8   6   75.10    4.81
  -3   8  -6    5.36    2.09
   3  -8   6    7.27    2.06
   3  -8   6   10.02    2.09
   3  -8   6    9.79    2.35
   3  -8   6    6.60    2.84
  -4   8  -6    2.85    1.75
   4  -8   6    0.15    1.89
   4  -8   6    1.02    0.90
   4  -8   6    1.23    1.46
   4  -8   6    2.53    1.73
   4  -8   6    3.12    1.63
   5  -8   6   76.58    5.05
   5  -8   6   75.51    4.66
   5  -8   6   76.67    5.31
   5  -8   6   78.67    7.16
   5  -8   6   75.33    4.93
   6  -8   6    2.19    1.73
   6  -8   6    3.93    1.92
   6  -8   6    2.78    1.51
   6  -8   6    3.32    1.73
   8   7  -6   16.05    4.28
   8   7  -6   23.98    4.53
   7   7  -6   10.26    3.23
   7   7  -6   11.85    3.72
  -7  -7   6    4.80    2.29
  -7  -7   6    9.34    2.47
   6   7  -6   47.94    5.21
  -6  -7   6   45.17    4.07
   5   7  -6   21.38    3.86
  -5  -7   6   19.69    3.83
   4   7  -6   24.95    3.63
   4   7  -6   17.09    2.77
  -4  -7   6   22.57    3.11
   3   7  -6   78.59    4.54
   3   7  -6   87.68    4.81
   3   7  -6   99.68    6.24
  -3  -7   6   86.54    5.37
   2   7  -6   17.58    2.96
   2   7  -6   23.40    2.36
   2   7  -6   22.07    2.23
  -2  -7   6   20.82    2.87
   1   7  -6   40.54    2.15
   1   7  -6   42.83    2.32
   1   7  -6   39.95    3.83
  -1  -7   6   40.21    3.50
  -1  -7   6   45.42    3.85
  -1  -7   6   40.54    5.83
   0   7  -6   78.26    5.14
   0  -7   6   87.09    5.07
   0  -7   6   80.84    4.86
   0  -7   6   81.55    5.34
   0  -7   6   80.58    4.47
   0  -7   6   81.67    5.14
   0  -7   6   87.13    6.17
  -1   7  -6   12.83    2.57
   1  -7   6    9.97    2.09
   1  -7   6   10.80    2.26
   1  -7   6   13.54    2.41
   1  -7   6   14.61    2.71
   1  -7   6   10.00    2.04
   1  -7   6   11.37    2.88
  -2   7  -6   75.62    4.91
   2  -7   6   76.94    4.69
   2  -7   6   83.90    4.98
   2  -7   6   91.31    4.85
   2  -7   6   83.87    5.09
   2  -7   6   80.50    5.03
   2  -7   6   84.08    6.32
  -3   7  -6   64.89    4.44
   3  -7   6   65.50    4.22
   3  -7   6   66.22    4.34
   3  -7   6   58.70    4.36
   3  -7   6   69.15    5.90
  -4   7  -6   15.87    2.68
   4  -7   6   17.08    2.24
   4  -7   6   13.43    2.52
   4  -7   6   15.90    2.71
   4  -7   6   15.55    2.69
   4  -7   6   22.26    3.80
  -5   7  -6   57.55    3.76
   5  -7   6   59.38    4.31
   5  -7   6   62.79    3.94
   5  -7   6   60.38    4.41
   5  -7   6   64.93    6.09
   5  -7   6   64.68    4.51
   6  -7   6   29.76    3.37
   6  -7   6   32.96    3.55
   6  -7   6   26.41    3.08
   6  -7   6   27.65    4.64
   7  -7   6    5.17    1.91
   7  -7   6    4.18    2.02
   7  -7   6    3.40    2.48
   8   6  -6    3.17    2.63
   7   6  -6    0.36    1.91
  -7  -6   6   -0.41    1.68
  -7  -6   6   -0.39    1.33
   6   6  -6   81.90    5.98
  -6  -6   6   65.08    4.42
  -6  -6   6   65.53    4.54
   5   6  -6    3.71    2.13
  -5  -6   6    2.64    1.68
  -5  -6   6    3.95    1.62
  -5  -6   6    2.88    1.66
   4   6  -6    2.44    1.30
   4   6  -6    0.39    1.31
  -4  -6   6    2.30    1.51
  -4  -6   6    0.83    1.27
  -4  -6   6    0.58    2.23
   3   6  -6  175.23    7.37
   3   6  -6  184.76    8.74
  -3  -6   6  177.71    7.91
  -3  -6   6  178.03    7.85
   2   6  -6    5.04    1.86
   2   6  -6    3.33    1.17
   2   6  -6    7.85    2.21
   2   6  -6    1.58    1.13
   2   6  -6    7.05    2.06
  -2  -6   6    4.60    1.61
  -2  -6   6    2.60    1.45
  -2  -6   6    4.38    1.67
  -2  -6   6    4.48    2.53
  -2  -6   6    2.32    1.34
   1   6  -6    9.00    1.45
   1   6  -6    9.09    2.17
   1   6  -6   10.56    1.53
   1   6  -6   11.08    2.41
   1   6  -6   12.39    2.29
   1   6  -6   13.55    2.49
  -1  -6   6   11.20    2.26
  -1  -6   6    9.54    2.09
  -1  -6   6   10.84    2.12
  -1  -6   6   10.46    2.19
  -1  -6   6    9.21    2.20
  -1  -6   6    7.21    2.01
  -1  -6   6   13.51    2.61
   0   6  -6  204.30    8.99
   0   6  -6  200.59    9.42
   0   6  -6  211.26    9.00
   0  -6   6  222.00    9.14
   0  -6   6  205.31    7.99
   0  -6   6  214.13    8.69
   0  -6   6  208.36    8.39
   0  -6   6  214.76    8.30
   0  -6   6  206.78    8.79
  -1   6  -6   10.39    2.13
  -1   6  -6   12.27    2.44
   1  -6   6    7.68    1.56
   1  -6   6    9.67    2.38
   1  -6   6   12.43    2.04
   1  -6   6   13.52    2.41
   1  -6   6   13.57    2.32
   1  -6   6    9.47    1.96
   1  -6   6    7.57    1.80
  -2   6  -6   17.63    2.43
   2  -6   6   15.22    2.36
   2  -6   6   16.70    2.98
   2  -6   6   18.79    2.12
   2  -6   6   18.54    2.25
   2  -6   6   22.17    2.51
  -3   6  -6  179.96    8.02
   3  -6   6  190.04    7.61
   3  -6   6  194.60    9.77
   3  -6   6  196.70    8.04
   3  -6   6  179.40    8.07
   3  -6   6  188.03    7.88
  -4   6  -6    6.92    2.03
   4  -6   6    3.41    1.87
   4  -6   6    5.80    1.87
   4  -6   6    7.11    1.54
   4  -6   6    2.93    1.38
   4  -6   6    5.00    1.68
  -5   6  -6   20.49    2.52
   5  -6   6   21.08    2.22
   5  -6   6   17.95    2.62
   5  -6   6   16.38    2.34
   5  -6   6   20.94    2.81
   5  -6   6   24.01    3.81
   6  -6   6   75.89    4.64
   6  -6   6   82.62    6.52
   6  -6   6   74.95    4.90
   6  -6   6   74.81    4.78
   7  -6   6    0.62    1.64
   7  -6   6    1.05    1.91
   7  -6   6    3.64    1.74
   8  -6   6    7.58    2.06
   8  -6   6    5.98    2.19
  -9  -5   6   27.00    7.29
   8   5  -6    5.30    2.89
   7   5  -6    8.99    2.85
  -7  -5   6    6.65    1.43
  -7  -5   6   11.27    1.70
   6   5  -6  123.37    7.21
  -6  -5   6  127.57    5.83
  -6  -5   6  117.55    5.61
   5   5  -6    9.82    2.53
  -5  -5   6    9.76    1.93
  -5  -5   6    7.94    1.97
  -5  -5   6    7.64    1.87
  -5  -5   6    9.68    1.92
   4   5  -6   21.67    2.54
   4   5  -6   21.71    2.85
   4   5  -6   25.51    2.99
   4   5  -6   23.47    3.01
   4   5  -6   25.43    2.55
  -4  -5   6   23.73    2.77
  -4  -5   6   22.99    2.59
  -4  -5   6   21.48    2.41
   3   5  -6  206.45    8.44
   3   5  -6  195.75    8.80
   3   5  -6  205.81    8.91
   3   5  -6  198.51    7.81
   3   5  -6  183.82    9.49
   3   5  -6  191.78    7.74
   3   5  -6  212.71    8.61
  -3  -5   6  184.03    8.30
  -3  -5   6  188.06    8.02
  -3  -5   6  206.91    8.52
  -3  -5   6  184.80    7.92
  -3  -5   6  193.78    7.86
   2   5  -6   12.58    1.69
   2   5  -6   11.34    2.20
   2   5  -6   15.43    1.84
   2   5  -6   12.41    2.24
   2   5  -6   13.16    2.21
   2   5  -6   12.68    2.08
  -2  -5   6   12.92    1.90
  -2  -5   6   11.26    1.85
  -2  -5   6    8.79    1.91
  -2  -5   6   12.96    2.33
  -2  -5   6   12.42    2.24
  -2  -5   6    9.85    1.88
   1   5  -6    3.97    1.33
   1   5  -6    3.06    1.07
   1   5  -6    5.55    1.51
   1   5  -6    7.27    1.75
   1   5  -6    1.15    0.88
  -1  -5   6    6.05    1.37
  -1  -5   6    4.43    1.27
  -1  -5   6    4.47    1.32
  -1  -5   6    3.71    1.20
  -1  -5   6    4.62    1.35
   0   5  -6  312.30   11.60
   0   5  -6  319.16   11.03
   0   5  -6  311.18   11.06
   0   5  -6  310.18   11.55
   0   5  -6  304.98    9.52
   0   5  -6  297.71    9.72
   0  -5   6  311.83   10.74
   0  -5   6  310.14   10.87
   0  -5   6  309.85   10.66
   0  -5   6  313.17   11.29
   0  -5   6  315.09   11.16
   0  -5   6  306.49   11.03
   0  -5   6  310.20   11.35
  -1   5  -6    8.07    1.74
  -1   5  -6    8.60    1.84
  -1   5  -6   13.28    2.57
   1  -5   6    9.72    1.74
   1  -5   6   12.59    1.80
   1  -5   6    7.65    1.61
   1  -5   6    9.09    1.74
   1  -5   6    8.69    1.78
  -2   5  -6    4.01    1.19
  -2   5  -6    3.84    1.46
   2  -5   6    3.17    1.26
   2  -5   6    2.40    1.47
   2  -5   6    1.89    1.05
   2  -5   6    5.55    1.51
   2  -5   6    3.47    1.30
   2  -5   6    3.60    1.12
  -3   5  -6  219.31    8.97
   3  -5   6  242.40   10.45
   3  -5   6  220.58    8.99
   3  -5   6  221.48    8.64
   3  -5   6  227.30    8.30
   3  -5   6  218.94    8.82
   3  -5   6  205.80    8.72
  -4   5  -6    4.75    1.69
   4  -5   6    4.03    1.57
   4  -5   6    4.90    1.65
   4  -5   6    4.03    1.34
   4  -5   6    6.46    2.17
  -5   5  -6    1.11    1.34
   5  -5   6    1.42    1.08
   5  -5   6    2.70    1.59
   5  -5   6    1.90    1.23
   5  -5   6    0.72    1.34
  -6   5  -6  110.82    5.08
   6  -5   6  109.34    5.60
   6  -5   6  101.53    5.26
   6  -5   6  101.67    5.85
   7  -5   6   -0.40    1.19
   7  -5   6    0.75    1.21
   7  -5   6   -2.71    1.59
   8  -5   6    0.48    2.08
   8  -5   6    0.56    1.39
   8  -5   6    0.02    1.46
   8  -5   6    1.19    1.40
  -9  -4   6    9.19    4.60
  -8  -4   6   43.96    6.49
   7   4  -6   28.88    3.73
   6   4  -6   68.74    4.96
  -6  -4   6   64.26    3.44
  -6  -4   6   60.76    3.34
  -6  -4   6   63.82    3.90
   5   4  -6  108.54    5.91
   5   4  -6  105.28    5.77
   5   4  -6  100.76    5.66
   5   4  -6  113.03    6.15
   5   4  -6  117.80    6.35
  -5  -4   6   98.47    4.79
  -5  -4   6  100.78    4.96
  -5  -4   6  108.01    5.25
  -5  -4   6  106.94    5.18
   4   4  -6   19.21    2.23
   4   4  -6   19.08    2.55
   4   4  -6   20.57    2.27
   4   4  -6   18.89    2.59
   4   4  -6   18.23    2.33
   4   4  -6   17.82    2.35
   4   4  -6   17.94    2.31
   4   4  -6   18.40    2.33
  -4  -4   6   17.95    2.05
  -4  -4   6   22.75    2.30
  -4  -4   6   17.08    2.20
   3   4  -6  154.77    6.39
   3   4  -6  153.58    6.73
   3   4  -6  168.33    6.97
   3   4  -6  151.85    7.24
   3   4  -6  159.72    7.30
   3   4  -6  151.68    6.44
   3   4  -6  168.86    7.08
  -3  -4   6  160.78    6.45
  -3  -4   6  144.28    6.42
  -3  -4   6  162.42    6.66
   2   4  -6  132.59    5.81
   2   4  -6  129.22    6.18
   2   4  -6  122.53    5.98
   2   4  -6  121.30    5.55
   2   4  -6  125.99    5.28
   2   4  -6  133.42    6.12
   2   4  -6  128.17    5.36
   2   4  -6  126.35    5.77
  -2  -4   6  126.82    5.49
  -2  -4   6  118.88    5.33
  -2  -4   6  121.30    5.67
  -2  -4   6  115.55    5.32
   1   4  -6   45.18    2.99
   1   4  -6   38.89    3.05
   1   4  -6   43.06    2.96
   1   4  -6   40.65    2.59
   1   4  -6   39.75    3.13
   1   4  -6   38.40    2.44
  -1  -4   6   38.86    2.90
  -1  -4   6   45.75    2.78
  -1  -4   6   46.27    2.88
  -1  -4   6   37.82    2.74
  -1  -4   6   42.41    2.98
   0   4  -6  203.15    7.16
   0   4  -6  217.81    8.07
   0   4  -6  204.90    7.76
   0   4  -6  212.90    8.53
   0   4  -6  216.09    8.43
   0   4  -6  217.02    7.48
   0   4  -6  212.43    8.17
   0  -4   6  232.77    8.61
   0  -4   6  224.19    7.87
   0  -4   6  227.77    8.23
   0  -4   6  220.43    8.41
   0  -4   6  213.65    7.98
   0  -4   6  203.23    8.02
  -1   4  -6  127.46    5.63
  -1   4  -6  135.11    5.66
  -1   4  -6  121.04    5.66
  -1   4  -6  127.90    5.40
  -1   4  -6  131.91    6.01
   1  -4   6  131.75    5.82
   1  -4   6  132.60    5.75
   1  -4   6  129.09    5.52
   1  -4   6  138.97    6.07
   1  -4   6  124.20    5.19
  -2   4  -6   15.85    2.23
  -2   4  -6   18.24    1.83
  -2   4  -6   18.84    2.35
   2  -4   6   15.38    2.14
   2  -4   6   22.35    2.23
   2  -4   6   17.40    2.05
   2  -4   6   19.08    2.21
  -3   4  -6  203.23    8.60
  -3   4  -6  191.75    8.00
   3  -4   6  187.22    7.87
   3  -4   6  180.12    7.47
   3  -4   6  187.36    7.52
   3  -4   6  183.78    7.97
  -4   4  -6   50.72    3.75
   4  -4   6   56.87    3.92
   4  -4   6   53.70    3.56
   4  -4   6   59.47    4.07
   4  -4   6   53.42    3.39
  -5   4  -6   10.77    2.14
   5  -4   6   10.61    2.07
   5  -4   6    9.62    2.07
   5  -4   6   10.15    1.74
  -6   4  -6  107.85    5.29
   6  -4   6  105.18    5.25
   6  -4   6  103.15    5.34
   6  -4   6   99.87    5.78
  -7   4  -6   20.72    2.54
   7  -4   6   18.04    2.58
   7  -4   6   24.45    2.89
   7  -4   6   11.67    2.62
   7  -4   6   14.57    2.59
  -8   4  -6    3.54    2.88
   8  -4   6    1.74    1.59
   8  -4   6    4.49    2.25
   8  -4   6    1.22    1.73
   8  -4   6    2.68    1.54
  -9   4  -6   41.76    6.66
   9  -4   6   43.72    4.12
   9  -4   6   28.84    4.27
 -10  -3   6    2.64    3.75
  -9  -3   6   -1.45    2.84
  -8  -3   6   98.88    8.77
   7   3  -6   16.49    2.72
   7   3  -6   16.23    3.02
   7   3  -6   15.21    2.87
  -7  -3   6   14.85    2.30
  -7  -3   6   16.22    4.44
   6   3  -6    6.54    2.16
   6   3  -6    5.31    1.90
   6   3  -6    4.66    1.83
   6   3  -6    0.70    1.35
   6   3  -6    5.41    1.70
   6   3  -6    3.55    1.57
  -6  -3   6    7.32    1.86
   5   3  -6  194.33    8.10
   5   3  -6  189.97    8.02
   5   3  -6  181.74    7.96
   5   3  -6  195.49    7.72
   5   3  -6  187.65    8.04
   5   3  -6  198.60    8.56
   5   3  -6  193.10    8.34
   5   3  -6  188.44    7.66
  -5  -3   6  186.97    6.73
  -5  -3   6  172.19    7.11
  -5  -3   6  182.06    6.66
  -5  -3   6  196.04    7.74
   4   3  -6   10.60    1.79
   4   3  -6    9.19    1.76
   4   3  -6    7.24    1.61
   4   3  -6    8.90    1.69
   4   3  -6   10.50    2.13
   4   3  -6   14.70    1.87
   4   3  -6   14.03    1.99
   4   3  -6   12.53    2.22
  -4  -3   6   11.68    1.77
  -4  -3   6   12.18    1.60
  -4  -3   6   12.72    1.69
   3   3  -6   48.93    2.85
   3   3  -6   44.52    3.40
   3   3  -6   50.28    3.39
   3   3  -6   46.90    3.17
   3   3  -6   48.67    3.21
   3   3  -6   47.50    2.99
  -3  -3   6   46.57    2.93
  -3  -3   6   44.72    2.79
  -3  -3   6   46.45    2.87
   2   3  -6  472.62   14.75
   2   3  -6  486.50   15.30
   2   3  -6  489.84   15.26
   2   3  -6  458.83   15.66
   2   3  -6  442.97   13.79
   2   3  -6  474.01   15.19
   2   3  -6  451.65   14.80
   2   3  -6  454.31   15.49
  -2  -3   6  456.43   15.12
  -2  -3   6  476.77   14.85
  -2  -3   6  467.00   14.84
  -2  -3   6  451.91   15.17
  -2  -3   6  451.30   14.81
   1   3  -6   24.22    2.06
   1   3  -6   25.49    2.20
   1   3  -6   23.63    1.86
   1   3  -6   21.77    1.87
   1   3  -6   22.39    2.27
   1   3  -6   23.40    1.71
   1   3  -6   26.06    2.05
   1   3  -6   22.73    2.09
   1   3  -6   23.16    2.27
  -1  -3   6   24.25    2.07
  -1  -3   6   24.10    1.96
  -1  -3   6   23.76    2.17
  -1  -3   6   25.41    2.02
   0   3  -6   84.09    3.95
   0   3  -6   79.12    4.06
   0   3  -6   82.73    4.17
   0   3  -6   87.18    4.10
   0   3  -6   83.17    4.36
   0   3  -6   82.54    3.79
   0   3  -6   84.48    3.58
   0  -3   6   84.10    4.08
   0  -3   6   85.29    3.85
   0  -3   6   82.94    4.04
   0  -3   6   82.89    4.28
   0  -3   6   81.05    4.14
  -1   3  -6  371.26   11.98
  -1   3  -6  348.64   12.46
  -1   3  -6  350.85   10.87
  -1   3  -6  364.71   11.94
  -1   3  -6  332.62   12.19
  -1   3  -6  348.04   10.74
  -1   3  -6  371.47   12.25
   1  -3   6  357.08   11.92
   1  -3   6  380.24   12.58
   1  -3   6  354.14   12.13
   1  -3   6  370.22   12.43
   1  -3   6  359.24   11.62
  -2   3  -6   25.31    2.43
  -2   3  -6   21.56    2.44
  -2   3  -6   24.21    2.28
  -2   3  -6   22.35    1.79
   2  -3   6   22.38    2.36
   2  -3   6   24.39    2.22
   2  -3   6   21.63    2.81
   2  -3   6   21.73    2.31
   2  -3   6   18.73    1.99
  -3   3  -6   56.79    2.66
  -3   3  -6   52.18    3.78
  -3   3  -6   67.18    4.25
   3  -3   6   60.57    3.47
   3  -3   6   57.77    3.92
   3  -3   6   53.74    3.39
   3  -3   6   52.20    3.62
  -4   3  -6  195.37    8.83
  -4   3  -6  189.51    8.14
   4  -3   6  201.76    7.70
   4  -3   6  181.87    7.42
   4  -3   6  189.21    8.09
   4  -3   6  195.51    8.25
  -5   3  -6    9.59    2.55
  -5   3  -6    7.31    1.96
  -5   3  -6    6.02    2.04
   5  -3   6    5.04    2.05
   5  -3   6    5.95    1.82
   5  -3   6    7.80    1.79
   5  -3   6    8.66    1.72
  -6   3  -6   26.62    2.83
  -6   3  -6   21.45    3.41
   6  -3   6   40.07    3.61
   6  -3   6   33.46    3.13
   6  -3   6   25.50    2.63
   6  -3   6   31.18    2.96
  -7   3  -6   60.09    5.50
  -7   3  -6   54.84    4.04
   7  -3   6   60.45    4.17
   7  -3   6   52.88    4.02
   7  -3   6   66.57    4.79
   7  -3   6   61.31    4.72
  -8   3  -6    2.72    1.65
  -8   3  -6    3.50    2.96
   8  -3   6    6.12    1.95
   8  -3   6    3.62    1.82
   8  -3   6    5.28    2.47
   8  -3   6    6.16    2.35
   9  -3   6   16.43    3.52
   9  -3   6   12.11    2.89
 -10  -2   6   -1.90    2.87
  -9  -2   6   14.23    4.86
   8   2  -6  108.34    6.19
   8   2  -6  108.09    6.30
  -8  -2   6  105.42    8.82
  -8  -2   6  112.69    6.17
   7   2  -6    4.35    1.64
   7   2  -6    8.17    2.13
   7   2  -6    9.66    2.40
   7   2  -6    5.75    1.89
   7   2  -6    9.89    2.16
   7   2  -6    6.47    1.82
  -7  -2   6    6.74    1.90
  -7  -2   6    5.26    3.10
   6   2  -6    5.61    1.26
   6   2  -6    1.82    1.10
   6   2  -6    5.66    1.74
   6   2  -6    1.76    1.21
   6   2  -6    5.93    1.50
   6   2  -6    5.69    1.72
   6   2  -6    6.13    1.83
  -6  -2   6    6.31    2.75
  -6  -2   6    5.96    1.74
   5   2  -6  256.12    9.63
   5   2  -6  234.21    9.53
   5   2  -6  263.37   10.25
   5   2  -6  250.46    9.54
   5   2  -6  253.52    9.63
   5   2  -6  261.04    8.41
   5   2  -6  260.66    9.26
   5   2  -6  248.28    9.82
  -5  -2   6  256.15    9.74
  -5  -2   6  249.05    8.50
   4   2  -6    1.65    0.97
   4   2  -6    2.53    1.14
   4   2  -6    2.85    1.10
   4   2  -6    3.58    1.18
   4   2  -6    2.53    1.03
   4   2  -6    3.51    1.27
   4   2  -6    3.59    1.10
   4   2  -6    4.35    1.19
   4   2  -6    3.15    1.15
  -4  -2   6    2.33    0.86
  -4  -2   6    4.20    0.98
  -4  -2   6    3.00    0.90
  -4  -2   6    3.44    1.34
   3   2  -6   35.03    2.51
   3   2  -6   29.23    2.47
   3   2  -6   25.72    2.33
   3   2  -6   31.45    2.30
   3   2  -6   27.47    2.26
   3   2  -6   32.43    2.36
   3   2  -6   29.73    2.09
   3   2  -6   29.11    2.34
  -3  -2   6   31.95    2.19
  -3  -2   6   27.68    2.04
  -3  -2   6   28.16    2.07
   2   2  -6  576.54   18.08
   2   2  -6  579.04   18.60
   2   2  -6  585.06   17.83
   2   2  -6  587.95   18.29
   2   2  -6  557.45   18.27
   2   2  -6  573.02   18.01
   2   2  -6  583.23   18.28
  -2  -2   6  591.41   17.92
  -2  -2   6  592.98   17.91
  -2  -2   6  578.14   17.83
  -2  -2   6  581.02   18.26
  -2  -2   6  590.75   18.16
   1   2  -6   16.13    1.94
   1   2  -6   23.96    1.95
   1   2  -6   19.36    1.79
   1   2  -6   22.76    1.98
   1   2  -6   20.91    1.77
   1   2  -6   22.57    1.83
   1   2  -6   20.05    1.85
  -1  -2   6   20.69    1.89
  -1  -2   6   17.49    1.64
  -1  -2   6   20.93    1.83
  -1  -2   6   22.43    1.90
   0   2  -6    0.27    0.71
   0   2  -6    0.16    0.69
   0   2  -6    0.44    0.66
   0   2  -6    1.73    0.84
   0   2  -6    0.16    0.65
   0   2  -6    0.76    0.87
   0   2  -6    0.45    0.61
   0  -2   6    0.42    0.56
   0  -2   6    0.82    0.83
   0  -2   6    2.78    0.95
   0  -2   6    0.69    0.66
   0  -2   6    1.42    0.84
  -1   2  -6  398.69   13.11
  -1   2  -6  403.97   12.42
  -1   2  -6  384.36   12.18
  -1   2  -6  394.56   13.74
  -1   2  -6  403.25   12.08
  -1   2  -6  390.28   13.46
  -1   2  -6  401.93   13.33
   1  -2   6  390.81   12.66
   1  -2   6  385.18   13.19
   1  -2   6  379.73   12.89
   1  -2   6  382.25   12.50
   1  -2   6  359.54   13.17
   1  -2   6  382.28   13.04
  -2   2  -6   21.48    2.13
  -2   2  -6   16.94    1.55
  -2   2  -6   13.22    2.11
  -2   2  -6   17.28    2.31
  -2   2  -6   15.99    2.07
   2  -2   6   17.39    1.80
   2  -2   6   19.26    1.76
   2  -2   6   20.16    2.21
   2  -2   6   19.94    1.97
   2  -2   6   17.73    1.94
   2  -2   6   16.69    2.22
  -3   2  -6    3.68    1.48
  -3   2  -6   -0.07    0.47
  -3   2  -6    1.88    0.63
  -3   2  -6    2.97    1.06
  -3   2  -6    1.41    1.12
  -3   2  -6    2.19    1.42
   3  -2   6    1.72    1.16
   3  -2   6    1.13    1.19
   3  -2   6    2.40    0.92
   3  -2   6    2.32    1.02
   3  -2   6    2.93    1.15
  -4   2  -6  229.56    9.58
  -4   2  -6  200.66    8.71
  -4   2  -6  213.75    8.66
   4  -2   6  210.00    8.21
   4  -2   6  212.66    8.65
   4  -2   6  210.11    8.49
   4  -2   6  218.44    8.19
   4  -2   6  210.61    8.97
  -5   2  -6    2.58    1.53
  -5   2  -6    1.09    1.18
  -5   2  -6    1.18    1.36
   5  -2   6    0.97    1.07
   5  -2   6   -0.22    1.31
   5  -2   6    1.55    1.15
   5  -2   6   -0.67    0.98
   5  -2   6   -0.47    0.94
  -6   2  -6    2.86    2.15
  -6   2  -6    2.45    1.62
  -6   2  -6    1.40    1.63
   6  -2   6    2.38    1.58
   6  -2   6    3.44    1.45
   6  -2   6    2.61    1.50
   6  -2   6    4.07    1.56
  -7   2  -6   95.93    5.65
  -7   2  -6   93.15    6.59
   7  -2   6   96.27    5.93
   7  -2   6   97.46    6.15
   7  -2   6   93.49    5.53
   7  -2   6  104.97    5.63
  -8   2  -6   -0.67    1.50
  -8   2  -6    3.76    2.77
   8  -2   6    0.37    1.69
   8  -2   6    3.16    2.10
  -9   2  -6    1.41    2.01
   9  -2   6   -0.44    1.59
 -10  -1   6   20.87    5.81
   9   1  -6   11.15    2.49
   9   1  -6    7.84    3.37
   9   1  -6   15.48    2.98
  -9  -1   6    9.73    4.21
  -9  -1   6    6.82    2.37
   8   1  -6   50.65    4.06
   8   1  -6   48.75    4.06
   8   1  -6   46.62    3.71
   8   1  -6   47.41    3.92
   8   1  -6   48.97    4.21
  -8  -1   6   48.71    6.16
  -8  -1   6   44.27    4.03
   7   1  -6   61.45    4.17
   7   1  -6   67.09    4.25
   7   1  -6   62.42    3.90
   7   1  -6   65.01    4.55
   7   1  -6   66.56    4.16
  -7  -1   6   67.39    4.60
  -7  -1   6   62.94    6.25
   6   1  -6   31.83    2.66
   6   1  -6   36.57    2.64
   6   1  -6   34.61    2.78
   6   1  -6   29.89    2.60
   6   1  -6   32.99    2.88
   6   1  -6   30.78    2.80
   6   1  -6   26.89    2.89
  -6  -1   6   32.98    4.18
  -6  -1   6   30.10    2.97
   5   1  -6  163.18    6.80
   5   1  -6  166.38    6.94
   5   1  -6  173.68    6.85
   5   1  -6  163.58    6.61
   5   1  -6  162.49    6.69
  -5  -1   6  175.99    8.89
  -5  -1   6  168.25    7.38
   4   1  -6  207.58    7.26
   4   1  -6  208.58    7.72
   4   1  -6  204.18    7.59
   4   1  -6  209.74    7.59
   4   1  -6  203.92    7.73
   4   1  -6  198.51    7.82
  -4  -1   6  205.71    9.33
  -4  -1   6  214.16    8.36
  -4  -1   6  198.10    6.77
   3   1  -6   27.92    2.11
   3   1  -6   24.04    1.99
   3   1  -6   22.37    1.93
   3   1  -6   23.68    1.81
   3   1  -6   25.51    2.03
   3   1  -6   23.76    2.19
  -3  -1   6   20.89    1.45
  -3  -1   6   25.49    1.63
  -3  -1   6   22.31    1.64
   2   1  -6  161.46    5.93
   2   1  -6  170.25    6.26
   2   1  -6  176.43    6.38
   2   1  -6  163.56    6.57
   2   1  -6  159.05    6.22
   2   1  -6  159.94    6.33
  -2  -1   6  168.41    6.36
  -2  -1   6  159.58    5.98
  -2  -1   6  167.38    6.36
  -2  -1   6  170.57    5.86
  -2  -1   6  159.65    5.88
   1   1  -6   72.29    3.61
   1   1  -6   82.17    3.87
   1   1  -6   72.92    3.95
   1   1  -6   80.57    3.58
   1   1  -6   75.12    3.71
   1   1  -6   77.57    3.85
  -1  -1   6   78.65    3.86
  -1  -1   6   77.73    3.52
  -1  -1   6   81.22    3.73
  -1  -1   6   83.97    4.01
  -1  -1   6   77.39    3.58
  -1  -1   6   82.02    3.77
   0   1  -6    4.03    1.13
   0   1  -6    4.32    1.03
   0   1  -6    2.96    1.22
   0   1  -6    4.21    1.19
   0   1  -6    4.45    1.14
   0   1  -6    2.65    0.96
   0  -1   6    3.81    1.15
   0  -1   6    2.89    1.22
   0  -1   6    3.06    1.07
   0  -1   6    4.10    1.08
   0  -1   6    2.35    0.95
   0  -1   6    2.77    0.94
   0  -1   6    0.42    0.68
  -1   1  -6  281.69    9.50
  -1   1  -6  276.90   10.51
  -1   1  -6  290.84   10.21
  -1   1  -6  280.42    9.62
  -1   1  -6  290.03    9.45
  -1   1  -6  287.97    9.89
   1  -1   6  270.50    8.78
   1  -1   6  279.30   10.17
   1  -1   6  300.97   10.34
   1  -1   6  289.04   10.28
   1  -1   6  284.95    9.95
   1  -1   6  286.05    9.76
   1  -1   6  293.51    9.81
   1  -1   6  278.73   10.52
  -2   1  -6   99.03    4.23
  -2   1  -6   92.12    4.62
  -2   1  -6   91.19    4.73
  -2   1  -6   90.00    3.72
  -2   1  -6   93.55    3.74
  -2   1  -6   94.78    5.08
  -2   1  -6   93.01    5.04
   2  -1   6   85.95    4.30
   2  -1   6   89.66    4.41
   2  -1   6   97.65    3.95
   2  -1   6   95.48    4.76
   2  -1   6  101.03    5.10
   2  -1   6   92.83    4.73
   2  -1   6   93.80    4.63
   2  -1   6   90.32    4.22
  -3   1  -6   16.26    2.31
  -3   1  -6   14.23    2.32
  -3   1  -6   14.18    1.85
  -3   1  -6   14.74    2.02
  -3   1  -6   13.34    1.59
  -3   1  -6   15.76    1.74
   3  -1   6   18.87    1.95
   3  -1   6   15.50    2.07
   3  -1   6   15.04    1.75
   3  -1   6   12.14    1.95
   3  -1   6   15.21    1.96
   3  -1   6   11.34    1.67
   3  -1   6   12.05    2.36
  -4   1  -6  217.65    9.38
  -4   1  -6  210.07    8.13
  -4   1  -6  202.99    8.09
  -4   1  -6  205.39    7.11
  -4   1  -6  202.60    8.85
   4  -1   6  214.46    8.92
   4  -1   6  205.63    8.08
   4  -1   6  207.86    8.51
   4  -1   6  214.54    8.31
   4  -1   6  202.98    8.74
  -5   1  -6   31.64    3.57
  -5   1  -6   29.39    3.04
  -5   1  -6   27.81    3.11
   5  -1   6   29.88    3.23
   5  -1   6   29.49    3.25
   5  -1   6   26.58    2.67
   5  -1   6   35.97    3.35
   5  -1   6   30.75    2.85
  -6   1  -6    7.45    2.19
  -6   1  -6    7.46    2.21
  -6   1  -6    4.01    1.94
   6  -1   6    8.53    2.19
   6  -1   6    5.92    2.12
   6  -1   6    4.92    1.75
   6  -1   6    5.94    2.11
   6  -1   6    5.14    1.58
  -7   1  -6   96.99    6.45
  -7   1  -6   94.42    5.82
   7  -1   6   93.03    5.51
   7  -1   6   91.74    6.28
   7  -1   6   94.21    6.36
  -8   1  -6    2.16    2.68
  -8   1  -6    4.02    2.14
   8  -1   6    4.26    1.99
  -9   1  -6    5.32    2.44
   9  -1   6    1.87    1.92
  10   0  -6   57.66    4.72
  10   0  -6   55.19    4.55
 -10   0   6   44.46    6.76
 -10   0   6   54.53    5.35
   9   0  -6    2.59    1.44
   9   0  -6    1.67    1.51
   9   0  -6    3.48    1.62
   9   0  -6    7.66    2.12
  -9   0   6    5.24    2.38
  -9   0   6    4.39    3.30
   8   0  -6    5.08    1.68
   8   0  -6    8.24    2.14
   8   0  -6    7.01    1.75
   8   0  -6    5.35    1.68
   8   0  -6    7.15    1.75
  -8   0   6    9.21    2.42
  -8   0   6    3.88    3.16
   7   0  -6  154.31    6.74
   7   0  -6  175.29    7.42
   7   0  -6  158.59    6.77
   7   0  -6  158.32    6.87
   7   0  -6  152.41    6.53
  -7   0   6  155.76    9.60
  -7   0   6  162.42    7.85
   6   0  -6    5.76    1.40
   6   0  -6    4.67    1.53
   6   0  -6    6.70    1.45
   6   0  -6    4.31    1.10
   6   0  -6    4.00    1.24
  -6   0   6    3.55    2.16
  -6   0   6    3.32    1.46
   5   0  -6   34.60    2.51
   5   0  -6   36.24    2.67
   5   0  -6   37.87    2.67
   5   0  -6   34.16    2.26
   5   0  -6   32.61    2.37
  -5   0   6   36.42    3.18
  -5   0   6   35.03    2.57
  -5   0   6   37.88    3.96
   4   0  -6  222.82    8.23
   4   0  -6  228.04    7.98
   4   0  -6  234.16    7.84
   4   0  -6  216.74    7.96
   4   0  -6  216.44    8.16
  -4   0   6  233.31    9.08
  -4   0   6  223.38    8.54
  -4   0   6  225.64    9.75
   3   0  -6    7.52    1.27
   3   0  -6    8.11    1.14
   3   0  -6   13.71    2.57
   3   0  -6    9.10    1.62
   3   0  -6    6.56    1.33
   3   0  -6    6.77    1.33
   3   0  -6    5.76    1.08
  -3   0   6    7.40    1.27
  -3   0   6    7.79    1.90
  -3   0   6    6.45    0.91
  -3   0   6    9.25    2.12
   2   0  -6  195.60    6.82
   2   0  -6  183.67    6.89
   2   0  -6  184.61    6.84
   2   0  -6  190.92    6.82
   2   0  -6  181.35    7.10
   2   0  -6  189.74    6.42
   2   0  -6  187.19    7.17
  -2   0   6  186.35    7.18
  -2   0   6  178.47    7.19
  -2   0   6  192.39    6.04
  -2   0   6  176.54    6.05
  -2   0   6  193.89    6.79
  -2   0   6  173.24    6.21
   1   0  -6  394.10   13.64
   1   0  -6  414.86   13.16
   1   0  -6  407.49   13.30
   1   0  -6  395.14   13.19
   1   0  -6  409.21   13.59
   1   0  -6  414.64   12.91
   1   0  -6  405.64   13.37
  -1   0   6  389.19   13.77
  -1   0   6  416.19   13.41
  -1   0   6  394.62   12.68
  -1   0   6  413.98   12.86
  -1   0   6  425.27   12.77
  -1   0   6  406.23   13.19
  -1   0   6  435.97   13.34
  -1   0   6  403.59   12.98
   0   0  -6   61.18    3.45
   0   0  -6   52.97    3.19
   0   0  -6   58.04    3.23
   0   0  -6   55.37    3.02
   0   0  -6   53.54    3.20
   0   0  -6   51.38    3.46
   0   0   6   54.03    3.18
   0   0   6   43.90    2.85
   0   0   6   53.65    2.95
   0   0   6   51.37    3.46
   0   0   6   52.83    3.00
   0   0   6   55.19    3.26
   0   0   6   54.26    3.18
  -1   0  -6   87.88    4.29
  -1   0  -6   79.39    3.81
  -1   0  -6   83.56    4.11
  -1   0  -6   77.37    4.04
  -1   0  -6   85.11    4.36
  -1   0  -6   85.75    3.98
  -1   0  -6   75.97    4.48
   1   0   6   78.53    4.00
   1   0   6   84.41    4.09
   1   0   6   80.85    4.24
   1   0   6   78.02    4.26
   1   0   6   81.88    3.93
   1   0   6   83.33    4.55
  -2   0  -6  320.10    9.90
  -2   0  -6  331.09   10.90
  -2   0  -6  336.11   10.78
  -2   0  -6  339.35   11.23
  -2   0  -6  325.07   12.09
  -2   0  -6  325.51   11.61
   2   0   6  311.40   11.22
   2   0   6  306.14   11.50
   2   0   6  332.41   11.79
   2   0   6  347.01   11.45
   2   0   6  326.95   11.67
   2   0   6  329.17   11.10
  -3   0  -6   34.20    2.16
  -3   0  -6   31.48    3.21
  -3   0  -6   33.26    2.27
  -3   0  -6   34.37    2.63
  -3   0  -6   39.70    2.83
  -3   0  -6   33.71    3.22
  -3   0  -6   31.83    2.78
   3   0   6   32.68    2.81
   3   0   6   32.37    3.08
   3   0   6   32.88    2.46
   3   0   6   37.95    3.04
   3   0   6   32.22    2.65
   3   0   6   38.43    2.83
   3   0   6   35.71    3.10
  -4   0  -6   79.14    5.36
  -4   0  -6   78.10    4.27
  -4   0  -6   85.06    4.14
  -4   0  -6   80.62    4.49
  -4   0  -6   81.05    4.09
  -4   0  -6   77.45    5.05
   4   0   6   84.83    5.07
   4   0   6   82.47    4.85
   4   0   6   84.79    4.67
   4   0   6   90.88    4.59
   4   0   6   83.34    4.68
   4   0   6   85.19    4.33
   4   0   6   82.36    5.06
  -5   0  -6  121.17    5.99
  -5   0  -6  106.70    4.32
  -5   0  -6  110.10    6.29
  -5   0  -6  127.93    7.05
   5   0   6  119.00    6.42
   5   0   6  111.87    5.90
   5   0   6  115.02    6.54
   5   0   6  126.32    6.36
   5   0   6  110.72    5.70
  -6   0  -6   13.42    2.77
  -6   0  -6   15.63    3.41
  -6   0  -6   14.71    3.00
   6   0   6    8.18    2.17
   6   0   6   13.66    2.92
   6   0   6   12.96    2.86
   6   0   6   16.40    2.54
  -7   0  -6   34.25    4.50
  -7   0  -6   28.29    3.83
  -7   0  -6   33.78    4.09
   7   0   6   34.54    6.79
   7   0   6   31.94    3.33
  -8   0  -6   29.28    3.96
   8   0   6   31.79    3.80
  -9   0  -6    2.08    2.21
   9   0   6    1.00    1.74
  10  -1  -6   52.01    4.31
  10  -1  -6   37.71    3.92
  10  -1  -6   46.65    4.03
  10  -1  -6   37.48    3.73
 -10   1   6   43.11    6.49
 -10   1   6   44.25    5.16
   9  -1  -6    1.12    1.22
   9  -1  -6   -0.24    1.17
   9  -1  -6    0.82    1.35
  -9   1   6    0.88    1.86
  -9   1   6   -0.67    2.39
   8  -1  -6    0.50    0.96
   8  -1  -6    2.76    1.39
   8  -1  -6    0.46    1.27
   8  -1  -6    1.24    1.07
  -8   1   6    0.15    1.58
  -8   1   6    2.84    2.89
   7  -1  -6  175.86    6.65
   7  -1  -6  173.07    6.87
   7  -1  -6  158.40    6.39
   7  -1  -6  167.96    6.78
  -7   1   6  175.27   10.05
  -7   1   6  166.64    8.36
   6  -1  -6    0.94    1.16
   6  -1  -6    2.91    1.13
   6  -1  -6    0.79    0.83
   6  -1  -6    0.64    0.64
   6  -1  -6    1.67    1.03
   6  -1  -6    1.62    0.90
  -6   1   6    3.56    2.00
  -6   1   6    2.52    1.33
   5  -1  -6    0.98    0.75
   5  -1  -6    0.38    0.50
   5  -1  -6    0.98    0.71
   5  -1  -6    0.88    0.76
   5  -1  -6    1.61    0.92
   5  -1  -6    1.38    0.78
  -5   1   6   -0.83    1.17
  -5   1   6    0.24    0.75
  -5   1   6   -0.59    0.91
  -5   1   6    0.43    1.03
   4  -1  -6  433.30   13.08
   4  -1  -6  408.15   13.28
   4  -1  -6  397.44   12.51
   4  -1  -6  397.97   12.99
   4  -1  -6  380.30   12.74
   4  -1  -6  406.29   12.50
  -4   1   6  410.78   15.02
  -4   1   6  410.43   12.97
  -4   1   6  422.37   14.62
  -4   1   6  400.60   13.32
   3  -1  -6    3.47    1.01
   3  -1  -6    2.57    1.01
   3  -1  -6    2.88    0.80
   3  -1  -6    2.70    1.14
   3  -1  -6    3.82    0.94
   3  -1  -6    3.24    0.75
  -3   1   6    4.02    1.71
  -3   1   6    3.38    0.82
  -3   1   6    2.59    1.01
  -3   1   6    3.03    1.35
  -3   1   6    4.13    1.28
   2  -1  -6    2.04    0.78
   2  -1  -6    2.13    0.91
   2  -1  -6    1.32    0.68
   2  -1  -6    2.26    0.89
   2  -1  -6    3.10    0.96
   2  -1  -6    0.15    0.80
   2  -1  -6    2.10    0.92
  -2   1   6    1.43    1.06
  -2   1   6    0.66    0.94
  -2   1   6    2.81    0.92
  -2   1   6    0.71    0.98
  -2   1   6    1.43    0.61
   1  -1  -6  638.66   18.45
   1  -1  -6  599.86   19.05
   1  -1  -6  591.54   18.79
   1  -1  -6  594.63   19.15
   1  -1  -6  606.41   18.66
   1  -1  -6  601.94   18.54
   1  -1  -6  595.02   19.08
   1  -1  -6  607.91   19.51
  -1   1   6  590.51   19.32
  -1   1   6  597.83   18.28
  -1   1   6  614.03   18.50
  -1   1   6  617.80   19.06
  -1   1   6  634.67   18.11
   0  -1  -6    3.20    1.10
   0  -1  -6    6.91    1.59
   0  -1  -6    8.18    1.46
   0  -1  -6    7.49    1.51
   0  -1  -6    5.83    1.41
   0  -1  -6    4.37    1.17
   0  -1  -6    5.79    1.66
   0   1   6    5.90    1.21
   0   1   6    5.27    1.25
   0   1   6    6.78    1.29
   0   1   6    7.08    1.74
   0   1   6    5.85    1.37
   0   1   6    3.08    1.08
   0   1   6    5.76    1.16
  -1  -1  -6    2.31    1.30
  -1  -1  -6    2.79    1.10
  -1  -1  -6    2.74    1.04
  -1  -1  -6    5.31    1.33
  -1  -1  -6    1.81    0.86
  -1  -1  -6    5.04    1.41
  -1  -1  -6    3.15    1.13
   1   1   6    2.89    1.33
   1   1   6    4.47    1.25
   1   1   6    2.80    1.06
   1   1   6    4.98    1.51
   1   1   6    4.14    1.25
   1   1   6    0.51    0.67
   1   1   6    3.29    1.05
  -2  -1  -6  347.14   12.38
  -2  -1  -6  348.86   12.01
  -2  -1  -6  359.59   11.07
  -2  -1  -6  366.07   12.49
  -2  -1  -6  365.61   13.33
  -2  -1  -6  376.33   12.43
  -2  -1  -6  366.07   12.81
   2   1   6  365.58   12.76
   2   1   6  354.98   12.35
   2   1   6  376.43   12.33
   2   1   6  368.03   13.25
  -3  -1  -6    1.22    0.98
  -3  -1  -6    2.08    1.24
  -3  -1  -6    2.05    1.04
  -3  -1  -6    1.03    1.03
  -3  -1  -6    2.06    1.35
   3   1   6    1.09    1.18
   3   1   6    1.83    1.40
   3   1   6    1.30    1.10
   3   1   6   -0.35    0.85
   3   1   6    2.23    1.12
   3   1   6    1.34    1.23
   3   1   6    3.34    1.26
  -4  -1  -6   10.61    2.67
  -4  -1  -6    7.93    1.95
  -4  -1  -6   10.42    1.61
  -4  -1  -6    8.52    1.38
  -4  -1  -6    7.93    1.90
  -4  -1  -6    6.96    1.91
  -4  -1  -6   10.64    2.46
  -4  -1  -6    8.10    1.47
   4   1   6    5.77    1.94
   4   1   6   13.50    2.02
   4   1   6   10.14    2.18
   4   1   6    9.52    2.24
   4   1   6    8.19    1.84
   4   1   6    3.98    1.57
   4   1   6    7.38    1.93
  -5  -1  -6  133.79    5.71
  -5  -1  -6  142.85    7.85
  -5  -1  -6  126.27    7.17
  -5  -1  -6  131.81    6.65
   5   1   6  137.80    7.05
   5   1   6  145.83    7.59
   5   1   6  138.74    6.70
   5   1   6  145.01    7.45
  -6  -1  -6    1.96    2.03
  -6  -1  -6    2.70    1.98
  -6  -1  -6    2.30    1.91
   6   1   6    0.67    1.87
   6   1   6    3.49    1.55
  -7  -1  -6    4.32    2.34
  -7  -1  -6    1.13    2.13
  -7  -1  -6    3.27    2.12
   7   1   6    2.75    1.50
  -8  -1  -6   50.77    5.16
   8   1   6   45.34    4.32
  -9  -1  -6    0.96    2.30
   9   1   6    3.36    2.32
  10  -2  -6   28.34    3.03
 -10   2   6   29.36    6.86
 -10   2   6   35.51    4.87
   9  -2  -6   27.20    2.61
   9  -2  -6   27.06    2.81
   9  -2  -6   26.19    2.44
   9  -2  -6   26.96    2.83
  -9   2   6   25.85    5.73
  -9   2   6   31.09    4.10
   8  -2  -6   27.56    2.09
   8  -2  -6   23.99    2.36
   8  -2  -6   24.19    2.49
   8  -2  -6   24.31    2.36
  -8   2   6   26.50    3.73
  -8   2   6   27.92    4.59
   7  -2  -6   88.64    3.51
   7  -2  -6   89.13    4.27
   7  -2  -6   91.21    3.74
   7  -2  -6   91.41    4.12
   7  -2  -6   93.20    4.30
  -7   2   6   97.04    7.23
  -7   2   6   90.39    6.11
   6  -2  -6   59.34    3.12
   6  -2  -6   59.01    2.27
   6  -2  -6   61.48    3.18
  -6   2   6   64.06    2.95
  -6   2   6   65.27    5.54
  -6   2   6   63.26    4.70
   5  -2  -6   21.41    1.81
   5  -2  -6   18.52    1.71
   5  -2  -6   18.76    1.98
   5  -2  -6   19.10    1.01
   5  -2  -6   21.31    1.49
  -5   2   6   18.69    2.68
  -5   2   6   21.86    1.90
  -5   2   6   18.17    3.04
   4  -2  -6  231.59    7.25
   4  -2  -6  233.48    8.10
   4  -2  -6  224.64    7.81
   4  -2  -6  227.88    7.32
   4  -2  -6  243.18    7.62
   4  -2  -6  227.27    8.35
  -4   2   6  235.88   10.11
  -4   2   6  234.07    9.72
  -4   2   6  234.77    7.94
  -4   2   6  229.27    8.19
   3  -2  -6   99.46    4.35
   3  -2  -6   89.11    3.76
   3  -2  -6   97.08    3.72
   3  -2  -6   93.17    3.82
   3  -2  -6   95.47    3.97
   3  -2  -6   85.43    4.40
  -3   2   6   91.36    5.15
  -3   2   6   93.98    4.41
  -3   2   6  105.05    4.41
  -3   2   6   89.65    5.10
   2  -2  -6   13.76    1.59
   2  -2  -6   18.03    1.62
   2  -2  -6   17.51    1.91
   2  -2  -6   17.84    2.11
   2  -2  -6   16.98    1.63
  -2   2   6   15.83    1.93
  -2   2   6   16.43    1.91
  -2   2   6   16.07    1.64
  -2   2   6   17.87    1.02
  -2   2   6   17.67    2.18
   1  -2  -6  367.28   11.94
   1  -2  -6  347.12   11.36
   1  -2  -6  337.49   11.47
   1  -2  -6  356.77   12.37
   1  -2  -6  336.34   12.12
   1  -2  -6  347.39   11.57
   1  -2  -6  347.25   12.00
  -1   2   6  343.31   10.41
  -1   2   6  354.08   11.85
  -1   2   6  353.36   12.29
  -1   2   6  345.32   10.49
  -1   2   6  357.70   11.27
  -1   2   6  344.99   12.29
   0  -2  -6   49.60    3.23
   0  -2  -6   52.34    3.11
   0  -2  -6   51.10    3.10
   0  -2  -6   52.49    3.42
   0  -2  -6   49.50    3.43
   0  -2  -6   47.17    3.00
   0  -2  -6   45.90    3.41
   0  -2  -6   50.06    2.49
   0   2   6   55.99    2.92
   0   2   6   54.49    2.91
   0   2   6   50.18    3.29
   0   2   6   52.99    3.57
   0   2   6   48.25    2.94
  -1  -2  -6    4.00    1.37
  -1  -2  -6    2.99    1.29
  -1  -2  -6    0.38    0.99
  -1  -2  -6    2.66    1.05
  -1  -2  -6    2.61    1.06
  -1  -2  -6    1.26    0.92
  -1  -2  -6    4.10    1.36
   1   2   6    2.52    1.18
   1   2   6    4.13    1.29
   1   2   6    2.56    1.10
   1   2   6    3.34    1.54
   1   2   6    4.38    1.15
   1   2   6    3.84    1.28
   1   2   6    2.22    0.98
  -2  -2  -6  257.34    9.96
  -2  -2  -6  244.01    9.39
  -2  -2  -6  234.76    9.48
  -2  -2  -6  263.89    9.65
  -2  -2  -6  258.76   10.39
  -2  -2  -6  261.01    9.96
  -2  -2  -6  265.59    9.31
   2   2   6  257.53    9.31
   2   2   6  248.51    9.82
   2   2   6  265.02   10.22
   2   2   6  242.48    9.73
   2   2   6  248.65    9.34
   2   2   6  229.08    9.61
  -3  -2  -6   12.01    2.28
  -3  -2  -6   15.71    2.40
  -3  -2  -6   15.97    2.19
  -3  -2  -6   15.48    2.59
   3   2   6   14.57    1.93
   3   2   6   21.02    2.68
   3   2   6   16.48    2.24
   3   2   6   13.77    2.24
   3   2   6   15.45    2.15
   3   2   6   14.93    2.43
   3   2   6    7.66    1.82
  -4  -2  -6    4.51    1.66
  -4  -2  -6    2.50    1.17
  -4  -2  -6    3.41    1.46
  -4  -2  -6   -0.67    1.27
  -4  -2  -6    4.01    1.72
  -4  -2  -6    4.23    1.89
   4   2   6    0.85    1.16
   4   2   6    4.77    1.76
   4   2   6    1.91    1.64
   4   2   6    0.91    1.28
  -5  -2  -6  126.94    6.59
  -5  -2  -6  116.18    5.32
  -5  -2  -6  117.98    6.33
  -5  -2  -6  130.05    7.72
  -5  -2  -6  123.10    5.91
  -5  -2  -6  128.36    7.34
  -5  -2  -6  136.49    5.43
   5   2   6  132.38    6.67
   5   2   6  135.63    7.44
  -6  -2  -6    7.83    2.78
  -6  -2  -6    3.79    2.07
  -6  -2  -6    3.36    2.12
   6   2   6    3.87    1.74
   6   2   6    4.47    2.31
  -7  -2  -6   -0.80    2.31
  -7  -2  -6    6.76    2.59
   7   2   6    1.59    1.68
   7   2   6   -0.82    1.89
  -8  -2  -6   50.92    5.51
   8   2   6   49.47    4.85
  10  -3  -6    2.69    1.11
 -10   3   6   -1.05    2.98
 -10   3   6    3.07    2.51
   9  -3  -6   80.78    4.12
   9  -3  -6   68.92    3.66
   9  -3  -6   75.39    3.95
   9  -3  -6   70.80    3.44
  -9   3   6   76.44    7.76
  -9   3   6   84.59    6.63
   8  -3  -6    4.43    1.34
   8  -3  -6    5.94    1.42
   8  -3  -6    4.23    1.24
  -8   3   6    6.71    2.54
  -8   3   6    2.04    2.59
   7  -3  -6   33.98    2.38
   7  -3  -6   32.26    2.39
   7  -3  -6   34.20    2.42
  -7   3   6   40.05    4.98
  -7   3   6   30.11    3.87
   6  -3  -6  110.91    4.77
   6  -3  -6  117.44    4.51
  -6   3   6  116.62    6.94
  -6   3   6  137.59    8.27
   5  -3  -6   24.82    1.65
   5  -3  -6   18.14    1.77
  -5   3   6   18.70    1.34
  -5   3   6   17.93    2.74
  -5   3   6   19.01    3.14
   4  -3  -6   73.02    2.69
   4  -3  -6   78.68    3.87
   4  -3  -6   74.18    2.72
   4  -3  -6   78.81    3.25
   4  -3  -6   79.42    3.32
   4  -3  -6   71.04    3.74
  -4   3   6   87.95    5.51
  -4   3   6   74.53    4.97
  -4   3   6   77.83    3.48
   3  -3  -6  193.61    6.98
   3  -3  -6  191.02    6.81
   3  -3  -6  193.73    7.61
   3  -3  -6  204.85    6.90
   3  -3  -6  199.17    7.68
   3  -3  -6  201.87    7.02
  -3   3   6  216.18    7.68
  -3   3   6  197.61    7.38
  -3   3   6  206.30    8.86
  -3   3   6  203.13    8.74
   2  -3  -6   23.27    1.89
   2  -3  -6   23.66    2.34
   2  -3  -6   17.52    1.76
   2  -3  -6   18.25    1.82
   2  -3  -6   23.22    2.29
  -2   3   6   20.85    2.45
  -2   3   6   19.35    2.09
   1  -3  -6  142.76    5.74
   1  -3  -6  137.53    6.17
   1  -3  -6  138.76    6.29
   1  -3  -6  137.61    5.70
   1  -3  -6  124.53    5.68
   1  -3  -6  171.06    6.83
   1  -3  -6  138.37    6.23
  -1   3   6  135.15    5.21
  -1   3   6  139.80    5.93
  -1   3   6  127.52    6.17
  -1   3   6  135.35    6.09
   0  -3  -6  170.01    7.17
   0  -3  -6  179.96    6.85
   0  -3  -6  168.85    7.39
   0  -3  -6  158.29    6.79
   0  -3  -6  177.87    7.42
   0  -3  -6  178.78    6.97
   0  -3  -6  158.96    7.49
   0   3   6  173.70    7.22
   0   3   6  166.56    7.05
   0   3   6  176.91    6.77
   0   3   6  179.58    7.51
   0   3   6  179.35    6.37
   0   3   6  168.05    6.30
  -1  -3  -6   21.65    2.29
  -1  -3  -6   21.99    2.55
  -1  -3  -6   17.16    2.06
  -1  -3  -6   16.77    2.22
  -1  -3  -6   20.12    2.38
  -1  -3  -6   16.68    2.44
   1   3   6   20.27    2.07
   1   3   6   14.83    1.97
   1   3   6   18.76    2.01
   1   3   6   19.67    2.40
   1   3   6   21.70    2.18
   1   3   6   23.58    2.63
  -2  -3  -6   97.54    5.78
  -2  -3  -6   98.82    5.37
  -2  -3  -6   89.31    5.09
  -2  -3  -6   97.79    5.03
  -2  -3  -6   95.07    5.07
  -2  -3  -6   97.33    5.34
  -2  -3  -6   92.42    4.86
   2   3   6   87.16    4.74
   2   3   6   97.39    5.05
   2   3   6   98.18    5.34
   2   3   6   95.27    5.62
   2   3   6   97.54    5.30
   2   3   6   95.45    4.49
   2   3   6   88.24    4.68
  -3  -3  -6  109.94    5.68
  -3  -3  -6  109.74    5.96
  -3  -3  -6  104.97    6.33
  -3  -3  -6  113.50    5.71
   3   3   6  104.41    5.86
   3   3   6   98.85    5.39
   3   3   6  105.29    5.76
   3   3   6  101.79    5.33
   3   3   6  111.18    6.38
  -4  -3  -6   16.58    2.52
  -4  -3  -6   14.91    2.60
  -4  -3  -6   15.80    2.26
  -4  -3  -6   10.76    2.46
  -4  -3  -6   15.83    3.27
   4   3   6   17.60    3.54
   4   3   6   17.19    2.62
  -5  -3  -6   54.03    4.31
  -5  -3  -6   56.31    3.74
  -5  -3  -6   63.25    5.22
  -5  -3  -6   54.80    4.45
  -5  -3  -6   49.26    3.75
  -5  -3  -6   59.19    5.31
  -5  -3  -6   48.66    3.95
   5   3   6   52.95    4.87
   5   3   6   51.60    4.33
  -6  -3  -6   30.35    2.59
  -6  -3  -6   34.35    4.61
  -6  -3  -6   27.53    4.11
  -6  -3  -6   27.41    2.36
  -6  -3  -6   31.48    4.46
   6   3   6   31.27    3.78
   6   3   6   36.32    4.57
  -7  -3  -6   17.93    4.11
   7   3   6   10.86    3.36
   7   3   6    6.86    2.56
  -8  -3  -6   19.78    4.42
   8   3   6   20.47    4.01
  10  -4  -6    0.98    0.88
 -10   4   6   -1.39    2.22
 -10   4   6   -1.92    2.90
  -9   4   6   60.76    7.11
  -9   4   6   67.42    6.33
   8  -4  -6   -0.69    1.09
   8  -4  -6    0.67    0.87
   8  -4  -6    0.90    0.87
  -8   4   6   -0.32    1.72
  -8   4   6   -1.96    1.97
   7  -4  -6    1.18    0.93
  -7   4   6    0.76    2.40
  -7   4   6    0.84    1.72
   6  -4  -6  164.89    6.61
   6  -4  -6  185.76    6.02
  -6   4   6  181.11   10.28
  -6   4   6  181.64    9.43
   5  -4  -6    0.26    0.70
   5  -4  -6    0.76    0.88
  -5   4   6   -0.53    1.33
  -5   4   6   -0.27    1.30
   4  -4  -6    2.89    0.98
   4  -4  -6    1.71    0.59
   4  -4  -6    1.41    0.54
   4  -4  -6    1.33    1.06
  -4   4   6    0.57    0.90
  -4   4   6    1.64    0.84
  -4   4   6    1.43    1.64
  -4   4   6    2.27    1.55
   3  -4  -6  255.35    8.86
   3  -4  -6  259.54    8.75
   3  -4  -6  253.43    9.51
   3  -4  -6  272.57    8.87
   3  -4  -6  257.82    9.37
  -3   4   6  252.50    9.03
  -3   4   6  241.54   10.48
   2  -4  -6    1.42    1.03
   2  -4  -6    1.69    0.83
   2  -4  -6    1.27    0.93
   2  -4  -6    0.23    0.69
   2  -4  -6    0.82    0.93
  -2   4   6    0.61    1.00
  -2   4   6    0.46    1.18
   1  -4  -6    6.73    1.56
   1  -4  -6    6.45    1.88
   1  -4  -6    6.64    1.67
   1  -4  -6    8.83    1.81
   1  -4  -6    8.25    1.77
  -1   4   6    4.70    1.55
  -1   4   6    5.47    1.70
   0  -4  -6  221.48    8.78
   0  -4  -6  238.66    9.18
   0  -4  -6  236.06    9.00
   0  -4  -6  232.67    9.61
   0  -4  -6  243.38    8.83
   0  -4  -6  241.33    9.52
   0  -4  -6  222.79    9.41
   0   4   6  223.67    7.59
   0   4   6  233.62    9.48
   0   4   6  226.29    8.46
   0   4   6  229.69    7.58
   0   4   6  221.14    9.01
   0   4   6  227.60    8.93
  -1  -4  -6    3.69    1.51
  -1  -4  -6    0.11    1.05
  -1  -4  -6    1.87    1.24
  -1  -4  -6    3.09    1.41
  -1  -4  -6    1.20    1.09
  -1  -4  -6    2.99    1.66
  -1  -4  -6    1.38    1.18
   1   4   6    0.61    1.21
   1   4   6    3.67    1.26
   1   4   6    2.19    1.09
   1   4   6    0.61    0.88
   1   4   6   -0.12    0.98
   1   4   6    2.57    1.19
  -2  -4  -6    6.58    2.65
  -2  -4  -6    8.32    2.00
  -2  -4  -6    6.17    1.71
  -2  -4  -6    5.77    2.21
  -2  -4  -6    9.32    2.26
   2   4   6    8.85    1.98
   2   4   6    7.29    1.88
   2   4   6    6.76    1.46
   2   4   6    8.60    1.86
   2   4   6    8.13    2.17
   2   4   6    8.48    1.89
  -3  -4  -6  139.11    7.06
  -3  -4  -6  152.23    7.11
  -3  -4  -6  147.40    7.98
   3   4   6  158.11    8.03
   3   4   6  158.05    7.42
   3   4   6  149.48    5.73
   3   4   6  138.68    6.96
   3   4   6  146.10    6.87
  -4  -4  -6    5.36    1.70
  -4  -4  -6    5.41    2.13
  -4  -4  -6    4.64    1.66
  -4  -4  -6    3.68    1.91
  -4  -4  -6    2.78    1.97
   4   4   6    6.89    2.44
   4   4   6    6.95    2.21
  -5  -4  -6    7.18    2.51
  -5  -4  -6    3.64    1.64
  -5  -4  -6    4.91    2.16
  -5  -4  -6    4.05    1.80
  -5  -4  -6    4.02    2.35
   5   4   6    7.15    2.16
   5   4   6    1.21    1.91
  -6  -4  -6   51.22    3.84
  -6  -4  -6   57.84    6.03
  -6  -4  -6   57.05    4.19
  -6  -4  -6   57.57    5.84
   6   4   6   64.38    5.24
   6   4   6   61.33    5.76
  -7  -4  -6    1.94    2.48
   7   4   6    6.77    3.19
   7   4   6    3.28    2.46
   8   4   6   -0.79    2.16
  -9   5   6   38.70    5.25
  -9   5   6   48.04    6.95
   8  -5  -6   15.55    1.75
  -8   5   6   24.67    5.49
  -8   5   6   18.56    4.57
   7  -5  -6   10.36    1.69
  -7   5   6    7.33    2.74
  -7   5   6   11.21    4.27
   6  -5  -6   93.16    3.74
   6  -5  -6   88.38    4.34
  -6   5   6   97.52    6.91
  -6   5   6   98.90    7.64
   5  -5  -6   46.07    2.51
   5  -5  -6   37.55    2.89
  -5   5   6   41.21    4.78
  -5   5   6   39.00    4.20
   4  -5  -6    9.09    1.88
   4  -5  -6    7.93    1.35
   4  -5  -6    7.28    1.45
   4  -5  -6    6.66    1.19
  -4   5   6    5.40    1.18
  -4   5   6    7.61    2.23
   3  -5  -6  172.79    6.95
   3  -5  -6  158.21    6.48
   3  -5  -6  169.29    7.09
   3  -5  -6  165.83    6.46
  -3   5   6  166.00    6.67
  -3   5   6  173.67    8.38
   2  -5  -6   26.44    2.70
   2  -5  -6   20.44    2.22
   2  -5  -6   22.79    2.21
   2  -5  -6   24.38    2.62
   2  -5  -6   26.74    2.66
  -2   5   6   16.80    2.23
  -2   5   6   20.17    2.75
   1  -5  -6    6.10    1.75
   1  -5  -6    7.17    1.74
   1  -5  -6    2.36    1.25
   1  -5  -6    5.21    1.67
   1  -5  -6    3.91    1.62
  -1   5   6    8.93    2.16
  -1   5   6    4.91    1.75
   0  -5  -6  180.33    7.98
   0  -5  -6  164.18    7.96
   0  -5  -6  180.23    7.50
   0  -5  -6  178.29    8.06
   0  -5  -6  171.01    7.69
   0   5   6  164.64    7.33
   0   5   6  161.67    7.83
   0   5   6  173.49    6.88
  -1  -5  -6    7.32    2.01
  -1  -5  -6   11.98    2.43
  -1  -5  -6   12.67    2.52
  -1  -5  -6   15.67    3.26
   1   5   6   14.38    2.38
   1   5   6   13.25    2.89
   1   5   6   11.78    1.75
   1   5   6   10.63    1.75
   1   5   6   15.65    2.70
   1   5   6   13.76    1.95
  -2  -5  -6   11.19    2.62
  -2  -5  -6    5.70    2.13
   2   5   6    4.01    1.38
   2   5   6    5.36    1.38
   2   5   6    8.40    2.46
   2   5   6    2.85    1.39
   2   5   6    6.66    1.93
  -3  -5  -6  115.89    6.47
  -3  -5  -6  125.58    7.41
   3   5   6  104.10    6.09
   3   5   6  105.81    5.82
   3   5   6  121.77    7.34
   3   5   6  120.64    6.38
  -4  -5  -6    1.27    2.02
  -4  -5  -6    1.75    1.80
   4   5   6    1.10    1.75
   4   5   6    3.36    1.94
  -5  -5  -6    3.28    2.42
  -5  -5  -6    2.00    1.74
  -5  -5  -6    4.53    2.70
   5   5   6    0.08    1.81
   5   5   6    5.49    2.76
  -6  -5  -6   55.69    4.34
  -6  -5  -6   49.56    4.57
  -6  -5  -6   52.03    5.94
   6   5   6   56.96    5.36
   6   5   6   54.23    6.04
  -7  -5  -6    0.40    2.53
  -7  -5  -6    0.17    1.41
  -7  -5  -6    1.59    1.66
   7   5   6   -0.46    2.04
   7   5   6   -0.03    2.40
  -9   6   6    8.92    3.54
  -9   6   6    6.56    4.05
  -8   6   6   38.50    5.24
  -8   6   6   50.03    6.73
   7  -6  -6    6.22    1.35
  -7   6   6    3.74    2.89
  -7   6   6    8.70    4.12
   6  -6  -6   27.29    2.13
   6  -6  -6   24.20    2.35
  -6   6   6   27.72    4.12
   5  -6  -6   66.05    3.40
   5  -6  -6   60.16    2.94
   5  -6  -6   59.57    3.66
   5  -6  -6   59.43    3.01
  -5   6   6   64.22    5.50
   4  -6  -6   15.10    1.81
   4  -6  -6    9.89    1.77
   4  -6  -6   10.58    1.84
   4  -6  -6   14.50    2.39
  -4   6   6   13.53    3.16
  -4   6   6   12.69    1.63
   3  -6  -6   67.92    4.22
   3  -6  -6   70.79    3.94
   3  -6  -6   67.30    4.00
   3  -6  -6   69.47    4.40
  -3   6   6   65.28    5.19
  -3   6   6   67.61    3.87
   2  -6  -6   77.43    4.93
   2  -6  -6   75.84    4.39
   2  -6  -6   90.42    4.88
   2  -6  -6   81.12    4.83
  -2   6   6   74.96    5.37
  -2   6   6   76.93    4.68
   1  -6  -6   14.11    2.39
   1  -6  -6   15.88    2.80
   1  -6  -6   12.19    2.30
   1  -6  -6   13.69    2.56
   1  -6  -6   17.85    2.71
  -1   6   6   16.21    2.62
  -1   6   6   17.89    2.68
   0  -6  -6   57.10    4.18
   0  -6  -6   60.24    4.76
   0  -6  -6   57.12    4.57
   0  -6  -6   66.43    4.75
   0   6   6   66.00    4.73
   0   6   6   54.93    4.03
  -1  -6  -6   57.57    4.49
  -1  -6  -6   70.73    5.29
   1   6   6   63.10    3.95
   1   6   6   62.80    3.01
   1   6   6   63.80    4.96
   1   6   6   60.82    3.03
  -2  -6  -6   20.73    3.95
  -2  -6  -6   16.73    3.11
   2   6   6   18.94    2.43
   2   6   6   13.14    2.95
   2   6   6   15.90    2.21
  -3  -6  -6   62.28    5.45
  -3  -6  -6   52.22    4.63
   3   6   6   40.00    3.66
   3   6   6   50.98    4.23
   3   6   6   59.74    4.53
   3   6   6   57.82    5.38
  -4  -6  -6   25.38    3.90
  -4  -6  -6   18.46    4.09
   4   6   6   21.37    3.76
   4   6   6   22.15    4.31
  -5  -6  -6    9.43    3.43
  -5  -6  -6   12.70    3.31
   5   6   6    7.52    3.05
   5   6   6   16.14    3.51
  -6  -6  -6   28.79    5.68
   6   6   6   28.19    4.34
   6   6   6   16.89    4.08
  -8   7   6   51.26    6.34
  -7   7   6   -0.15    2.28
   6  -7  -6    1.36    1.25
   6  -7  -6    2.02    0.88
   6  -7  -6    2.61    0.92
   6  -7  -6    2.43    1.35
  -6   7   6    3.26    2.53
   5  -7  -6   88.49    4.71
   5  -7  -6   81.76    4.33
   5  -7  -6   89.24    4.51
   5  -7  -6   93.60    4.80
  -5   7   6  102.83    7.36
   4  -7  -6    2.00    1.31
   4  -7  -6    1.19    1.33
   4  -7  -6    0.65    1.18
   4  -7  -6    2.44    1.27
  -4   7   6    3.29    1.24
  -4   7   6    5.97    2.64
   3  -7  -6    2.49    1.40
   3  -7  -6    2.40    1.54
   3  -7  -6    0.97    1.19
   3  -7  -6    3.10    1.46
  -3   7   6    0.99    1.26
  -3   7   6    1.20    1.76
   2  -7  -6  117.46    6.71
   2  -7  -6  132.52    6.63
   2  -7  -6  115.35    6.31
   2  -7  -6  110.97    5.89
  -2   7   6  114.75    6.91
  -2   7   6  111.27    5.98
   1  -7  -6    1.75    1.72
   1  -7  -6    3.92    1.71
   1  -7  -6    5.53    2.12
  -1   7   6    5.16    2.01
  -1   7   6    4.40    1.95
   0  -7  -6    2.82    1.80
   0  -7  -6    6.71    2.27
   0   7   6    3.17    1.78
   0   7   6    4.28    1.86
  -1  -7  -6  101.41    6.81
  -1  -7  -6   96.15    6.11
   1   7   6  105.03    6.78
  -2  -7  -6    8.27    2.56
  -2  -7  -6    7.03    2.59
  -2  -7  -6    7.17    2.26
   2   7   6    8.65    1.69
   2   7   6    8.57    2.83
   2   7   6   10.42    1.77
  -3  -7  -6    4.20    2.87
  -3  -7  -6    6.30    2.58
   3   7   6    3.62    2.57
   3   7   6    3.88    1.61
   3   7   6    4.10    1.92
  -4  -7  -6   41.51    4.99
  -4  -7  -6   48.51    5.82
   4   7   6   51.00    4.59
   4   7   6   40.41    5.34
  -5  -7  -6    7.74    3.79
  -5  -7  -6    5.12    3.16
   5   7   6    7.70    3.39
   7  -8  -6    3.45    1.29
   7  -8  -6    6.01    1.62
  -7   8   6    1.88    2.80
   6  -8  -6    4.25    1.42
   6  -8  -6    3.92    1.51
   6  -8  -6    4.02    1.68
  -6   8   6   -0.57    2.43
   5  -8  -6   68.05    4.30
   5  -8  -6   58.97    4.40
   5  -8  -6   59.68    4.28
   5  -8  -6   67.46    4.21
  -5   8   6   66.68    6.50
   4  -8  -6    9.62    2.22
   4  -8  -6    4.97    2.05
   4  -8  -6    8.39    2.29
   4  -8  -6   10.06    2.36
  -4   8   6    5.88    2.75
   3  -8  -6    2.08    1.75
   3  -8  -6    3.88    1.71
   3  -8  -6    3.57    1.73
   3  -8  -6    4.67    1.86
  -3   8   6    4.60    2.50
  -3   8   6    4.70    1.81
   2  -8  -6   77.30    5.05
   2  -8  -6   84.12    5.91
   2  -8  -6   75.83    5.52
  -2   8   6   73.20    5.11
  -2   8   6   77.29    5.96
   1  -8  -6    3.04    1.83
  -1   8   6    2.73    1.92
  -1   8   6    2.43    1.89
   0  -8  -6    3.55    2.20
   0   8   6    0.63    1.75
  -1  -8  -6   65.93    6.10
  -1  -8  -6   66.33    5.40
  -1  -8  -6   79.62    7.30
   1   8   6   53.29    5.39
  -2  -8  -6   -1.10    1.90
  -2  -8  -6    1.32    2.47
   2   8   6    1.56    2.24
  -3  -8  -6   -1.78    2.10
  -3  -8  -6   -0.84    2.06
   3   8   6    0.23    1.23
   3   8   6    1.22    1.31
   3   8   6   -1.09    2.05
  -4  -8  -6   33.75    5.74
  -4  -8  -6   37.62    5.67
   4   8   6   28.90    3.72
   4   8   6   33.42    3.66
   4   8   6   35.80    5.41
   5  -9  -6   19.28    3.17
   5  -9  -6   20.35    3.34
   5  -9  -6   21.24    3.26
  -5   9   6   31.41    5.97
   4  -9  -6   21.20    3.23
   4  -9  -6   30.39    5.40
   4  -9  -6   27.16    3.75
  -4   9   6   26.63    5.15
   3  -9  -6    7.34    2.32
   3  -9  -6    3.99    2.49
  -3   9   6    6.99    3.00
  -3   9   6    5.06    2.14
   2  -9  -6   36.06    3.94
  -2   9   6   34.25    3.90
  -2   9   6   31.50    6.23
   1  -9  -6    9.42    2.86
   1  -9  -6   13.06    3.96
  -1   9   6    7.84    2.74
   0  -9  -6    8.18    2.98
   0  -9  -6    5.44    2.98
   0   9   6    7.11    2.92
  -1  -9  -6   33.69    4.58
   1   9   6   34.62    5.01
  -2  -9  -6    7.27    2.84
   2   9   6    4.42    3.14
   4  10  -7    2.70    2.64
   4  10  -7    2.51    1.82
  -4 -10   7    4.26    2.91
   3  10  -7   -0.23    1.85
  -3 -10   7    4.46    2.51
   2  10  -7   84.00    6.90
  -2 -10   7   94.23    6.71
   1  10  -7    0.23    2.01
  -1 -10   7   -1.51    1.87
   0  10  -7   -0.50    2.04
   0 -10   7    2.82    2.34
  -1  10  -7   54.93    5.13
   1 -10   7   56.07    4.84
  -2  10  -7    1.65    2.14
   2 -10   7    1.45    2.14
  -3  10  -7    3.53    2.49
   3 -10   7    2.23    2.20
   5   9  -7   49.41    5.68
  -5  -9   7   36.44    4.74
   4   9  -7    5.49    2.18
   4   9  -7    7.68    2.38
   4   9  -7    6.21    2.78
  -4  -9   7   10.15    3.11
   3   9  -7    1.42    2.09
   3   9  -7    3.00    1.40
   3   9  -7    4.16    1.59
  -3  -9   7    1.50    1.89
   2   9  -7   61.59    5.63
  -2  -9   7   68.88    5.41
   1   9  -7    6.03    2.28
  -1  -9   7    6.34    2.44
   0   9  -7    2.40    2.01
   0  -9   7    3.70    1.90
  -1   9  -7   95.68    6.49
   1  -9   7  117.44    6.56
  -2   9  -7    3.51    2.17
   2  -9   7    6.66    2.33
   2  -9   7    6.08    2.91
  -3   9  -7    4.58    2.22
   3  -9   7    6.18    2.13
   3  -9   7    8.83    2.32
  -4   9  -7   50.09    4.53
   4  -9   7   54.22    4.56
   4  -9   7   49.83    4.41
   5  -9   7    1.43    1.56
   5  -9   7    2.07    1.74
   7   8  -7   31.73    4.72
   7   8  -7   17.82    4.50
  -7  -8   7   28.60    3.79
   6   8  -7    3.80    2.59
   6   8  -7    2.72    2.67
   5   8  -7   32.33    4.66
   5   8  -7   27.16    4.33
  -5  -8   7   30.73    4.13
   4   8  -7   46.34    4.07
   4   8  -7   58.52    5.46
  -4  -8   7   50.95    4.66
   3   8  -7   16.30    2.53
   3   8  -7   14.11    3.31
   3   8  -7   14.65    2.49
  -3  -8   7   13.90    3.12
   2   8  -7   42.68    2.91
   2   8  -7   37.47    2.65
   2   8  -7   40.68    4.32
  -2  -8   7   41.90    4.01
   1   8  -7   56.43    4.97
  -1  -8   7   71.75    4.99
   0   8  -7   24.81    3.49
   0  -8   7   21.16    3.09
  -1   8  -7   55.17    4.65
   1  -8   7   61.90    4.68
   1  -8   7   65.55    4.53
  -2   8  -7   52.46    4.43
   2  -8   7   59.98    4.36
   2  -8   7   57.58    4.40
   2  -8   7   58.07    5.75
  -3   8  -7    8.78    2.46
   3  -8   7    9.70    2.23
   3  -8   7   10.58    2.70
   3  -8   7    5.55    1.89
   3  -8   7    8.76    2.41
   3  -8   7   10.63    3.27
  -4   8  -7   38.57    3.91
   4  -8   7   35.68    3.80
   4  -8   7   45.71    5.42
   4  -8   7   33.72    3.93
   4  -8   7   37.50    3.51
   4  -8   7   34.64    3.55
   5  -8   7   12.08    2.69
   5  -8   7   11.36    2.83
   5  -8   7   14.20    4.00
   5  -8   7   13.70    2.50
   5  -8   7   21.34    3.23
   6  -8   7    7.16    2.55
   6  -8   7    5.53    2.17
   8   7  -7   -1.32    2.25
   7   7  -7   64.84    6.34
  -7  -7   7   66.33    4.74
  -7  -7   7   62.80    4.79
   6   7  -7   -0.64    1.65
  -6  -7   7    0.82    1.74
   5   7  -7    0.84    1.87
  -5  -7   7    1.56    1.73
   4   7  -7  138.01    6.68
   4   7  -7  134.12    7.97
  -4  -7   7  130.48    7.10
   3   7  -7    3.88    1.94
   3   7  -7    4.99    1.67
  -3  -7   7    3.21    1.96
   2   7  -7    7.72    1.60
   2   7  -7    3.86    1.43
   2   7  -7    4.59    2.20
  -2  -7   7    8.68    2.36
   1   7  -7  155.01    5.65
   1   7  -7  159.33    5.85
   1   7  -7  167.14    8.21
  -1  -7   7  161.81    7.54
   0   7  -7    8.23    2.47
   0   7  -7    9.20    2.35
   0  -7   7    5.91    1.91
   0  -7   7    7.07    1.96
  -1   7  -7    3.23    1.77
   1  -7   7    7.17    1.99
   1  -7   7    6.21    2.06
   1  -7   7    6.14    2.05
   1  -7   7    8.06    2.06
  -2   7  -7   92.30    5.55
   2  -7   7   80.46    5.20
   2  -7   7   93.06    5.32
   2  -7   7   86.28    5.17
   2  -7   7   96.47    5.72
  -3   7  -7    8.91    2.38
   3  -7   7    5.98    1.88
   3  -7   7    6.51    2.06
   3  -7   7    8.88    2.86
   3  -7   7    8.26    2.13
   3  -7   7    7.29    2.01
  -4   7  -7    8.64    2.38
   4  -7   7   12.87    2.63
   4  -7   7   15.40    2.75
   4  -7   7   14.86    2.73
   4  -7   7   15.15    3.51
   4  -7   7   12.94    2.23
  -5   7  -7   54.68    4.04
   5  -7   7   60.27    5.90
   5  -7   7   60.64    4.70
   5  -7   7   61.71    4.66
   5  -7   7   63.74    4.73
   6  -7   7    9.90    2.63
   6  -7   7   12.75    2.73
   6  -7   7   15.98    3.03
   7  -7   7    7.59    2.23
   7  -7   7    7.21    2.51
   8   6  -7    2.91    2.62
   7   6  -7   80.28    6.44
  -7  -6   7   70.72    4.31
  -7  -6   7   66.03    4.37
   6   6  -7   15.25    3.72
  -6  -6   7   11.97    2.54
  -6  -6   7   12.92    2.54
   5   6  -7    7.62    2.76
  -5  -6   7    3.37    1.65
  -5  -6   7    5.69    1.98
  -5  -6   7    5.36    1.90
   4   6  -7  159.12    7.16
   4   6  -7  144.99    8.06
  -4  -6   7  157.65    7.14
  -4  -6   7  148.05    7.25
   3   6  -7    9.97    2.05
   3   6  -7    6.37    2.28
  -3  -6   7   10.57    2.31
   2   6  -7    1.34    1.04
   2   6  -7    1.29    1.47
   2   6  -7    2.23    1.55
  -2  -6   7    2.34    1.43
   1   6  -7  178.71    8.38
   1   6  -7  175.58    8.30
   1   6  -7  179.35    6.90
   1   6  -7  180.38    7.81
   1   6  -7  183.68    7.91
  -1  -6   7  191.05    8.07
  -1  -6   7  168.57    7.62
  -1  -6   7  159.60    8.48
   0   6  -7    6.55    1.95
   0   6  -7    3.80    1.53
   0  -6   7    2.57    1.18
   0  -6   7    5.11    1.56
   0  -6   7    7.93    1.90
   0  -6   7    4.32    1.58
  -1   6  -7    1.36    1.25
  -1   6  -7    0.37    1.22
   1  -6   7    0.86    1.25
   1  -6   7    1.72    1.18
   1  -6   7   -0.33    0.94
   1  -6   7    0.32    1.05
   1  -6   7    1.13    1.07
  -2   6  -7  171.99    7.79
   2  -6   7  170.05    7.67
   2  -6   7  159.51    7.72
   2  -6   7  158.16    7.33
   2  -6   7  174.86    7.36
  -3   6  -7    4.00    1.71
   3  -6   7    5.99    1.78
   3  -6   7    3.66    1.63
   3  -6   7    6.48    1.98
   3  -6   7    5.66    1.61
  -4   6  -7    2.94    1.61
   4  -6   7    7.00    1.98
   4  -6   7    7.43    1.84
   4  -6   7    6.59    2.02
  -5   6  -7   94.16    5.36
   5  -6   7   87.51    5.43
   5  -6   7  102.95    5.67
   5  -6   7  101.86    5.89
  -6   6  -7    0.66    1.31
   6  -6   7    1.38    1.76
   6  -6   7    6.51    1.99
   6  -6   7    1.81    1.75
   7  -6   7    1.34    1.57
   7  -6   7    1.06    1.79
   7  -6   7   -0.95    1.79
   8  -6   7   33.77    3.92
  -9  -5   7   33.26    8.19
   8   5  -7   10.19    3.37
   7   5  -7   35.28    4.37
  -7  -5   7   31.50    2.26
  -7  -5   7   37.03    2.45
   6   5  -7   54.29    4.87
  -6  -5   7   48.37    3.47
  -6  -5   7   49.76    3.52
   5   5  -7   16.00    3.25
  -5  -5   7   16.06    2.36
  -5  -5   7   15.40    2.27
  -5  -5   7   13.65    2.24
   4   5  -7  134.84    7.75
   4   5  -7  136.21    7.26
   4   5  -7  139.23    6.30
  -4  -5   7  131.79    6.33
  -4  -5   7  134.65    6.42
  -4  -5   7  132.16    6.17
   3   5  -7   68.65    4.55
   3   5  -7   70.34    4.14
   3   5  -7   72.35    4.96
   3   5  -7   74.47    4.91
   3   5  -7   71.28    4.60
   3   5  -7   80.19    4.26
  -3  -5   7   72.78    4.46
  -3  -5   7   72.70    4.19
  -3  -5   7   74.20    4.41
   2   5  -7   35.23    3.08
   2   5  -7   32.05    2.53
   2   5  -7   29.73    3.14
   2   5  -7   31.15    2.92
   2   5  -7   30.82    2.52
   2   5  -7   32.37    3.23
  -2  -5   7   32.55    2.80
  -2  -5   7   24.08    2.70
  -2  -5   7   31.63    2.72
   1   5  -7  156.01    6.46
   1   5  -7  150.14    6.98
   1   5  -7  172.53    7.31
   1   5  -7  172.49    7.78
   1   5  -7  170.98    6.43
   1   5  -7  172.39    7.74
  -1  -5   7  162.19    7.38
  -1  -5   7  157.94    6.96
  -1  -5   7  162.05    7.32
  -1  -5   7  171.15    7.13
  -1  -5   7  177.00    7.03
   0   5  -7   78.45    4.78
   0   5  -7   78.93    3.49
   0   5  -7   79.15    4.44
   0   5  -7   75.23    4.25
   0   5  -7   71.08    4.50
   0  -5   7   83.27    4.79
   0  -5   7   80.74    4.20
   0  -5   7   86.06    4.56
   0  -5   7   71.60    4.30
   0  -5   7   80.13    4.57
  -1   5  -7   53.47    3.69
  -1   5  -7   52.21    3.86
   1  -5   7   52.76    3.74
   1  -5   7   48.69    3.71
   1  -5   7   54.50    3.61
   1  -5   7   59.49    3.71
  -2   5  -7  160.70    7.45
  -2   5  -7  165.41    6.86
   2  -5   7  159.82    7.14
   2  -5   7  164.32    7.27
   2  -5   7  156.24    7.35
  -3   5  -7   43.66    3.69
   3  -5   7   46.40    3.49
   3  -5   7   45.46    3.76
   3  -5   7   42.97    3.57
   3  -5   7   44.28    3.62
  -4   5  -7   27.33    3.12
   4  -5   7   27.55    2.98
   4  -5   7   27.73    3.21
   4  -5   7   26.34    2.83
  -5   5  -7   59.04    4.19
   5  -5   7   57.72    4.09
   5  -5   7   60.71    4.10
   5  -5   7   58.09    4.48
  -6   5  -7    1.28    1.24
   6  -5   7    1.11    1.31
   6  -5   7    3.39    1.86
   6  -5   7    0.83    1.45
   7  -5   7   11.33    2.28
   7  -5   7    7.83    2.43
   7  -5   7   13.22    2.87
   8  -5   7   27.30    3.82
   8  -5   7   25.85    3.52
  -9  -4   7   53.93    7.94
  -8  -4   7    4.39    3.96
   7   4  -7   13.31    3.15
   6   4  -7  172.47    8.53
  -6  -4   7  159.30    7.32
  -6  -4   7  174.19    6.38
  -6  -4   7  163.61    6.28
   5   4  -7   31.39    3.31
   5   4  -7   32.67    3.33
   5   4  -7   37.15    3.70
   5   4  -7   37.17    3.64
  -5  -4   7   34.80    2.95
  -5  -4   7   37.65    3.22
  -5  -4   7   38.83    2.87
  -5  -4   7   36.44    2.80
   4   4  -7    8.57    2.10
   4   4  -7   13.12    2.33
   4   4  -7   11.96    1.91
   4   4  -7   10.45    2.24
   4   4  -7   13.31    2.38
   4   4  -7   11.07    2.24
   4   4  -7   12.74    2.13
   4   4  -7    7.74    2.16
  -4  -4   7   13.24    1.92
  -4  -4   7    8.49    1.79
  -4  -4   7    9.86    1.93
   3   4  -7  303.28   11.56
   3   4  -7  294.19   10.37
   3   4  -7  278.10   10.39
   3   4  -7  297.55   11.01
   3   4  -7  274.63   10.72
   3   4  -7  293.75   10.87
   3   4  -7  288.61   11.32
  -3  -4   7  283.46   10.41
  -3  -4   7  303.25   10.42
  -3  -4   7  279.85   10.47
   2   4  -7   15.58    2.09
   2   4  -7   15.42    1.88
   2   4  -7   17.35    2.30
   2   4  -7   17.08    2.04
   2   4  -7   17.85    2.38
   2   4  -7   18.83    2.14
   2   4  -7   17.21    1.93
  -2  -4   7   16.67    1.94
  -2  -4   7   18.58    2.15
  -2  -4   7   18.87    2.15
  -2  -4   7   17.61    2.15
   1   4  -7   24.17    1.90
   1   4  -7   28.14    2.62
   1   4  -7   28.79    2.55
   1   4  -7   28.78    2.28
   1   4  -7   27.19    2.76
   1   4  -7   23.73    2.51
   1   4  -7   26.86    2.12
  -1  -4   7   25.22    2.36
  -1  -4   7   28.66    2.34
  -1  -4   7   27.46    2.57
  -1  -4   7   24.31    2.30
   0   4  -7  251.76    9.23
   0   4  -7  262.85    9.89
   0   4  -7  260.45    9.54
   0   4  -7  263.20    9.68
   0   4  -7  257.74   10.04
   0   4  -7  249.86    8.57
   0   4  -7  254.35    8.87
   0  -4   7  264.25    9.51
   0  -4   7  270.56    9.32
   0  -4   7  248.30    9.76
   0  -4   7  266.29    9.66
   0  -4   7  251.51    9.91
  -1   4  -7   51.96    3.37
  -1   4  -7   49.94    3.29
  -1   4  -7   48.05    3.18
  -1   4  -7   44.74    3.45
  -1   4  -7   43.43    2.97
   1  -4   7   45.43    3.33
   1  -4   7   43.92    3.23
   1  -4   7   49.26    2.98
   1  -4   7   42.26    3.16
   1  -4   7   42.27    3.32
  -2   4  -7   32.17    2.51
  -2   4  -7   34.43    3.08
  -2   4  -7   35.04    3.16
   2  -4   7   39.75    3.33
   2  -4   7   32.65    2.88
   2  -4   7   28.88    2.74
   2  -4   7   32.38    2.97
  -3   4  -7  109.47    4.62
  -3   4  -7  105.41    5.77
  -3   4  -7  106.62    6.02
   3  -4   7  114.75    5.87
   3  -4   7  101.25    5.39
   3  -4   7  103.16    5.87
   3  -4   7  111.44    5.48
  -4   4  -7   26.17    3.31
  -4   4  -7   20.39    2.94
   4  -4   7   24.16    2.93
   4  -4   7   23.97    2.58
   4  -4   7   25.52    3.11
   4  -4   7   25.39    2.69
  -5   4  -7   15.20    2.89
   5  -4   7   20.45    2.51
   5  -4   7   20.58    2.92
   5  -4   7   20.12    2.59
  -6   4  -7   39.38    3.59
   6  -4   7   43.34    3.63
   6  -4   7   55.02    4.42
   6  -4   7   36.04    3.40
   6  -4   7   41.23    3.69
  -7   4  -7   14.75    2.56
   7  -4   7   14.45    2.70
   7  -4   7   21.76    3.22
   7  -4   7   23.04    2.91
   7  -4   7   13.63    2.91
   8  -4   7    3.91    1.94
   8  -4   7   -0.16    1.71
 -10  -3   7    4.87    4.76
  -9  -3   7  105.14    9.85
  -8  -3   7    8.45    3.86
   7   3  -7    9.82    2.72
  -7  -3   7   13.42    4.17
  -7  -3   7   11.68    2.38
   6   3  -7  216.54    9.15
   6   3  -7  212.58    9.18
   6   3  -7  210.69    9.42
   6   3  -7  203.04    9.08
   6   3  -7  210.17    9.59
  -6  -3   7  218.74    8.99
   5   3  -7   17.13    3.15
   5   3  -7   16.30    2.43
   5   3  -7   21.83    2.63
   5   3  -7   17.36    2.61
   5   3  -7   16.39    1.02
   5   3  -7   11.78    2.22
   5   3  -7   17.18    2.50
   5   3  -7   20.55    2.45
  -5  -3   7   20.60    2.55
  -5  -3   7   20.11    1.86
  -5  -3   7   17.47    2.03
  -5  -3   7   20.23    1.91
   4   3  -7    2.85    1.11
   4   3  -7    4.28    1.38
   4   3  -7    4.22    1.23
   4   3  -7    5.01    1.41
   4   3  -7    2.44    1.32
   4   3  -7    5.93    1.39
   4   3  -7    4.20    1.51
   4   3  -7    8.08    1.71
  -4  -3   7    5.85    1.37
  -4  -3   7    3.22    1.21
  -4  -3   7    4.43    1.33
   3   3  -7  200.19    8.26
   3   3  -7  211.20    8.31
   3   3  -7  211.72    8.83
   3   3  -7  210.92    8.05
   3   3  -7  207.98    7.84
   3   3  -7  209.55    8.61
   3   3  -7  197.03    8.14
  -3  -3   7  212.67    7.89
  -3  -3   7  217.88    7.89
  -3  -3   7  218.45    7.95
   2   3  -7    3.63    1.14
   2   3  -7    3.28    1.15
   2   3  -7    3.80    1.14
   2   3  -7    2.59    1.01
   2   3  -7    2.05    1.15
   2   3  -7    3.31    1.26
   2   3  -7    2.23    0.96
   2   3  -7    0.38    0.56
   2   3  -7    4.39    0.94
   2   3  -7    1.89    1.24
  -2  -3   7    2.42    1.00
  -2  -3   7    2.97    1.16
  -2  -3   7    2.96    1.09
  -2  -3   7    0.85    0.87
  -2  -3   7    4.30    1.27
   1   3  -7    2.67    0.92
   1   3  -7    2.57    0.93
   1   3  -7    3.75    1.03
   1   3  -7    2.59    0.98
   1   3  -7    1.20    0.87
   1   3  -7    3.63    1.34
   1   3  -7    4.73    1.24
   1   3  -7    3.55    1.16
   1   3  -7    3.71    1.04
   1   3  -7    2.86    1.03
  -1  -3   7    1.45    0.79
  -1  -3   7    2.75    1.00
  -1  -3   7    1.45    0.95
  -1  -3   7    3.92    1.14
  -1  -3   7    3.65    1.20
   0   3  -7  371.61   11.88
   0   3  -7  356.00   12.29
   0   3  -7  361.64   12.79
   0   3  -7  368.99   11.89
   0   3  -7  358.74   12.44
   0   3  -7  351.23   12.21
   0   3  -7  348.23   12.09
   0   3  -7  352.37   11.54
   0  -3   7  344.08   12.28
   0  -3   7  356.45   12.53
   0  -3   7  364.96   11.94
   0  -3   7  367.58   12.18
   0  -3   7  344.58   12.57
  -1   3  -7    1.84    0.66
  -1   3  -7    1.42    1.11
  -1   3  -7    1.92    0.88
  -1   3  -7    1.44    0.96
  -1   3  -7    2.97    0.99
  -1   3  -7    2.75    0.82
  -1   3  -7    2.94    1.17
   1  -3   7    1.46    1.13
   1  -3   7    3.46    1.07
   1  -3   7    1.71    1.11
   1  -3   7    2.15    1.15
   1  -3   7    2.69    1.14
   1  -3   7    2.40    1.17
  -2   3  -7    2.68    1.24
  -2   3  -7    3.65    1.40
  -2   3  -7    1.79    1.28
  -2   3  -7    4.71    1.15
   2  -3   7    5.48    1.51
   2  -3   7    3.24    1.46
   2  -3   7    3.64    1.24
   2  -3   7    2.45    1.22
   2  -3   7    3.68    1.14
  -3   3  -7  131.65    6.76
  -3   3  -7  133.47    5.11
  -3   3  -7  136.65    6.71
   3  -3   7  129.59    6.04
   3  -3   7  146.81    6.63
   3  -3   7  126.33    6.10
   3  -3   7  134.64    6.65
  -4   3  -7    3.37    1.68
  -4   3  -7    1.87    1.41
   4  -3   7    4.01    1.63
   4  -3   7    3.86    1.30
   4  -3   7    2.93    1.63
   4  -3   7    1.90    1.37
  -5   3  -7    2.72    1.46
  -5   3  -7    1.55    1.56
   5  -3   7    2.79    1.59
   5  -3   7    2.33    1.27
   5  -3   7    0.21    1.11
   5  -3   7    1.74    1.32
  -6   3  -7   67.62    4.72
  -6   3  -7   68.77    5.25
  -6   3  -7   75.10    5.97
   6  -3   7   71.39    4.54
   6  -3   7   59.93    4.77
   6  -3   7   65.93    4.47
   6  -3   7   75.65    5.16
  -7   3  -7    6.91    2.81
  -7   3  -7    6.64    2.09
   7  -3   7    9.78    2.35
   7  -3   7    4.46    2.12
   7  -3   7    6.99    2.13
   7  -3   7    6.20    2.22
  -8   3  -7   -0.71    1.60
   8  -3   7   -0.41    1.81
   8  -3   7    1.26    1.54
 -10  -2   7    4.40    3.90
  -9  -2   7   15.34    5.06
   8   2  -7   46.94    4.20
   8   2  -7   48.88    4.20
  -8  -2   7   50.90    4.18
  -8  -2   7   48.04    6.15
   7   2  -7    6.64    1.91
   7   2  -7    3.72    1.37
   7   2  -7    5.94    1.86
   7   2  -7    8.26    2.08
   7   2  -7    3.91    1.88
   7   2  -7    7.80    2.25
  -7  -2   7   11.29    2.47
  -7  -2   7    9.35    3.91
   6   2  -7  113.74    5.88
   6   2  -7  120.49    6.43
   6   2  -7  114.22    5.89
   6   2  -7  107.28    5.65
   6   2  -7  109.43    4.72
   6   2  -7  119.17    5.87
   6   2  -7  106.91    5.86
  -6  -2   7  118.82    6.17
  -6  -2   7  108.19    7.68
   5   2  -7   65.77    4.00
   5   2  -7   60.43    4.03
   5   2  -7   58.67    3.87
   5   2  -7   62.71    4.00
   5   2  -7   58.94    3.70
   5   2  -7   55.26    3.74
   5   2  -7   66.13    4.43
   5   2  -7   59.16    3.55
  -5  -2   7   55.28    3.05
  -5  -2   7   65.65    4.22
   4   2  -7   18.99    2.12
   4   2  -7   13.95    1.91
   4   2  -7   15.50    1.95
   4   2  -7   14.82    1.94
   4   2  -7   16.27    2.04
   4   2  -7   14.88    2.18
   4   2  -7   19.88    2.22
   4   2  -7   16.41    2.12
   4   2  -7   15.70    1.88
  -4  -2   7   15.48    1.64
  -4  -2   7   16.26    1.62
  -4  -2   7   16.08    1.52
   3   2  -7  283.83   10.45
   3   2  -7  269.90    9.96
   3   2  -7  266.12   10.07
   3   2  -7  283.58   10.15
   3   2  -7  280.42    9.97
   3   2  -7  282.50    9.63
   3   2  -7  283.47    9.94
  -3  -2   7  278.12    9.56
  -3  -2   7  290.48    9.60
  -3  -2   7  278.33    9.48
   2   2  -7  112.84    4.84
   2   2  -7  104.76    5.33
   2   2  -7  116.88    5.12
   2   2  -7  118.52    5.25
   2   2  -7  119.15    5.32
   2   2  -7  116.36    5.09
  -2  -2   7  120.22    5.31
  -2  -2   7  114.83    4.90
  -2  -2   7  115.25    4.94
  -2  -2   7  122.83    5.37
  -2  -2   7  113.54    4.84
   1   2  -7   81.03    4.13
   1   2  -7   79.71    4.39
   1   2  -7   82.21    3.84
   1   2  -7   75.06    3.90
   1   2  -7   84.88    4.17
  -1  -2   7   84.87    3.90
  -1  -2   7   80.43    3.98
  -1  -2   7   73.97    3.80
  -1  -2   7   78.97    4.12
   0   2  -7  105.58    4.63
   0   2  -7   94.93    5.10
   0   2  -7  103.39    4.93
   0   2  -7  103.11    4.89
   0   2  -7  100.50    4.55
   0   2  -7  105.55    4.48
   0  -2   7  106.13    4.66
   0  -2   7  102.46    5.20
   0  -2   7  108.51    4.76
   0  -2   7  105.14    4.90
   0  -2   7  105.26    5.11
  -1   2  -7   47.72    3.46
  -1   2  -7   38.43    2.47
  -1   2  -7   41.46    3.12
  -1   2  -7   45.24    3.23
  -1   2  -7   45.90    2.48
  -1   2  -7   43.29    2.69
   1  -2   7   41.72    2.75
   1  -2   7   39.27    3.26
   1  -2   7   42.89    3.00
   1  -2   7   49.23    3.34
   1  -2   7   41.76    2.98
   1  -2   7   40.62    2.55
   1  -2   7   39.75    3.00
   1  -2   7   48.32    2.99
  -2   2  -7   19.48    2.30
  -2   2  -7   22.13    1.93
  -2   2  -7   19.40    2.46
  -2   2  -7   24.44    2.70
  -2   2  -7   21.67    1.37
   2  -2   7   23.20    2.30
   2  -2   7   21.95    2.19
   2  -2   7   22.00    2.45
   2  -2   7   22.75    2.28
   2  -2   7   19.82    2.04
   2  -2   7   22.11    2.65
   2  -2   7   23.12    2.36
  -3   2  -7  124.75    6.64
  -3   2  -7  134.81    5.08
  -3   2  -7  127.06    5.92
  -3   2  -7  127.28    6.52
   3  -2   7  129.15    6.16
   3  -2   7  131.74    6.40
   3  -2   7  133.46    6.06
   3  -2   7  136.78    6.30
   3  -2   7  131.44    6.55
   3  -2   7  134.93    6.04
  -4   2  -7    3.67    1.53
  -4   2  -7    5.37    0.77
  -4   2  -7    3.25    1.60
   4  -2   7    2.61    1.27
   4  -2   7    3.69    1.30
   4  -2   7    4.11    1.54
   4  -2   7    3.13    1.37
   4  -2   7    2.22    1.30
  -5   2  -7   36.36    3.50
  -5   2  -7   36.26    3.84
  -5   2  -7   32.68    3.31
   5  -2   7   37.61    3.60
   5  -2   7   34.58    3.11
   5  -2   7   31.76    3.42
   5  -2   7   34.96    3.52
   5  -2   7   30.65    2.98
  -6   2  -7   52.01    4.37
  -6   2  -7   60.30    4.81
  -6   2  -7   61.07    5.34
   6  -2   7   56.34    4.59
   6  -2   7   50.67    4.56
   6  -2   7   62.62    4.38
   6  -2   7   59.03    4.17
  -7   2  -7   -0.40    1.40
  -7   2  -7   -0.88    2.03
   7  -2   7   -0.68    1.55
   7  -2   7    1.91    1.56
  -8   2  -7   11.59    2.91
   8  -2   7    6.71    2.28
   8  -2   7    8.21    3.85
  -9   2  -7   19.61    3.65
   9  -2   7   25.01    4.11
 -10  -1   7    1.86    3.95
   9   1  -7    9.30    2.38
   9   1  -7   13.96    2.73
  -9  -1   7    6.66    3.54
  -9  -1   7   14.55    3.21
   8   1  -7   80.90    5.08
   8   1  -7   85.66    5.03
   8   1  -7   76.41    4.94
   8   1  -7   77.44    5.08
  -8  -1   7   70.35    7.20
  -8  -1   7   76.32    5.38
   7   1  -7   15.15    2.32
   7   1  -7   13.99    2.23
   7   1  -7    7.97    2.07
   7   1  -7   17.78    2.62
   7   1  -7   14.47    2.49
  -7  -1   7   11.26    3.62
  -7  -1   7   12.88    2.66
   6   1  -7   19.45    2.43
   6   1  -7   16.77    2.32
   6   1  -7   19.76    2.23
   6   1  -7   13.66    2.16
   6   1  -7   16.50    2.20
  -6  -1   7   17.58    2.56
  -6  -1   7   14.04    3.65
   5   1  -7  212.62    8.24
   5   1  -7  202.83    8.34
   5   1  -7  196.39    7.97
   5   1  -7  205.28    8.13
   5   1  -7  205.79    8.01
  -5  -1   7  204.68   10.08
  -5  -1   7  226.35    9.09
  -5  -1   7  211.93    6.74
   4   1  -7   18.06    1.89
   4   1  -7   23.23    2.35
   4   1  -7   23.53    2.08
   4   1  -7   15.84    2.03
   4   1  -7   20.90    2.05
   4   1  -7   20.47    2.05
  -4  -1   7   18.79    1.59
  -4  -1   7   24.28    2.65
  -4  -1   7   21.34    2.91
   3   1  -7   31.11    2.39
   3   1  -7   31.21    2.61
   3   1  -7   34.20    2.54
   3   1  -7   33.63    2.21
   3   1  -7   35.69    2.47
   3   1  -7   35.99    2.59
  -3  -1   7   34.46    1.96
  -3  -1   7   30.33    1.97
  -3  -1   7   32.77    2.13
  -3  -1   7   36.70    2.48
   2   1  -7  282.03   10.17
   2   1  -7  296.85   10.51
   2   1  -7  301.83   10.20
   2   1  -7  281.40   10.04
   2   1  -7  296.46   10.03
   2   1  -7  302.98    9.75
  -2  -1   7  277.22    9.60
  -2  -1   7  286.09    9.74
  -2  -1   7  281.78    9.49
  -2  -1   7  279.98   10.04
   1   1  -7   10.63    1.65
   1   1  -7   10.21    1.46
   1   1  -7   10.39    1.95
   1   1  -7   10.68    1.65
   1   1  -7    9.01    1.44
   1   1  -7   10.18    1.71
  -1  -1   7    9.77    1.79
  -1  -1   7   12.72    1.74
  -1  -1   7   11.97    1.72
  -1  -1   7    9.94    1.52
  -1  -1   7   13.30    2.00
  -1  -1   7    9.25    1.48
  -1  -1   7   10.18    1.47
   0   1  -7   89.22    4.61
   0   1  -7   93.72    5.01
   0   1  -7   98.96    4.41
   0   1  -7   92.79    4.69
   0   1  -7   98.60    4.41
   0   1  -7   98.13    4.49
   0  -1   7  100.39    4.84
   0  -1   7   98.65    4.52
   0  -1   7   90.78    4.49
   0  -1   7   94.31    4.73
   0  -1   7   88.05    5.00
  -1   1  -7  130.65    5.29
  -1   1  -7  140.57    6.08
  -1   1  -7  130.09    6.34
  -1   1  -7  120.82    5.56
  -1   1  -7  122.79    5.28
  -1   1  -7  131.89    5.52
   1  -1   7  121.55    4.33
   1  -1   7  132.13    5.70
   1  -1   7  133.02    6.01
   1  -1   7  137.85    6.12
   1  -1   7  142.23    6.49
   1  -1   7  128.29    5.48
   1  -1   7  129.54    5.58
   1  -1   7  126.98    5.96
  -2   1  -7  105.82    4.35
  -2   1  -7   98.50    4.29
  -2   1  -7  100.71    5.59
  -2   1  -7  104.91    4.75
  -2   1  -7  105.57    5.73
  -2   1  -7  109.05    5.36
   2  -1   7  101.03    5.05
   2  -1   7  107.05    5.28
   2  -1   7  100.78    5.53
   2  -1   7  106.49    4.86
   2  -1   7  110.45    4.09
   2  -1   7  103.53    4.94
   2  -1   7  111.93    5.51
   2  -1   7   98.12    5.27
  -3   1  -7   44.02    3.45
  -3   1  -7   42.75    2.82
  -3   1  -7   37.92    3.09
  -3   1  -7   43.61    3.71
  -3   1  -7   48.89    4.01
  -3   1  -7   40.63    1.94
   3  -1   7   40.18    3.28
   3  -1   7   41.48    3.11
   3  -1   7   47.32    3.60
   3  -1   7   40.29    3.11
   3  -1   7   41.52    3.05
   3  -1   7   44.46    3.32
   3  -1   7   41.49    3.64
  -4   1  -7   69.62    3.50
  -4   1  -7   78.14    4.50
  -4   1  -7   81.11    5.38
  -4   1  -7   70.96    3.99
  -4   1  -7   71.07    4.88
   4  -1   7   70.56    4.38
   4  -1   7   67.99    4.57
   4  -1   7   72.00    4.94
   4  -1   7   72.10    4.88
   4  -1   7   62.22    4.56
   4  -1   7   70.11    4.20
  -5   1  -7   46.74    4.51
  -5   1  -7   51.57    3.78
  -5   1  -7   49.42    4.24
   5  -1   7   46.25    3.73
   5  -1   7   54.78    4.35
   5  -1   7   45.77    4.04
   5  -1   7   51.78    4.41
   5  -1   7   50.03    3.76
  -6   1  -7    8.92    2.52
  -6   1  -7   21.81    3.54
  -6   1  -7   16.08    2.74
   6  -1   7   12.82    2.68
   6  -1   7   19.68    2.71
   6  -1   7   15.86    3.14
  -7   1  -7   10.46    2.91
   7  -1   7    6.00    2.03
   7  -1   7    9.23    2.65
  -8   1  -7   25.12    3.88
   8  -1   7   23.07    3.46
  -9   1  -7    5.40    2.73
   9  -1   7    4.91    2.33
  10   0  -7    2.31    1.96
  10   0  -7    0.70    1.60
 -10   0   7   -0.23    3.33
 -10   0   7    1.28    2.05
   9   0  -7    0.85    1.68
   9   0  -7    1.99    1.88
   9   0  -7    0.78    1.24
   9   0  -7   -0.01    1.39
  -9   0   7    2.02    1.73
  -9   0   7    7.55    3.60
   8   0  -7   93.26    5.05
   8   0  -7   89.89    5.96
   8   0  -7  100.96    5.38
   8   0  -7   93.11    5.39
   8   0  -7  100.66    5.44
  -8   0   7  107.10    6.51
  -8   0   7  106.85    8.39
   7   0  -7    3.66    1.42
   7   0  -7    3.35    1.49
   7   0  -7    2.78    1.36
   7   0  -7    2.19    1.07
  -7   0   7    2.75    1.62
  -7   0   7    0.92    2.14
   6   0  -7    2.60    1.55
   6   0  -7    2.10    1.03
   6   0  -7    1.66    1.14
   6   0  -7    1.91    1.02
   6   0  -7   -0.16    0.92
  -6   0   7    3.01    2.05
  -6   0   7    3.32    1.51
   5   0  -7  220.04    8.25
   5   0  -7  227.23    8.19
   5   0  -7  224.23    8.38
   5   0  -7  222.44    8.61
   5   0  -7  220.97    8.43
  -5   0   7  238.75    9.74
  -5   0   7  225.79   10.57
   4   0  -7    6.09    1.43
   4   0  -7    6.54    1.54
   4   0  -7    5.78    1.34
   4   0  -7    4.71    1.13
   4   0  -7    6.42    1.38
  -4   0   7    4.08    1.55
  -4   0   7    4.26    1.84
   3   0  -7    0.96    0.84
   3   0  -7    0.82    0.94
   3   0  -7    1.73    1.22
   3   0  -7    2.05    0.79
   3   0  -7    1.48    0.81
   3   0  -7    1.68    0.81
   3   0  -7    0.60    0.91
  -3   0   7    1.46    1.12
  -3   0   7    0.80    0.99
  -3   0   7    1.65    1.32
  -3   0   7    1.76    0.75
  -3   0   7    2.89    0.80
   2   0  -7  315.57   10.87
   2   0  -7  310.34   10.28
   2   0  -7  310.84   11.16
   2   0  -7  307.70   10.75
   2   0  -7  331.90   10.84
   2   0  -7  314.44   11.24
  -2   0   7  313.54    9.98
  -2   0   7  328.46    9.89
  -2   0   7  320.90   10.75
  -2   0   7  297.06   10.81
  -2   0   7  312.28   11.32
  -2   0   7  303.24   10.16
   1   0  -7   22.24    2.42
   1   0  -7   21.15    2.24
   1   0  -7   19.73    2.12
   1   0  -7   23.28    1.93
   1   0  -7   24.70    2.31
   1   0  -7   19.20    1.98
   1   0  -7   21.61    2.21
  -1   0   7   25.62    2.03
  -1   0   7   21.43    1.69
  -1   0   7   20.34    2.03
  -1   0   7   24.34    1.93
  -1   0   7   24.45    2.22
  -1   0   7   24.42    2.01
  -1   0   7   23.37    2.56
   0   0  -7    3.33    1.15
   0   0  -7    1.57    1.01
   0   0  -7    1.23    0.97
   0   0  -7    0.61    0.74
   0   0  -7    2.70    1.32
   0   0  -7    0.35    0.54
   0   0  -7    0.82    0.76
   0   0   7    3.75    1.26
   0   0   7    2.30    0.93
   0   0   7    1.74    1.09
   0   0   7    1.61    1.29
   0   0   7    1.88    0.99
   0   0   7    3.65    1.22
   0   0   7    1.78    0.92
  -1   0  -7  349.99   12.32
  -1   0  -7  339.28   11.62
  -1   0  -7  344.65   12.08
  -1   0  -7  337.53   11.59
  -1   0  -7  345.85   12.72
  -1   0  -7  345.65   11.85
   1   0   7  343.81   12.63
   1   0   7  333.77   12.23
   1   0   7  349.95   11.94
   1   0   7  329.96   12.17
   1   0   7  354.24   12.28
   1   0   7  341.75   11.78
  -2   0  -7   20.01    2.74
  -2   0  -7   20.78    2.02
  -2   0  -7   24.69    2.42
  -2   0  -7   21.98    2.47
  -2   0  -7   23.62    2.21
   2   0   7   23.42    2.33
   2   0   7   21.86    2.27
   2   0   7   21.37    2.47
   2   0   7   22.26    2.27
   2   0   7   23.61    2.27
   2   0   7   16.63    2.36
   2   0   7   18.96    2.33
  -3   0  -7    0.83    1.12
  -3   0  -7    1.07    1.23
  -3   0  -7    2.40    1.57
  -3   0  -7    1.11    0.83
  -3   0  -7    1.36    0.96
  -3   0  -7    1.16    1.23
   3   0   7    2.50    1.34
   3   0   7    1.71    1.35
   3   0   7    1.97    1.10
   3   0   7    1.86    1.04
   3   0   7    1.21    1.18
   3   0   7    1.23    1.04
   3   0   7    1.25    1.05
  -4   0  -7   97.01    3.61
  -4   0  -7  101.80    3.65
  -4   0  -7   96.94    4.81
  -4   0  -7   97.30    4.68
  -4   0  -7   98.97    5.04
  -4   0  -7   95.23    5.24
  -4   0  -7  119.02    6.79
  -4   0  -7   91.06    5.85
   4   0   7   96.71    5.91
   4   0   7   94.97    7.34
   4   0   7  103.42    5.65
   4   0   7   98.08    5.90
   4   0   7   91.79    5.30
   4   0   7   95.83    5.34
   4   0   7   94.11    5.17
  -5   0  -7   27.77    3.72
  -5   0  -7   19.03    3.09
  -5   0  -7   20.82    2.58
   5   0   7   26.56    3.28
   5   0   7   20.10    3.17
   5   0   7   17.38    2.94
   5   0   7   20.73    3.11
   5   0   7   17.12    2.53
  -6   0  -7   -0.78    1.34
  -6   0  -7   -0.34    1.54
  -6   0  -7    1.70    1.93
   6   0   7   -0.09    1.64
   6   0   7    0.83    1.31
   6   0   7    0.10    1.23
  -7   0  -7   34.05    4.13
   7   0   7   31.44    3.58
  -8   0  -7   11.02    3.06
   8   0   7   11.21    2.80
  10  -1  -7   19.36    3.10
  10  -1  -7   25.22    3.30
  10  -1  -7   21.11    3.38
 -10   1   7   24.34    4.13
 -10   1   7   13.98    4.80
   9  -1  -7    5.35    1.64
   9  -1  -7    7.02    1.96
   9  -1  -7    6.19    1.86
  -9   1   7    8.69    3.13
  -9   1   7    2.39    3.01
   8  -1  -7   81.32    4.36
   8  -1  -7   85.42    4.59
   8  -1  -7   82.10    4.71
   8  -1  -7   77.16    4.33
  -8   1   7   67.26    6.90
  -8   1   7   81.60    6.03
  -8   1   7   77.59    4.21
   7  -1  -7   34.59    2.67
   7  -1  -7   32.73    2.53
   7  -1  -7   33.92    2.78
   7  -1  -7   27.84    2.64
  -7   1   7   37.52    4.87
  -7   1   7   29.73    3.50
  -7   1   7   35.43    2.89
   6  -1  -7   38.56    2.84
   6  -1  -7   34.11    2.66
   6  -1  -7   34.29    2.70
   6  -1  -7   36.22    2.40
   6  -1  -7   36.44    2.68
  -6   1   7   32.73    4.22
  -6   1   7   45.48    3.90
  -6   1   7   38.36    2.92
   5  -1  -7  199.90    7.45
   5  -1  -7  193.63    7.65
   5  -1  -7  194.63    6.99
   5  -1  -7  207.22    7.58
   5  -1  -7  193.00    7.30
  -5   1   7  201.52    7.38
  -5   1   7  190.09    8.82
  -5   1   7  191.87    9.42
  -5   1   7  186.07    7.59
   4  -1  -7   32.92    2.40
   4  -1  -7   33.63    2.16
   4  -1  -7   29.81    2.57
   4  -1  -7   30.24    2.47
   4  -1  -7   33.26    2.48
  -4   1   7   28.27    2.69
  -4   1   7   37.83    3.51
  -4   1   7   33.32    3.17
  -4   1   7   31.45    2.46
   3  -1  -7   45.38    3.10
   3  -1  -7   47.70    2.69
   3  -1  -7   48.86    3.04
   3  -1  -7   45.32    2.88
   3  -1  -7   45.44    2.90
  -3   1   7   45.88    3.52
  -3   1   7   39.87    2.49
  -3   1   7   46.17    3.29
  -3   1   7   43.05    3.40
   2  -1  -7  233.26    8.34
   2  -1  -7  226.32    8.79
   2  -1  -7  227.89    8.35
   2  -1  -7  232.49    8.63
   2  -1  -7  222.90    8.52
   2  -1  -7  231.72    7.85
  -2   1   7  223.05    7.52
  -2   1   7  221.14    8.35
  -2   1   7  226.89    8.24
  -2   1   7  229.99    9.35
  -2   1   7  216.28    8.77
   1  -1  -7    5.39    1.35
   1  -1  -7    2.96    1.01
   1  -1  -7    3.72    1.35
   1  -1  -7    4.93    1.44
   1  -1  -7    3.61    1.19
   1  -1  -7    8.15    1.73
   1  -1  -7    4.50    1.40
  -1   1   7    5.75    1.32
  -1   1   7    4.90    1.17
  -1   1   7    5.35    1.50
  -1   1   7    8.14    1.95
  -1   1   7    6.55    1.21
  -1   1   7    3.62    0.94
   0  -1  -7   87.70    4.78
   0  -1  -7  101.08    5.27
   0  -1  -7   88.42    4.56
   0  -1  -7   91.01    4.48
   0  -1  -7   89.74    4.46
   0  -1  -7   95.33    5.00
   0   1   7   92.95    4.31
   0   1   7   95.59    4.62
   0   1   7   88.60    4.30
   0   1   7   98.22    4.54
   0   1   7   99.08    4.90
   0   1   7   87.89    5.06
  -1  -1  -7  183.97    7.62
  -1  -1  -7  166.32    6.84
  -1  -1  -7  166.62    7.05
  -1  -1  -7  168.67    7.80
  -1  -1  -7  165.91    7.21
  -1  -1  -7  174.62    7.05
   1   1   7  165.16    6.81
   1   1   7  171.09    7.86
   1   1   7  171.16    7.31
   1   1   7  178.52    7.41
   1   1   7  172.49    6.94
   1   1   7  172.76    7.02
   1   1   7  171.95    7.31
  -2  -1  -7    5.61    1.49
  -2  -1  -7    4.23    1.49
  -2  -1  -7    5.76    1.40
  -2  -1  -7    6.95    2.09
  -2  -1  -7    4.94    1.57
  -2  -1  -7    3.92    1.43
   2   1   7    4.43    1.40
   2   1   7    3.80    1.53
   2   1   7    4.83    1.64
   2   1   7    7.96    1.92
   2   1   7    4.43    1.45
   2   1   7    5.87    2.03
  -3  -1  -7   24.46    1.92
  -3  -1  -7   25.50    2.51
  -3  -1  -7   27.84    3.23
  -3  -1  -7   29.57    3.07
  -3  -1  -7   29.54    2.77
   3   1   7   27.52    2.93
   3   1   7   27.71    2.66
   3   1   7   14.19    2.21
   3   1   7   29.80    2.74
   3   1   7   22.14    3.01
   3   1   7   29.32    3.01
   3   1   7   23.99    2.92
  -4  -1  -7   86.33    4.19
  -4  -1  -7   87.69    4.47
  -4  -1  -7   85.66    4.14
  -4  -1  -7   88.75    4.94
  -4  -1  -7   82.84    4.48
  -4  -1  -7   87.01    6.10
  -4  -1  -7   81.10    5.10
  -4  -1  -7   79.63    5.59
   4   1   7  108.50    7.76
   4   1   7   85.00    5.00
   4   1   7   77.94    5.19
   4   1   7   94.89    5.79
   4   1   7   86.70    5.57
  -5  -1  -7    0.99    1.53
  -5  -1  -7    3.42    1.89
  -5  -1  -7    5.15    2.51
   5   1   7    1.94    1.79
   5   1   7    0.10    1.29
  -6  -1  -7   17.15    3.43
  -6  -1  -7   15.60    3.66
   6   1   7   12.69    3.19
   6   1   7   24.79    3.29
  -7  -1  -7   23.09    4.31
   7   1   7   29.20    3.83
  -8  -1  -7    3.08    2.50
   8   1   7    0.25    1.96
  10  -2  -7   50.56    3.84
 -10   2   7   45.65    5.46
 -10   2   7   41.40    6.84
   9  -2  -7   12.68    2.33
   9  -2  -7   11.71    2.11
   9  -2  -7   14.30    2.31
   9  -2  -7   11.80    2.03
  -9   2   7   10.77    3.29
  -9   2   7    2.11    3.21
   8  -2  -7   26.54    2.64
   8  -2  -7   25.98    2.40
   8  -2  -7   25.29    2.20
   8  -2  -7   25.41    2.58
   8  -2  -7   23.18    2.44
  -8   2   7   20.87    4.69
  -8   2   7   20.69    3.54
   7  -2  -7  110.81    5.08
   7  -2  -7  115.41    5.19
   7  -2  -7  121.78    4.72
   7  -2  -7  111.08    5.01
   7  -2  -7  109.52    4.95
  -7   2   7  116.52    7.14
  -7   2   7  112.58    4.40
  -7   2   7  117.36    8.11
   6  -2  -7   29.74    2.38
   6  -2  -7   27.76    1.82
   6  -2  -7   28.03    2.40
   6  -2  -7   25.12    1.97
  -6   2   7   25.20    3.21
  -6   2   7   28.98    2.30
  -6   2   7   27.84    3.81
   5  -2  -7   41.97    2.26
   5  -2  -7   47.28    2.87
   5  -2  -7   41.14    2.76
   5  -2  -7   45.35    3.07
   5  -2  -7   45.20    2.54
  -5   2   7   42.78    4.14
  -5   2   7   44.99    2.93
  -5   2   7   46.65    4.03
   4  -2  -7  111.30    5.04
   4  -2  -7  114.64    4.82
   4  -2  -7  121.75    4.74
   4  -2  -7  118.58    5.42
   4  -2  -7  116.91    4.95
   4  -2  -7  110.58    4.53
  -4   2   7  122.16    5.04
  -4   2   7  126.63    6.55
  -4   2   7  134.76    6.84
  -4   2   7  113.15    5.26
   3  -2  -7   55.87    3.52
   3  -2  -7   49.87    3.29
   3  -2  -7   51.70    2.86
   3  -2  -7   47.55    2.99
   3  -2  -7   55.99    3.11
  -3   2   7   53.10    3.43
  -3   2   7   57.42    3.44
  -3   2   7   47.16    3.81
  -3   2   7   52.78    3.81
   2  -2  -7   67.28    3.54
   2  -2  -7   62.05    3.78
   2  -2  -7   63.26    3.97
   2  -2  -7   68.35    3.56
   2  -2  -7   58.72    3.44
  -2   2   7   60.73    3.62
  -2   2   7   54.51    3.94
  -2   2   7   54.81    3.74
  -2   2   7   57.97    3.35
   1  -2  -7  126.46    5.89
   1  -2  -7  130.06    5.66
   1  -2  -7  132.85    6.07
   1  -2  -7  128.65    6.33
   1  -2  -7  138.82    5.69
   1  -2  -7  133.93    6.27
   1  -2  -7  132.71    5.78
  -1   2   7  141.31    4.78
  -1   2   7  137.88    5.92
  -1   2   7  133.93    4.82
  -1   2   7  134.50    6.41
  -1   2   7  130.65    6.38
  -1   2   7  132.37    5.39
   0  -2  -7   82.71    4.87
   0  -2  -7   78.00    4.29
   0  -2  -7   77.02    4.59
   0  -2  -7   78.99    3.34
   0  -2  -7   79.29    4.23
   0  -2  -7   84.71    4.53
   0  -2  -7   85.73    4.26
   0  -2  -7   77.85    4.57
   0   2   7   74.66    4.65
   0   2   7   74.31    3.99
   0   2   7   84.89    4.54
   0   2   7   78.82    3.89
   0   2   7   75.11    3.82
  -1  -2  -7   37.46    3.46
  -1  -2  -7   36.44    1.78
  -1  -2  -7   27.39    2.74
  -1  -2  -7   31.81    2.88
  -1  -2  -7   29.68    2.67
  -1  -2  -7   32.90    3.02
  -1  -2  -7   35.64    3.14
   1   2   7   38.07    2.92
   1   2   7   40.79    3.24
   1   2   7   35.93    3.23
   1   2   7   38.89    2.77
   1   2   7   33.74    2.73
   1   2   7   29.48    2.81
  -2  -2  -7   28.63    3.23
  -2  -2  -7   23.51    2.82
  -2  -2  -7   27.52    2.89
  -2  -2  -7   24.96    2.62
  -2  -2  -7   25.70    2.54
  -2  -2  -7   27.52    3.76
  -2  -2  -7   23.57    2.57
   2   2   7   25.31    2.78
   2   2   7   31.61    2.72
   2   2   7   24.70    2.58
   2   2   7   25.17    3.06
   2   2   7   25.00    2.77
  -3  -2  -7   71.73    4.43
  -3  -2  -7   76.33    3.64
  -3  -2  -7   66.82    4.64
  -3  -2  -7   65.62    5.05
  -3  -2  -7   69.99    4.47
   3   2   7   69.43    4.75
   3   2   7   64.01    4.58
   3   2   7   78.48    5.22
   3   2   7   73.22    4.47
   3   2   7   75.13    4.75
  -4  -2  -7   26.85    2.59
  -4  -2  -7   40.93    4.12
  -4  -2  -7   26.88    2.70
  -4  -2  -7   31.92    3.23
  -4  -2  -7   27.05    2.90
   4   2   7   32.40    3.22
   4   2   7   31.47    3.71
  -5  -2  -7    9.18    2.83
  -5  -2  -7   10.86    2.99
  -5  -2  -7    9.13    2.59
  -5  -2  -7   15.01    2.03
  -5  -2  -7   13.19    2.10
  -5  -2  -7   14.32    2.83
   5   2   7   15.51    3.34
   5   2   7    9.10    2.32
  -6  -2  -7   42.45    4.68
  -6  -2  -7   44.80    5.41
   6   2   7   36.12    4.69
   6   2   7   36.81    3.96
  -7  -2  -7    3.25    2.37
   7   2   7    7.00    2.77
   7   2   7   10.15    2.97
  -8  -2  -7    2.43    2.57
   8   2   7    1.22    2.30
  10  -3  -7   54.20    3.78
  10  -3  -7   57.17    3.75
 -10   3   7   43.82    6.93
 -10   3   7   48.88    5.90
   9  -3  -7    0.54    1.27
   9  -3  -7   -1.89    1.18
   9  -3  -7   -0.46    1.27
   9  -3  -7    1.68    1.20
   9  -3  -7    1.30    1.03
  -9   3   7    0.57    2.71
  -9   3   7   -1.73    1.49
   8  -3  -7    0.93    0.90
   8  -3  -7    2.52    1.19
   8  -3  -7   -0.05    1.16
   8  -3  -7    1.28    0.78
   8  -3  -7   -0.69    1.04
  -8   3   7    2.37    2.50
  -8   3   7   -0.06    1.65
   7  -3  -7  101.62    4.80
   7  -3  -7  105.63    3.96
   7  -3  -7  105.28    3.86
  -7   3   7  120.79    8.32
  -7   3   7  112.37    7.23
   6  -3  -7    0.33    0.44
   6  -3  -7    1.33    0.56
   6  -3  -7    1.66    1.09
   6  -3  -7    1.33    0.91
  -6   3   7    1.80    2.03
  -6   3   7   -0.88    1.24
   5  -3  -7    0.45    0.92
   5  -3  -7   -0.22    0.41
   5  -3  -7   -0.10    0.50
   5  -3  -7    0.73    0.85
  -5   3   7    0.77    1.30
  -5   3   7   -0.20    1.46
  -5   3   7    0.13    0.86
   4  -3  -7  172.94    6.20
   4  -3  -7  163.70    6.34
   4  -3  -7  171.81    6.99
   4  -3  -7  168.23    6.88
   4  -3  -7  163.51    6.04
  -4   3   7  165.31    8.17
  -4   3   7  182.51    8.58
  -4   3   7  175.06    6.68
  -4   3   7  169.22    6.60
   3  -3  -7   15.41    2.06
   3  -3  -7   14.10    1.64
   3  -3  -7   12.71    2.01
   3  -3  -7   11.98    1.54
   3  -3  -7   12.99    1.75
  -3   3   7   16.67    2.09
  -3   3   7   10.65    2.47
  -3   3   7   13.86    2.22
  -3   3   7   14.51    2.34
   2  -3  -7    1.11    0.91
   2  -3  -7    0.60    0.69
   2  -3  -7    0.91    0.91
   2  -3  -7    0.77    1.18
   2  -3  -7    0.24    0.61
  -2   3   7    2.12    1.19
  -2   3   7    3.07    1.49
   1  -3  -7  198.29    7.49
   1  -3  -7  194.54    8.06
   1  -3  -7  179.41    8.03
   1  -3  -7  194.03    7.76
   1  -3  -7  186.93    7.29
   1  -3  -7  185.22    7.35
   1  -3  -7  174.49    7.90
  -1   3   7  182.38    6.86
  -1   3   7  192.48    8.01
  -1   3   7  188.39    8.05
  -1   3   7  170.21    7.40
   0  -3  -7   27.97    2.96
   0  -3  -7   31.06    2.72
   0  -3  -7   20.81    2.46
   0  -3  -7   30.85    2.82
   0  -3  -7   28.13    2.53
   0  -3  -7   30.74    3.00
   0  -3  -7   29.35    2.84
   0   3   7   28.01    2.16
   0   3   7   26.51    2.61
   0   3   7   26.71    2.41
   0   3   7   25.19    2.85
   0   3   7   27.07    2.77
   0   3   7   32.97    2.32
  -1  -3  -7    1.02    1.42
  -1  -3  -7    1.28    1.31
  -1  -3  -7    0.47    0.86
  -1  -3  -7   -0.25    0.57
  -1  -3  -7   -0.05    1.01
  -1  -3  -7    1.16    1.13
  -1  -3  -7    0.87    1.05
   1   3   7    0.35    1.05
   1   3   7    0.58    0.97
   1   3   7    0.75    0.89
   1   3   7   -0.45    1.02
   1   3   7    2.17    1.15
   1   3   7   -0.35    1.13
  -2  -3  -7   87.78    4.88
  -2  -3  -7   83.83    4.94
  -2  -3  -7   70.77    4.95
  -2  -3  -7   93.79    6.15
  -2  -3  -7   90.74    5.46
  -2  -3  -7   87.00    5.08
  -2  -3  -7   95.52    5.90
   2   3   7   94.56    4.88
   2   3   7   85.67    5.26
   2   3   7   92.30    5.06
   2   3   7   91.43    5.68
   2   3   7   92.80    5.04
  -3  -3  -7   45.17    3.77
  -3  -3  -7   36.58    3.50
  -3  -3  -7   38.31    4.08
   3   3   7   43.95    3.54
   3   3   7   37.14    3.64
   3   3   7   38.91    3.39
   3   3   7   35.51    3.96
  -4  -3  -7    1.01    1.44
  -4  -3  -7    0.59    1.54
  -4  -3  -7    3.18    1.88
  -4  -3  -7    1.72    1.41
  -4  -3  -7    0.79    1.07
   4   3   7    4.13    2.35
   4   3   7    0.46    1.38
  -5  -3  -7   30.13    3.03
  -5  -3  -7   33.39    4.45
  -5  -3  -7   30.49    4.58
  -5  -3  -7   30.61    3.26
  -5  -3  -7   39.88    5.26
   5   3   7   28.39    3.54
   5   3   7   36.41    4.50
  -6  -3  -7   24.29    4.87
  -6  -3  -7   26.74    2.40
  -6  -3  -7   16.74    4.03
  -6  -3  -7   18.95    2.30
   6   3   7   27.36    4.28
   6   3   7   24.79    3.62
  -7  -3  -7    0.10    2.00
   7   3   7   -0.13    1.92
   7   3   7   -1.73    2.27
  -8  -3  -7    8.87    3.73
   8   3   7    6.63    2.81
   9  -4  -7    9.51    1.91
   9  -4  -7    9.57    1.34
   9  -4  -7   10.14    1.62
  -9   4   7    9.15    3.03
  -9   4   7   11.24    4.22
   8  -4  -7    5.20    1.36
   8  -4  -7    9.61    1.94
   8  -4  -7    8.37    1.54
  -8   4   7    8.29    3.08
  -8   4   7    8.15    3.56
   7  -4  -7   50.52    2.99
   7  -4  -7   49.93    3.25
  -7   4   7   64.27    5.61
  -7   4   7   56.58    5.86
   6  -4  -7    6.05    1.33
   6  -4  -7    6.89    1.61
  -6   4   7    4.12    2.11
  -6   4   7    5.48    2.92
   5  -4  -7   21.55    1.52
   5  -4  -7   26.73    2.12
   5  -4  -7   33.14    2.71
   5  -4  -7   22.84    1.64
  -5   4   7   25.11    1.67
  -5   4   7   28.99    3.91
  -5   4   7   22.69    3.29
   4  -4  -7  136.90    5.30
   4  -4  -7  132.55    5.24
   4  -4  -7  140.39    6.21
   4  -4  -7  131.94    5.40
  -4   4   7  124.04    5.37
  -4   4   7  132.92    7.59
  -4   4   7  137.63    7.43
   3  -4  -7   10.70    1.81
   3  -4  -7    5.98    1.47
   3  -4  -7   12.22    2.28
   3  -4  -7    7.22    1.49
   3  -4  -7    7.58    1.87
  -3   4   7    6.50    1.71
  -3   4   7   10.74    2.53
   2  -4  -7   33.95    2.67
   2  -4  -7   33.30    3.12
   2  -4  -7   31.75    2.64
   2  -4  -7   35.44    2.99
   2  -4  -7   36.02    3.15
  -2   4   7   29.31    3.15
  -2   4   7   35.88    2.98
   1  -4  -7  105.08    5.73
   1  -4  -7  109.28    5.48
   1  -4  -7  110.33    5.87
   1  -4  -7  100.68    5.17
   1  -4  -7  109.80    5.96
  -1   4   7  111.58    5.87
  -1   4   7  113.89    4.64
  -1   4   7  109.92    5.79
   0  -4  -7    1.24    1.17
   0  -4  -7    0.01    1.07
   0  -4  -7   -0.04    0.80
   0  -4  -7    0.56    1.24
   0  -4  -7    0.69    0.81
   0  -4  -7   -0.74    1.05
   0  -4  -7    0.63    1.07
   0   4   7    0.57    1.32
   0   4   7    0.28    0.72
   0   4   7    0.67    1.15
   0   4   7    0.12    0.94
   0   4   7    1.23    1.23
   0   4   7    0.74    0.80
  -1  -4  -7   24.04    3.10
  -1  -4  -7   26.35    2.92
  -1  -4  -7   22.80    3.10
  -1  -4  -7   19.08    2.83
  -1  -4  -7   20.67    2.88
  -1  -4  -7   17.17    2.70
   1   4   7   22.37    2.29
   1   4   7   21.33    3.09
   1   4   7   27.84    2.65
   1   4   7   20.54    2.76
   1   4   7   25.85    2.48
   1   4   7   23.44    2.65
  -2  -4  -7   71.92    4.74
  -2  -4  -7   71.07    5.33
   2   4   7   63.23    4.32
   2   4   7   73.97    4.57
   2   4   7   67.96    3.92
   2   4   7   72.03    5.27
   2   4   7   62.27    4.11
  -3  -4  -7    0.12    1.48
  -3  -4  -7    1.32    1.66
   3   4   7    0.53    1.33
   3   4   7    0.51    1.37
   3   4   7   -0.68    1.72
   3   4   7   -0.20    1.46
  -4  -4  -7   23.20    3.44
  -4  -4  -7   24.07    3.42
  -4  -4  -7   25.89    4.07
  -4  -4  -7   22.73    2.97
   4   4   7   35.74    4.32
   4   4   7   21.41    3.23
  -5  -4  -7   32.93    4.69
  -5  -4  -7   32.27    3.77
  -5  -4  -7   36.92    4.76
  -5  -4  -7   29.32    3.36
   5   4   7   35.34    4.07
   5   4   7   36.89    4.68
  -6  -4  -7    3.71    1.99
  -6  -4  -7    3.88    1.57
  -6  -4  -7    4.05    2.80
   6   4   7    5.03    2.39
   6   4   7    6.22    3.03
  -7  -4  -7   11.28    3.90
   7   4   7    4.65    2.56
   7   4   7   11.54    3.87
  -9   5   7   25.04    5.06
  -9   5   7   16.58    5.14
  -8   5   7   15.98    4.77
  -8   5   7    7.15    2.86
   7  -5  -7   21.82    2.06
   7  -5  -7   21.97    2.43
  -7   5   7   21.87    4.39
  -7   5   7   22.20    5.26
   6  -5  -7   49.07    2.16
   6  -5  -7   49.20    2.20
   6  -5  -7   38.94    3.18
   6  -5  -7   51.04    2.95
  -6   5   7   50.82    5.68
  -6   5   7   49.49    5.00
   5  -5  -7   40.22    2.35
   5  -5  -7   40.79    2.69
   5  -5  -7   32.33    2.19
   5  -5  -7   34.59    3.07
  -5   5   7   36.79    4.19
  -5   5   7   41.07    4.73
   4  -5  -7   16.53    2.00
   4  -5  -7   17.12    1.90
   4  -5  -7   13.83    2.23
   4  -5  -7   15.81    1.94
  -4   5   7   20.70    3.18
  -4   5   7   15.54    1.81
   3  -5  -7   32.69    2.71
   3  -5  -7   35.42    2.93
   3  -5  -7   34.07    2.74
   3  -5  -7   31.87    3.04
  -3   5   7   27.04    2.62
  -3   5   7   36.94    3.87
   2  -5  -7   32.69    2.92
   2  -5  -7   37.07    3.38
   2  -5  -7   41.09    3.44
   2  -5  -7   32.20    2.91
   2  -5  -7   29.22    3.11
  -2   5   7   35.95    3.61
  -2   5   7   41.61    3.33
   1  -5  -7   34.56    3.19
   1  -5  -7   40.37    3.63
   1  -5  -7   36.40    3.48
   1  -5  -7   34.63    3.44
   1  -5  -7   37.22    3.15
  -1   5   7   34.83    3.36
  -1   5   7   28.76    3.26
   0  -5  -7   21.35    3.07
   0  -5  -7   22.70    3.09
   0  -5  -7   22.76    2.93
   0  -5  -7   24.29    2.94
   0  -5  -7   20.74    2.66
   0   5   7   20.15    3.00
   0   5   7   22.86    2.78
  -1  -5  -7   76.83    7.88
  -1  -5  -7   61.77    4.87
  -1  -5  -7   61.61    4.48
   1   5   7   64.35    3.60
   1   5   7   67.07    4.95
   1   5   7   56.45    4.02
   1   5   7   54.13    3.84
   1   5   7   62.04    3.58
  -2  -5  -7   21.70    3.25
  -2  -5  -7   22.94    3.67
   2   5   7   19.44    2.52
   2   5   7   19.73    2.76
   2   5   7   22.60    2.79
   2   5   7   11.55    2.59
  -3  -5  -7    9.39    3.06
  -3  -5  -7   14.87    3.08
   3   5   7    2.94    1.92
   3   5   7    7.43    2.53
   3   5   7    8.07    2.05
   3   5   7   11.34    2.79
  -4  -5  -7   42.23    5.19
  -4  -5  -7   43.92    4.51
   4   5   7   38.59    4.88
   4   5   7   31.93    3.88
  -5  -5  -7   12.93    3.61
  -5  -5  -7   18.95    4.22
   5   5   7   14.35    3.45
   5   5   7   12.41    3.28
  -6  -5  -7    2.26    2.55
  -6  -5  -7    0.51    1.58
  -6  -5  -7    0.79    1.93
   6   5   7    1.89    2.72
   6   5   7   -0.76    2.06
  -8   6   7    2.11    2.82
  -8   6   7   -0.22    1.90
   7  -6  -7    0.87    0.60
   7  -6  -7    0.02    0.46
   7  -6  -7   -0.03    1.25
   7  -6  -7    1.23    1.22
  -7   6   7    6.94    3.11
  -7   6   7   -0.31    1.91
   6  -6  -7   60.10    3.70
   6  -6  -7   55.37    2.94
   6  -6  -7   61.90    3.04
   6  -6  -7   57.45    3.44
  -6   6   7   60.37    5.85
   5  -6  -7    6.86    1.47
   5  -6  -7    6.27    1.67
   5  -6  -7    7.04    1.45
   5  -6  -7    6.54    1.59
  -5   6   7   10.78    3.19
   4  -6  -7    0.94    1.01
   4  -6  -7    0.73    1.19
   4  -6  -7    0.45    1.10
   4  -6  -7    1.82    1.10
  -4   6   7    0.33    0.95
  -4   6   7    1.02    1.77
   3  -6  -7   63.16    4.42
   3  -6  -7   59.19    3.94
   3  -6  -7   62.97    4.46
   3  -6  -7   64.99    4.14
  -3   6   7   68.83    5.31
  -3   6   7   61.15    4.02
   2  -6  -7   37.96    3.70
   2  -6  -7   34.85    3.41
   2  -6  -7   42.71    3.40
   2  -6  -7   38.95    3.62
  -2   6   7   37.06    3.97
  -2   6   7   44.77    3.67
   1  -6  -7    1.08    1.21
   1  -6  -7    0.65    1.17
   1  -6  -7   -1.87    1.39
   1  -6  -7   -0.81    1.16
   1  -6  -7    0.71    1.15
  -1   6   7   -1.41    1.29
  -1   6   7    2.58    1.66
   0  -6  -7   71.68    4.84
   0  -6  -7   67.66    5.24
   0   6   7   68.26    4.71
   0   6   7   64.04    5.08
  -1  -6  -7   35.04    4.08
  -1  -6  -7   42.65    3.95
   1   6   7   33.56    4.11
   1   6   7   39.45    4.71
   1   6   7   36.31    2.25
   1   6   7   36.34    2.29
  -2  -6  -7    0.54    1.66
  -2  -6  -7    0.58    1.99
   2   6   7   -0.11    1.02
   2   6   7    0.68    1.15
   2   6   7    0.78    1.83
  -3  -6  -7   40.69    4.34
  -3  -6  -7   28.60    4.44
   3   6   7   21.12    3.25
   3   6   7   19.96    2.92
   3   6   7   26.50    4.13
  -4  -6  -7   33.62    4.32
  -4  -6  -7   43.85    5.33
   4   6   7   40.39    5.18
   4   6   7   36.24    4.25
  -5  -6  -7    1.93    2.43
   5   6   7    0.59    2.56
   5   6   7   -1.17    1.88
  -6  -6  -7    9.39    4.45
   6   6   7   -0.70    2.55
   6   6   7    9.72    3.73
   7  -7  -7    9.11    1.55
   7  -7  -7    6.14    1.31
   7  -7  -7    5.81    1.82
  -7   7   7   13.55    4.34
   6  -7  -7   47.52    3.39
   6  -7  -7   46.93    3.39
   6  -7  -7   53.26    3.77
   6  -7  -7   55.88    3.39
  -6   7   7   53.10    5.78
   5  -7  -7    1.40    1.29
   5  -7  -7    1.15    1.12
   5  -7  -7    0.88    1.14
   5  -7  -7    0.36    1.38
  -5   7   7    2.32    2.31
   4  -7  -7   15.73    2.52
   4  -7  -7   15.41    2.56
   4  -7  -7   11.71    2.54
   4  -7  -7   14.64    2.68
  -4   7   7   10.92    3.25
  -4   7   7   13.79    2.05
   3  -7  -7   69.94    5.04
   3  -7  -7   75.15    4.64
   3  -7  -7   71.71    4.99
   3  -7  -7   79.62    5.04
  -3   7   7   79.56    6.12
  -3   7   7   68.40    4.42
   2  -7  -7   -0.20    1.29
   2  -7  -7    1.32    1.66
   2  -7  -7    0.57    1.38
  -2   7   7   -0.94    1.62
  -2   7   7    1.26    1.46
   1  -7  -7   30.19    3.37
  -1   7   7   21.82    3.74
  -1   7   7   24.34    3.47
   0  -7  -7   45.39    4.27
   0  -7  -7   43.11    4.74
   0   7   7   43.82    4.53
   0   7   7   44.38    5.63
  -1  -7  -7    3.81    2.40
  -1  -7  -7    5.15    2.17
   1   7   7    6.06    2.58
  -2  -7  -7    7.45    2.84
  -2  -7  -7   12.28    3.27
   2   7   7    9.23    1.69
   2   7   7    9.10    3.43
   2   7   7    7.97    1.52
  -3  -7  -7   18.96    3.97
  -3  -7  -7   14.78    3.79
   3   7   7   12.09    2.35
   3   7   7   22.64    2.98
   3   7   7   30.03    5.33
  -4  -7  -7    4.81    3.45
  -4  -7  -7    9.50    3.21
   4   7   7    5.92    2.90
   4   7   7    4.91    2.98
  -5  -7  -7    5.44    3.27
   5   7   7    3.82    3.08
   6  -8  -7   17.69    2.95
   6  -8  -7    9.74    2.02
   6  -8  -7    8.82    2.12
  -6   8   7   10.57    3.81
   5  -8  -7    8.67    2.81
   5  -8  -7   11.87    2.51
   5  -8  -7   15.52    2.69
   5  -8  -7   12.28    2.54
  -5   8   7   10.35    3.84
   4  -8  -7   23.79    3.09
   4  -8  -7   25.78    3.62
   4  -8  -7   24.68    3.51
   4  -8  -7   24.79    3.29
  -4   8   7   26.37    5.05
   3  -8  -7   11.40    2.84
   3  -8  -7   13.36    3.07
   3  -8  -7   16.00    3.13
  -3   8   7   16.43    3.93
  -3   8   7   13.12    2.77
   2  -8  -7    8.05    2.59
  -2   8   7    9.94    2.84
  -2   8   7    9.99    3.15
   1  -8  -7   22.45    3.44
  -1   8   7   15.64    3.38
   0  -8  -7   21.50    3.89
   0   8   7   14.28    3.25
  -1  -8  -7    1.18    2.24
  -1  -8  -7   -0.62    1.70
   1   8   7    0.68    1.95
  -2  -8  -7   23.19    4.30
  -2  -8  -7   27.86    5.57
   2   8   7   19.97    4.21
  -3  -8  -7   14.21    4.08
  -3  -8  -7   10.32    3.53
   3   8   7    8.45    1.72
   3   8   7    3.98    2.73
   3   8   7    5.67    1.51
   4  -9  -7    5.49    2.26
   4  -9  -7    7.96    2.36
  -4   9   7   13.88    3.94
   3  -9  -7   -0.42    1.73
  -3   9   7   -0.05    2.36
  -3   9   7   -0.55    1.68
   2  -9  -7   22.16    4.00
  -2   9   7   16.16    3.31
   1  -9  -7   30.08    4.07
  -1   9   7   20.47    4.16
   0  -9  -7   -0.37    2.07
   0  -9  -7   -0.09    2.45
   0   9   7    2.17    2.59
  -1  -9  -7   11.26    3.46
   1   9   7    8.77    3.44
   3  10  -8   35.17    5.06
  -3 -10   8   31.41    4.49
   2  10  -8   -0.16    1.96
  -2 -10   8    1.70    2.21
   1  10  -8    9.31    3.10
  -1 -10   8   13.78    3.49
   0  10  -8   27.31    4.24
   0 -10   8   34.73    4.35
  -1  10  -8    0.96    1.94
   1 -10   8    3.50    2.02
  -2  10  -8   16.20    3.61
   2 -10   8   22.93    3.95
  -3  10  -8   26.23    4.09
   3 -10   8   24.05    3.72
   5   9  -8   30.11    4.83
  -5  -9   8   30.21    4.55
   4   9  -8    8.63    2.36
   4   9  -8   22.08    4.82
   4   9  -8   18.95    2.92
  -4  -9   8   18.58    3.68
   3   9  -8    9.51    1.83
   3   9  -8   10.48    1.96
   3   9  -8    7.88    3.30
  -3  -9   8   12.17    3.22
   2   9  -8   17.36    3.73
  -2  -9   8   23.88    3.72
   1   9  -8   29.49    4.17
  -1  -9   8   29.30    3.94
   0   9  -8   14.68    3.40
   0  -9   8   15.73    3.24
  -1   9  -8    7.75    2.26
   1  -9   8    5.84    2.26
  -2   9  -8   28.21    3.88
   2  -9   8   35.23    3.96
  -3   9  -8   10.84    3.00
   3  -9   8    5.37    2.33
  -4   9  -8    4.49    2.23
   4  -9   8    1.97    1.97
   5  -9   8   27.36    3.80
   6   8  -8    0.45    2.24
   5   8  -8   42.92    5.14
  -5  -8   8   47.63    4.79
   4   8  -8    6.39    2.04
   4   8  -8    4.05    2.64
  -4  -8   8    9.43    2.78
   3   8  -8    0.16    1.30
   3   8  -8    1.51    1.85
   3   8  -8   -0.11    1.25
  -3  -8   8    3.38    2.16
   2   8  -8   52.20    3.38
   2   8  -8   47.82    3.13
   2   8  -8   66.82    5.45
  -2  -8   8   57.60    4.79
   1   8  -8   29.98    3.93
  -1  -8   8   29.29    3.56
   0   8  -8    1.03    1.58
   0  -8   8    2.77    1.76
  -1   8  -8   34.38    3.96
   1  -8   8   43.71    3.94
  -2   8  -8   46.34    4.26
   2  -8   8   38.46    3.88
   2  -8   8   36.65    3.73
  -3   8  -8   -0.68    1.64
   3  -8   8    1.65    1.45
   3  -8   8    2.26    1.54
  -4   8  -8   20.11    3.38
   4  -8   8   12.98    2.81
   5  -8   8   32.58    3.89
   6  -8   8   -0.96    1.82
   7   7  -8    3.31    2.52
  -7  -7   8   -1.46    1.54
  -7  -7   8   -0.28    1.80
   6   7  -8    9.55    2.97
  -6  -7   8    8.47    2.42
   5   7  -8   43.85    4.82
  -5  -7   8   37.39    4.05
   4   7  -8    3.11    1.98
  -4  -7   8    6.91    2.51
   3   7  -8   22.23    3.57
   3   7  -8   26.63    2.90
  -3  -7   8   25.81    3.27
   2   7  -8   82.89    4.61
   2   7  -8   97.86    6.31
  -2  -7   8   96.12    5.74
   1   7  -8    5.95    2.18
   1   7  -8    5.65    1.19
   1   7  -8    4.91    1.19
  -1  -7   8    4.96    2.21
   0   7  -8   26.09    3.30
   0  -7   8   25.52    3.11
  -1   7  -8   73.70    5.03
  -1   7  -8   59.18    4.81
   1  -7   8   65.15    4.59
   1  -7   8   58.89    4.46
   1  -7   8   72.25    4.93
  -2   7  -8   11.14    2.63
   2  -7   8   12.42    2.62
   2  -7   8   13.66    2.57
   2  -7   8   17.19    3.19
   2  -7   8   14.69    2.60
  -3   7  -8   19.33    3.10
   3  -7   8   18.50    2.84
   3  -7   8   18.26    3.16
   3  -7   8   22.12    3.30
  -4   7  -8   33.40    3.70
   4  -7   8   30.58    3.71
   4  -7   8   35.20    3.71
   4  -7   8   38.03    3.94
  -5   7  -8   31.23    3.53
   5  -7   8   26.93    3.56
   5  -7   8   35.83    4.15
   5  -7   8   28.03    3.66
   6  -7   8    7.19    2.46
   6  -7   8   11.26    2.69
   7  -7   8   11.82    2.75
   8   6  -8   18.96    4.34
   7   6  -8   20.93    4.06
  -7  -6   8   14.94    2.58
  -7  -6   8   12.61    2.34
   6   6  -8   32.31    4.24
  -6  -6   8   26.50    3.25
  -6  -6   8   36.06    3.38
   5   6  -8   31.68    3.98
  -5  -6   8   25.93    3.02
  -5  -6   8   28.46    3.32
  -5  -6   8   25.95    3.13
   4   6  -8   22.20    3.39
  -4  -6   8   24.50    2.97
  -4  -6   8   24.93    3.09
   3   6  -8   76.42    4.57
   3   6  -8   80.45    4.68
   3   6  -8   89.37    5.86
  -3  -6   8   82.82    5.11
   2   6  -8   30.77    2.79
   2   6  -8   29.04    3.39
  -2  -6   8   36.31    3.37
   1   6  -8    4.12    1.67
   1   6  -8    5.06    1.88
   1   6  -8    2.99    1.61
   1   6  -8    3.49    1.17
  -1  -6   8    3.08    1.54
   0   6  -8   83.97    5.48
   0   6  -8   86.11    5.49
   0  -6   8  101.14    5.60
   0  -6   8   95.23    5.29
   0  -6   8   90.35    5.78
  -1   6  -8   56.05    4.32
  -1   6  -8   53.72    4.06
   1  -6   8   50.80    4.14
   1  -6   8   49.85    4.04
   1  -6   8   47.91    3.78
  -2   6  -8    4.23    1.95
  -2   6  -8    5.88    1.67
   2  -6   8    3.31    1.56
   2  -6   8    1.54    1.35
   2  -6   8    3.24    1.61
  -3   6  -8   79.94    5.29
   3  -6   8   82.47    5.14
   3  -6   8   78.82    5.32
   3  -6   8   81.91    5.30
  -4   6  -8   31.31    3.54
   4  -6   8   28.92    3.35
   4  -6   8   34.22    3.59
   4  -6   8   30.54    3.36
  -5   6  -8    0.25    1.60
   5  -6   8    0.05    1.70
   5  -6   8    2.06    1.66
   5  -6   8    1.05    1.59
  -6   6  -8   35.57    3.47
   6  -6   8   45.05    4.14
   6  -6   8   40.34    4.46
   6  -6   8   45.27    4.16
   7  -6   8    4.78    2.34
  -9  -5   8   -1.57    3.61
   8   5  -8   -1.61    2.07
   7   5  -8   59.50    5.40
   6   5  -8   32.29    4.05
  -6  -5   8   28.02    3.12
  -6  -5   8   29.83    2.91
  -6  -5   8   30.40    2.94
   5   5  -8    1.81    1.76
  -5  -5   8    2.11    1.30
  -5  -5   8    3.53    1.59
  -5  -5   8    5.23    2.08
   4   5  -8   90.77    5.96
  -4  -5   8   88.93    5.14
  -4  -5   8  104.21    5.25
   3   5  -8  100.20    6.84
   3   5  -8  104.46    5.37
   3   5  -8  111.62    6.30
   3   5  -8  104.12    5.32
   3   5  -8  110.34    6.45
  -3  -5   8  109.95    5.65
  -3  -5   8  113.81    5.67
  -3  -5   8  104.81    5.40
   2   5  -8    3.18    1.24
   2   5  -8    2.95    1.61
   2   5  -8    2.66    1.48
   2   5  -8    4.31    1.64
   2   5  -8    2.14    1.17
   2   5  -8    1.77    1.08
  -2  -5   8    4.16    1.41
  -2  -5   8    4.76    1.67
  -2  -5   8    4.38    1.45
   1   5  -8   82.75    5.07
   1   5  -8   77.07    4.71
   1   5  -8   78.62    4.69
   1   5  -8   83.70    4.16
   1   5  -8   77.33    3.89
   1   5  -8   70.05    4.78
  -1  -5   8   69.68    4.62
  -1  -5   8   79.69    4.56
  -1  -5   8   80.57    4.42
  -1  -5   8   73.46    4.44
  -1  -5   8   79.64    4.80
   0   5  -8  141.63    6.34
   0   5  -8  135.13    6.65
   0   5  -8  130.79    6.75
   0   5  -8  139.51    5.40
   0   5  -8  127.34    6.33
   0  -5   8  131.45    6.43
   0  -5   8  145.86    6.93
   0  -5   8  128.17    6.51
   0  -5   8  130.49    6.30
   0  -5   8  135.41    6.09
  -1   5  -8    0.93    1.03
  -1   5  -8    1.57    1.41
  -1   5  -8    1.57    1.09
   1  -5   8    1.38    1.19
   1  -5   8    0.19    1.12
   1  -5   8    1.31    1.36
   1  -5   8    0.07    1.18
  -2   5  -8   30.03    3.21
  -2   5  -8   32.29    3.26
  -2   5  -8   30.08    2.82
   2  -5   8   29.79    3.37
   2  -5   8   34.92    3.38
   2  -5   8   26.14    3.03
   2  -5   8   30.20    3.06
  -3   5  -8   98.80    4.88
  -3   5  -8  105.85    6.02
   3  -5   8   96.18    5.51
   3  -5   8   94.29    5.69
   3  -5   8  105.58    6.12
   3  -5   8  113.96    6.12
  -4   5  -8   -0.06    1.52
   4  -5   8    0.57    1.26
   4  -5   8   -1.00    1.25
   4  -5   8   -0.75    1.14
  -5   5  -8   10.97    2.46
   5  -5   8    8.85    2.15
   5  -5   8   11.16    2.64
   5  -5   8    9.01    2.38
  -6   5  -8   50.49    4.10
   6  -5   8   45.45    4.09
   6  -5   8   58.78    4.96
   6  -5   8   50.96    4.40
  -7   5  -8    1.48    1.61
   7  -5   8   -0.54    1.37
   7  -5   8    0.95    1.59
   8  -5   8   -1.51    1.75
   8  -5   8    2.91    2.18
  -9  -4   8    1.77    3.89
  -8  -4   8    8.63    4.21
   7   4  -8  123.33    7.25
  -7  -4   8  110.93    6.21
   6   4  -8    3.88    2.14
  -6  -4   8    9.30    2.28
  -6  -4   8    8.27    1.69
  -6  -4   8    6.28    1.42
   5   4  -8   61.39    4.58
  -5  -4   8   50.79    3.37
  -5  -4   8   40.11    3.27
  -5  -4   8   48.13    3.30
   4   4  -8  123.37    6.86
   4   4  -8  132.75    6.31
   4   4  -8  124.94    6.74
   4   4  -8  129.46    5.96
   4   4  -8  127.90    6.53
   4   4  -8  127.42    6.47
  -4  -4   8  125.71    5.77
  -4  -4   8  122.64    5.87
  -4  -4   8  127.77    5.90
   3   4  -8   15.14    2.29
   3   4  -8   11.71    2.11
   3   4  -8   13.34    2.50
   3   4  -8   11.86    2.13
   3   4  -8   16.07    2.64
   3   4  -8   11.62    2.11
   3   4  -8   12.46    2.53
  -3  -4   8   10.64    2.04
  -3  -4   8   11.50    2.11
  -3  -4   8   11.49    2.05
   2   4  -8   39.75    2.87
   2   4  -8   40.42    3.22
   2   4  -8   42.95    2.94
   2   4  -8   37.18    3.02
   2   4  -8   41.80    3.54
   2   4  -8   36.96    3.10
   2   4  -8   40.82    2.26
   2   4  -8   36.05    3.36
  -2  -4   8   37.03    3.25
  -2  -4   8   42.62    3.13
  -2  -4   8   40.58    3.06
  -2  -4   8   38.22    2.93
   1   4  -8   86.34    5.10
   1   4  -8   90.79    4.15
   1   4  -8   87.23    4.78
   1   4  -8   92.11    4.30
   1   4  -8   80.85    4.89
   1   4  -8   90.99    4.89
   1   4  -8   84.92    4.27
  -1  -4   8   86.19    4.45
  -1  -4   8   83.94    4.47
  -1  -4   8   81.21    4.73
  -1  -4   8   83.51    4.64
   0   4  -8   37.33    3.29
   0   4  -8   33.67    2.28
   0   4  -8   33.68    2.99
   0   4  -8   37.18    2.58
   0   4  -8   37.58    2.80
   0   4  -8   39.91    3.08
   0   4  -8   37.29    3.01
   0  -4   8   36.86    3.14
   0  -4   8   32.82    3.05
   0  -4   8   38.00    3.03
   0  -4   8   32.13    2.67
   0  -4   8   33.82    2.92
  -1   4  -8   44.17    3.34
  -1   4  -8   47.76    2.17
  -1   4  -8   47.35    3.45
  -1   4  -8   43.31    3.21
  -1   4  -8   41.03    3.17
  -1   4  -8   45.73    3.71
   1  -4   8   48.27    3.44
   1  -4   8   45.83    3.50
   1  -4   8   45.10    3.47
   1  -4   8   41.39    3.01
   1  -4   8   47.54    3.64
  -2   4  -8   63.96    3.78
  -2   4  -8   64.63    4.54
  -2   4  -8   65.65    4.45
   2  -4   8   67.44    4.56
   2  -4   8   66.97    4.20
   2  -4   8   68.97    4.45
   2  -4   8   69.78    4.58
  -3   4  -8   52.04    4.16
  -3   4  -8   53.73    4.28
  -3   4  -8   50.05    3.09
   3  -4   8   50.35    3.94
   3  -4   8   54.36    4.37
   3  -4   8   54.90    4.22
   3  -4   8   46.86    3.69
  -4   4  -8   53.70    4.60
  -4   4  -8   49.61    4.20
   4  -4   8   44.29    3.73
   4  -4   8   48.63    4.11
   4  -4   8   51.52    4.33
   4  -4   8   43.34    3.60
  -5   4  -8   10.38    2.55
  -5   4  -8    8.88    2.78
   5  -4   8   11.79    2.50
   5  -4   8    9.19    2.03
   5  -4   8   11.31    2.69
  -6   4  -8   28.94    3.45
   6  -4   8   37.45    4.04
   6  -4   8   39.39    3.76
   6  -4   8   30.65    3.55
   6  -4   8   30.57    3.48
  -7   4  -8    5.66    2.20
   7  -4   8    7.18    2.31
   7  -4   8    7.32    2.30
   8  -4   8    3.70    2.01
   8  -4   8    4.69    2.46
 -10  -3   8   17.93    6.30
  -9  -3   8   14.06    5.11
  -8  -3   8   60.69    7.33
  -8  -3   8   74.14    5.33
   7   3  -8   20.55    3.20
  -7  -3   8   30.99    6.18
  -7  -3   8   25.02    3.08
   6   3  -8   20.99    2.83
   6   3  -8   16.16    2.93
   6   3  -8   18.16    2.92
   6   3  -8   15.85    2.75
  -6  -3   8   21.07    2.96
   5   3  -8   50.60    4.08
   5   3  -8   53.04    2.20
   5   3  -8   46.04    4.03
   5   3  -8   49.70    3.77
   5   3  -8   50.23    3.81
   5   3  -8   48.04    3.89
  -5  -3   8   45.13    3.12
  -5  -3   8   52.08    2.94
  -5  -3   8   54.03    4.17
  -5  -3   8   47.81    2.79
   4   3  -8   34.30    3.30
   4   3  -8   42.02    3.10
   4   3  -8   40.50    2.98
   4   3  -8   35.12    3.09
   4   3  -8   36.98    3.32
   4   3  -8   32.62    3.05
   4   3  -8   32.72    3.05
   4   3  -8   33.32    2.91
  -4  -3   8   37.04    2.68
  -4  -3   8   29.66    2.54
  -4  -3   8   36.38    2.77
   3   3  -8    3.93    1.52
   3   3  -8    0.07    1.08
   3   3  -8    3.18    1.26
   3   3  -8    3.37    1.06
   3   3  -8    2.10    1.02
   3   3  -8    3.11    1.34
   3   3  -8    1.58    1.16
   3   3  -8    1.15    0.78
   3   3  -8    2.54    1.24
  -3  -3   8    2.98    1.25
  -3  -3   8    2.82    1.13
  -3  -3   8    3.61    1.16
   2   3  -8  114.53    5.44
   2   3  -8  115.16    5.31
   2   3  -8  118.12    5.21
   2   3  -8  116.29    5.60
   2   3  -8  125.13    6.08
   2   3  -8  115.70    5.59
   2   3  -8  128.16    6.23
   2   3  -8  116.61    5.71
  -2  -3   8  114.64    5.33
  -2  -3   8  110.85    5.57
  -2  -3   8  119.64    5.68
  -2  -3   8  120.95    5.39
  -2  -3   8  123.07    5.39
   1   3  -8   57.77    3.42
   1   3  -8   56.77    3.29
   1   3  -8   56.88    3.66
   1   3  -8   56.91    3.29
   1   3  -8   60.57    3.71
   1   3  -8   54.22    3.85
   1   3  -8   58.30    3.84
   1   3  -8   49.48    3.15
  -1  -3   8   58.19    3.45
  -1  -3   8   56.84    3.55
  -1  -3   8   51.12    3.56
   0   3  -8    1.80    0.93
   0   3  -8    2.99    1.24
   0   3  -8    2.42    1.05
   0   3  -8    1.72    1.01
   0   3  -8    1.09    0.95
   0   3  -8    2.26    1.10
   0   3  -8    1.84    1.25
   0  -3   8    1.16    1.07
   0  -3   8    1.38    0.87
   0  -3   8    1.83    0.94
   0  -3   8    4.80    1.45
   0  -3   8    1.78    1.06
  -1   3  -8  150.48    6.82
  -1   3  -8  143.13    7.02
  -1   3  -8  146.47    5.96
  -1   3  -8  151.37    6.67
  -1   3  -8  146.05    5.45
  -1   3  -8  144.35    5.62
  -1   3  -8  146.47    6.36
   1  -3   8  151.38    7.09
   1  -3   8  145.80    6.62
   1  -3   8  147.85    6.45
   1  -3   8  146.78    6.88
   1  -3   8  143.63    6.91
   1  -3   8  155.05    6.31
  -2   3  -8   24.47    2.78
  -2   3  -8   30.77    2.92
  -2   3  -8   23.58    2.91
  -2   3  -8   26.17    2.26
  -2   3  -8   23.89    2.04
   2  -3   8   21.58    2.52
   2  -3   8   21.81    2.59
   2  -3   8   28.15    2.70
   2  -3   8   25.92    2.48
   2  -3   8   24.79    2.97
   2  -3   8   28.70    2.98
  -3   3  -8    5.49    1.18
  -3   3  -8    7.77    2.22
  -3   3  -8    4.38    1.72
   3  -3   8    5.34    1.76
   3  -3   8    4.37    1.42
   3  -3   8    6.94    2.08
   3  -3   8    3.95    1.55
  -4   3  -8   61.68    4.76
  -4   3  -8   68.91    5.17
   4  -3   8   64.87    4.36
   4  -3   8   67.46    4.76
   4  -3   8   73.81    4.69
   4  -3   8   62.39    4.37
   4  -3   8   67.33    4.85
  -5   3  -8   14.92    2.93
  -5   3  -8   12.99    3.07
   5  -3   8   14.65    2.50
   5  -3   8   20.52    3.22
   5  -3   8   13.38    2.51
   5  -3   8   11.38    2.52
  -6   3  -8   16.89    3.17
   6  -3   8   26.34    3.10
   6  -3   8   26.52    3.60
   6  -3   8   19.45    2.86
   6  -3   8   23.50    3.62
  -7   3  -8   48.48    4.48
   7  -3   8   46.33    4.21
   7  -3   8   55.67    5.10
  -8   3  -8    8.72    2.55
   8  -3   8    4.64    2.19
 -10  -2   8   -0.26    3.33
  -9  -2   8   40.66    6.50
   8   2  -8   20.71    3.07
  -8  -2   8   17.14    4.83
  -8  -2   8   25.69    3.38
   7   2  -8   -1.30    1.29
   7   2  -8   -0.51    1.23
   7   2  -8   -0.59    1.21
   7   2  -8    2.89    1.44
  -7  -2   8   -0.91    2.14
  -7  -2   8    0.94    1.45
   6   2  -8   21.38    3.06
   6   2  -8   23.12    2.60
   6   2  -8   26.40    3.03
   6   2  -8   20.60    2.73
   6   2  -8   27.94    3.00
   6   2  -8   24.22    2.74
   6   2  -8   25.86    3.03
  -6  -2   8   23.69    3.03
  -6  -2   8   22.66    3.89
   5   2  -8   87.60    5.00
   5   2  -8   87.92    5.15
   5   2  -8   90.71    5.00
   5   2  -8   91.53    5.04
   5   2  -8   89.17    4.67
   5   2  -8   85.93    4.84
   5   2  -8   90.34    4.90
   5   2  -8   88.02    5.57
  -5  -2   8   83.63    3.97
  -5  -2   8   89.62    5.45
   4   2  -8    0.70    0.90
   4   2  -8    1.37    1.24
   4   2  -8    1.49    0.93
   4   2  -8    0.33    1.01
   4   2  -8   -0.02    0.92
   4   2  -8    0.52    1.03
   4   2  -8    0.17    0.78
  -4  -2   8    0.70    0.84
  -4  -2   8   -0.48    0.75
  -4  -2   8    0.16    0.61
   3   2  -8   60.06    3.76
   3   2  -8   63.35    3.71
   3   2  -8   63.61    3.87
   3   2  -8   59.42    3.92
   3   2  -8   55.48    3.57
   3   2  -8   60.03    3.66
   3   2  -8   60.40    3.39
  -3  -2   8   57.18    3.26
  -3  -2   8   62.75    3.73
  -3  -2   8   63.20    3.32
  -3  -2   8   63.94    3.45
   2   2  -8  168.47    6.83
   2   2  -8  157.16    6.89
   2   2  -8  159.89    6.63
   2   2  -8  157.47    6.40
   2   2  -8  168.66    7.26
   2   2  -8  164.85    6.91
  -2  -2   8  162.54    6.47
  -2  -2   8  171.69    6.63
  -2  -2   8  160.06    6.92
  -2  -2   8  168.19    6.57
  -2  -2   8  166.32    7.02
   1   2  -8    2.61    1.02
   1   2  -8    2.25    1.03
   1   2  -8    1.88    1.08
   1   2  -8    5.25    1.60
   1   2  -8    2.89    1.13
   1   2  -8    1.70    1.13
  -1  -2   8    3.79    1.36
  -1  -2   8    5.00    1.41
  -1  -2   8    1.10    0.95
  -1  -2   8    2.99    1.18
  -1  -2   8    4.30    1.28
  -1  -2   8    5.22    1.45
   0   2  -8   18.90    1.93
   0   2  -8   19.20    2.15
   0   2  -8   21.62    2.09
   0   2  -8   18.43    2.05
   0   2  -8   24.15    2.43
   0   2  -8   19.33    2.45
   0  -2   8   16.35    2.02
   0  -2   8   15.92    2.01
   0  -2   8   19.48    2.55
   0  -2   8   22.00    2.46
   0  -2   8   19.14    2.17
   0  -2   8   18.95    2.13
   0  -2   8   20.20    2.22
  -1   2  -8  172.42    6.74
  -1   2  -8  177.20    7.83
  -1   2  -8  164.87    7.81
  -1   2  -8  190.49    7.78
  -1   2  -8  182.53    6.65
  -1   2  -8  175.92    6.96
   1  -2   8  176.82    8.05
   1  -2   8  184.37    7.17
   1  -2   8  167.08    7.54
   1  -2   8  182.30    7.47
   1  -2   8  174.49    6.46
   1  -2   8  175.82    7.18
   1  -2   8  179.16    7.83
   1  -2   8  177.63    7.62
  -2   2  -8    6.85    1.42
  -2   2  -8    3.88    1.49
  -2   2  -8    4.85    0.95
  -2   2  -8    6.09    1.13
  -2   2  -8    6.34    1.90
  -2   2  -8    3.70    1.67
   2  -2   8    4.80    1.81
   2  -2   8    6.23    1.74
   2  -2   8    7.64    1.84
   2  -2   8    6.95    1.77
   2  -2   8    6.00    1.47
   2  -2   8    5.61    1.69
   2  -2   8    3.79    1.33
  -3   2  -8    4.01    1.56
  -3   2  -8    4.06    1.66
  -3   2  -8    5.00    1.33
  -3   2  -8    4.20    1.90
   3  -2   8    1.12    1.05
   3  -2   8    3.31    1.60
   3  -2   8    5.44    1.76
   3  -2   8    3.64    1.41
   3  -2   8    2.43    1.32
   3  -2   8    1.83    1.25
  -4   2  -8  142.60    5.11
  -4   2  -8  138.70    7.77
  -4   2  -8  135.74    7.41
   4  -2   8  139.01    6.77
   4  -2   8  155.18    7.47
   4  -2   8  147.11    7.15
   4  -2   8  149.08    7.37
  -5   2  -8    2.62    1.74
  -5   2  -8    0.02    1.22
   5  -2   8    1.74    1.84
   5  -2   8    1.74    1.65
   5  -2   8    3.10    1.33
   5  -2   8   -0.65    1.35
   5  -2   8    1.00    1.20
  -6   2  -8    4.47    2.43
  -6   2  -8    1.55    1.70
   6  -2   8    2.72    1.98
   6  -2   8    1.20    1.48
  -7   2  -8   61.34    5.13
   7  -2   8   98.46    9.67
   7  -2   8   68.40    5.09
  -8   2  -8    0.35    1.88
   8  -2   8    1.20    1.91
 -10  -1   8   -1.10    2.97
   9   1  -8   32.55    4.18
   9   1  -8   39.68    3.97
  -9  -1   8   42.41    6.39
  -9  -1   8   40.55    4.53
   8   1  -8    3.31    1.74
   8   1  -8    0.64    1.45
   8   1  -8    2.04    1.61
   8   1  -8    3.94    1.82
  -8  -1   8    2.81    1.79
  -8  -1   8    2.59    2.98
   7   1  -8    8.18    1.94
   7   1  -8    6.56    1.81
   7   1  -8    8.76    2.06
   7   1  -8    8.68    2.15
  -7  -1   8    8.22    2.34
  -7  -1   8   10.53    3.81
   6   1  -8   91.43    5.01
   6   1  -8   87.91    5.20
   6   1  -8   94.23    4.96
   6   1  -8   91.27    5.02
   6   1  -8   92.26    4.90
  -6  -1   8   95.35    6.87
  -6  -1   8   81.93    5.56
   5   1  -8   39.72    2.99
   5   1  -8   40.45    3.17
   5   1  -8   35.84    2.92
   5   1  -8   36.88    3.11
   5   1  -8   32.09    2.81
  -5  -1   8   40.21    4.11
  -5  -1   8   37.96    3.67
   4   1  -8   50.89    2.93
   4   1  -8   47.68    3.15
   4   1  -8   52.37    3.33
   4   1  -8   40.81    3.10
   4   1  -8   51.11    3.53
  -4  -1   8   53.43    4.31
  -4  -1   8   46.03    3.93
  -4  -1   8   45.76    2.56
   3   1  -8  109.83    5.02
   3   1  -8  101.05    5.22
   3   1  -8  101.21    4.90
   3   1  -8   99.33    4.90
   3   1  -8  114.37    5.21
   3   1  -8  103.60    4.58
  -3  -1   8  106.85    4.26
  -3  -1   8  102.22    4.86
  -3  -1   8   98.12    4.32
  -3  -1   8  100.79    4.13
  -3  -1   8  106.34    5.66
   2   1  -8  173.67    6.93
   2   1  -8  154.81    6.68
   2   1  -8  164.89    6.38
   2   1  -8  164.55    6.87
   2   1  -8  167.94    7.23
   2   1  -8  156.11    6.60
  -2  -1   8  163.23    6.41
  -2  -1   8  167.14    6.88
  -2  -1   8  162.97    6.23
  -2  -1   8  166.62    6.43
   1   1  -8   53.27    3.16
   1   1  -8   61.80    3.57
   1   1  -8   59.04    3.91
   1   1  -8   56.13    3.38
   1   1  -8   53.67    3.51
   1   1  -8   60.89    3.69
  -1  -1   8   61.50    3.72
  -1  -1   8   53.05    3.26
  -1  -1   8   54.44    3.21
  -1  -1   8   52.70    3.42
  -1  -1   8   57.65    3.64
  -1  -1   8   53.04    3.40
  -1  -1   8   58.42    3.91
   0   1  -8   89.85    4.35
   0   1  -8   90.52    4.78
   0   1  -8   84.68    4.27
   0   1  -8   80.30    4.56
   0   1  -8   92.54    5.16
   0   1  -8   84.06    4.41
   0  -1   8   85.60    4.75
   0  -1   8   81.03    4.42
   0  -1   8   89.84    4.74
   0  -1   8   99.94    5.42
   0  -1   8   89.57    4.35
  -1   1  -8  119.43    5.28
  -1   1  -8  116.29    5.42
  -1   1  -8  122.59    5.69
  -1   1  -8  115.74    5.86
  -1   1  -8  117.18    6.28
  -1   1  -8  126.01    5.32
   1  -1   8  121.16    6.01
   1  -1   8  123.96    6.00
   1  -1   8  125.43    6.36
   1  -1   8  119.13    3.91
   1  -1   8  124.21    5.53
   1  -1   8  114.33    5.59
   1  -1   8  121.35    5.60
  -2   1  -8   47.35    3.90
  -2   1  -8   42.24    2.73
  -2   1  -8   44.70    3.63
  -2   1  -8   48.77    3.22
  -2   1  -8   46.56    2.90
   2  -1   8   50.71    3.77
   2  -1   8   44.41    3.24
   2  -1   8   51.38    3.78
   2  -1   8   48.16    3.43
   2  -1   8   51.60    3.98
   2  -1   8   48.88    3.49
   2  -1   8   46.78    3.49
  -3   1  -8   44.80    4.01
  -3   1  -8   43.49    3.97
  -3   1  -8   36.81    3.37
  -3   1  -8   40.15    2.28
  -3   1  -8   41.83    3.06
   3  -1   8   44.76    3.66
   3  -1   8   49.01    3.65
   3  -1   8   47.25    3.61
   3  -1   8   41.92    3.40
   3  -1   8   41.29    3.27
   3  -1   8   51.83    4.17
   3  -1   8   35.30    3.45
  -4   1  -8   83.37    5.85
  -4   1  -8  102.30    6.56
   4  -1   8  100.26    6.15
   4  -1   8   94.46    5.37
   4  -1   8   94.72    5.87
   4  -1   8  102.78    5.87
   4  -1   8  101.90    5.76
  -5   1  -8   22.43    3.36
  -5   1  -8   23.03    3.65
  -5   1  -8   22.64    2.70
   5  -1   8   23.64    3.33
   5  -1   8   20.44    3.76
   5  -1   8   23.76    3.38
   5  -1   8   20.65    2.75
  -6   1  -8    6.22    2.26
   6  -1   8   13.30    2.82
   6  -1   8    9.57    2.71
  -7   1  -8   42.46    4.62
   7  -1   8   47.16    4.41
  -8   1  -8    1.65    2.40
   8  -1   8    2.24    1.98
  10   0  -8   21.72    3.47
  10   0  -8   19.95    3.28
 -10   0   8   21.95    4.43
 -10   0   8   28.16    7.22
   9   0  -8   19.76    2.90
   9   0  -8   20.64    3.33
   9   0  -8   21.53    3.13
   9   0  -8   25.12    3.18
  -9   0   8   22.33    5.46
  -9   0   8   19.64    3.99
   8   0  -8    0.52    1.08
   8   0  -8    0.51    1.18
   8   0  -8    1.35    1.47
   8   0  -8    0.43    1.24
  -8   0   8    3.88    2.14
  -8   0   8    2.22    2.72
   7   0  -8   71.07    4.19
   7   0  -8   70.14    4.22
   7   0  -8   74.62    4.45
   7   0  -8   69.31    4.34
  -7   0   8   69.15    6.44
  -7   0   8   66.34    5.12
   6   0  -8   80.03    4.32
   6   0  -8   80.21    4.25
   6   0  -8   70.40    4.29
   6   0  -8   75.00    4.27
   6   0  -8   78.00    4.55
  -6   0   8   86.42    6.41
  -6   0   8   69.67    5.12
   5   0  -8    1.36    1.00
   5   0  -8    1.38    0.81
   5   0  -8    5.96    1.63
   5   0  -8    3.23    1.35
  -5   0   8    3.60    1.61
  -5   0   8    3.67    1.98
   4   0  -8  148.76    6.22
   4   0  -8  146.67    6.05
   4   0  -8  140.30    6.42
   4   0  -8  142.90    6.23
  -4   0   8  150.88    7.32
  -4   0   8  144.27    4.82
  -4   0   8  141.19    6.51
  -4   0   8  138.76    7.33
   3   0  -8   83.50    4.34
   3   0  -8   84.84    4.37
   3   0  -8   84.23    3.90
   3   0  -8   87.69    4.30
   3   0  -8   83.48    4.34
   3   0  -8   80.76    4.58
   3   0  -8   90.79    4.73
  -3   0   8   77.49    3.50
  -3   0   8   91.74    5.44
  -3   0   8   81.28    4.69
  -3   0   8   86.79    4.93
  -3   0   8   85.80    4.18
   2   0  -8    7.17    1.76
   2   0  -8    5.91    1.34
   2   0  -8    5.95    1.45
   2   0  -8    6.12    1.71
   2   0  -8    5.47    1.39
   2   0  -8    5.12    1.51
   2   0  -8    5.68    1.36
  -2   0   8    2.34    1.09
  -2   0   8    5.72    1.17
  -2   0   8    6.18    1.11
  -2   0   8    5.94    1.25
  -2   0   8    6.62    1.93
  -2   0   8    4.54    1.42
   1   0  -8  185.03    7.87
   1   0  -8  194.62    7.86
   1   0  -8  192.22    8.16
   1   0  -8  191.89    7.50
   1   0  -8  186.19    7.30
   1   0  -8  182.77    7.52
   1   0  -8  192.05    7.86
  -1   0   8  188.38    7.40
  -1   0   8  191.23    7.08
  -1   0   8  196.79    7.96
  -1   0   8  188.84    7.16
  -1   0   8  203.45    8.46
  -1   0   8  184.84    7.75
  -1   0   8  186.52    6.59
   0   0  -8   28.03    2.60
   0   0  -8   29.01    2.80
   0   0  -8   27.46    2.44
   0   0  -8   32.82    3.08
   0   0  -8   29.10    2.66
   0   0  -8   29.33    2.73
   0   0   8   25.17    2.45
   0   0   8   30.86    3.08
   0   0   8   26.45    2.41
   0   0   8   25.75    2.41
   0   0   8   31.64    2.83
   0   0   8   28.27    2.43
   0   0   8   27.91    2.61
  -1   0  -8   41.96    2.99
  -1   0  -8   36.18    2.91
  -1   0  -8   32.98    2.64
  -1   0  -8   37.54    3.44
  -1   0  -8   35.95    2.95
  -1   0  -8   38.34    3.23
   1   0   8   34.33    2.82
   1   0   8   36.18    3.04
   1   0   8   35.25    3.37
   1   0   8   36.12    2.90
   1   0   8   42.30    3.24
  -2   0  -8  154.17    6.51
  -2   0  -8  155.94    7.85
  -2   0  -8  171.66    7.02
  -2   0  -8  163.96    6.68
  -2   0  -8  151.36    7.34
   2   0   8  165.29    7.18
   2   0   8  168.29    7.51
   2   0   8  143.56    7.56
   2   0   8  168.22    7.02
   2   0   8  164.34    7.06
   2   0   8  158.37    7.47
  -3   0  -8   38.23    3.89
  -3   0  -8   37.49    3.11
  -3   0  -8   37.36    3.43
  -3   0  -8   41.25    2.77
   3   0   8   40.19    3.66
   3   0   8   34.27    3.31
   3   0   8   40.27    3.38
   3   0   8   36.18    3.26
   3   0   8   40.87    3.84
   3   0   8   37.54    3.18
   3   0   8   36.67    3.18
  -4   0  -8   38.05    3.78
  -4   0  -8   29.17    2.02
  -4   0  -8   29.39    3.60
  -4   0  -8   59.21    6.05
  -4   0  -8   37.16    2.15
  -4   0  -8   40.99    4.30
  -4   0  -8   25.17    2.74
  -4   0  -8   33.20    2.45
   4   0   8   29.43    3.07
   4   0   8   37.57    3.83
   4   0   8   30.58    3.71
   4   0   8   30.79    3.41
  -5   0  -8   71.65    5.94
  -5   0  -8   54.55    4.97
   5   0   8   66.40    5.28
   5   0   8   60.82    4.49
  -6   0  -8   12.07    3.22
   6   0   8   11.87    3.25
   6   0   8    9.61    2.53
  -7   0  -8   18.37    4.01
   7   0   8   25.38    3.77
  -8   0  -8   11.50    3.38
   8   0   8   19.75    3.77
  10  -1  -8   21.51    3.21
  10  -1  -8   27.65    3.33
  10  -1  -8   14.51    3.00
 -10   1   8   18.42    4.12
 -10   1   8   21.78    5.86
   9  -1  -8    0.66    1.35
   9  -1  -8    1.26    1.66
   9  -1  -8    2.62    1.57
   9  -1  -8    1.19    1.23
  -9   1   8   -0.89    2.48
  -9   1   8    0.95    1.98
   8  -1  -8   37.47    3.00
   8  -1  -8   33.38    3.03
   8  -1  -8   30.93    3.15
   8  -1  -8   34.51    3.12
  -8   1   8   33.94    5.28
  -8   1   8   34.68    4.17
  -8   1   8   30.26    2.91
   7  -1  -8   77.88    4.19
   7  -1  -8   88.76    4.54
   7  -1  -8   82.90    4.55
   7  -1  -8   75.44    4.26
  -7   1   8   77.49    5.79
  -7   1   8   72.31    6.66
  -7   1   8   78.21    4.45
   6  -1  -8    1.63    1.16
   6  -1  -8    0.16    0.88
   6  -1  -8    1.01    1.23
   6  -1  -8    0.48    0.77
  -6   1   8    1.72    1.85
  -6   1   8   -0.02    1.23
  -6   1   8    1.18    1.23
   5  -1  -8   28.70    2.71
   5  -1  -8   24.63    2.11
   5  -1  -8   28.40    2.51
   5  -1  -8   31.05    2.74
   5  -1  -8   24.55    2.47
  -5   1   8   31.04    3.49
  -5   1   8   28.06    2.85
  -5   1   8   32.70    3.80
   4  -1  -8  143.09    6.41
   4  -1  -8  133.59    6.19
   4  -1  -8  137.59    6.02
   4  -1  -8  148.35    6.13
   4  -1  -8  141.83    5.75
  -4   1   8  138.98    6.52
  -4   1   8  139.26    7.24
  -4   1   8  145.58    7.37
   3  -1  -8   10.82    1.97
   3  -1  -8   10.29    1.99
   3  -1  -8   13.98    2.39
   3  -1  -8   14.28    1.69
   3  -1  -8   12.39    1.84
  -3   1   8    9.67    2.29
  -3   1   8   13.85    2.50
  -3   1   8   13.95    2.59
   2  -1  -8   20.84    2.16
   2  -1  -8   23.27    2.19
   2  -1  -8   24.95    2.48
   2  -1  -8   22.63    2.39
   2  -1  -8   23.45    2.09
   2  -1  -8   20.24    2.28
   2  -1  -8   23.45    2.60
  -2   1   8   23.29    1.82
  -2   1   8   23.99    2.87
  -2   1   8   23.20    1.29
  -2   1   8   24.80    1.35
  -2   1   8   20.94    2.22
  -2   1   8   22.30    2.65
  -2   1   8   23.15    2.18
   1  -1  -8  193.37    7.91
   1  -1  -8  204.27    8.24
   1  -1  -8  215.67    8.03
   1  -1  -8  213.83    8.64
   1  -1  -8  203.10    8.43
   1  -1  -8  212.63    8.62
   1  -1  -8  216.92    8.95
  -1   1   8  210.87    7.53
  -1   1   8  214.82    8.42
  -1   1   8  217.25    7.91
  -1   1   8  204.47    7.43
  -1   1   8  204.88    8.81
  -1   1   8  208.28    7.09
   0  -1  -8   10.51    1.96
   0  -1  -8    8.90    1.86
   0  -1  -8   10.94    2.17
   0  -1  -8   11.04    2.18
   0  -1  -8   10.40    2.30
   0  -1  -8    8.73    1.95
   0   1   8   11.95    2.50
   0   1   8   11.12    2.03
   0   1   8   11.05    1.85
   0   1   8   11.49    1.76
   0   1   8   10.69    1.94
   0   1   8   13.78    2.08
  -1  -1  -8    4.06    1.52
  -1  -1  -8    2.49    1.21
  -1  -1  -8    5.40    1.46
  -1  -1  -8    5.34    1.71
  -1  -1  -8    5.94    1.93
  -1  -1  -8    4.57    1.44
  -1  -1  -8    4.51    1.65
   1   1   8    5.45    1.48
   1   1   8    7.11    1.76
   1   1   8    1.51    1.10
   1   1   8    4.85    1.88
   1   1   8    4.60    1.41
   1   1   8    2.70    1.18
   1   1   8    4.51    1.44
  -2  -1  -8  245.35    9.43
  -2  -1  -8  244.40    9.82
  -2  -1  -8  230.38   10.24
  -2  -1  -8  223.50    8.84
  -2  -1  -8  211.74    9.19
  -2  -1  -8  251.38    9.18
   2   1   8  213.06    9.05
   2   1   8  249.91   10.35
   2   1   8  228.72    9.51
   2   1   8  200.07    8.77
   2   1   8  245.96    9.85
   2   1   8  238.31    9.29
  -3  -1  -8    2.36    1.28
  -3  -1  -8    1.67    1.45
  -3  -1  -8    2.58    1.48
  -3  -1  -8    1.40    0.65
  -3  -1  -8    0.52    1.33
   3   1   8    4.93    1.65
   3   1   8    4.04    1.51
   3   1   8    0.66    1.11
   3   1   8    3.40    1.59
   3   1   8    1.02    1.53
   3   1   8    1.69    1.24
  -4  -1  -8    0.50    1.72
  -4  -1  -8    1.71    1.58
  -4  -1  -8    2.05    1.32
  -4  -1  -8    1.29    1.33
  -4  -1  -8    1.52    1.03
   4   1   8    1.13    1.32
   4   1   8    3.19    1.86
  -5  -1  -8  105.43    3.89
  -5  -1  -8   93.10    3.79
  -5  -1  -8  106.09    7.57
  -5  -1  -8   89.22    6.54
   5   1   8  109.30    6.90
   5   1   8   99.19    5.98
  -6  -1  -8    2.15    2.04
   6   1   8    1.04    2.51
   6   1   8    0.87    1.65
  -7  -1  -8    1.62    2.32
   7   1   8    0.59    1.83
  -8  -1  -8   40.75    5.31
   8   1   8   39.10    4.70
  10  -2  -8    6.14    1.88
 -10   2   8    4.08    3.66
 -10   2   8    7.66    3.03
   9  -2  -8    9.74    1.90
   9  -2  -8    9.73    2.23
   9  -2  -8    8.13    1.92
   9  -2  -8    5.04    1.80
  -9   2   8    9.46    2.99
  -9   2   8    3.66    3.24
   8  -2  -8   42.87    3.01
   8  -2  -8   51.12    3.48
   8  -2  -8   50.69    3.37
   8  -2  -8   40.07    3.23
  -8   2   8   46.01    5.75
  -8   2   8   44.63    4.92
   7  -2  -8   32.96    2.45
   7  -2  -8   34.49    2.94
   7  -2  -8   39.86    3.08
   7  -2  -8   34.00    2.92
   7  -2  -8   37.77    2.99
  -7   2   8   30.93    3.96
  -7   2   8   34.67    4.59
  -7   2   8   33.38    2.49
   6  -2  -8   15.64    2.26
   6  -2  -8   21.05    2.25
   6  -2  -8   17.79    1.81
   6  -2  -8   25.05    2.41
  -6   2   8   22.23    2.34
  -6   2   8   26.42    3.47
  -6   2   8   21.60    3.62
   5  -2  -8   61.28    3.23
   5  -2  -8   62.93    3.65
   5  -2  -8   58.13    3.62
   5  -2  -8   65.26    3.61
   5  -2  -8   59.57    4.21
  -5   2   8   65.69    5.17
  -5   2   8   58.71    3.75
  -5   2   8   63.13    4.88
   4  -2  -8  101.29    4.78
   4  -2  -8  102.61    4.83
   4  -2  -8   97.41    4.47
   4  -2  -8   99.11    4.93
   4  -2  -8  101.52    5.27
  -4   2   8  100.57    5.98
  -4   2   8   95.10    4.99
  -4   2   8  101.76    6.15
   3  -2  -8   43.68    3.22
   3  -2  -8   42.74    3.04
   3  -2  -8   43.72    2.93
   3  -2  -8   44.92    3.41
   3  -2  -8   42.95    3.08
  -3   2   8   45.49    3.59
  -3   2   8   52.35    4.08
  -3   2   8   49.48    3.52
   2  -2  -8   60.45    3.40
   2  -2  -8   59.27    3.89
   2  -2  -8   60.31    4.09
   2  -2  -8   59.24    3.65
   2  -2  -8   63.47    3.84
   2  -2  -8   57.75    3.69
  -2   2   8   64.08    3.67
  -2   2   8   55.18    4.13
  -2   2   8   52.67    3.43
  -2   2   8   57.92    2.84
  -2   2   8   53.75    3.91
   1  -2  -8  126.54    6.53
   1  -2  -8  131.08    6.39
   1  -2  -8  131.18    5.84
   1  -2  -8  122.57    6.05
   1  -2  -8  131.45    6.28
   1  -2  -8  127.32    5.74
   1  -2  -8  133.85    6.06
  -1   2   8  130.01    4.94
  -1   2   8  124.52    4.80
  -1   2   8  128.03    6.54
  -1   2   8  124.90    5.42
  -1   2   8  129.47    6.02
  -1   2   8  124.94    6.52
   0  -2  -8   27.24    3.02
   0  -2  -8   33.53    3.02
   0  -2  -8   33.48    2.72
   0  -2  -8   29.09    2.93
   0  -2  -8   28.06    2.88
   0  -2  -8   33.99    3.39
   0  -2  -8   27.36    2.84
   0  -2  -8   30.82    1.85
   0   2   8   34.18    3.32
   0   2   8   33.47    2.69
   0   2   8   33.63    2.61
   0   2   8   30.42    2.55
   0   2   8   31.30    2.98
  -1  -2  -8   43.07    3.72
  -1  -2  -8   37.19    3.80
  -1  -2  -8   44.41    3.57
  -1  -2  -8   40.58    3.43
  -1  -2  -8   46.62    3.39
  -1  -2  -8   49.77    3.84
   1   2   8   45.83    3.57
   1   2   8   51.60    3.52
   1   2   8   38.48    2.99
   1   2   8   39.82    3.19
   1   2   8   51.99    4.09
   1   2   8   46.28    3.63
  -2  -2  -8   97.34    5.39
  -2  -2  -8  101.33    7.62
  -2  -2  -8   85.36    5.91
  -2  -2  -8   84.96    5.56
  -2  -2  -8  104.43    3.39
  -2  -2  -8   97.52    5.20
  -2  -2  -8   88.70    5.01
   2   2   8   87.35    5.81
   2   2   8   98.18    5.65
   2   2   8   91.00    5.05
   2   2   8   93.90    6.64
   2   2   8   99.77    5.35
  -3  -2  -8   19.71    2.74
  -3  -2  -8   19.80    2.75
  -3  -2  -8   16.30    3.37
  -3  -2  -8   18.76    1.81
   3   2   8   20.67    3.09
   3   2   8   18.91    3.14
   3   2   8   13.78    2.66
  -4  -2  -8    6.62    1.93
  -4  -2  -8    6.21    2.33
  -4  -2  -8    3.61    1.88
  -4  -2  -8    7.22    1.74
   4   2   8    2.45    1.88
   4   2   8    5.21    1.90
  -5  -2  -8   65.79    5.70
  -5  -2  -8   65.26    6.06
  -5  -2  -8   67.30    3.94
   5   2   8   66.40    5.90
   5   2   8   71.54    5.18
  -6  -2  -8    7.45    3.06
   6   2   8    3.23    2.17
   6   2   8    7.63    3.19
  -7  -2  -8    0.72    2.19
   7   2   8    2.09    2.01
  -8  -2  -8   35.21    5.35
   8   2   8   28.40    4.48
  10  -3  -8    2.72    1.35
  10  -3  -8    3.57    1.96
 -10   3   8    1.35    2.31
 -10   3   8    2.57    3.64
   9  -3  -8   35.43    3.08
   9  -3  -8   34.49    3.25
   9  -3  -8   40.09    2.88
   9  -3  -8   44.76    3.60
  -9   3   8   41.04    6.20
  -9   3   8   38.08    4.95
   8  -3  -8   24.90    2.54
   8  -3  -8   24.61    2.46
   8  -3  -8   22.95    2.10
   8  -3  -8   21.81    2.55
   8  -3  -8   20.40    2.61
  -8   3   8   31.13    5.15
  -8   3   8   26.02    4.02
   7  -3  -8   -0.29    0.67
   7  -3  -8   -1.65    1.18
   7  -3  -8    0.02    1.10
   7  -3  -8    0.01    0.81
  -7   3   8   -2.66    1.56
  -7   3   8   -0.64    1.30
   6  -3  -8   66.13    3.82
   6  -3  -8   68.34    3.51
   6  -3  -8   65.52    3.88
   6  -3  -8   65.65    3.25
  -6   3   8   67.72    3.20
  -6   3   8   66.21    5.90
  -6   3   8   74.80    5.64
   5  -3  -8   28.61    2.51
   5  -3  -8   24.53    1.97
   5  -3  -8   27.82    2.27
   5  -3  -8   21.65    2.47
  -5   3   8   25.83    3.45
  -5   3   8   27.37    3.67
  -5   3   8   23.40    2.25
   4  -3  -8    7.71    1.76
   4  -3  -8    9.95    1.75
   4  -3  -8    8.10    1.66
   4  -3  -8   11.09    1.57
   4  -3  -8   13.83    2.44
  -4   3   8    9.29    2.53
  -4   3   8   12.54    2.89
  -4   3   8   12.54    2.10
   3  -3  -8  113.90    5.21
   3  -3  -8  106.42    5.14
   3  -3  -8  103.21    5.67
   3  -3  -8  109.43    5.26
   3  -3  -8  119.76    5.70
  -3   3   8  105.56    5.44
  -3   3   8  107.68    6.39
  -3   3   8  108.32    5.98
   2  -3  -8   28.37    2.56
   2  -3  -8   23.68    2.82
   2  -3  -8   25.20    2.56
   2  -3  -8   25.00    2.55
   2  -3  -8   26.96    2.96
  -2   3   8   22.09    2.69
  -2   3   8   25.17    1.65
  -2   3   8   27.73    3.06
   1  -3  -8   32.72    2.89
   1  -3  -8   27.36    2.82
   1  -3  -8   25.21    2.72
   1  -3  -8   26.13    2.70
   1  -3  -8   27.15    3.14
   1  -3  -8   27.72    3.04
   1  -3  -8   24.48    2.70
  -1   3   8   25.66    2.95
  -1   3   8   23.90    2.89
  -1   3   8   24.70    2.24
  -1   3   8   26.00    2.67
   0  -3  -8  123.82    6.81
   0  -3  -8  122.79    6.46
   0  -3  -8  123.88    6.38
   0  -3  -8  132.45    6.22
   0  -3  -8  129.98    6.12
   0  -3  -8  130.04    6.66
   0  -3  -8  127.23    5.98
   0   3   8  120.25    5.65
   0   3   8  135.44    6.82
   0   3   8  127.57    5.29
   0   3   8  126.56    5.34
   0   3   8  114.60    6.11
   0   3   8  109.90    6.08
  -1  -3  -8    9.70    2.13
  -1  -3  -8   11.86    2.57
  -1  -3  -8   13.17    2.62
  -1  -3  -8    9.79    2.61
  -1  -3  -8   15.08    2.84
  -1  -3  -8   12.14    2.57
  -1  -3  -8    8.10    2.00
   1   3   8   10.05    2.03
   1   3   8   13.25    2.10
   1   3   8   11.30    2.56
   1   3   8   12.74    1.92
   1   3   8   11.15    2.28
   1   3   8    8.73    2.04
  -2  -3  -8   24.86    3.22
  -2  -3  -8   29.09    3.33
  -2  -3  -8   28.55    3.75
  -2  -3  -8   27.78    2.99
   2   3   8   32.36    3.22
   2   3   8   28.57    3.58
   2   3   8   31.32    2.93
   2   3   8   29.55    3.00
  -3  -3  -8   46.66    4.70
  -3  -3  -8   53.00    4.38
  -3  -3  -8   63.19    4.43
   3   3   8   48.28    4.22
   3   3   8   48.75    4.68
   3   3   8   51.75    4.13
  -4  -3  -8   13.86    3.25
  -4  -3  -8   22.95    3.30
  -4  -3  -8   13.14    2.64
   4   3   8   15.40    3.75
   4   3   8   12.17    2.72
  -5  -3  -8   28.53    3.13
  -5  -3  -8   31.06    3.30
  -5  -3  -8   39.06    5.23
  -5  -3  -8   28.95    5.37
   5   3   8   24.05    3.65
   5   3   8   30.24    4.52
  -6  -3  -8   28.64    4.70
  -6  -3  -8   30.92    2.71
  -6  -3  -8   30.98    2.73
   6   3   8   36.75    4.55
   6   3   8   37.99    5.02
  -7  -3  -8    0.48    2.60
   7   3   8    3.31    2.96
   7   3   8    4.74    2.42
   9  -4  -8   18.15    2.71
   9  -4  -8   18.86    2.37
   9  -4  -8   16.46    1.91
  -9   4   8   15.51    4.13
  -9   4   8   23.71    5.68
   8  -4  -8    0.86    1.29
   8  -4  -8    1.66    1.52
   8  -4  -8    2.53    1.02
   8  -4  -8    0.91    1.30
   8  -4  -8    3.48    0.95
  -8   4   8    6.75    2.95
  -8   4   8    4.09    2.80
   7  -4  -8    3.50    1.45
   7  -4  -8    4.84    1.14
   7  -4  -8    5.25    1.13
   7  -4  -8    5.81    1.55
  -7   4   8    1.26    2.25
  -7   4   8    8.10    2.85
   6  -4  -8   62.83    3.59
   6  -4  -8   56.66    3.05
   6  -4  -8   54.47    3.73
   6  -4  -8   59.29    2.98
  -6   4   8   60.13    5.86
  -6   4   8   58.39    5.30
   5  -4  -8    5.07    1.49
   5  -4  -8    5.84    1.63
   5  -4  -8    3.70    0.99
   5  -4  -8    3.63    1.16
  -5   4   8    5.18    2.75
  -5   4   8    3.98    1.32
  -5   4   8    8.31    2.58
   4  -4  -8    6.10    1.66
   4  -4  -8    4.81    1.33
   4  -4  -8    6.28    1.80
   4  -4  -8    9.00    1.66
  -4   4   8    5.43    2.35
  -4   4   8    5.29    1.58
  -4   4   8    2.38    2.00
   3  -4  -8  137.49    6.54
   3  -4  -8  125.15    5.86
   3  -4  -8  134.53    6.26
   3  -4  -8  120.26    6.31
   3  -4  -8  131.70    5.79
  -3   4   8  118.74    6.98
  -3   4   8  129.76    6.09
   2  -4  -8    1.00    1.32
   2  -4  -8    1.44    1.29
   2  -4  -8    0.71    0.98
   2  -4  -8    1.33    1.31
   2  -4  -8    0.71    0.96
  -2   4   8    1.86    1.49
  -2   4   8    2.38    1.46
   1  -4  -8   -0.03    1.24
   1  -4  -8    0.40    1.11
   1  -4  -8    0.39    1.04
   1  -4  -8   -0.65    1.08
   1  -4  -8   -0.02    0.83
  -1   4   8    0.74    1.22
  -1   4   8    0.42    1.39
   0  -4  -8  126.35    6.99
   0  -4  -8  139.63    7.07
   0  -4  -8  141.31    7.49
   0  -4  -8  138.76    7.33
   0  -4  -8  147.54    6.80
   0   4   8  154.15    9.56
   0   4   8  129.69    5.25
   0   4   8  137.46    6.79
   0   4   8  133.75    7.22
   0   4   8  139.45    5.39
   0   4   8  137.95    6.16
  -1  -4  -8    4.60    1.94
  -1  -4  -8    5.38    2.03
  -1  -4  -8    3.96    1.92
   1   4   8    2.90    1.38
   1   4   8    4.49    1.59
   1   4   8    4.73    2.08
   1   4   8    2.83    1.54
   1   4   8    4.54    1.38
  -2  -4  -8    2.56    2.09
  -2  -4  -8    4.70    2.23
   2   4   8    1.84    2.04
   2   4   8    5.06    1.90
   2   4   8    2.33    1.54
   2   4   8    2.25    1.30
   2   4   8    6.51    1.86
  -3  -4  -8  146.24    7.59
  -3  -4  -8  142.68    8.38
   3   4   8  135.23    7.39
   3   4   8  131.72    7.15
   3   4   8  140.23    8.30
  -4  -4  -8    3.72    2.63
  -4  -4  -8    4.85    2.67
   4   4   8    2.36    1.84
   4   4   8    5.38    2.62
  -5  -4  -8    0.29    1.67
  -5  -4  -8   -1.04    1.83
  -5  -4  -8    0.22    1.57
   5   4   8    2.67    2.15
   5   4   8   -2.41    1.42
  -6  -4  -8   51.17    6.06
  -6  -4  -8   51.42    4.08
  -6  -4  -8   43.30    3.74
   6   4   8   49.82    5.12
   6   4   8   45.83    5.93
  -7  -4  -8    2.25    3.00
   7   4   8    0.32    2.45
   7   4   8    3.17    2.93
   9  -5  -8   20.54    1.88
   9  -5  -8   17.06    2.11
  -9   5   8    7.55    3.94
  -9   5   8   23.25    4.94
   8  -5  -8    2.92    0.99
   8  -5  -8    2.67    0.94
   8  -5  -8    3.44    1.60
  -8   5   8    1.53    2.21
  -8   5   8    4.54    3.62
   7  -5  -8   24.71    2.00
   7  -5  -8   20.92    1.77
   7  -5  -8   26.23    2.87
   7  -5  -8   21.66    2.53
  -7   5   8   30.75    6.11
  -7   5   8   17.35    4.02
   6  -5  -8   33.15    2.37
   6  -5  -8   35.50    2.51
   6  -5  -8   35.66    3.27
   6  -5  -8   36.09    2.84
  -6   5   8   38.66    4.65
  -6   5   8   35.77    5.04
   5  -5  -8   13.14    1.84
   5  -5  -8   11.02    1.82
   5  -5  -8   11.46    2.37
   5  -5  -8   13.23    2.20
  -5   5   8   21.32    4.39
  -5   5   8   14.52    3.39
  -5   5   8   11.11    1.62
   4  -5  -8   34.56    3.35
   4  -5  -8   31.28    2.73
   4  -5  -8   29.68    2.77
   4  -5  -8   30.38    2.74
  -4   5   8   27.50    3.75
  -4   5   8   28.25    2.59
   3  -5  -8   95.35    5.51
   3  -5  -8  100.23    5.49
   3  -5  -8   90.26    4.99
   3  -5  -8   92.34    4.91
  -3   5   8   84.57    4.94
  -3   5   8   89.61    6.08
   2  -5  -8    6.47    1.93
   2  -5  -8    4.12    1.51
   2  -5  -8   11.53    2.69
   2  -5  -8    9.57    2.14
   2  -5  -8    4.77    1.74
  -2   5   8    6.51    2.33
  -2   5   8    6.82    2.14
   1  -5  -8   23.95    2.87
   1  -5  -8   25.58    3.32
   1  -5  -8   23.34    3.31
   1  -5  -8   23.01    3.04
   1  -5  -8   18.41    2.69
  -1   5   8   17.48    3.15
  -1   5   8   24.29    3.00
   0  -5  -8  133.94    6.82
   0  -5  -8  136.17    7.43
   0  -5  -8  128.20    7.46
   0  -5  -8  149.26    8.80
   0   5   8  131.12    6.78
   0   5   8  129.85    7.35
  -1  -5  -8    9.70    2.75
  -1  -5  -8    8.84    2.72
   1   5   8    8.76    1.78
   1   5   8    6.93    1.44
   1   5   8    7.59    1.99
   1   5   8    6.37    2.49
  -2  -5  -8   10.50    2.97
  -2  -5  -8   17.35    3.25
   2   5   8   11.78    2.38
   2   5   8   12.25    3.16
   2   5   8    9.00    1.88
   2   5   8   13.52    2.75
  -3  -5  -8   88.19    6.05
  -3  -5  -8   85.84    6.80
   3   5   8   88.75    5.70
   3   5   8   76.17    5.39
   3   5   8   79.00    6.37
  -4  -5  -8    4.53    2.61
  -4  -5  -8    8.06    2.85
   4   5   8    9.53    2.80
   4   5   8    3.97    2.70
  -5  -5  -8   -1.75    2.16
   5   5   8    0.13    1.76
   5   5   8   -0.34    2.06
  -6  -5  -8   50.46    6.33
  -6  -5  -8   40.53    4.65
  -6  -5  -8   36.27    4.14
   6   5   8   38.43    5.05
   6   5   8   45.70    6.23
   8  -6  -8   34.37    2.51
   8  -6  -8   34.43    2.36
  -8   6   8   31.23    5.24
  -8   6   8   37.20    6.11
   7  -6  -8   13.85    1.91
   7  -6  -8   12.69    1.74
   7  -6  -8   17.19    2.41
  -7   6   8   15.51    3.93
   6  -6  -8    7.69    1.56
   6  -6  -8    6.37    1.77
   6  -6  -8    7.49    1.87
   6  -6  -8    9.68    1.77
  -6   6   8    7.37    3.21
   5  -6  -8   59.85    3.96
   5  -6  -8   60.31    3.78
   5  -6  -8   52.52    3.66
   5  -6  -8   55.35    4.10
  -5   6   8   64.68    5.85
   4  -6  -8   33.44    3.07
   4  -6  -8   33.47    3.28
   4  -6  -8   37.19    3.54
   4  -6  -8   26.37    2.88
  -4   6   8   27.64    3.94
  -4   6   8   31.89    2.80
   3  -6  -8   22.62    3.06
   3  -6  -8   16.32    3.05
   3  -6  -8   21.07    2.74
   3  -6  -8   27.48    2.88
  -3   6   8   26.78    3.79
  -3   6   8   23.65    2.81
   2  -6  -8   57.08    4.35
   2  -6  -8   56.44    4.08
   2  -6  -8   58.52    4.67
   2  -6  -8   55.36    4.57
  -2   6   8   46.71    4.09
  -2   6   8   55.33    4.81
   1  -6  -8   20.32    2.86
   1  -6  -8   16.23    3.02
   1  -6  -8   23.68    3.38
   1  -6  -8   20.07    3.33
  -1   6   8   19.81    3.02
  -1   6   8   21.03    3.20
   0  -6  -8   22.81    3.35
   0  -6  -8   27.25    4.08
   0   6   8   24.89    3.60
   0   6   8   24.69    3.16
  -1  -6  -8   41.23    4.78
  -1  -6  -8   45.87    4.42
   1   6   8   42.24    4.61
   1   6   8   42.07    2.36
   1   6   8   40.79    2.32
  -2  -6  -8    9.47    2.81
  -2  -6  -8   11.26    3.63
   2   6   8    6.36    1.86
   2   6   8    6.73    2.74
   2   6   8    7.60    1.87
  -3  -6  -8   30.27    4.94
  -3  -6  -8   29.99    4.09
   3   6   8   29.24    4.60
   3   6   8   27.99    3.21
   3   6   8   20.96    3.28
  -4  -6  -8   18.11    3.89
  -4  -6  -8    9.32    3.66
   4   6   8   15.68    3.89
  -5  -6  -8    5.86    3.24
   5   6   8    2.14    3.16
   7  -7  -8   -0.02    1.56
   7  -7  -8    0.56    1.14
   7  -7  -8    1.09    1.13
  -7   7   8    1.32    2.83
   6  -7  -8    0.89    1.50
   6  -7  -8   -2.29    0.89
   6  -7  -8    1.05    1.32
  -6   7   8    1.22    2.32
   5  -7  -8   71.23    4.67
   5  -7  -8   62.90    4.32
   5  -7  -8   60.82    4.20
   5  -7  -8   58.09    4.55
  -5   7   8   70.03    6.47
   4  -7  -8    4.51    1.89
   4  -7  -8    1.11    1.48
   4  -7  -8    1.02    1.50
   4  -7  -8    2.15    1.65
  -4   7   8    1.16    1.41
  -4   7   8    3.42    2.83
   3  -7  -8    2.41    1.54
   3  -7  -8    1.65    1.88
   3  -7  -8    1.08    1.43
   3  -7  -8    2.22    1.76
  -3   7   8    5.42    2.72
  -3   7   8   -1.55    1.16
   2  -7  -8   59.48    5.21
   2  -7  -8   66.00    4.81
   2  -7  -8   72.21    6.94
  -2   7   8   58.22    5.37
  -2   7   8   80.62    5.36
   1  -7  -8    4.11    1.99
  -1   7   8    1.44    1.97
  -1   7   8    3.65    2.28
   0  -7  -8    0.77    1.95
   0   7   8    0.97    2.04
  -1  -7  -8   67.07    6.06
  -1  -7  -8   66.84    5.43
   1   7   8   59.84    5.74
  -2  -7  -8    1.75    2.61
  -2  -7  -8    3.90    2.45
   2   7   8    3.45    1.21
   2   7   8    4.83    1.36
   2   7   8    3.91    2.70
  -3  -7  -8    2.90    2.80
  -3  -7  -8    6.54    2.91
   3   7   8    3.15    2.83
   3   7   8    2.16    1.58
   3   7   8    6.11    2.13
  -4  -7  -8   36.69    5.35
  -4  -7  -8   45.90    6.20
   4   7   8   47.73    6.16
   4   7   8   41.51    5.17
   6  -8  -8    7.95    2.24
   6  -8  -8    5.37    2.05
   6  -8  -8    7.03    2.09
  -6   8   8    6.81    3.52
   5  -8  -8   33.71    3.99
   5  -8  -8   37.06    3.76
   5  -8  -8   38.29    3.92
  -5   8   8   34.98    5.36
   4  -8  -8    0.83    2.05
   4  -8  -8    4.24    2.05
   4  -8  -8    2.08    1.96
  -4   8   8    3.33    2.61
   3  -8  -8    8.59    2.59
   3  -8  -8    6.82    2.63
  -3   8   8    4.77    2.61
  -3   8   8    3.49    2.09
   2  -8  -8   57.47    4.85
  -2   8   8   51.75    4.65
  -2   8   8   62.35    5.65
   1  -8  -8    0.74    1.85
  -1   8   8    3.29    2.27
   0  -8  -8    4.41    2.36
   0   8   8    4.92    2.58
  -1  -8  -8   52.97    5.39
   1   8   8   51.40    5.58
  -2  -8  -8   -1.08    2.35
  -2  -8  -8   -0.76    2.39
   2   8   8    4.11    2.61
  -3  -8  -8    3.85    2.75
  -3  -8  -8   -0.35    3.03
   3  -9  -8    3.41    2.30
  -3   9   8    5.58    3.23
  -3   9   8    5.38    2.18
   2  -9  -8   10.16    2.93
  -2   9   8    8.24    2.92
   1  -9  -8   12.14    3.46
  -1   9   8    9.66    3.17
   0  -9  -8    3.25    2.66
   0   9   8    3.19    2.86
   3  10  -9   -1.74    1.96
  -3 -10   9    2.27    2.31
   2  10  -9   45.87    5.52
  -2 -10   9   49.84    5.33
   1  10  -9    1.81    2.38
  -1 -10   9    1.06    2.10
   0  10  -9   -0.98    1.94
   0 -10   9   -2.13    1.78
  -1  10  -9   42.85    5.03
   1 -10   9   45.83    4.77
  -2  10  -9    1.90    2.29
   2 -10   9    3.13    2.31
   5   9  -9   41.44    5.55
  -5  -9   9   49.51    5.33
   4   9  -9    3.50    1.94
   4   9  -9    0.72    1.58
   4   9  -9    5.73    2.76
  -4  -9   9    3.10    2.28
   3   9  -9   16.24    3.65
   3   9  -9   14.14    2.28
   3   9  -9   13.08    2.38
  -3  -9   9   11.46    3.20
   2   9  -9   34.99    4.64
  -2  -9   9   39.38    4.56
   1   9  -9    5.60    2.57
  -1  -9   9   10.13    2.96
   0   9  -9    6.19    2.48
   0  -9   9    5.12    2.37
  -1   9  -9   66.98    5.75
   1  -9   9   70.90    5.48
  -2   9  -9    3.90    2.29
   2  -9   9    6.82    2.53
  -3   9  -9    6.89    2.69
   3  -9   9    6.03    2.45
  -4   9  -9   38.00    4.55
   4  -9   9   48.03    4.68
   6   8  -9   16.25    4.02
   5   8  -9   10.32    3.36
  -5  -8   9    9.37    3.09
   4   8  -9   50.52    4.28
   4   8  -9   54.31    5.55
  -4  -8   9   51.76    4.89
   3   8  -9    6.18    1.75
   3   8  -9    8.37    2.08
   3   8  -9    7.61    2.83
  -3  -8   9    9.55    2.97
   2   8  -9   22.94    2.48
   2   8  -9   22.01    2.30
   2   8  -9   19.88    4.01
  -2  -8   9   25.63    3.62
   1   8  -9   48.04    4.72
  -1  -8   9   53.55    4.57
   0   8  -9   17.52    3.46
   0  -8   9   19.33    3.40
  -1   8  -9   39.62    4.38
   1  -8   9   39.92    4.05
  -2   8  -9   42.55    4.41
   2  -8   9   43.66    4.33
  -3   8  -9    7.33    2.63
   3  -8   9    6.69    2.41
  -4   8  -9   33.60    4.13
   4  -8   9   38.22    4.16
  -5   8  -9   12.53    2.91
   5  -8   9    7.69    2.68
   7   7  -9   56.60    5.94
  -7  -7   9   44.15    4.16
  -7  -7   9   49.28    4.13
   6   7  -9    4.04    2.58
  -6  -7   9    4.41    2.17
   5   7  -9    0.30    1.85
  -5  -7   9   -0.25    1.66
   4   7  -9   67.37    5.82
  -4  -7   9   68.12    5.16
   3   7  -9    6.10    1.90
   3   7  -9    5.71    2.18
  -3  -7   9    3.92    2.14
   2   7  -9    2.47    2.05
   2   7  -9    7.15    1.76
  -2  -7   9    8.59    2.49
   1   7  -9  156.92    5.90
   1   7  -9  152.92    6.08
   1   7  -9  158.91    8.41
  -1  -7   9  164.62    7.93
   0   7  -9    9.19    2.72
   0  -7   9   13.12    2.82
  -1   7  -9   12.93    3.03
  -1   7  -9   17.60    3.16
   1  -7   9   22.58    3.16
  -2   7  -9  114.62    7.03
   2  -7   9  131.24    6.93
  -3   7  -9    7.42    2.50
   3  -7   9    9.61    2.64
  -4   7  -9   12.18    2.88
   4  -7   9   15.28    2.99
  -5   7  -9   87.38    5.87
   5  -7   9   89.05    6.08
   6  -7   9    4.05    2.17
   8   6  -9   16.42    4.13
   7   6  -9   44.49    5.18
  -7  -6   9   47.79    3.56
  -7  -6   9   47.46    3.63
   6   6  -9   17.49    3.91
  -6  -6   9    6.85    2.22
  -6  -6   9   11.04    2.35
   5   6  -9    6.66    2.73
  -5  -6   9    9.49    2.19
  -5  -6   9   11.41    2.85
  -5  -6   9    9.56    2.11
   4   6  -9  133.66    7.71
  -4  -6   9  119.80    6.62
   3   6  -9    0.99    1.17
   3   6  -9    1.43    1.24
   3   6  -9    0.03    1.29
  -3  -6   9    0.86    1.43
   2   6  -9   31.57    3.73
   2   6  -9   31.15    2.75
   2   6  -9   32.79    2.91
  -2  -6   9   32.33    3.33
   1   6  -9  211.43    9.82
   1   6  -9  221.39    8.35
   1   6  -9  215.46    9.93
  -1  -6   9  210.31    9.19
   0   6  -9   12.30    1.17
   0   6  -9   13.43    1.16
   0   6  -9   11.88    2.64
   0   6  -9   17.11    2.98
   0  -6   9   10.37    2.42
   0  -6   9    8.69    2.22
  -1   6  -9    5.63    2.04
  -1   6  -9   11.66    2.38
   1  -6   9    6.75    2.04
   1  -6   9    7.43    2.20
  -2   6  -9  146.46    7.85
  -2   6  -9  152.79    7.26
   2  -6   9  153.34    9.24
   2  -6   9  148.48    7.53
   2  -6   9  158.70    7.83
  -3   6  -9   14.22    3.07
   3  -6   9   12.77    2.66
   3  -6   9   20.10    2.94
   3  -6   9   14.30    2.97
  -4   6  -9    2.29    1.76
   4  -6   9    1.56    1.67
   4  -6   9    3.86    1.87
   4  -6   9    1.99    1.77
  -5   6  -9   76.35    5.65
   5  -6   9   91.44    5.77
  -6   6  -9    0.47    1.63
   6  -6   9    3.90    2.19
   7  -6   9   -0.70    2.03
   7  -6   9   -1.49    1.56
  -9  -5   9   21.75    6.84
   7   5  -9   24.65    4.06
   6   5  -9   57.75    5.18
  -6  -5   9   47.84    3.62
  -6  -5   9   59.30    4.51
  -6  -5   9   47.68    3.72
   5   5  -9   46.97    4.49
  -5  -5   9   38.85    3.44
  -5  -5   9   35.58    3.43
  -5  -5   9   42.09    3.38
   4   5  -9   94.01    6.05
  -4  -5   9   90.80    5.28
  -4  -5   9   82.04    5.03
  -4  -5   9   85.38    4.90
   3   5  -9  164.32    7.24
   3   5  -9  166.73    8.29
   3   5  -9  171.42    7.19
  -3  -5   9  164.03    7.25
  -3  -5   9  150.95    7.42
  -3  -5   9  156.86    7.37
   2   5  -9   26.92    2.64
   2   5  -9   22.79    2.48
   2   5  -9   24.61    3.27
   2   5  -9   23.61    3.14
  -2  -5   9   23.53    2.88
  -2  -5   9   25.83    2.90
  -2  -5   9   25.84    2.82
   1   5  -9   34.85    3.30
   1   5  -9   30.66    3.22
   1   5  -9   34.03    2.78
   1   5  -9   34.17    2.58
   1   5  -9   38.09    3.67
   1   5  -9   32.27    3.44
   1   5  -9   33.59    2.56
  -1  -5   9   34.32    3.37
  -1  -5   9   31.34    3.08
   0   5  -9   76.64    5.10
   0   5  -9   74.00    3.70
   0   5  -9   73.51    4.27
   0   5  -9   70.61    4.46
   0   5  -9   74.63    4.85
   0   5  -9   77.78    4.61
   0  -5   9   71.55    4.65
   0  -5   9   60.22    4.62
   0  -5   9   71.72    4.88
  -1   5  -9    8.63    2.00
  -1   5  -9    9.08    2.17
  -1   5  -9   11.23    2.59
   1  -5   9    5.96    1.84
   1  -5   9    6.81    1.95
   1  -5   9   14.54    2.83
  -2   5  -9  101.94    5.22
  -2   5  -9  102.39    5.93
  -2   5  -9   90.46    5.82
   2  -5   9   88.00    5.46
   2  -5   9   86.14    5.67
   2  -5   9   90.97    5.68
   2  -5   9   96.71    6.03
  -3   5  -9   50.54    4.51
  -3   5  -9   47.23    4.28
   3  -5   9   56.02    4.39
   3  -5   9   39.89    4.08
   3  -5   9   48.67    4.02
   3  -5   9   51.83    4.64
  -4   5  -9    8.40    2.54
   4  -5   9    5.18    1.86
   4  -5   9    7.78    2.45
   4  -5   9    5.77    2.00
  -5   5  -9   75.48    5.52
   5  -5   9   90.85    6.82
   5  -5   9   71.71    5.09
  -6   5  -9   11.90    2.78
   6  -5   9   18.03    3.43
   6  -5   9   11.94    2.79
  -7   5  -9    3.23    1.83
   7  -5   9    1.52    1.91
   7  -5   9    5.48    2.40
  -9  -4   9   58.80    8.30
  -8  -4   9   -1.10    2.68
   7   4  -9   -1.71    1.51
  -7  -4   9    0.70    1.76
   6   4  -9  126.96    7.48
  -6  -4   9  129.95    5.25
  -6  -4   9  135.35    7.06
  -6  -4   9  136.24    5.39
   5   4  -9    5.76    2.29
  -5  -4   9    2.93    1.25
  -5  -4   9    3.70    1.63
  -5  -4   9    4.86    1.54
   4   4  -9    1.96    2.46
   4   4  -9    2.18    1.82
   4   4  -9    3.30    1.58
   4   4  -9    0.87    1.89
  -4  -4   9    1.68    1.28
  -4  -4   9    1.08    1.19
  -4  -4   9    1.23    1.25
   3   4  -9  141.16    7.32
   3   4  -9  141.97    6.37
   3   4  -9  141.20    7.43
   3   4  -9  146.69    5.18
   3   4  -9  146.81    7.01
   3   4  -9  145.89    6.56
  -3  -4   9  142.58    6.61
  -3  -4   9  153.29    6.58
  -3  -4   9  125.47    6.30
   2   4  -9    2.14    1.35
   2   4  -9    3.05    1.22
   2   4  -9    3.11    1.00
   2   4  -9    1.08    1.12
   2   4  -9    2.43    1.47
   2   4  -9    0.95    1.01
   2   4  -9    1.36    1.30
   2   4  -9    0.24    0.92
  -2  -4   9    0.95    1.14
  -2  -4   9    0.22    0.90
  -2  -4   9    0.72    1.17
  -2  -4   9    1.74    1.16
  -2  -4   9    3.93    1.44
   1   4  -9   57.05    4.18
   1   4  -9   68.40    4.57
   1   4  -9   58.86    4.09
   1   4  -9   59.92    3.64
   1   4  -9   61.18    3.57
   1   4  -9   62.92    3.59
   1   4  -9   59.16    4.08
  -1  -4   9   51.83    3.96
  -1  -4   9   64.26    3.89
  -1  -4   9   58.67    3.79
  -1  -4   9   62.96    4.26
  -1  -4   9   56.33    3.91
   0   4  -9  215.34    8.70
   0   4  -9  217.59    8.18
   0   4  -9  221.86    8.93
   0   4  -9  220.56    9.57
   0   4  -9  219.19    7.91
   0   4  -9  210.10    8.88
   0   4  -9  218.10    9.10
   0  -4   9  212.99    8.74
   0  -4   9  218.47    9.27
   0  -4   9  226.38    8.64
   0  -4   9  216.66    9.32
   0  -4   9  208.95    8.88
  -1   4  -9   23.31    1.67
  -1   4  -9   31.00    2.86
  -1   4  -9   32.81    3.37
  -1   4  -9   27.98    2.92
  -1   4  -9   29.85    3.02
  -1   4  -9   25.46    2.76
  -1   4  -9   26.60    1.87
   1  -4   9   25.63    3.23
   1  -4   9   26.90    2.96
   1  -4   9   29.79    2.67
   1  -4   9   29.20    2.99
   1  -4   9   29.14    3.13
   1  -4   9   26.60    2.92
  -2   4  -9   22.20    2.91
  -2   4  -9   23.88    3.18
  -2   4  -9   27.55    2.63
   2  -4   9   22.05    3.17
   2  -4   9   23.76    2.87
   2  -4   9   23.48    2.90
   2  -4   9   24.40    3.13
  -3   4  -9  142.24    7.57
  -3   4  -9  140.92    7.68
  -3   4  -9  146.85    6.12
   3  -4   9  142.10    7.41
   3  -4   9  142.54    7.67
   3  -4   9  141.58    7.04
   3  -4   9  152.50    7.65
  -4   4  -9    4.54    2.08
  -4   4  -9    3.22    1.91
   4  -4   9    6.82    2.03
   4  -4   9    6.37    2.60
   4  -4   9    4.82    1.85
   4  -4   9    1.44    1.52
  -5   4  -9   15.40    3.25
   5  -4   9   17.67    3.13
   5  -4   9   24.56    3.87
   5  -4   9   14.38    2.97
   5  -4   9   13.75    2.78
  -6   4  -9   41.29    4.28
   6  -4   9   46.12    4.71
   6  -4   9   58.05    4.60
  -7   4  -9    1.38    1.87
   7  -4   9    1.24    2.24
   7  -4   9   -0.21    1.71
  -9  -3   9   27.58    6.74
  -8  -3   9    4.89    3.41
  -8  -3   9    0.85    1.56
   7   3  -9    7.84    2.55
  -7  -3   9    7.65    2.66
  -7  -3   9    6.47    3.20
   6   3  -9  133.90    7.16
  -6  -3   9  119.57    6.88
   5   3  -9    3.75    1.70
   5   3  -9    8.71    2.52
   5   3  -9    5.81    1.69
   5   3  -9    3.74    1.53
  -5  -3   9    2.97    1.10
  -5  -3   9    3.71    1.27
  -5  -3   9    4.09    1.87
  -5  -3   9    6.61    1.41
   4   3  -9    1.52    1.06
   4   3  -9    2.11    1.36
   4   3  -9    1.72    1.43
   4   3  -9    0.39    1.10
   4   3  -9    1.71    1.18
   4   3  -9    1.37    1.27
   4   3  -9    3.57    1.61
   4   3  -9    1.16    0.99
   4   3  -9   -0.16    1.22
  -4  -3   9   -0.11    1.02
  -4  -3   9    0.45    1.10
   3   3  -9  230.42    9.14
   3   3  -9  243.61   10.03
   3   3  -9  241.99    9.70
   3   3  -9  241.86    9.60
   3   3  -9  251.09    9.72
   3   3  -9  241.31   10.26
   3   3  -9  234.18    9.36
   3   3  -9  227.44    9.52
   3   3  -9  234.31    8.99
  -3  -3   9  251.78    9.17
  -3  -3   9  229.85    9.47
  -3  -3   9  227.72    8.95
  -3  -3   9  241.92    9.01
   2   3  -9   -0.48    0.77
   2   3  -9    0.43    0.95
   2   3  -9    3.46    1.41
   2   3  -9    2.37    1.17
   2   3  -9    0.31    0.98
   2   3  -9    1.92    1.27
   2   3  -9    1.72    1.11
   2   3  -9    1.73    1.00
   2   3  -9    2.41    1.14
  -2  -3   9    0.28    0.93
  -2  -3   9    2.28    1.19
  -2  -3   9    1.15    0.96
  -2  -3   9    1.24    1.04
  -2  -3   9    0.19    0.96
   1   3  -9    6.36    1.92
   1   3  -9    5.50    1.59
   1   3  -9    6.82    1.53
   1   3  -9    2.61    1.06
   1   3  -9    4.08    1.45
   1   3  -9    4.33    1.33
   1   3  -9    3.43    1.21
  -1  -3   9    5.36    1.55
  -1  -3   9    5.59    1.60
  -1  -3   9    2.66    1.25
  -1  -3   9    4.44    1.33
   0   3  -9  373.34   13.23
   0   3  -9  357.22   12.47
   0   3  -9  364.63   12.20
   0   3  -9  372.92   12.40
   0   3  -9  374.37   13.73
   0   3  -9  349.64   12.95
   0  -3   9  356.36   12.56
   0  -3   9  346.36   13.00
   0  -3   9  351.72   13.23
   0  -3   9  368.04   13.62
   0  -3   9  352.67   12.69
  -1   3  -9   18.41    2.08
  -1   3  -9   22.50    2.69
  -1   3  -9   23.44    2.72
  -1   3  -9   19.83    2.40
  -1   3  -9   18.02    1.90
  -1   3  -9   18.20    2.71
  -1   3  -9   19.64    1.80
   1  -3   9   16.25    2.50
   1  -3   9   17.90    2.43
   1  -3   9   22.17    2.86
   1  -3   9   18.43    2.36
   1  -3   9   21.91    2.44
   1  -3   9   19.19    2.74
  -2   3  -9    2.93    1.24
  -2   3  -9    1.57    1.19
  -2   3  -9    2.58    1.65
  -2   3  -9    2.62    0.60
  -2   3  -9    5.80    1.89
  -2   3  -9    2.38    1.30
   2  -3   9    1.50    1.57
   2  -3   9    2.48    1.35
   2  -3   9    2.15    1.25
   2  -3   9    2.84    1.40
   2  -3   9    2.09    1.18
   2  -3   9    5.12    1.86
   2  -3   9    0.68    1.20
  -3   3  -9  143.62    7.73
  -3   3  -9  155.86    8.09
  -3   3  -9  150.14    6.20
   3  -3   9  160.22    7.85
   3  -3   9  155.77    7.75
   3  -3   9  138.12    7.35
   3  -3   9  155.36    7.54
   3  -3   9  164.11    7.36
  -4   3  -9    1.47    1.51
  -4   3  -9   -1.18    1.31
   4  -3   9    2.06    1.33
   4  -3   9    0.30    1.64
   4  -3   9    2.58    1.50
   4  -3   9   -1.78    1.04
   4  -3   9    1.24    1.43
  -5   3  -9    0.47    1.73
  -5   3  -9   -0.55    1.53
   5  -3   9    0.87    1.44
   5  -3   9    1.09    1.52
   5  -3   9    1.42    1.82
  -6   3  -9   82.87    5.96
   6  -3   9   84.87    5.64
   6  -3   9   87.40    6.26
  -7   3  -9    1.10    1.92
   7  -3   9    1.10    1.69
  -8   3  -9   -0.10    2.01
   8  -3   9   -0.35    1.65
 -10  -2   9    8.14    5.21
  -9  -2   9   26.45    4.00
  -9  -2   9   27.28    6.34
  -8  -2   9   34.05    4.04
  -8  -2   9   46.18    6.18
   7   2  -9   39.36    3.67
   7   2  -9   37.67    3.71
  -7  -2   9   40.88    5.19
  -7  -2   9   35.31    3.89
   6   2  -9   60.26    4.26
   6   2  -9   47.44    3.83
   6   2  -9   49.46    4.33
   6   2  -9   58.84    4.25
   6   2  -9   56.26    4.16
   6   2  -9   63.73    4.49
  -6  -2   9   54.02    5.68
  -6  -2   9   54.83    4.55
   5   2  -9   66.46    4.67
   5   2  -9   69.40    4.57
   5   2  -9   75.83    4.56
   5   2  -9   76.48    4.52
   5   2  -9   65.55    4.36
  -5  -2   9   75.27    5.86
  -5  -2   9   65.20    5.01
   4   2  -9   18.23    2.19
   4   2  -9   18.76    2.44
   4   2  -9   17.53    2.47
   4   2  -9   19.13    2.32
   4   2  -9   17.42    2.45
   4   2  -9   19.08    2.45
   4   2  -9   16.11    2.30
  -4  -2   9   20.00    1.96
  -4  -2   9   20.97    1.92
  -4  -2   9   17.67    1.99
   3   2  -9  159.79    6.80
   3   2  -9  172.10    7.46
   3   2  -9  171.89    7.18
   3   2  -9  172.25    7.30
   3   2  -9  168.13    7.65
   3   2  -9  178.96    7.47
  -3  -2   9  174.26    7.33
  -3  -2   9  155.40    6.67
  -3  -2   9  179.20    6.87
  -3  -2   9  166.83    6.71
   2   2  -9  117.07    5.36
   2   2  -9  113.35    5.47
   2   2  -9  113.49    5.67
   2   2  -9  127.85    5.90
   2   2  -9  123.05    6.19
   2   2  -9  116.13    5.61
  -2  -2   9  115.33    5.38
  -2  -2   9  117.90    5.84
  -2  -2   9  114.77    5.75
  -2  -2   9  108.22    5.26
  -2  -2   9  124.02    5.42
   1   2  -9   29.21    2.73
   1   2  -9   33.96    3.20
   1   2  -9   29.60    2.47
   1   2  -9   29.52    2.63
   1   2  -9   30.69    2.60
   1   2  -9   26.17    2.59
  -1  -2   9   23.25    2.55
  -1  -2   9   27.19    2.79
  -1  -2   9   30.58    2.68
  -1  -2   9   26.82    2.56
  -1  -2   9   29.10    2.78
  -1  -2   9   27.95    3.09
  -1  -2   9   27.18    2.57
   0   2  -9  177.40    7.02
   0   2  -9  161.73    7.86
   0   2  -9  168.07    6.95
   0   2  -9  171.91    7.14
   0   2  -9  165.53    7.39
   0   2  -9  174.96    7.62
   0  -2   9  169.68    7.79
   0  -2   9  166.80    7.55
   0  -2   9  178.97    8.10
   0  -2   9  178.51    7.27
   0  -2   9  170.59    7.42
   0  -2   9  173.07    7.73
  -1   2  -9   62.48    3.80
  -1   2  -9   69.64    3.73
  -1   2  -9   64.64    4.34
  -1   2  -9   71.18    3.68
  -1   2  -9   73.12    4.78
  -1   2  -9   66.05    4.55
   1  -2   9   66.84    3.14
   1  -2   9   64.47    4.00
   1  -2   9   73.84    4.97
   1  -2   9   66.03    4.18
   1  -2   9   60.68    4.25
   1  -2   9   67.34    4.55
   1  -2   9   63.10    4.00
   1  -2   9   62.89    4.39
  -2   2  -9    4.69    1.72
  -2   2  -9    3.17    1.58
  -2   2  -9    8.73    1.76
  -2   2  -9    4.48    1.71
  -2   2  -9    5.96    1.14
  -2   2  -9    5.98    1.33
   2  -2   9    6.75    1.84
   2  -2   9    5.42    1.49
   2  -2   9    6.06    1.96
   2  -2   9    4.48    1.80
   2  -2   9    5.44    1.52
   2  -2   9    4.63    1.61
   2  -2   9    3.45    1.82
   2  -2   9    6.40    1.79
  -3   2  -9  198.82    9.40
  -3   2  -9  187.75    8.97
  -3   2  -9  185.12    7.29
   3  -2   9  197.82    9.09
   3  -2   9  184.59    8.71
   3  -2   9  196.46    8.78
   3  -2   9  184.72    8.26
   3  -2   9  177.13    8.44
  -4   2  -9   37.81    4.23
  -4   2  -9   37.35    4.04
   4  -2   9   36.13    3.85
   4  -2   9   31.50    3.35
   4  -2   9   35.91    3.89
   4  -2   9   35.58    3.84
   4  -2   9   31.82    3.45
  -5   2  -9    2.19    1.90
  -5   2  -9    5.21    2.19
   5  -2   9    6.90    2.63
   5  -2   9    9.06    2.42
   5  -2   9    7.85    2.37
  -6   2  -9   89.82    6.29
   6  -2   9   71.08    5.27
  -7   2  -9    3.27    2.35
   7  -2   9    1.51    1.79
  -8   2  -9    2.23    2.22
   8  -2   9    1.56    2.05
 -10  -1   9    5.54    4.08
   9   1  -9    0.99    1.50
  -9  -1   9    0.69    1.99
  -9  -1   9    0.38    2.71
   8   1  -9   89.39    6.62
   8   1  -9  105.21    6.22
   8   1  -9  119.70    6.40
  -8  -1   9  118.90    9.08
  -8  -1   9  111.09    7.03
   7   1  -9    1.24    1.59
   7   1  -9    2.79    1.58
   7   1  -9    1.67    1.50
   7   1  -9    1.84    1.26
  -7  -1   9    0.94    2.28
  -7  -1   9    2.59    1.73
   6   1  -9   19.05    2.51
   6   1  -9   18.72    2.41
   6   1  -9   17.34    2.73
   6   1  -9   16.29    2.59
   6   1  -9   14.75    2.78
  -6  -1   9   15.35    3.72
  -6  -1   9   18.44    3.06
   5   1  -9  146.70    6.93
   5   1  -9  146.34    6.79
   5   1  -9  151.56    6.80
   5   1  -9  151.70    6.78
   5   1  -9  149.38    7.12
  -5  -1   9  157.85    7.93
  -5  -1   9  149.99    8.29
   4   1  -9   38.39    4.01
   4   1  -9   25.48    2.35
   4   1  -9   24.89    2.59
   4   1  -9   25.06    2.81
   4   1  -9   30.76    2.64
   4   1  -9   21.57    2.52
  -4  -1   9   23.16    2.03
  -4  -1   9   27.28    3.36
  -4  -1   9   24.65    3.19
   3   1  -9   34.92    2.96
   3   1  -9   34.23    2.89
   3   1  -9   36.75    2.67
   3   1  -9   28.53    2.90
   3   1  -9   35.28    2.84
   3   1  -9   28.87    2.83
  -3  -1   9   31.19    2.42
  -3  -1   9   34.39    2.82
  -3  -1   9   33.88    3.26
  -3  -1   9   31.02    2.18
  -3  -1   9   37.10    2.31
   2   1  -9  310.51   10.91
   2   1  -9  320.90   11.23
   2   1  -9  311.14   11.86
   2   1  -9  309.80   11.32
   2   1  -9  314.79   11.43
   2   1  -9  304.23   11.43
  -2  -1   9  307.88   11.91
  -2  -1   9  313.95   11.40
  -2  -1   9  309.02   10.87
  -2  -1   9  306.50   10.64
  -2  -1   9  304.94   10.76
  -2  -1   9  316.98   11.20
   1   1  -9   19.25    2.39
   1   1  -9   17.38    2.18
   1   1  -9   20.09    2.11
   1   1  -9   23.06    2.41
   1   1  -9   19.96    2.61
  -1  -1   9   13.73    2.11
  -1  -1   9   22.23    2.56
  -1  -1   9   15.86    2.04
  -1  -1   9   22.75    2.32
  -1  -1   9   19.05    2.11
  -1  -1   9   22.24    2.74
   0   1  -9   79.45    4.25
   0   1  -9   83.50    4.79
   0   1  -9   74.46    4.53
   0   1  -9   77.25    4.21
   0   1  -9   77.43    4.39
   0   1  -9   78.00    4.97
   0  -1   9   76.20    5.08
   0  -1   9   74.41    4.31
   0  -1   9   73.68    4.14
   0  -1   9   76.74    4.72
   0  -1   9   71.32    4.51
   0  -1   9   73.98    4.46
   0  -1   9   80.37    4.47
  -1   1  -9  195.37    7.82
  -1   1  -9  207.31    8.79
  -1   1  -9  208.92    9.23
  -1   1  -9  195.87    7.85
  -1   1  -9  192.35    8.06
   1  -1   9  214.08    8.90
   1  -1   9  198.25    8.74
   1  -1   9  186.26    8.43
   1  -1   9  210.63    8.44
   1  -1   9  210.85    8.39
   1  -1   9  203.47    8.14
   1  -1   9  207.69    9.10
  -2   1  -9   32.96    3.51
  -2   1  -9   31.75    2.51
  -2   1  -9   33.32    3.41
  -2   1  -9   35.04    2.59
  -2   1  -9   39.10    3.08
   2  -1   9   27.80    2.78
   2  -1   9   28.73    2.93
   2  -1   9   32.32    3.12
   2  -1   9   34.58    3.60
   2  -1   9   28.90    3.09
   2  -1   9   29.03    3.19
   2  -1   9   31.65    3.26
  -3   1  -9   63.91    5.02
  -3   1  -9   55.10    4.71
  -3   1  -9   60.14    3.04
  -3   1  -9   57.61    3.78
  -3   1  -9   57.97    4.35
   3  -1   9   45.74    3.93
   3  -1   9   51.88    4.08
   3  -1   9   57.21    4.48
   3  -1   9   57.64    4.49
   3  -1   9   65.60    4.99
  -4   1  -9  122.68    7.43
  -4   1  -9  130.35    7.90
   4  -1   9  134.87    7.24
   4  -1   9  135.75    7.33
   4  -1   9  120.64    6.58
   4  -1   9  129.92    7.51
  -5   1  -9    9.34    2.84
  -5   1  -9    8.56    2.69
   5  -1   9    8.74    2.43
   5  -1   9    6.64    2.86
  -6   1  -9   28.92    4.11
   6  -1   9   29.04    3.59
  -7   1  -9   29.22    4.27
   7  -1   9   34.04    4.10
  -8   1  -9    2.75    2.50
   8  -1   9    2.49    2.27
  10   0  -9    3.97    2.14
 -10   0   9    0.68    2.03
 -10   0   9    0.75    3.51
   9   0  -9    5.32    1.89
   9   0  -9    5.27    2.31
   9   0  -9    4.18    1.82
  -9   0   9    0.96    3.01
  -9   0   9    6.36    2.71
   8   0  -9   88.86    5.39
   8   0  -9   76.68    4.91
   8   0  -9   79.74    5.06
   8   0  -9   88.01    5.06
  -8   0   9   88.47    7.68
  -8   0   9   84.45    6.24
   7   0  -9    1.62    1.45
   7   0  -9    0.19    0.97
   7   0  -9    1.52    1.44
   7   0  -9   -0.44    0.82
  -7   0   9    0.34    1.53
  -7   0   9   -0.34    2.05
   6   0  -9    1.21    1.33
   6   0  -9    2.45    1.19
   6   0  -9    0.06    1.19
   6   0  -9    0.42    1.37
   6   0  -9   -0.41    0.70
  -6   0   9    1.63    1.86
  -6   0   9   -0.54    1.32
   5   0  -9  331.13   11.83
   5   0  -9  320.00   11.81
   5   0  -9  312.00   11.52
   5   0  -9  326.36   12.14
  -5   0   9  344.57   13.47
  -5   0   9  309.74   12.04
  -5   0   9  329.70   13.66
   4   0  -9    4.81    1.58
   4   0  -9    5.89    1.61
   4   0  -9    6.08    1.45
   4   0  -9    3.95    1.43
  -4   0   9    6.72    2.20
  -4   0   9    4.74    1.97
  -4   0   9    7.36    1.95
   3   0  -9    3.10    1.17
   3   0  -9    2.24    1.21
   3   0  -9    4.69    1.51
   3   0  -9    4.89    1.47
   3   0  -9    2.39    1.37
   3   0  -9    2.95    1.47
   3   0  -9    0.85    0.95
  -3   0   9    2.78    1.07
  -3   0   9    2.54    1.09
  -3   0   9    5.27    1.75
  -3   0   9    3.63    1.49
   2   0  -9  354.06   12.47
   2   0  -9  365.92   12.24
   2   0  -9  330.21   12.14
   2   0  -9  339.98   12.87
   2   0  -9  343.29   12.49
   2   0  -9  337.29   12.69
   2   0  -9  340.89   11.81
  -2   0   9  345.12   11.31
  -2   0   9  341.74   13.13
  -2   0   9  336.20   11.69
  -2   0   9  346.76   11.89
  -2   0   9  344.46   11.25
  -2   0   9  349.69   12.32
   1   0  -9    1.70    1.05
   1   0  -9    0.38    1.05
   1   0  -9    0.00    0.74
   1   0  -9    0.13    1.09
   1   0  -9    0.83    1.17
   1   0  -9    2.87    1.55
   1   0  -9    0.29    0.85
  -1   0   9    1.53    1.25
  -1   0   9    0.57    0.90
  -1   0   9   -0.50    1.14
  -1   0   9    0.48    0.88
  -1   0   9    0.85    0.70
  -1   0   9    0.02    1.01
   0   0  -9    1.94    1.34
   0   0  -9    1.16    0.90
   0   0  -9    0.56    1.05
   0   0  -9    1.13    1.15
   0   0  -9    0.70    1.18
   0   0  -9   -0.43    0.79
   0   0  -9    1.96    1.38
   0   0   9    0.44    0.91
   0   0   9   -0.06    0.83
   0   0   9   -0.50    1.01
   0   0   9    0.20    0.94
   0   0   9    1.77    1.17
   0   0   9    0.23    0.93
  -1   0  -9  321.31   11.18
  -1   0  -9  292.41   11.46
  -1   0  -9  297.25   10.97
  -1   0  -9  288.78   12.14
  -1   0  -9  328.06   11.45
  -1   0  -9  304.09   11.82
   1   0   9  316.36   11.26
   1   0   9  322.88   11.96
   1   0   9  247.89   11.19
   1   0   9  318.83   11.17
   1   0   9  309.39   11.35
   1   0   9  313.02   12.29
  -2   0  -9    1.29    1.37
  -2   0  -9   -0.68    1.16
  -2   0  -9    1.43    1.54
  -2   0  -9    0.66    1.10
  -2   0  -9    0.99    0.94
   2   0   9    1.53    1.17
   2   0   9   -0.09    1.22
   2   0   9    0.67    1.22
   2   0   9    2.04    1.35
   2   0   9    0.42    1.22
   2   0   9   -0.75    0.93
   2   0   9    1.15    1.08
  -3   0  -9    1.12    1.50
  -3   0  -9    2.62    1.74
  -3   0  -9   -0.20    1.27
  -3   0  -9    0.98    1.11
   3   0   9    1.45    1.60
   3   0   9   -0.10    1.13
   3   0   9   -0.07    1.22
   3   0   9    1.40    1.32
  -4   0  -9  128.67    7.93
  -4   0  -9  104.58    7.00
  -4   0  -9  112.94    4.72
  -4   0  -9  121.72    4.85
   4   0   9  123.09    7.25
   4   0   9  103.15    6.18
  -5   0  -9    1.52    1.98
  -5   0  -9   -0.93    1.87
   5   0   9    4.32    2.29
   5   0   9   -0.04    1.27
  -6   0  -9    1.96    1.95
   6   0   9    1.82    1.84
   6   0   9    3.37    2.58
  -7   0  -9   43.82    5.31
   7   0   9   45.00    4.69
  -8   0  -9   -4.93    1.97
   8   0   9    2.98    2.46
  10  -1  -9   21.83    3.12
 -10   1   9   22.12    5.97
 -10   1   9   20.63    4.60
   9  -1  -9   10.24    2.41
   9  -1  -9   13.04    2.47
   9  -1  -9   14.60    2.69
   9  -1  -9   12.57    2.40
  -9   1   9   14.74    4.70
  -9   1   9   11.66    3.73
   8  -1  -9   54.37    3.97
   8  -1  -9   53.10    3.74
   8  -1  -9   58.87    4.13
   8  -1  -9   51.62    3.88
  -8   1   9   52.71    5.22
  -8   1   9   41.87    3.63
  -8   1   9   62.55    6.68
   7  -1  -9   41.08    3.12
   7  -1  -9   41.85    3.43
   7  -1  -9   38.92    3.29
   7  -1  -9   43.78    3.26
  -7   1   9   36.75    5.03
  -7   1   9   32.57    3.20
  -7   1   9   43.09    4.49
   6  -1  -9   41.16    3.33
   6  -1  -9   48.01    3.44
   6  -1  -9   43.97    3.11
   6  -1  -9   37.83    3.47
  -6   1   9   51.06    4.68
  -6   1   9   39.93    3.44
  -6   1   9   48.54    5.06
   5  -1  -9  143.82    6.23
   5  -1  -9  142.39    6.42
   5  -1  -9  157.41    7.01
   5  -1  -9  139.41    6.47
   5  -1  -9  150.04    6.94
  -5   1   9  150.76    8.04
  -5   1   9  150.61    8.16
  -5   1   9  132.71    6.76
   4  -1  -9  113.87    5.42
   4  -1  -9  104.45    5.28
   4  -1  -9  108.55    5.72
   4  -1  -9  110.17    5.68
   4  -1  -9  104.00    5.08
  -4   1   9  109.66    6.24
  -4   1   9  108.77    6.55
  -4   1   9  101.55    5.68
   3  -1  -9   11.03    2.15
   3  -1  -9    8.77    1.76
   3  -1  -9    8.51    1.97
   3  -1  -9   10.79    2.10
   3  -1  -9   10.79    2.39
  -3   1   9    8.39    1.28
  -3   1   9    9.87    2.20
  -3   1   9   11.10    2.38
  -3   1   9    9.46    2.36
   2  -1  -9  209.07    8.50
   2  -1  -9  219.46    8.37
   2  -1  -9  208.22    8.68
   2  -1  -9  199.78    7.96
   2  -1  -9  214.30    9.18
   2  -1  -9  213.50    8.77
   2  -1  -9  221.17    8.98
  -2   1   9  198.99    8.86
  -2   1   9  206.65    6.92
  -2   1   9  212.94    7.74
  -2   1   9  216.18    8.53
  -2   1   9  207.27    7.92
  -2   1   9  210.40    6.87
   1  -1  -9   81.02    5.14
   1  -1  -9   85.67    4.99
   1  -1  -9   82.87    4.82
   1  -1  -9   89.23    4.73
   1  -1  -9   79.54    4.84
   1  -1  -9   86.97    4.58
   1  -1  -9   72.09    4.49
  -1   1   9   79.28    4.76
  -1   1   9   83.55    4.34
  -1   1   9   86.07    5.22
  -1   1   9   80.45    4.04
  -1   1   9   76.39    3.89
   0  -1  -9    5.68    1.65
   0  -1  -9    3.38    1.28
   0  -1  -9    5.62    1.96
   0  -1  -9    3.56    1.46
   0  -1  -9    5.25    1.85
   0  -1  -9    2.68    1.13
   0  -1  -9    2.97    1.50
   0   1   9    7.81    1.76
   0   1   9    6.34    1.49
   0   1   9    8.50    2.22
   0   1   9    4.86    1.42
   0   1   9    5.87    1.61
  -1  -1  -9  147.79    7.28
  -1  -1  -9  137.28    6.85
  -1  -1  -9  141.04    6.46
  -1  -1  -9  146.91    7.67
  -1  -1  -9  132.49    6.66
  -1  -1  -9  140.70    7.05
   1   1   9  145.35    7.11
   1   1   9  144.57    6.56
   1   1   9  147.57    6.43
   1   1   9  143.80    7.63
   1   1   9  144.28    6.95
   1   1   9  135.78    6.49
  -2  -1  -9   25.50    2.63
  -2  -1  -9   32.87    3.13
  -2  -1  -9   29.24    3.13
  -2  -1  -9   32.48    3.45
  -2  -1  -9   32.50    3.78
   2   1   9   38.85    3.91
   2   1   9   25.33    2.78
   2   1   9   35.84    3.29
   2   1   9   34.41    3.23
  -3  -1  -9    0.55    1.52
  -3  -1  -9    1.37    1.59
  -3  -1  -9    3.56    1.53
   3   1   9    1.37    1.43
   3   1   9    4.49    2.13
  -4  -1  -9  112.86    7.73
  -4  -1  -9  107.57    5.27
  -4  -1  -9  110.58    5.28
  -4  -1  -9  100.15    6.98
  -4  -1  -9  112.82    6.07
   4   1   9  114.51    7.15
   4   1   9  110.90    6.42
  -5  -1  -9    3.72    1.02
  -5  -1  -9    4.65    1.08
  -5  -1  -9    2.37    2.58
  -5  -1  -9    3.17    2.22
   5   1   9    3.21    2.01
   5   1   9    6.03    2.58
  -6  -1  -9    2.71    2.31
   6   1   9    6.95    3.37
   6   1   9    4.97    2.29
  -7  -1  -9   46.03    5.54
   7   1   9   45.71    4.87
  10  -2  -9   42.80    3.79
  10  -2  -9   34.07    3.66
 -10   2   9   40.96    5.43
 -10   2   9   39.11    6.65
   9  -2  -9   10.50    2.42
   9  -2  -9    4.62    1.92
   9  -2  -9    7.57    1.79
   9  -2  -9    3.80    1.84
  -9   2   9    9.60    3.22
  -9   2   9    9.35    4.61
   8  -2  -9    9.55    1.99
   8  -2  -9    3.31    1.48
   8  -2  -9    6.91    1.81
   8  -2  -9    7.13    1.66
  -8   2   9    5.58    2.49
  -8   2   9    9.38    3.55
   7  -2  -9  116.82    5.64
   7  -2  -9  124.92    5.96
   7  -2  -9  122.64    6.03
   7  -2  -9  135.90    6.44
  -7   2   9  124.63    5.59
  -7   2   9  135.11    8.14
  -7   2   9  150.07    9.16
   6  -2  -9    6.90    1.81
   6  -2  -9   11.09    1.75
   6  -2  -9    8.15    1.98
   6  -2  -9    8.35    1.88
  -6   2   9    9.22    1.97
  -6   2   9    7.19    2.49
  -6   2   9    6.69    2.83
   5  -2  -9   14.32    2.17
   5  -2  -9   12.83    1.79
   5  -2  -9   11.72    2.17
   5  -2  -9   15.12    2.34
  -5   2   9   12.64    2.91
  -5   2   9   17.09    3.69
  -5   2   9   18.65    2.47
   4  -2  -9   81.62    4.64
   4  -2  -9   85.94    4.47
   4  -2  -9   86.01    4.85
   4  -2  -9   82.90    5.01
   4  -2  -9   89.74    4.86
  -4   2   9   95.15    6.09
  -4   2   9   84.53    5.46
  -4   2   9   80.37    4.83
   3  -2  -9    0.69    1.00
   3  -2  -9    4.01    1.70
   3  -2  -9    4.05    1.51
   3  -2  -9    3.91    1.49
   3  -2  -9    2.09    1.28
  -3   2   9    3.55    1.46
  -3   2   9    5.26    1.77
  -3   2   9    4.76    2.02
   2  -2  -9   81.58    4.30
   2  -2  -9   92.69    5.10
   2  -2  -9   75.47    4.46
   2  -2  -9   74.74    4.62
   2  -2  -9   78.04    5.02
   2  -2  -9   72.19    4.62
  -2   2   9   79.20    5.30
  -2   2   9   77.58    4.98
  -2   2   9   81.85    3.76
  -2   2   9   76.77    4.16
   1  -2  -9  162.45    7.57
   1  -2  -9  167.31    7.69
   1  -2  -9  158.39    6.95
   1  -2  -9  157.56    7.85
   1  -2  -9  170.43    7.75
   1  -2  -9  158.82    7.17
   1  -2  -9  176.79    7.32
  -1   2   9  163.78    6.14
  -1   2   9  161.26    7.34
  -1   2   9  155.95    7.88
  -1   2   9  153.57    6.61
  -1   2   9  156.63    5.97
  -1   2   9  158.01    7.87
   0  -2  -9    9.84    2.26
   0  -2  -9   10.30    2.60
   0  -2  -9    6.43    1.65
   0  -2  -9   12.51    2.46
   0  -2  -9    7.04    2.08
   0  -2  -9    7.32    1.95
   0  -2  -9   11.04    2.36
   0   2   9   12.52    2.52
   0   2   9    6.66    2.04
   0   2   9   10.29    1.98
   0   2   9   10.75    1.87
   0   2   9    8.36    1.72
  -1  -2  -9   79.36    4.69
  -1  -2  -9   80.39    5.01
  -1  -2  -9   88.19    4.99
  -1  -2  -9   83.00    5.34
  -1  -2  -9   84.01    5.74
  -1  -2  -9   71.61    5.02
   1   2   9   82.70    4.51
   1   2   9   78.39    4.67
   1   2   9   89.64    5.78
   1   2   9   78.64    5.07
   1   2   9   69.27    4.47
  -2  -2  -9  114.31    6.06
  -2  -2  -9  126.01    6.43
  -2  -2  -9  108.19    7.05
  -2  -2  -9  134.72    6.66
   2   2   9  118.93    6.03
   2   2   9  119.69    6.31
   2   2   9  120.97    7.12
  -3  -2  -9   12.25    3.32
  -3  -2  -9   11.66    2.55
  -3  -2  -9   12.06    2.65
   3   2   9    8.46    2.30
   3   2   9   11.97    2.99
  -4  -2  -9   29.12    4.23
  -4  -2  -9   41.76    3.98
  -4  -2  -9   36.40    3.39
   4   2   9   39.91    4.52
   4   2   9   40.66    3.97
  -5  -2  -9   30.77    4.66
  -5  -2  -9   40.67    3.23
  -5  -2  -9   35.92    3.10
   5   2   9   50.25    5.53
   5   2   9   41.20    4.35
  -6  -2  -9    4.64    2.79
   6   2   9    3.31    2.77
   6   2   9    6.09    2.41
  -7  -2  -9   10.46    3.97
   7   2   9   19.47    3.97
   9  -3  -9    1.80    1.58
   9  -3  -9    0.31    1.03
   9  -3  -9   -0.03    1.45
  -9   3   9    1.40    3.08
  -9   3   9    0.20    2.19
   8  -3  -9    0.77    0.94
   8  -3  -9    1.88    1.27
   8  -3  -9   -0.04    1.18
   8  -3  -9   -0.91    1.43
   8  -3  -9   -0.04    1.39
  -8   3   9    1.13    2.19
  -8   3   9    0.19    2.63
   7  -3  -9   79.23    4.03
   7  -3  -9   84.25    4.62
   7  -3  -9   73.66    4.47
   7  -3  -9   70.47    4.41
  -7   3   9   78.14    6.83
  -7   3   9   79.80    6.34
   6  -3  -9    0.88    0.83
   6  -3  -9    0.93    1.21
   6  -3  -9    0.93    0.99
   6  -3  -9   -0.65    1.11
  -6   3   9   -0.02    1.10
  -6   3   9    0.63    1.76
  -6   3   9   -0.03    1.51
   5  -3  -9   14.23    1.85
   5  -3  -9   10.54    1.95
   5  -3  -9   14.51    2.34
   5  -3  -9   16.01    2.27
  -5   3   9   14.69    3.45
  -5   3   9   14.74    3.33
  -5   3   9   15.70    2.22
   4  -3  -9  180.38    7.66
   4  -3  -9  174.48    7.40
   4  -3  -9  183.04    8.50
   4  -3  -9  180.39    7.98
   4  -3  -9  178.60    7.51
  -4   3   9  189.25    9.03
  -4   3   9  190.84    9.40
  -4   3   9  172.63    7.69
   3  -3  -9    2.50    1.18
   3  -3  -9    3.59    1.84
   3  -3  -9    2.98    1.47
   3  -3  -9    6.44    1.65
   3  -3  -9    4.99    1.70
  -3   3   9    3.59    1.68
  -3   3   9    4.96    1.77
  -3   3   9    5.21    2.16
   2  -3  -9    4.01    1.58
   2  -3  -9    3.89    1.72
   2  -3  -9    0.55    1.07
   2  -3  -9   -0.43    0.83
   2  -3  -9    1.59    1.34
  -2   3   9    2.44    1.53
  -2   3   9    0.71    1.40
   1  -3  -9  222.51    9.48
   1  -3  -9  224.13    9.72
   1  -3  -9  229.70    9.19
   1  -3  -9  236.94   10.20
   1  -3  -9  217.31    9.65
   1  -3  -9  222.84    9.20
  -1   3   9  213.96    6.86
  -1   3   9  221.91    8.39
  -1   3   9  231.10    9.94
  -1   3   9  217.09    6.93
  -1   3   9  223.76    9.81
   0  -3  -9   -0.31    0.85
   0  -3  -9   -0.10    1.04
   0  -3  -9   -0.20    1.30
   0  -3  -9    0.31    1.19
   0  -3  -9    1.37    1.62
   0   3   9   -1.00    1.09
   0   3   9    0.15    0.91
   0   3   9    0.70    0.99
   0   3   9   -1.67    1.12
   0   3   9    2.51    1.69
   0   3   9    0.90    1.05
  -1  -3  -9    4.05    1.95
  -1  -3  -9    4.23    2.27
  -1  -3  -9    2.88    1.67
   1   3   9    7.23    2.45
   1   3   9    3.00    1.43
   1   3   9    3.82    1.74
   1   3   9    1.89    1.32
   1   3   9    6.45    1.64
  -2  -3  -9  127.96    6.98
  -2  -3  -9  129.49    7.85
   2   3   9  142.87    7.89
   2   3   9  121.66    6.28
   2   3   9  138.88    6.82
   2   3   9  126.33    6.73
  -3  -3  -9    1.57    1.67
  -3  -3  -9    1.73    1.75
   3   3   9    2.68    2.20
   3   3   9    0.17    1.53
  -4  -3  -9   10.41    2.80
  -4  -3  -9    6.58    3.09
  -4  -3  -9    6.81    2.35
   4   3   9   10.56    3.43
   4   3   9   11.45    2.97
  -5  -3  -9   66.08    4.54
  -5  -3  -9   62.35    4.51
  -5  -3  -9   59.69    6.21
   5   3   9   70.62    5.58
   5   3   9   78.93    6.85
  -6  -3  -9    4.65    1.56
  -6  -3  -9    1.45    1.45
  -6  -3  -9    2.04    2.54
   6   3   9    3.78    2.17
   6   3   9    4.24    2.76
  -7  -3  -9    2.24    2.98
   7   3   9    2.23    2.48
   7   3   9    3.23    3.37
   9  -4  -9   14.34    2.02
   9  -4  -9   10.15    2.21
   9  -4  -9    9.33    2.36
  -9   4   9   12.07    3.77
  -9   4   9   12.25    4.65
   8  -4  -9    2.40    1.74
   8  -4  -9    3.43    1.57
   8  -4  -9    3.60    1.52
   8  -4  -9    3.15    1.11
  -8   4   9    6.36    2.72
  -8   4   9   -0.47    2.38
   7  -4  -9   71.81    4.51
   7  -4  -9   73.91    4.22
   7  -4  -9   81.58    4.61
   7  -4  -9   76.55    3.91
  -7   4   9   76.97    7.07
  -7   4   9   78.79    6.79
   6  -4  -9   13.60    2.32
   6  -4  -9   21.99    2.39
   6  -4  -9   19.02    2.83
   6  -4  -9   18.89    2.03
  -6   4   9   23.27    3.83
  -6   4   9   17.46    1.89
  -6   4   9   30.48    5.71
   5  -4  -9   11.32    1.82
   5  -4  -9   14.42    2.08
   5  -4  -9   13.30    2.35
   5  -4  -9   16.71    2.74
  -5   4   9   17.21    4.07
  -5   4   9   19.69    3.84
  -5   4   9   13.23    2.06
   4  -4  -9  139.63    6.47
   4  -4  -9  151.80    6.78
   4  -4  -9  138.92    6.56
   4  -4  -9  158.98    7.35
  -4   4   9  134.14    8.00
  -4   4   9  138.82    6.48
  -4   4   9  150.19    8.04
   3  -4  -9   55.08    4.00
   3  -4  -9   51.99    3.94
   3  -4  -9   54.80    4.33
   3  -4  -9   55.66    4.37
   3  -4  -9   57.16    3.86
  -3   4   9   47.81    4.59
  -3   4   9   53.63    3.93
   2  -4  -9    5.43    1.67
   2  -4  -9    5.72    2.09
   2  -4  -9    8.42    2.41
   2  -4  -9    8.37    2.04
   2  -4  -9    4.69    1.66
  -2   4   9    7.37    2.09
  -2   4   9    8.30    2.48
   1  -4  -9  122.60    6.32
   1  -4  -9  118.27    6.84
   1  -4  -9  124.56    6.73
   1  -4  -9  129.50    6.99
   1  -4  -9  129.24    7.30
  -1   4   9  128.37    6.93
  -1   4   9  122.19    6.94
   0  -4  -9    3.27    1.82
   0  -4  -9    4.61    1.76
   0  -4  -9    1.54    1.77
   0   4   9    1.25    0.86
   0   4   9    3.15    1.78
   0   4   9    3.08    1.94
   0   4   9    2.71    1.05
   0   4   9    0.35    1.23
  -1  -4  -9    5.63    2.47
  -1  -4  -9    3.53    1.99
   1   4   9    2.85    1.62
   1   4   9    2.63    1.21
   1   4   9    5.05    1.84
   1   4   9    5.11    1.77
   1   4   9    3.11    1.93
  -2  -4  -9  123.45    7.85
  -2  -4  -9  121.30    6.94
   2   4   9  114.57    6.31
   2   4   9  118.95    6.17
   2   4   9  130.50    7.81
   2   4   9  107.45    6.35
   2   4   9  112.60    5.87
  -3  -4  -9   -0.28    2.04
  -3  -4  -9    0.57    1.90
   3   4   9    2.85    1.87
   3   4   9    3.84    2.32
  -4  -4  -9    0.88    2.33
  -4  -4  -9    3.57    2.37
   4   4   9   11.23    3.53
   4   4   9    4.78    2.30
  -5  -4  -9   58.60    4.84
  -5  -4  -9   82.30    7.14
   5   4   9   72.00    5.84
   5   4   9   65.87    6.43
  -6  -4  -9   -0.18    1.76
  -6  -4  -9   -0.65    2.52
  -6  -4  -9    2.16    1.50
   6   4   9   -0.33    2.53
   6   4   9    0.91    2.24
   8  -5  -9    3.79    1.54
   8  -5  -9    4.04    1.90
   8  -5  -9    2.94    1.19
  -8   5   9    2.77    3.22
  -8   5   9    5.83    3.12
   7  -5  -9   16.47    1.97
   7  -5  -9   17.67    2.57
   7  -5  -9   20.46    2.93
   7  -5  -9   18.45    2.33
  -7   5   9   22.48    5.31
  -7   5   9   23.13    4.90
   6  -5  -9   70.83    4.14
   6  -5  -9   66.87    3.98
   6  -5  -9   68.68    4.29
   6  -5  -9   71.89    4.78
  -6   5   9   77.99    6.74
  -6   5   9   91.89    7.13
   5  -5  -9    8.32    1.94
   5  -5  -9    7.86    1.80
   5  -5  -9    7.60    2.15
   5  -5  -9   11.05    2.15
  -5   5   9    8.77    3.15
  -5   5   9   10.74    1.81
   4  -5  -9   42.41    3.44
   4  -5  -9   41.62    3.97
   4  -5  -9   43.10    3.67
   4  -5  -9   42.14    3.42
  -4   5   9   51.69    5.03
  -4   5   9   41.23    3.40
   3  -5  -9   71.55    4.69
   3  -5  -9   63.92    4.84
   3  -5  -9   70.86    4.96
   3  -5  -9   72.13    4.55
  -3   5   9   75.70    4.77
  -3   5   9   77.87    5.91
   2  -5  -9   17.08    2.98
   2  -5  -9   11.05    2.33
   2  -5  -9   15.95    3.22
   2  -5  -9   11.21    2.62
   2  -5  -9    7.48    1.94
  -2   5   9   11.31    2.68
  -2   5   9   14.70    3.16
   1  -5  -9   85.92    6.01
   1  -5  -9   79.25    5.67
   1  -5  -9   83.12    5.88
   1  -5  -9   82.60    5.22
  -1   5   9   85.75    5.71
  -1   5   9   80.87    5.67
   0  -5  -9   76.37    5.88
   0  -5  -9   71.59    5.07
   0   5   9   69.59    4.99
   0   5   9   64.83    5.34
  -1  -5  -9   15.43    3.07
  -1  -5  -9   22.36    4.15
   1   5   9   15.71    2.22
   1   5   9   11.52    3.20
   1   5   9   21.94    2.94
   1   5   9   17.07    2.15
  -2  -5  -9   32.39    4.44
  -2  -5  -9   28.47    3.90
   2   5   9   28.02    3.31
   2   5   9   27.86    4.96
   2   5   9   27.59    3.03
  -3  -5  -9   30.63    4.22
  -3  -5  -9   29.91    4.94
   3   5   9   43.69    5.17
   3   5   9   33.70    4.14
   3   5   9   34.12    3.97
  -4  -5  -9   14.75    3.98
  -4  -5  -9    7.91    3.28
   4   5   9    7.50    2.95
   4   5   9    9.55    2.88
  -5  -5  -9    7.62    3.22
   5   5   9   13.58    3.92
   5   5   9   15.19    3.73
   8  -6  -9    2.85    1.95
   8  -6  -9   -0.46    0.96
   8  -6  -9    1.11    1.27
  -8   6   9    6.90    3.57
  -8   6   9    0.51    2.33
   7  -6  -9   -0.37    1.03
   7  -6  -9    0.99    1.70
   7  -6  -9    1.04    1.15
  -7   6   9   -1.01    1.95
   6  -6  -9   89.33    4.96
   6  -6  -9   83.41    4.93
   6  -6  -9   88.49    5.31
   6  -6  -9   88.71    5.05
  -6   6   9   95.81    7.62
   5  -6  -9    0.34    1.11
   5  -6  -9    2.27    1.53
   5  -6  -9   -1.14    1.45
   5  -6  -9    0.48    1.44
  -5   6   9    1.95    1.93
   4  -6  -9   -0.50    1.24
   4  -6  -9    3.89    1.70
   4  -6  -9    0.84    1.19
   4  -6  -9    2.02    1.45
  -4   6   9    2.40    1.48
  -4   6   9    3.16    2.27
   3  -6  -9  105.51    6.59
   3  -6  -9  115.68    6.33
   3  -6  -9  112.16    6.00
   3  -6  -9  106.61    6.58
  -3   6   9  105.04    7.19
  -3   6   9  103.08    5.92
   2  -6  -9    1.18    1.56
   2  -6  -9    0.70    1.75
   2  -6  -9    1.33    1.72
  -2   6   9   -0.03    1.72
  -2   6   9    1.15    1.58
   1  -6  -9    2.63    1.91
  -1   6   9    4.68    2.13
  -1   6   9    2.16    1.90
   0  -6  -9  102.86    6.93
   0  -6  -9   89.02    5.93
   0   6   9   87.82    5.81
   0   6   9   90.95    6.44
  -1  -6  -9    0.60    1.85
  -1  -6  -9   -2.04    1.89
   1   6   9    1.50    0.72
   1   6   9    1.06    1.95
   1   6   9    0.27    0.74
  -2  -6  -9    8.05    2.72
  -2  -6  -9    7.13    3.17
   2   6   9    9.43    3.03
   2   6   9    3.24    1.44
   2   6   9    1.98    1.49
  -3  -6  -9   46.68    5.82
  -3  -6  -9   50.14    5.33
   3   6   9   39.90    3.80
   3   6   9   48.25    5.77
   3   6   9   40.07    4.10
  -4  -6  -9    2.54    2.73
  -4  -6  -9    2.40    2.96
   4   6   9    7.46    3.21
  -5  -6  -9    5.68    3.87
   5   6   9    7.66    4.02
   7  -7  -9    9.76    2.22
   7  -7  -9   10.15    2.20
   7  -7  -9    8.11    2.40
  -7   7   9   10.55    3.71
   6  -7  -9   37.42    3.57
   6  -7  -9   34.99    3.69
   6  -7  -9   44.31    3.85
  -6   7   9   38.16    5.42
   5  -7  -9    8.25    2.45
   5  -7  -9    5.99    2.11
   5  -7  -9    7.29    2.31
   5  -7  -9    7.54    2.39
  -5   7   9    1.28    2.83
   4  -7  -9    2.41    1.63
   4  -7  -9    0.95    1.57
   4  -7  -9    1.86    1.96
  -4   7   9    1.33    2.05
  -4   7   9    2.09    1.47
   3  -7  -9   62.78    5.53
   3  -7  -9   67.53    5.60
   3  -7  -9   61.04    4.70
  -3   7   9   70.77    4.92
  -3   7   9   65.74    5.96
   2  -7  -9    4.22    2.11
  -2   7   9    5.08    2.57
  -2   7   9    1.91    2.07
   1  -7  -9   -0.63    1.70
  -1   7   9    1.61    1.79
  -1   7   9   -0.81    1.47
   0  -7  -9   61.70    5.23
   0   7   9   59.57    5.52
  -1  -7  -9    0.69    2.65
  -1  -7  -9    0.06    1.82
   1   7   9    3.62    2.52
  -2  -7  -9    1.05    2.25
  -2  -7  -9   -1.39    2.66
   2   7   9    0.12    0.98
   2   7   9    0.72    2.34
   2   7   9    1.24    0.98
  -3  -7  -9   35.89    5.79
  -3  -7  -9   39.99    5.41
   3   7   9   49.18    6.22
   3   7   9   41.53    3.69
   5  -8  -9   18.49    3.29
   5  -8  -9   19.07    3.48
  -5   8   9   15.43    4.18
   4  -8  -9    4.74    2.29
   4  -8  -9    2.86    1.97
  -4   8   9   10.52    3.40
   3  -8  -9   28.52    4.40
  -3   8   9   23.89    3.65
  -3   8   9   22.39    4.53
   2  -8  -9   27.57    4.56
  -2   8   9   17.32    3.53
  -2   8   9   22.48    4.41
   1  -8  -9   11.40    3.25
  -1   8   9    7.90    2.80
   0  -8  -9   20.72    4.29
   0   8   9   23.46    4.46
  -1  -8  -9   18.30    4.25
   1   8   9    6.79    3.16
  -2  -8  -9    2.37    2.63
   2   8   9    6.83    3.44
   2  10 -10    3.37    2.67
  -2 -10  10    8.73    3.49
   1  10 -10    3.73    2.55
  -1 -10  10    0.52    2.11
   0  10 -10   41.74    5.11
   0 -10  10   46.87    5.09
  -1  10 -10    4.70    2.66
   1 -10  10   13.37    3.44
   5   9 -10   38.84    5.54
   4   9 -10    6.79    2.47
   4   9 -10    1.21    2.28
   4   9 -10    4.89    2.07
  -4  -9  10    7.10    2.78
   3   9 -10   26.12    5.29
   3   9 -10   23.93    2.79
   3   9 -10   19.96    2.71
  -3  -9  10   26.02    4.50
   2   9 -10   33.70    4.87
  -2  -9  10   36.28    4.57
   1   9 -10   11.38    3.02
  -1  -9  10    8.53    2.83
   0   9 -10   34.90    4.48
   0  -9  10   32.06    4.29
  -1   9 -10   34.83    4.57
   1  -9  10   38.40    4.53
  -2   9 -10   15.36    3.73
   2  -9  10   19.77    3.53
  -3   9 -10   46.34    5.04
   3  -9  10   46.70    4.93
   6   8 -10    4.20    2.99
   5   8 -10   64.20    6.39
  -5  -8  10   73.95    5.85
   4   8 -10    5.04    2.69
   4   8 -10    5.58    3.03
  -4  -8  10    8.28    3.06
   3   8 -10    1.25    1.25
   3   8 -10    0.68    1.99
  -3  -8  10    0.87    1.88
   2   8 -10  109.54    7.54
   2   8 -10  118.47    5.49
   2   8 -10  108.43    5.12
  -2  -8  10  119.05    7.18
   1   8 -10    5.52    2.38
  -1  -8  10    4.39    2.11
   0   8 -10    6.66    2.66
   0  -8  10    2.76    2.05
  -1   8 -10   93.92    6.71
   1  -8  10   97.77    6.34
  -2   8 -10   14.75    3.57
   2  -8  10    9.20    2.90
  -3   8 -10   10.06    3.07
   3  -8  10    2.80    1.87
  -4   8 -10   48.69    4.87
   4  -8  10   51.40    4.91
  -5   8 -10    3.47    2.41
   5  -8  10    3.21    2.29
   7   7 -10    5.64    3.30
  -7  -7  10    3.31    2.00
  -7  -7  10    0.35    1.99
   6   7 -10   13.79    4.00
  -6  -7  10    8.88    2.70
   5   7 -10  113.31    7.75
  -5  -7  10   93.31    6.30
   4   7 -10   14.05    3.46
  -4  -7  10   15.31    3.16
   3   7 -10    3.22    2.34
   3   7 -10    7.43    2.08
  -3  -7  10    5.76    2.26
   2   7 -10   91.74    5.11
   2   7 -10   97.58    6.63
  -2  -7  10   98.78    6.13
   1   7 -10    4.56    2.13
   1   7 -10    1.16    1.02
  -1  -7  10    0.81    1.67
   0   7 -10    4.64    2.29
   0  -7  10    3.30    1.87
  -1   7 -10  128.04    7.56
   1  -7  10  128.20    7.28
  -2   7 -10    3.56    2.07
   2  -7  10    1.02    1.61
  -3   7 -10    4.54    2.15
   3  -7  10    4.00    2.06
  -4   7 -10   58.00    5.16
   4  -7  10   59.93    5.12
  -5   7 -10    0.40    2.15
   5  -7  10    2.73    2.18
   6  -7  10    0.13    1.86
   8   6 -10    8.33    4.11
   7   6 -10   48.28    5.41
  -7  -6  10   32.79    3.21
  -7  -6  10   34.08    3.14
   6   6 -10    8.30    3.09
  -6  -6  10    8.53    2.46
  -6  -6  10   12.36    2.65
   5   6 -10   45.83    4.80
  -5  -6  10   38.38    3.91
  -5  -6  10   39.11    3.84
   4   6 -10   69.63    5.69
  -4  -6  10   61.55    4.78
   3   6 -10   12.93    2.44
   3   6 -10    7.22    2.49
   3   6 -10   13.75    2.46
  -3  -6  10   20.75    3.50
   2   6 -10  116.16    5.74
   2   6 -10  130.03    7.40
   2   6 -10  122.17    5.95
  -2  -6  10  119.76    6.59
   1   6 -10   87.80    4.60
   1   6 -10   91.68    6.03
  -1  -6  10   84.67    5.47
   0   6 -10   38.94    3.92
   0   6 -10   35.08    2.11
   0   6 -10   33.31    3.90
   0  -6  10   33.95    3.64
  -1   6 -10   40.45    4.22
  -1   6 -10   45.90    4.10
   1  -6  10   46.78    4.15
  -2   6 -10   46.40    6.01
  -2   6 -10   45.10    4.46
   2  -6  10   40.18    4.58
   2  -6  10   40.69    4.02
  -3   6 -10   12.94    3.09
   3  -6  10    8.78    2.57
  -4   6 -10   38.10    4.37
   4  -6  10   39.87    4.21
  -5   6 -10    2.87    2.11
   5  -6  10    3.00    2.02
  -6   6 -10    6.40    2.77
   6  -6  10    7.86    2.58
  -8  -5  10    5.96    3.78
   7   5 -10   88.11    6.78
   6   5 -10    5.90    2.71
  -6  -5  10    4.41    2.34
  -6  -5  10    5.71    1.92
  -6  -5  10    6.35    1.89
   5   5 -10    1.18    1.74
  -5  -5  10    5.11    1.87
  -5  -5  10    2.37    1.50
  -5  -5  10    3.08    1.87
   4   5 -10  167.02    8.61
  -4  -5  10  147.15    7.31
  -4  -5  10  158.46    7.22
  -4  -5  10  147.90    7.34
   3   5 -10    9.85    2.65
   3   5 -10   15.06    3.31
   3   5 -10   12.15    2.34
  -3  -5  10   14.64    2.63
  -3  -5  10    9.85    2.79
  -3  -5  10   15.14    2.86
   2   5 -10   10.63    2.15
   2   5 -10    6.82    2.22
   2   5 -10    9.96    1.61
   2   5 -10   10.21    2.16
   2   5 -10    5.65    2.58
  -2  -5  10   11.90    2.45
   1   5 -10  166.46    6.93
   1   5 -10  167.54    8.39
   1   5 -10  161.72    7.09
   1   5 -10  172.40    7.01
   1   5 -10  167.51    8.29
  -1  -5  10  164.30    7.79
   0   5 -10    3.53    1.47
   0   5 -10   -0.31    1.05
   0   5 -10    2.99    1.16
   0   5 -10    1.87    0.94
   0   5 -10    1.72    1.54
   0  -5  10    2.73    1.63
   0  -5  10    1.62    1.52
  -1   5 -10   25.31    3.11
  -1   5 -10   29.68    3.25
  -1   5 -10   26.49    3.49
   1  -5  10   27.03    3.42
   1  -5  10   32.37    3.87
   1  -5  10   30.82    3.37
  -2   5 -10   72.14    5.36
  -2   5 -10   67.44    5.00
  -2   5 -10   69.23    4.56
   2  -5  10   72.78    5.07
   2  -5  10   73.29    5.43
   2  -5  10   73.67    5.29
  -3   5 -10   21.86    3.33
  -3   5 -10   19.42    3.56
   3  -5  10   16.65    3.72
   3  -5  10   19.72    3.42
   3  -5  10   23.31    4.18
  -4   5 -10   14.12    3.07
  -4   5 -10   10.97    3.40
   4  -5  10   12.29    2.76
  -5   5 -10   46.20    4.70
   5  -5  10   45.00    4.38
   5  -5  10   42.31    4.47
  -6   5 -10    8.84    2.99
   6  -5  10    6.70    2.45
  -7   5 -10    2.44    2.50
   7  -5  10    1.50    2.06
  -9  -4  10    6.27    3.73
  -8  -4  10   -1.09    2.99
   7   4 -10   91.64    6.63
  -7  -4  10   95.75    6.25
   6   4 -10    8.31    2.62
  -6  -4  10    6.93    1.40
  -6  -4  10    7.84    1.46
  -6  -4  10    6.46    2.46
   5   4 -10    4.50    2.18
  -5  -4  10    3.31    1.63
  -5  -4  10    2.85    1.47
  -5  -4  10    0.86    1.10
   4   4 -10  139.67    7.68
  -4  -4  10  142.88    6.71
  -4  -4  10  141.26    6.68
  -4  -4  10  146.97    6.59
   3   4 -10    0.65    1.36
   3   4 -10    2.66    1.40
   3   4 -10    1.12    0.86
   3   4 -10    1.61    1.42
   3   4 -10    2.04    1.28
  -3  -4  10    0.58    1.17
  -3  -4  10    2.45    1.40
  -3  -4  10    0.31    1.14
   2   4 -10    1.80    1.43
   2   4 -10    2.79    1.35
   2   4 -10    3.50    1.41
   2   4 -10    0.96    1.18
   2   4 -10    0.66    1.27
   2   4 -10    1.13    1.02
   2   4 -10    3.08    1.54
  -2  -4  10    1.91    1.24
  -2  -4  10    2.33    1.32
  -2  -4  10    0.72    1.21
  -2  -4  10    1.50    1.39
   1   4 -10  121.55    5.81
   1   4 -10  120.13    5.70
   1   4 -10  129.15    6.51
   1   4 -10  124.85    5.91
   1   4 -10  133.79    6.84
   1   4 -10  130.09    6.56
   1   4 -10  119.32    6.78
  -1  -4  10  132.92    6.27
  -1  -4  10  133.29    6.58
  -1  -4  10  114.72    6.53
   0   4 -10   -0.60    1.21
   0   4 -10    0.39    0.99
   0   4 -10    0.44    1.05
   0   4 -10    0.61    0.93
   0   4 -10   -1.37    1.05
   0   4 -10   -0.21    0.88
   0   4 -10    0.67    1.15
   0  -4  10    0.20    1.19
   0  -4  10    2.00    1.47
  -1   4 -10    2.82    0.98
  -1   4 -10    2.39    1.42
  -1   4 -10    1.30    1.54
  -1   4 -10    2.80    1.53
  -1   4 -10   -0.08    1.59
  -1   4 -10    1.79    0.81
  -1   4 -10    0.64    1.03
   1  -4  10   -0.14    1.31
   1  -4  10    3.05    1.62
   1  -4  10    1.01    1.82
   1  -4  10    1.76    1.50
  -2   4 -10  192.43    8.92
  -2   4 -10  178.66    7.64
  -2   4 -10  157.84    8.47
   2  -4  10  184.44    8.80
   2  -4  10  169.79    8.20
   2  -4  10  177.51    8.97
  -3   4 -10   -0.88    1.39
  -3   4 -10    2.92    1.74
   3  -4  10    2.84    1.53
   3  -4  10    0.85    1.76
   3  -4  10   -1.22    1.50
   3  -4  10    1.01    1.32
  -4   4 -10    0.93    1.60
  -4   4 -10    0.42    1.76
   4  -4  10    1.24    1.52
   4  -4  10    1.20    1.51
  -5   4 -10   66.96    5.51
   5  -4  10   65.20    5.39
   5  -4  10   65.11    4.99
  -6   4 -10    4.15    2.22
   6  -4  10    6.27    2.25
  -7   4 -10   -0.04    2.08
   7  -4  10    0.57    1.85
  -9  -3  10   36.57    7.46
  -8  -3  10    6.84    2.50
  -8  -3  10    4.81    3.61
   7   3 -10   57.85    5.18
  -7  -3  10   65.42    5.25
  -7  -3  10   55.51    6.49
   6   3 -10   41.66    4.27
  -6  -3  10   43.66    5.13
  -6  -3  10   44.45    4.35
   5   3 -10   20.74    3.10
   5   3 -10   14.75    3.64
   5   3 -10   21.13    2.85
  -5  -3  10   14.72    1.82
  -5  -3  10   16.43    1.99
   4   3 -10  115.47    6.53
   4   3 -10  127.82    6.43
   4   3 -10  108.54    7.14
   4   3 -10  113.46    6.25
   4   3 -10  119.12    6.20
  -4  -3  10  115.39    5.51
  -4  -3  10  124.51    5.52
  -4  -3  10  108.22    5.50
   3   3 -10   63.53    4.22
   3   3 -10   57.51    4.65
   3   3 -10   51.69    3.99
   3   3 -10   63.32    4.36
   3   3 -10   58.55    4.28
   3   3 -10   63.10    3.93
   3   3 -10   65.74    4.59
  -3  -3  10   63.87    3.94
  -3  -3  10   65.08    4.01
  -3  -3  10   59.65    3.89
  -3  -3  10   60.14    4.20
   2   3 -10   16.67    2.74
   2   3 -10   18.35    2.36
   2   3 -10   20.46    2.55
   2   3 -10   22.36    2.69
   2   3 -10   19.07    2.44
   2   3 -10   18.64    2.77
   2   3 -10   21.79    2.67
   2   3 -10   20.00    2.28
  -2  -3  10   18.68    2.56
  -2  -3  10   18.81    3.74
  -2  -3  10   18.85    2.43
  -2  -3  10   20.05    2.40
  -2  -3  10   16.15    2.72
   1   3 -10  142.26    6.22
   1   3 -10  131.64    6.31
   1   3 -10  142.22    7.21
   1   3 -10  139.43    6.74
   1   3 -10  126.02    6.08
   1   3 -10  127.40    6.58
  -1  -3  10  131.11    6.27
  -1  -3  10  128.81    6.46
  -1  -3  10  147.51    6.48
  -1  -3  10  143.24    6.95
  -1  -3  10  141.21    6.80
   0   3 -10   29.55    2.97
   0   3 -10   28.20    2.72
   0   3 -10   28.00    2.51
   0   3 -10   27.92    2.61
   0   3 -10   32.47    3.41
   0   3 -10   26.66    2.99
   0  -3  10   28.03    2.87
   0  -3  10   25.67    3.30
   0  -3  10   26.94    2.90
   0  -3  10   25.50    2.92
   0  -3  10   22.86    2.86
   0  -3  10   23.76    2.90
   0  -3  10   21.51    2.91
  -1   3 -10   75.18    5.33
  -1   3 -10   82.60    5.17
  -1   3 -10   81.07    4.48
  -1   3 -10   79.39    4.12
  -1   3 -10   78.58    5.20
  -1   3 -10   89.50    4.14
   1  -3  10   81.81    5.25
   1  -3  10   73.40    4.90
   1  -3  10   87.74    5.78
   1  -3  10   79.27    5.30
   1  -3  10   82.74    5.44
   1  -3  10   81.83    5.20
  -2   3 -10  113.30    5.57
  -2   3 -10  101.07    6.01
  -2   3 -10  105.46    6.53
  -2   3 -10  108.15    5.17
  -2   3 -10  106.65    4.08
  -2   3 -10  109.13    6.48
   2  -3  10  107.18    6.30
   2  -3  10  118.86    6.45
   2  -3  10   96.21    5.68
   2  -3  10  116.92    6.77
   2  -3  10  108.60    6.43
  -3   3 -10   21.11    3.51
  -3   3 -10   18.55    2.28
  -3   3 -10   15.38    3.24
   3  -3  10   25.25    3.44
   3  -3  10   17.05    2.89
   3  -3  10   27.23    3.66
   3  -3  10   22.73    3.03
  -4   3 -10   17.07    3.46
  -4   3 -10   12.29    3.12
   4  -3  10   20.60    3.25
   4  -3  10   21.66    3.58
   4  -3  10   14.53    2.77
  -5   3 -10   55.16    5.13
   5  -3  10   49.24    4.40
  -6   3 -10    0.75    1.98
   6  -3  10    2.44    2.07
  -7   3 -10    6.15    2.55
   7  -3  10    7.56    2.71
  -9  -2  10   62.46    7.73
  -9  -2  10   66.24    5.69
  -8  -2  10    7.98    4.12
  -8  -2  10    6.73    2.57
   7   2 -10   17.64    2.78
  -7  -2  10   21.67    5.10
  -7  -2  10   21.70    4.02
   6   2 -10  142.49    7.18
   6   2 -10  148.55    7.28
   6   2 -10  151.05    7.32
   6   2 -10  149.14    7.62
   6   2 -10  131.57    7.25
  -6  -2  10  141.18    9.00
  -6  -2  10  155.80    8.38
   5   2 -10   17.34    2.58
   5   2 -10   14.58    2.62
   5   2 -10   13.39    2.39
   5   2 -10   15.10    2.67
   5   2 -10   16.02    2.60
  -5  -2  10   15.73    3.64
  -5  -2  10   12.36    2.99
   4   2 -10   17.80    2.40
   4   2 -10   16.49    2.52
   4   2 -10   19.05    2.84
   4   2 -10   18.79    2.62
   4   2 -10   27.99    3.00
  -4  -2  10   21.67    2.03
  -4  -2  10   15.05    2.06
  -4  -2  10   21.07    2.03
   3   2 -10  200.54    8.08
   3   2 -10  206.71    8.64
   3   2 -10  205.29    9.06
   3   2 -10  201.03    8.74
   3   2 -10  211.73    8.56
   3   2 -10  220.59    8.87
  -3  -2  10  201.09    7.89
  -3  -2  10  194.30    7.95
  -3  -2  10  212.85    8.05
  -3  -2  10  192.23    8.45
   2   2 -10   44.44    3.14
   2   2 -10   41.29    3.31
   2   2 -10   43.41    3.47
   2   2 -10   37.22    3.46
   2   2 -10   35.38    3.12
  -2  -2  10   37.85    3.10
  -2  -2  10   37.19    3.28
  -2  -2  10   40.74    3.07
  -2  -2  10   37.46    3.09
   1   2 -10   44.04    3.35
   1   2 -10   35.50    2.94
   1   2 -10   41.45    3.79
   1   2 -10   42.63    3.45
   1   2 -10   40.47    3.41
   1   2 -10   40.75    3.16
  -1  -2  10   40.61    3.48
  -1  -2  10   39.68    3.20
  -1  -2  10   37.11    3.08
  -1  -2  10   40.13    3.76
  -1  -2  10   40.30    3.46
  -1  -2  10   41.74    3.20
   0   2 -10  234.96    8.68
   0   2 -10  220.54    8.58
   0   2 -10  210.10    9.15
   0   2 -10  220.66    8.81
   0   2 -10  209.67    9.61
   0   2 -10  219.91    9.79
   0  -2  10  215.49    9.34
   0  -2  10  203.65    9.10
   0  -2  10  217.39    9.06
   0  -2  10  213.39    8.79
   0  -2  10  216.89    8.68
   0  -2  10  216.68    9.94
  -1   2 -10   44.50    3.30
  -1   2 -10   37.74    3.75
  -1   2 -10   40.72    3.95
  -1   2 -10   42.22    3.64
  -1   2 -10   42.70    3.00
  -1   2 -10   35.60    2.79
   1  -2  10   39.93    3.62
   1  -2  10   42.12    3.81
   1  -2  10   42.21    3.44
   1  -2  10   40.60    3.30
   1  -2  10   40.52    3.98
   1  -2  10   33.18    3.27
  -2   2 -10   13.70    1.88
  -2   2 -10   12.86    2.86
  -2   2 -10   17.53    2.26
  -2   2 -10   15.84    3.25
  -2   2 -10   16.17    2.91
  -2   2 -10   19.72    1.87
   2  -2  10   20.09    3.15
   2  -2  10   19.04    2.71
   2  -2  10   10.62    2.32
   2  -2  10   13.77    2.63
   2  -2  10   26.43    4.14
  -3   2 -10   33.32    3.93
  -3   2 -10   28.78    3.84
   3  -2  10   29.12    3.69
   3  -2  10   30.19    3.64
   3  -2  10   25.31    3.35
   3  -2  10   26.45    3.14
  -4   2 -10   34.67    4.25
  -4   2 -10   25.68    3.88
   4  -2  10   22.95    3.67
   4  -2  10   38.94    3.73
  -5   2 -10   18.45    3.75
   5  -2  10   19.37    3.51
   5  -2  10   25.37    4.11
  -6   2 -10   16.82    3.81
   6  -2  10   15.59    3.45
  -7   2 -10   19.62    4.03
   7  -2  10   14.40    3.06
 -10  -1  10    2.94    3.73
 -10  -1  10    4.04    2.67
  -9  -1  10   94.76    6.81
  -9  -1  10   66.96    7.87
   8   1 -10   -0.97    1.21
   8   1 -10    2.22    2.13
   8   1 -10    0.12    1.32
  -8  -1  10   -0.85    2.31
  -8  -1  10    1.59    1.81
   7   1 -10    8.50    2.09
   7   1 -10    4.76    1.88
   7   1 -10    2.76    1.57
   7   1 -10    4.58    1.70
  -7  -1  10    5.97    3.36
  -7  -1  10    7.44    2.56
   6   1 -10  160.24    7.45
   6   1 -10  155.22    7.44
   6   1 -10  147.96    7.28
   6   1 -10  157.58    7.70
   6   1 -10  158.37    7.58
  -6  -1  10  172.91    9.60
  -6  -1  10  162.60    8.73
   5   1 -10    2.53    1.33
   5   1 -10    1.74    1.36
   5   1 -10    1.10    1.23
   5   1 -10    3.37    1.57
   5   1 -10    3.69    1.53
  -5  -1  10    2.50    2.05
  -5  -1  10    2.14    1.82
   4   1 -10    2.90    1.47
   4   1 -10    3.37    1.54
   4   1 -10    3.39    1.26
   4   1 -10    1.75    1.26
   4   1 -10    3.14    1.71
  -4  -1  10    3.47    1.24
  -4  -1  10    3.68    1.97
  -4  -1  10    4.62    1.95
   3   1 -10  258.07    9.46
   3   1 -10  240.26    9.93
   3   1 -10  254.50   10.01
   3   1 -10  254.72   10.45
   3   1 -10  253.26    9.85
   3   1 -10  253.23   10.11
  -3  -1  10  238.69    9.77
  -3  -1  10  240.81    8.80
  -3  -1  10  262.73    8.88
  -3  -1  10  265.52   10.29
  -3  -1  10  253.79    9.18
  -3  -1  10  259.85   10.64
   2   1 -10    2.30    1.45
   2   1 -10    5.02    1.82
   2   1 -10    2.61    1.20
   2   1 -10    3.87    1.63
   2   1 -10    5.46    1.39
   2   1 -10    5.44    1.71
  -2  -1  10    5.21    1.89
  -2  -1  10    3.38    1.50
  -2  -1  10    3.63    1.31
  -2  -1  10    4.19    1.28
  -2  -1  10    3.45    1.19
  -2  -1  10    2.71    1.44
   1   1 -10    2.80    1.57
   1   1 -10    0.97    1.01
   1   1 -10    2.47    1.33
   1   1 -10   -0.03    0.84
   1   1 -10    1.75    0.98
   1   1 -10    0.83    1.17
  -1  -1  10    1.17    1.02
  -1  -1  10    0.99    1.07
  -1  -1  10   -0.31    1.10
  -1  -1  10    1.51    0.92
  -1  -1  10    0.22    1.01
  -1  -1  10    1.10    1.26
  -1  -1  10    1.75    1.38
   0   1 -10  186.73    7.81
   0   1 -10  192.88    8.09
   0   1 -10  185.86    8.46
   0   1 -10  176.26    8.24
   0   1 -10  197.75    9.04
   0  -1  10  192.31    8.21
   0  -1  10  188.47    8.60
   0  -1  10  192.43    8.01
   0  -1  10  207.38    8.70
   0  -1  10  196.49    9.11
   0  -1  10  188.64    7.81
   0  -1  10  174.75    8.14
  -1   1 -10    8.20    1.81
  -1   1 -10    7.62    2.04
  -1   1 -10    7.44    1.73
  -1   1 -10    1.60    1.46
  -1   1 -10    5.80    2.05
   1  -1  10    6.37    1.95
   1  -1  10    6.00    1.85
   1  -1  10    6.62    1.87
   1  -1  10    4.82    1.57
   1  -1  10    4.89    1.93
   1  -1  10    6.41    2.01
  -2   1 -10    1.19    0.97
  -2   1 -10    2.02    1.40
  -2   1 -10    1.41    1.05
  -2   1 -10    2.43    1.62
  -2   1 -10    1.83    1.65
   2  -1  10    2.95    1.64
   2  -1  10    3.65    1.85
   2  -1  10    1.78    1.38
   2  -1  10    1.47    1.20
  -3   1 -10  117.91    5.04
  -3   1 -10  121.55    7.51
  -3   1 -10  119.22    5.90
  -3   1 -10  118.90    7.22
   3  -1  10  111.07    6.34
  -4   1 -10   13.40    3.20
  -4   1 -10   18.62    3.85
   4  -1  10   18.75    3.33
   4  -1  10   21.58    3.99
  -5   1 -10    4.29    2.23
   5  -1  10    2.34    2.23
   5  -1  10    4.78    2.18
  -6   1 -10   32.00    4.66
   6  -1  10   36.34    4.22
  -7   1 -10    3.20    2.42
   7  -1  10    5.80    2.37
 -10   0  10    8.63    4.79
 -10   0  10   11.51    3.63
   9   0 -10   39.40    3.84
   9   0 -10   28.89    3.72
   9   0 -10   43.04    4.07
  -9   0  10   38.21    4.12
  -9   0  10   42.24    4.96
  -9   0  10   42.33    6.26
   8   0 -10   32.99    3.54
   8   0 -10   32.44    3.39
   8   0 -10   33.95    3.52
   8   0 -10   35.63    3.74
  -8   0  10   37.13    3.99
  -8   0  10   35.19    5.31
  -8   0  10   40.65    4.68
   7   0 -10   18.70    2.66
   7   0 -10   12.18    2.37
   7   0 -10   14.92    2.46
   7   0 -10   16.29    2.82
  -7   0  10   16.09    4.19
  -7   0  10   18.85    3.22
  -7   0  10   16.12    3.50
   6   0 -10   66.97    4.31
   6   0 -10   72.22    4.62
   6   0 -10   70.09    4.46
   6   0 -10   72.15    4.63
  -6   0  10   67.78    4.86
  -6   0  10   70.35    5.68
  -6   0  10   70.13    6.01
   5   0 -10   16.60    2.59
   5   0 -10   12.87    2.35
   5   0 -10   18.89    2.30
   5   0 -10   17.61    2.51
  -5   0  10   15.31    3.38
  -5   0  10   16.26    2.66
  -5   0  10   21.78    3.42
   4   0 -10   34.78    2.99
   4   0 -10   30.76    3.33
   4   0 -10   33.18    3.09
   4   0 -10   32.09    3.09
  -4   0  10   37.27    3.51
  -4   0  10   40.02    4.15
  -4   0  10   36.42    3.61
   3   0 -10  200.41    8.43
   3   0 -10  199.44    7.79
   3   0 -10  200.97    8.26
   3   0 -10  202.43    8.89
   3   0 -10  198.08    8.40
   3   0 -10  207.04    8.31
  -3   0  10  199.85    9.06
  -3   0  10  188.67    6.29
  -3   0  10  200.44    8.47
  -3   0  10  191.48    8.12
  -3   0  10  190.13    7.27
  -3   0  10  189.76    6.21
   2   0 -10   38.91    3.39
   2   0 -10   30.55    3.32
   2   0 -10   33.70    3.12
   2   0 -10   29.29    2.65
   2   0 -10   28.77    3.10
   2   0 -10   37.42    3.19
   2   0 -10   33.72    3.16
  -2   0  10   29.78    3.36
  -2   0  10   31.66    2.62
  -2   0  10   29.72    2.92
  -2   0  10   28.82    2.36
  -2   0  10   30.25    2.43
  -2   0  10   36.47    2.72
   1   0 -10   37.62    3.36
   1   0 -10   41.51    3.59
   1   0 -10   38.36    3.79
   1   0 -10   37.73    3.29
   1   0 -10   42.67    3.38
   1   0 -10   39.33    3.18
  -1   0  10   39.44    3.86
  -1   0  10   42.17    3.23
  -1   0  10   44.09    3.15
  -1   0  10   40.25    2.11
  -1   0  10   33.08    3.30
  -1   0  10   37.51    2.87
   0   0 -10  102.61    5.87
   0   0 -10   95.21    5.63
   0   0 -10  107.12    5.62
   0   0 -10   95.51    6.09
   0   0 -10  103.11    5.34
   0   0 -10   98.70    5.30
   0   0  10   96.09    5.22
   0   0  10  105.25    5.46
   0   0  10  112.13    5.32
   0   0  10  110.33    6.00
   0   0  10  119.47    6.57
   0   0  10  116.23    5.96
  -1   0 -10   15.51    2.38
  -1   0 -10   14.88    2.70
  -1   0 -10   17.61    2.66
  -1   0 -10   14.66    2.22
  -1   0 -10   19.72    3.15
   1   0  10   12.98    2.26
   1   0  10   14.36    2.88
   1   0  10   15.27    2.37
   1   0  10   16.14    2.47
   1   0  10   20.18    3.17
   1   0  10   19.42    2.64
  -2   0 -10   24.58    2.62
  -2   0 -10   30.25    3.72
  -2   0 -10   30.64    3.17
  -2   0 -10   34.35    3.01
   2   0  10   29.35    3.25
   2   0  10   29.39    3.48
   2   0  10   28.33    3.10
   2   0  10   40.64    4.11
  -3   0 -10   59.41    4.32
  -3   0 -10   63.39    5.39
  -3   0 -10   71.11    4.02
   3   0  10   68.96    4.82
   3   0  10   64.32    5.37
  -4   0 -10    5.22    1.31
  -4   0 -10    3.86    2.08
  -4   0 -10    4.89    1.23
  -4   0 -10    1.40    1.58
   4   0  10    3.30    2.17
   4   0  10    3.00    1.82
  -5   0 -10    9.89    3.20
   5   0  10    8.42    2.67
   5   0  10    3.39    2.40
  -6   0 -10   16.17    3.98
   6   0  10   14.38    3.15
  -7   0 -10    0.85    2.44
   7   0  10    0.45    2.09
  10  -1 -10    2.25    1.67
  10  -1 -10    2.51    1.67
 -10   1  10    0.47    2.90
 -10   1  10    0.33    2.33
   9  -1 -10    9.47    2.51
   9  -1 -10    7.66    2.48
   9  -1 -10    7.82    2.30
   9  -1 -10    9.78    2.14
  -9   1  10   10.85    4.38
  -9   1  10   11.53    3.71
   8  -1 -10   65.48    4.45
   8  -1 -10   65.89    4.50
   8  -1 -10   67.21    4.73
   8  -1 -10   76.90    4.91
  -8   1  10   62.38    4.43
  -8   1  10   58.82    5.67
  -8   1  10   61.54    6.73
   7  -1 -10   10.44    2.35
   7  -1 -10    9.88    2.12
   7  -1 -10   11.16    2.30
   7  -1 -10   10.11    1.98
  -7   1  10   12.02    3.33
  -7   1  10    8.75    2.36
  -7   1  10   13.66    4.26
   6  -1 -10   44.13    3.82
   6  -1 -10   34.05    3.17
   6  -1 -10   34.98    3.00
   6  -1 -10   33.90    3.23
  -6   1  10   37.97    4.40
  -6   1  10   35.25    4.51
  -6   1  10   27.26    3.18
   5  -1 -10  129.49    6.52
   5  -1 -10  140.47    7.03
   5  -1 -10  135.72    6.50
   5  -1 -10  135.79    6.36
   5  -1 -10  147.68    7.15
  -5   1  10  133.73    6.93
  -5   1  10  156.35    8.44
  -5   1  10  138.81    7.87
   4  -1 -10   48.10    3.41
   4  -1 -10   47.73    3.81
   4  -1 -10   44.62    3.78
   4  -1 -10   40.43    3.39
   4  -1 -10   36.63    3.28
  -4   1  10   34.67    3.56
  -4   1  10   36.55    3.75
  -4   1  10   42.99    4.33
   3  -1 -10    6.03    1.69
   3  -1 -10    3.71    1.66
   3  -1 -10    4.18    1.68
   3  -1 -10    6.89    2.10
   3  -1 -10    3.57    1.44
   3  -1 -10    4.84    1.44
  -3   1  10    0.84    1.51
  -3   1  10    3.48    1.18
  -3   1  10    5.74    1.88
  -3   1  10    6.92    2.11
   2  -1 -10   90.40    5.18
   2  -1 -10   90.33    4.70
   2  -1 -10   83.07    5.42
   2  -1 -10   81.55    5.04
   2  -1 -10   87.24    5.35
   2  -1 -10   86.15    5.10
   2  -1 -10   89.48    5.24
  -2   1  10   91.18    5.55
  -2   1  10   89.23    3.70
  -2   1  10   83.08    4.32
  -2   1  10   86.34    3.72
  -2   1  10   93.66    5.16
  -2   1  10   91.32    4.36
   1  -1 -10    9.84    2.23
   1  -1 -10   11.45    2.70
   1  -1 -10    8.28    2.07
   1  -1 -10   10.85    2.38
   1  -1 -10    9.50    2.15
   1  -1 -10   10.92    2.46
   1  -1 -10    9.40    1.95
  -1   1  10   12.38    2.02
  -1   1  10    9.09    1.96
  -1   1  10    7.49    2.24
  -1   1  10    9.48    2.14
  -1   1  10    8.27    1.58
   0  -1 -10   30.65    3.13
   0  -1 -10   26.32    3.21
   0  -1 -10   24.58    3.07
   0  -1 -10   30.25    3.15
   0  -1 -10   32.73    3.64
   0  -1 -10   29.46    2.83
   0   1  10   29.46    2.72
   0   1  10   30.48    2.85
   0   1  10   28.89    2.83
   0   1  10   27.01    3.33
   0   1  10   24.88    3.00
  -1  -1 -10   40.37    3.70
  -1  -1 -10   33.08    3.78
  -1  -1 -10   41.55    3.36
  -1  -1 -10   41.28    3.60
  -1  -1 -10   48.60    4.43
   1   1  10   37.47    3.34
   1   1  10   38.70    3.49
   1   1  10   38.51    3.26
   1   1  10   45.47    3.94
   1   1  10   38.45    4.12
  -2  -1 -10   41.75    3.38
  -2  -1 -10   47.79    3.73
  -2  -1 -10   37.42    4.29
  -2  -1 -10   38.63    3.70
   2   1  10   33.19    3.47
   2   1  10   40.12    4.32
   2   1  10   36.88    3.72
  -3  -1 -10   22.16    2.77
  -3  -1 -10   20.02    3.08
  -3  -1 -10   12.86    3.07
   3   1  10   17.32    3.47
   3   1  10   20.86    3.07
  -4  -1 -10   11.56    2.17
  -4  -1 -10   14.00    3.80
  -4  -1 -10    7.25    2.62
   4   1  10    8.25    2.47
   4   1  10   11.06    3.24
  -5  -1 -10   14.18    3.65
  -5  -1 -10   17.50    1.85
  -5  -1 -10   18.57    1.92
   5   1  10   17.16    3.35
   5   1  10   23.15    4.34
  -6  -1 -10    7.68    3.01
   6   1  10   13.86    4.18
   6   1  10   14.41    3.23
  -7  -1 -10   -0.41    2.47
   7   1  10    3.20    2.39
   9  -2 -10    1.35    1.73
   9  -2 -10   -0.08    1.19
   9  -2 -10    1.59    1.85
   9  -2 -10    0.02    1.57
  -9   2  10   -3.12    2.31
  -9   2  10   -0.36    2.18
   8  -2 -10   81.94    4.92
   8  -2 -10   76.25    4.84
   8  -2 -10   88.58    4.89
   8  -2 -10   73.23    4.84
  -8   2  10   81.02    6.77
  -8   2  10   72.68    7.25
   7  -2 -10    0.84    1.04
   7  -2 -10    1.93    1.52
   7  -2 -10   -0.23    1.20
   7  -2 -10    3.03    1.52
  -7   2  10    1.83    2.75
  -7   2  10   -0.65    1.25
  -7   2  10    1.04    1.81
   6  -2 -10    3.20    1.65
   6  -2 -10    2.13    1.31
   6  -2 -10    0.96    1.27
   6  -2 -10    1.84    1.17
  -6   2  10   -1.31    1.50
  -6   2  10    1.51    1.36
  -6   2  10   -0.84    1.51
   5  -2 -10  105.46    5.66
   5  -2 -10  115.94    6.06
   5  -2 -10  101.19    5.67
   5  -2 -10  111.81    5.47
  -5   2  10  110.81    6.92
  -5   2  10  109.78    7.21
  -5   2  10  107.50    5.82
   4  -2 -10    2.16    1.42
   4  -2 -10    1.83    1.44
   4  -2 -10    1.20    1.04
   4  -2 -10    3.11    1.56
   4  -2 -10    4.22    1.74
  -4   2  10    0.24    1.61
  -4   2  10    0.79    1.63
  -4   2  10    3.68    1.72
   3  -2 -10    9.12    2.04
   3  -2 -10    9.83    2.11
   3  -2 -10    5.16    1.78
   3  -2 -10    6.70    2.11
   3  -2 -10    5.10    1.69
  -3   2  10   13.22    2.78
  -3   2  10    9.51    2.78
  -3   2  10    7.94    2.12
   2  -2 -10   79.45    5.05
   2  -2 -10   90.16    5.13
   2  -2 -10   77.08    5.08
   2  -2 -10   88.65    5.60
   2  -2 -10   86.65    5.33
  -2   2  10   81.05    4.09
  -2   2  10   88.65    5.61
  -2   2  10   84.86    5.86
   1  -2 -10   41.87    3.73
   1  -2 -10   44.32    4.14
   1  -2 -10   42.13    3.82
   1  -2 -10   45.06    4.00
   1  -2 -10   45.57    3.73
  -1   2  10   41.79    3.15
  -1   2  10   41.62    3.70
  -1   2  10   43.52    4.11
  -1   2  10   42.58    2.77
  -1   2  10   40.60    4.08
  -1   2  10   40.00    2.66
   0  -2 -10   -0.67    1.15
   0  -2 -10   -0.33    1.17
   0  -2 -10   -0.43    1.18
   0  -2 -10    0.85    1.04
   0  -2 -10    0.04    1.62
   0   2  10    1.14    1.27
   0   2  10   -0.40    1.33
   0   2  10    0.10    0.88
   0   2  10    0.05    1.06
   0   2  10    0.11    1.00
  -1  -2 -10  129.81    6.80
  -1  -2 -10  118.64    7.38
  -1  -2 -10  126.00    6.43
   1   2  10  109.04    6.03
   1   2  10  128.50    6.31
   1   2  10  133.41    7.62
   1   2  10  123.51    6.04
  -2  -2 -10   25.93    3.38
  -2  -2 -10   23.78    3.02
  -2  -2 -10   19.51    3.92
  -2  -2 -10   22.06    3.54
   2   2  10   22.36    2.99
   2   2  10   22.67    3.22
   2   2  10   21.69    3.57
   2   2  10   28.46    3.28
  -3  -2 -10    1.14    1.92
  -3  -2 -10   -0.63    1.66
  -3  -2 -10    2.05    1.63
   3   2  10   -0.54    1.58
   3   2  10   -1.10    1.40
  -4  -2 -10   19.99    4.22
  -4  -2 -10   31.03    3.96
  -4  -2 -10   27.43    3.25
   4   2  10   32.71    3.87
   4   2  10   34.53    4.40
  -5  -2 -10   18.77    4.61
  -5  -2 -10   23.69    2.76
  -5  -2 -10   22.12    2.70
   5   2  10   25.74    4.74
   5   2  10   20.50    3.98
  -6  -2 -10   -0.35    2.23
   6   2  10   -0.58    1.87
   6   2  10   -3.25    2.38
  -7  -2 -10   11.95    4.08
   7   2  10   13.24    3.64
   9  -3 -10    2.45    1.69
   9  -3 -10    3.32    1.41
  -9   3  10    4.66    2.69
  -9   3  10   -0.59    2.63
   8  -3 -10   39.94    3.62
   8  -3 -10   36.09    3.07
   8  -3 -10   34.08    3.51
   8  -3 -10   39.49    3.81
   8  -3 -10   37.94    3.61
  -8   3  10   39.44    5.08
  -8   3  10   44.00    5.81
   7  -3 -10    4.46    1.79
   7  -3 -10    4.64    1.49
   7  -3 -10    7.36    2.00
   7  -3 -10    1.62    1.74
  -7   3  10    6.07    2.78
  -7   3  10    3.01    2.71
   6  -3 -10    8.11    1.70
   6  -3 -10    8.64    2.16
   6  -3 -10    9.23    2.09
   6  -3 -10    4.86    1.78
  -6   3  10   12.54    3.51
  -6   3  10    9.65    1.97
  -6   3  10    6.63    2.72
   5  -3 -10  100.43    5.50
   5  -3 -10   97.40    5.11
   5  -3 -10   92.38    5.26
   5  -3 -10   89.68    5.37
  -5   3  10   99.07    6.94
  -5   3  10   91.67    5.25
  -5   3  10  107.21    6.77
   4  -3 -10    4.91    1.83
   4  -3 -10    1.60    1.28
   4  -3 -10    0.78    1.17
   4  -3 -10    3.02    1.58
  -4   3  10    0.48    1.69
  -4   3  10    2.28    1.62
  -4   3  10    0.68    1.68
   3  -3 -10   17.59    2.55
   3  -3 -10   19.64    2.98
   3  -3 -10   19.53    3.11
   3  -3 -10   23.26    2.82
   3  -3 -10   21.91    2.73
  -3   3  10   20.44    2.64
  -3   3  10   22.91    3.55
  -3   3  10   18.95    2.85
   2  -3 -10  178.24    8.41
   2  -3 -10  167.87    8.52
   2  -3 -10  173.43    8.19
   2  -3 -10  181.16    8.04
   2  -3 -10  160.56    8.11
  -2   3  10  191.37    9.18
  -2   3  10  170.16    8.41
   1  -3 -10   11.11    2.61
   1  -3 -10    9.18    2.41
   1  -3 -10    5.93    2.17
   1  -3 -10    7.90    2.46
  -1   3  10    6.63    1.06
  -1   3  10    6.52    1.07
  -1   3  10    9.42    2.54
  -1   3  10    9.13    2.31
   0  -3 -10   33.92    3.92
   0  -3 -10   35.23    3.70
   0  -3 -10   46.00    4.54
   0   3  10   40.91    2.99
   0   3  10   34.64    3.77
   0   3  10   32.85    2.99
   0   3  10   36.72    2.99
   0   3  10   38.47    4.10
  -1  -3 -10   59.81    4.78
  -1  -3 -10   54.04    5.19
   1   3  10   67.36    4.45
   1   3  10   56.17    4.53
   1   3  10   66.37    5.34
   1   3  10   58.23    3.95
   1   3  10   57.84    4.17
  -2  -3 -10    0.94    1.75
  -2  -3 -10    1.18    1.92
   2   3  10    2.42    1.51
   2   3  10    2.90    2.30
   2   3  10    3.72    1.96
   2   3  10    0.85    1.45
  -3  -3 -10   14.03    3.24
  -3  -3 -10   14.50    3.91
   3   3  10   26.11    4.07
   3   3  10   18.61    3.34
  -4  -3 -10   44.51    4.71
  -4  -3 -10   42.08    5.37
   4   3  10   57.75    5.86
   4   3  10   40.39    4.44
  -5  -3 -10    1.15    1.74
  -5  -3 -10    2.49    1.60
  -5  -3 -10    1.56    2.36
   5   3  10    2.32    1.98
   5   3  10    3.86    2.91
  -6  -3 -10    6.46    3.32
  -6  -3 -10    9.18    1.79
  -6  -3 -10   10.82    1.94
   6   3  10   26.00    5.51
   6   3  10   13.13    3.48
   9  -4 -10   12.59    2.77
   9  -4 -10   14.59    2.85
   9  -4 -10   14.71    2.35
  -9   4  10    9.34    3.76
  -9   4  10   16.10    5.02
   8  -4 -10   12.77    2.72
   8  -4 -10   13.73    2.17
   8  -4 -10   20.96    2.98
  -8   4  10   14.32    3.94
  -8   4  10   20.42    5.16
   7  -4 -10   44.21    3.71
   7  -4 -10   46.31    3.92
   7  -4 -10   53.52    4.23
   7  -4 -10   47.21    3.40
  -7   4  10   58.53    6.33
  -7   4  10   58.56    5.93
   6  -4 -10   29.49    3.10
   6  -4 -10   26.08    3.26
   6  -4 -10   30.71    3.17
   6  -4 -10   29.64    2.78
  -6   4  10   28.47    2.58
  -6   4  10   33.09    4.70
  -6   4  10   22.81    4.68
   5  -4 -10   19.41    2.73
   5  -4 -10   18.09    2.48
   5  -4 -10   15.84    2.54
   5  -4 -10   18.59    3.01
  -5   4  10   19.71    4.12
  -5   4  10   19.95    2.59
  -5   4  10   15.71    3.82
   4  -4 -10   47.09    3.86
   4  -4 -10   61.12    4.27
   4  -4 -10   52.99    4.08
   4  -4 -10   44.64    4.09
  -4   4  10   46.82    4.97
  -4   4  10   47.83    3.88
   3  -4 -10   54.42    4.10
   3  -4 -10   52.74    4.21
   3  -4 -10   51.90    4.49
   3  -4 -10   56.82    4.33
  -3   4  10   54.31    4.33
  -3   4  10   55.58    5.06
   2  -4 -10   19.93    2.91
   2  -4 -10   18.48    3.22
   2  -4 -10   20.81    3.51
   2  -4 -10   22.67    3.44
   2  -4 -10   24.28    3.11
  -2   4  10   16.89    3.56
  -2   4  10   21.26    3.63
   1  -4 -10   52.60    4.67
   1  -4 -10   49.59    4.77
   1  -4 -10   46.02    4.13
   1  -4 -10   49.33    4.50
  -1   4  10   53.05    4.64
  -1   4  10   55.72    4.76
   0  -4 -10   22.93    3.70
   0  -4 -10   33.26    3.65
   0   4  10   22.16    3.50
   0   4  10   27.76    3.49
   0   4  10   23.67    2.11
   0   4  10   26.82    2.22
  -1  -4 -10   34.47    3.97
  -1  -4 -10   30.09    4.28
   1   4  10   33.15    3.79
   1   4  10   33.39    4.23
   1   4  10   27.74    2.85
   1   4  10   28.11    3.04
   1   4  10   28.75    3.28
  -2  -4 -10    9.91    2.85
  -2  -4 -10   12.92    3.66
   2   4  10    8.90    2.10
   2   4  10    9.70    2.57
   2   4  10   16.42    3.15
   2   4  10   12.95    3.40
   2   4  10   11.87    2.65
  -3  -4 -10   42.51    4.62
  -3  -4 -10   38.18    5.23
   3   4  10   42.86    5.20
   3   4  10   42.23    4.48
  -4  -4 -10    7.06    2.78
  -4  -4 -10    7.84    3.27
   4   4  10   10.62    3.80
   4   4  10   12.84    3.28
  -5  -4 -10    0.52    1.88
  -5  -4 -10    3.21    2.66
   5   4  10    4.45    2.38
   5   4  10   -1.36    2.67
  -6  -4 -10    9.60    2.17
  -6  -4 -10   10.22    2.86
  -6  -4 -10   21.96    5.69
   6   4  10   11.73    3.70
   6   4  10   12.54    3.86
   8  -5 -10    0.75    1.88
   8  -5 -10    0.69    1.13
   8  -5 -10   -0.12    1.23
  -8   5  10   -1.59    2.07
  -8   5  10    0.74    3.09
   7  -5 -10   43.74    4.11
   7  -5 -10   45.22    3.88
   7  -5 -10   45.13    3.86
   7  -5 -10   49.07    3.63
  -7   5  10   48.40    6.12
  -7   5  10   43.59    5.48
   6  -5 -10    5.96    1.81
   6  -5 -10    1.68    1.75
   6  -5 -10    0.32    1.66
   6  -5 -10    4.44    1.57
  -6   5  10    2.01    2.30
  -6   5  10    5.20    2.73
   5  -5 -10    0.31    1.46
   5  -5 -10   -0.37    1.16
   5  -5 -10   -1.59    1.37
   5  -5 -10    0.41    1.15
  -5   5  10    1.40    1.98
  -5   5  10    1.14    1.39
   4  -5 -10   80.08    5.52
   4  -5 -10   73.67    4.87
   4  -5 -10   79.77    5.26
   4  -5 -10   71.12    5.03
  -4   5  10   76.73    6.34
  -4   5  10   72.02    4.74
   3  -5 -10   18.97    2.87
   3  -5 -10   13.90    2.94
   3  -5 -10   15.89    3.11
   3  -5 -10   13.78    2.70
  -3   5  10   13.59    3.40
  -3   5  10   15.61    3.10
   2  -5 -10    3.10    1.57
   2  -5 -10    2.95    2.11
   2  -5 -10    1.81    1.64
  -2   5  10   -0.62    1.44
  -2   5  10    1.58    1.95
   1  -5 -10   40.91    4.08
   1  -5 -10   40.79    4.60
  -1   5  10   44.17    4.41
  -1   5  10   33.48    4.25
   0  -5 -10   28.22    4.20
   0  -5 -10   23.78    3.70
   0   5  10   28.02    3.59
   0   5  10   30.03    4.21
  -1  -5 -10    0.19    1.92
  -1  -5 -10    2.36    2.18
   1   5  10    0.37    1.16
   1   5  10   -0.12    1.72
   1   5  10   -1.39    1.05
   1   5  10    2.74    1.90
  -2  -5 -10   37.56    4.50
  -2  -5 -10   49.93    5.56
   2   5  10   30.83    3.28
   2   5  10   30.01    3.46
   2   5  10   34.65    5.03
  -3  -5 -10   13.38    3.77
  -3  -5 -10   13.88    4.15
   3   5  10   18.49    4.51
  -4  -5 -10    4.64    2.76
  -4  -5 -10   -0.27    2.07
   4   5  10    0.05    2.28
  -5  -5 -10    5.47    3.58
   5   5  10    4.52    3.26
   5   5  10    6.31    3.40
   7  -6 -10   36.07    3.42
   7  -6 -10   38.94    3.72
   7  -6 -10   40.20    3.95
  -7   6  10   36.14    5.75
   6  -6 -10    1.84    1.64
   6  -6 -10    3.48    1.85
   6  -6 -10    2.17    1.43
   6  -6 -10   -0.81    1.03
  -6   6  10    3.23    2.54
   5  -6 -10   11.27    2.63
   5  -6 -10   14.63    3.12
   5  -6 -10   12.26    2.62
   5  -6 -10   18.15    3.15
  -5   6  10   17.91    3.09
  -5   6  10   15.32    4.03
   4  -6 -10   52.08    4.25
   4  -6 -10   51.83    4.66
   4  -6 -10   48.42    5.21
   4  -6 -10   47.31    4.46
  -4   6  10   44.14    3.91
  -4   6  10   45.46    5.22
   3  -6 -10    4.88    1.94
   3  -6 -10   -2.67    1.46
   3  -6 -10   -0.70    1.42
  -3   6  10    0.30    1.52
  -3   6  10    2.31    2.20
   2  -6 -10    7.02    2.37
  -2   6  10    8.14    2.68
  -2   6  10    9.38    2.92
   1  -6 -10   37.85    4.21
  -1   6  10   39.21    4.42
  -1   6  10   54.72    5.06
   0  -6 -10    0.74    2.03
   0  -6 -10    6.38    2.46
   0   6  10    6.59    2.90
   0   6  10    7.37    2.52
  -1  -6 -10   16.83    4.33
  -1  -6 -10   17.74    3.74
   1   6  10   17.04    3.77
  -2  -6 -10   22.74    4.23
  -2  -6 -10   13.11    4.13
   2   6  10   20.10    4.15
   2   6  10   16.00    2.53
   2   6  10   16.47    2.59
  -3  -6 -10    5.74    3.06
  -3  -6 -10    1.47    2.43
   3   6  10    0.93    1.57
   3   6  10   -0.08    2.35
   3   6  10    1.11    1.77
  -4  -6 -10    2.75    2.84
  -4  -6 -10    4.84    3.16
   4   6  10    2.89    3.22
   6  -7 -10   21.70    3.42
   6  -7 -10   17.24    3.11
   6  -7 -10   23.10    3.44
  -6   7  10   23.38    5.05
   5  -7 -10   13.56    3.01
   5  -7 -10   14.42    3.35
   5  -7 -10   16.63    3.21
  -5   7  10   13.56    4.16
   4  -7 -10   14.74    3.03
   4  -7 -10   14.44    2.89
  -4   7  10   14.49    3.82
  -4   7  10   14.70    2.79
   3  -7 -10    9.59    2.83
  -3   7  10    6.69    3.13
  -3   7  10    6.22    2.59
   2  -7 -10   16.88    3.48
  -2   7  10   16.91    3.73
  -2   7  10   14.76    3.39
   1  -7 -10   15.73    3.61
  -1   7  10    8.97    4.43
  -1   7  10    9.60    3.00
   0  -7 -10    8.47    2.95
   0   7  10    9.23    3.17
  -1  -7 -10   13.90    5.08
  -1  -7 -10   18.48    3.95
   1   7  10    4.97    2.68
  -2  -7 -10    6.29    3.10
  -2  -7 -10   11.69    4.23
   2   7  10    7.83    3.48
   4  -8 -10    0.89    2.05
  -4   8  10    6.10    3.27
   3  -8 -10   17.21    3.70
  -3   8  10    9.37    2.66
  -3   8  10   18.15    4.30
   2  -8 -10   13.50    3.60
  -2   8  10    8.85    2.84
   1  -8 -10    2.34    2.57
  -1   8  10    0.76    2.17
   0  -8 -10   16.33    4.11
   0   8  10   13.51    3.74
   4   9 -11   -2.56    2.23
   4   9 -11    0.08    1.53
  -4  -9  11    1.62    2.40
   3   9 -11   38.79    5.27
   3   9 -11   39.73    3.25
   3   9 -11   33.14    3.27
  -3  -9  11   40.02    4.94
   2   9 -11   18.73    4.09
  -2  -9  11   11.87    3.37
   1   9 -11    1.07    1.71
  -1  -9  11    1.46    2.03
   0   9 -11   41.44    5.08
   0  -9  11   37.75    4.85
  -1   9 -11   26.06    4.68
   1  -9  11   27.93    4.21
  -2   9 -11    0.34    2.27
   2  -9  11    0.64    1.88
  -3   9 -11   18.72    4.11
   3  -9  11   11.57    3.28
   6   8 -11   41.67    5.69
   5   8 -11   -1.15    2.07
   4   8 -11   12.73    3.61
  -4  -8  11   11.04    3.23
   3   8 -11   53.56    5.67
   3   8 -11   50.41    4.03
  -3  -8  11   64.97    5.50
   2   8 -11    1.06    1.27
   2   8 -11    2.30    2.01
   2   8 -11    1.30    1.37
  -2  -8  11    2.64    2.25
   1   8 -11   22.45    4.21
  -1  -8  11   24.64    4.11
   0   8 -11   52.05    5.31
   0  -8  11   54.18    5.01
  -1   8 -11    6.23    2.66
   1  -8  11    7.24    2.79
  -2   8 -11   16.51    3.82
   2  -8  11   18.25    3.93
  -3   8 -11   34.86    4.59
   3  -8  11   48.20    4.84
  -4   8 -11   10.66    3.10
   4  -8  11    9.02    2.88
   7   7 -11   19.12    4.56
  -7  -7  11   33.43    3.65
  -7  -7  11   26.44    3.61
   6   7 -11    8.71    3.51
  -6  -7  11   10.50    2.90
   5   7 -11   25.88    5.26
  -5  -7  11   21.63    5.19
   4   7 -11   32.36    4.62
  -4  -7  11   34.95    4.14
   3   7 -11   15.22    2.82
   3   7 -11   17.86    4.11
  -3  -7  11   16.04    3.43
   2   7 -11   18.67    2.58
   2   7 -11   14.23    3.29
  -2  -7  11   15.67    3.10
   1   7 -11   61.06    5.30
   1   7 -11   58.66    3.44
  -1  -7  11   61.52    5.13
   0   7 -11   25.38    3.81
   0  -7  11   26.98    3.70
  -1   7 -11    8.51    2.74
   1  -7  11    1.97    1.65
  -2   7 -11   39.51    4.59
   2  -7  11   41.50    4.45
  -3   7 -11    6.61    2.68
   3  -7  11    7.84    2.52
  -4   7 -11    0.70    2.16
   4  -7  11    2.05    2.20
  -5   7 -11   13.13    3.60
   5  -7  11   13.72    3.19
   7   6 -11    8.16    3.36
  -7  -6  11    5.18    1.73
  -7  -6  11    5.41    1.92
   6   6 -11    1.75    2.16
  -6  -6  11    0.75    1.48
  -6  -6  11   -0.49    1.46
   5   6 -11   45.15    5.03
  -5  -6  11   40.99    4.69
  -5  -6  11   46.35    4.11
   4   6 -11   28.75    4.17
  -4  -6  11   25.24    3.54
   3   6 -11   -0.45    1.46
   3   6 -11   -0.89    1.05
  -3  -6  11    0.30    1.50
   2   6 -11   43.42    3.42
   2   6 -11   37.74    4.34
   2   6 -11   49.92    3.69
  -2  -6  11   48.65    4.37
   1   6 -11   40.33    3.18
   1   6 -11   44.78    4.51
   1   6 -11   39.40    3.00
  -1  -6  11   44.01    4.10
   0   6 -11    2.61    1.00
   0   6 -11   -0.08    1.51
   0  -6  11   -0.70    1.48
  -1   6 -11   17.17    3.59
  -1   6 -11   18.68    3.08
   1  -6  11   23.36    3.41
  -2   6 -11   32.02    4.16
   2  -6  11   34.31    3.98
   2  -6  11   41.93    4.62
  -3   6 -11    0.92    1.95
   3  -6  11    0.16    1.45
  -4   6 -11    8.12    2.79
   4  -6  11    9.68    2.86
  -5   6 -11   38.38    4.69
   5  -6  11   43.51    4.61
  -6   6 -11    1.34    2.42
   6  -6  11    0.92    2.02
  -8  -5  11   44.81    7.12
   7   5 -11   -0.48    1.89
   6   5 -11    7.85    2.87
  -6  -5  11    6.78    2.64
  -6  -5  11    5.54    1.88
  -6  -5  11    6.98    1.92
   5   5 -11   60.83    5.52
  -5  -5  11   61.32    4.24
  -5  -5  11   55.61    4.45
   4   5 -11    6.76    2.54
  -4  -5  11    4.61    1.96
  -4  -5  11    6.84    2.20
  -4  -5  11    9.32    2.56
   3   5 -11   15.60    3.40
   3   5 -11   19.72    2.94
  -3  -5  11   22.12    3.12
  -3  -5  11   18.56    2.81
   2   5 -11   60.50    4.04
   2   5 -11   62.06    5.01
   2   5 -11   60.02    4.03
   2   5 -11   61.71    3.60
  -2  -5  11   58.62    4.44
   1   5 -11   25.51    3.54
   1   5 -11   27.60    2.77
   1   5 -11   25.76    3.48
   1   5 -11   22.64    2.45
   1   5 -11   19.55    2.52
  -1  -5  11   29.12    3.38
   0   5 -11   34.12    3.70
   0   5 -11   30.82    3.76
   0   5 -11   27.15    3.11
   0   5 -11   28.24    2.56
   0   5 -11   30.93    2.42
   0  -5  11   28.62    3.41
  -1   5 -11   40.57    3.90
  -1   5 -11   51.72    4.72
  -1   5 -11   43.42    4.06
   1  -5  11   39.01    4.59
   1  -5  11   48.22    4.23
  -2   5 -11   19.10    3.70
  -2   5 -11   28.60    3.58
   2  -5  11   27.00    3.52
   2  -5  11   20.69    3.93
  -3   5 -11   24.88    3.76
  -3   5 -11   25.81    3.67
   3  -5  11   31.44    3.76
   3  -5  11   22.85    4.81
  -4   5 -11   25.78    3.93
   4  -5  11   18.73    3.43
  -5   5 -11   28.94    4.25
   5  -5  11   29.91    3.81
  -6   5 -11    7.70    2.82
   6  -5  11    5.87    2.48
  -9  -4  11   12.88    5.24
  -8  -4  11   16.24    5.44
   7   4 -11    6.02    3.02
  -7  -4  11    7.21    3.68
  -7  -4  11    5.00    2.50
   6   4 -11   42.91    4.80
  -6  -4  11   40.86    4.79
  -6  -4  11   44.89    2.70
  -6  -4  11   47.38    2.72
   5   4 -11   49.29    4.56
  -5  -4  11   39.17    3.35
  -5  -4  11   43.95    3.40
   4   4 -11   19.22    3.12
  -4  -4  11   11.87    2.28
  -4  -4  11   12.52    2.43
  -4  -4  11   12.87    2.52
   3   4 -11   65.63    4.61
   3   4 -11   73.68    5.23
   3   4 -11   66.52    3.69
  -3  -4  11   70.65    4.60
  -3  -4  11   61.50    4.38
  -3  -4  11   69.94    4.58
   2   4 -11   33.89    3.06
   2   4 -11   43.90    4.12
   2   4 -11   37.04    3.45
   2   4 -11   36.04    2.96
   2   4 -11   30.76    3.68
   2   4 -11   43.11    3.44
  -2  -4  11   37.68    3.41
  -2  -4  11   40.97    3.58
  -2  -4  11   38.71    3.54
   1   4 -11    8.43    1.96
   1   4 -11    7.65    1.85
   1   4 -11    3.23    1.51
   1   4 -11    7.51    1.96
   1   4 -11    7.22    2.54
   1   4 -11    9.42    2.10
  -1  -4  11    6.53    2.08
   0   4 -11   86.05    6.03
   0   4 -11   89.76    4.61
   0   4 -11   85.65    5.31
   0   4 -11   93.40    4.79
   0   4 -11   94.57    5.12
   0   4 -11   98.12    5.75
   0  -4  11   89.27    5.53
   0  -4  11   97.19    6.38
  -1   4 -11   19.83    3.25
  -1   4 -11   24.18    2.01
  -1   4 -11   20.86    2.02
  -1   4 -11   19.51    2.83
  -1   4 -11   25.53    3.21
   1  -4  11   22.64    3.08
   1  -4  11   25.47    3.50
  -2   4 -11    2.75    1.39
  -2   4 -11    5.20    2.14
  -2   4 -11    6.40    2.19
   2  -4  11    3.33    2.23
   2  -4  11    2.17    1.75
  -3   4 -11   69.34    5.56
  -3   4 -11   70.38    5.57
   3  -4  11   64.27    4.95
   3  -4  11   65.89    5.56
  -4   4 -11   14.79    3.49
   4  -4  11   22.14    3.80
  -5   4 -11    3.57    2.35
   5  -4  11    4.09    2.27
  -6   4 -11   31.37    4.28
   6  -4  11   31.09    4.04
  -7   4 -11    3.54    2.54
   7  -4  11    5.38    2.64
  -9  -3  11    9.51    4.91
  -8  -3  11    2.75    2.29
  -8  -3  11    3.67    3.50
   7   3 -11   42.08    5.51
  -7  -3  11   56.17    6.46
  -7  -3  11   50.92    5.05
   6   3 -11   41.11    4.31
  -6  -3  11   35.91    5.03
  -6  -3  11   51.90    4.99
   5   3 -11   -0.20    1.32
   5   3 -11    0.60    1.36
  -5  -3  11    0.59    1.03
  -5  -3  11   -0.12    0.94
   4   3 -11   45.42    3.93
   4   3 -11   39.96    3.94
  -4  -3  11   43.30    3.34
  -4  -3  11   43.63    3.48
  -4  -3  11   54.10    3.67
   3   3 -11   75.24    5.33
   3   3 -11   79.49    5.03
  -3  -3  11   82.02    4.76
  -3  -3  11   74.48    4.54
  -3  -3  11   81.82    4.65
   2   3 -11    2.37    1.38
   2   3 -11    4.07    1.97
   2   3 -11    7.84    2.13
   2   3 -11    2.93    1.47
   2   3 -11    3.55    1.86
  -2  -3  11    4.62    1.78
  -2  -3  11    2.88    1.50
  -2  -3  11    5.95    2.70
  -2  -3  11    3.02    1.51
   1   3 -11   40.32    3.36
   1   3 -11   55.79    4.55
   1   3 -11   44.05    3.66
   1   3 -11   56.71    4.98
   1   3 -11   49.15    3.58
  -1  -3  11   45.79    3.72
  -1  -3  11   49.27    3.75
  -1  -3  11   56.44    4.71
  -1  -3  11   41.48    3.66
  -1  -3  11   38.60    3.83
   0   3 -11  120.26    6.95
   0   3 -11  111.48    6.24
   0   3 -11  111.91    5.46
   0   3 -11  113.58    5.86
   0   3 -11  115.52    5.60
   0  -3  11  120.28    6.77
   0  -3  11  111.74    6.53
   0  -3  11  101.01    6.00
   0  -3  11  117.63    6.90
  -1   3 -11    6.60    2.46
  -1   3 -11    8.32    2.42
  -1   3 -11   10.15    1.87
  -1   3 -11   11.41    2.19
  -1   3 -11   10.69    1.84
   1  -3  11    4.33    2.12
   1  -3  11    8.86    2.63
   1  -3  11    4.50    1.77
  -2   3 -11   18.94    3.22
  -2   3 -11   16.01    2.52
  -2   3 -11   18.24    1.73
  -2   3 -11   22.68    3.47
  -2   3 -11   17.38    1.73
   2  -3  11   16.89    3.08
   2  -3  11   20.71    3.48
  -3   3 -11  107.59    7.03
  -3   3 -11  109.79    7.26
   3  -3  11  111.37    6.49
   3  -3  11  120.20    7.30
  -4   3 -11    2.15    2.06
   4  -3  11   -0.75    1.85
   4  -3  11    0.09    1.53
  -5   3 -11    0.25    1.83
   5  -3  11    2.24    1.75
  -6   3 -11   46.59    5.18
   6  -3  11   52.55    4.93
  -7   3 -11    0.83    2.21
   7  -3  11   -1.21    1.72
  -9  -2  11   -0.64    2.03
  -9  -2  11    1.75    3.28
  -8  -2  11    7.95    3.99
  -8  -2  11   12.61    3.39
   7   2 -11   61.55    4.78
  -7  -2  11   66.55    6.64
  -7  -2  11   62.78    5.63
   6   2 -11   20.46    3.18
   6   2 -11   13.34    2.77
  -6  -2  11   10.38    2.89
  -6  -2  11   14.03    3.61
   5   2 -11   17.43    2.89
   5   2 -11   17.88    2.86
   5   2 -11   18.88    2.89
  -5  -2  11   13.75    3.42
  -5  -2  11   20.10    4.14
   4   2 -11   85.39    5.33
   4   2 -11   86.23    5.44
   4   2 -11   88.49    5.40
   4   2 -11   87.02    5.63
   4   2 -11   95.95    5.55
  -4  -2  11   88.11    4.24
  -4  -2  11   83.32    4.58
  -4  -2  11   90.41    4.19
  -4  -2  11   88.32    5.98
   3   2 -11   58.25    4.22
   3   2 -11   56.40    4.22
   3   2 -11   51.45    4.32
   3   2 -11   50.71    4.11
  -3  -2  11   58.09    3.65
  -3  -2  11   52.99    3.60
  -3  -2  11   54.80    3.75
  -3  -2  11   48.91    3.87
   2   2 -11   56.08    4.15
   2   2 -11   50.41    3.94
   2   2 -11   53.59    4.39
   2   2 -11   50.69    3.67
  -2  -2  11   53.41    3.82
  -2  -2  11   54.25    4.22
  -2  -2  11   50.84    4.51
  -2  -2  11   52.26    3.80
  -2  -2  11   54.39    3.73
   1   2 -11   81.70    5.20
   1   2 -11   77.79    5.44
   1   2 -11   82.00    4.69
   1   2 -11   75.98    4.54
   1   2 -11   74.37    4.67
  -1  -2  11   75.04    4.99
  -1  -2  11   78.24    4.79
  -1  -2  11   72.57    5.35
  -1  -2  11   71.59    4.60
  -1  -2  11   73.19    4.45
   0   2 -11   62.93    4.10
   0   2 -11   68.23    4.82
   0   2 -11   70.85    4.27
   0   2 -11   62.79    4.98
   0   2 -11   60.34    4.25
   0  -2  11   67.77    4.36
   0  -2  11   63.60    5.24
   0  -2  11   65.36    4.58
   0  -2  11   73.51    4.63
  -1   2 -11   27.57    3.57
  -1   2 -11   24.92    2.56
  -1   2 -11   21.42    2.69
  -1   2 -11   32.53    2.79
  -1   2 -11   32.82    3.78
   1  -2  11   31.65    3.81
   1  -2  11   23.94    3.01
   1  -2  11   24.18    3.33
  -2   2 -11   48.52    3.13
  -2   2 -11   46.51    3.67
  -2   2 -11   51.48    3.33
  -2   2 -11   48.63    4.61
  -2   2 -11   51.71    4.74
   2  -2  11   52.29    4.75
   2  -2  11   46.89    4.07
  -3   2 -11   34.34    4.24
  -3   2 -11   39.88    2.06
  -3   2 -11   37.21    4.47
   3  -2  11   39.08    4.43
   3  -2  11   35.05    3.76
  -4   2 -11   10.43    2.99
  -4   2 -11   14.13    4.56
   4  -2  11   10.07    2.71
   4  -2  11   11.98    3.29
  -5   2 -11    9.21    2.95
   5  -2  11    9.32    2.80
  -6   2 -11   34.38    4.89
   6  -2  11   36.02    4.54
  -7   2 -11    9.58    3.34
   7  -2  11    7.62    3.01
  -9  -1  11    2.38    3.37
  -9  -1  11    8.07    3.00
   8   1 -11   45.13    4.24
  -8  -1  11   42.34    6.00
  -8  -1  11   40.56    4.82
   7   1 -11   29.08    3.77
   7   1 -11   38.80    3.83
   7   1 -11   32.57    3.49
  -7  -1  11   47.86    5.63
  -7  -1  11   37.71    4.77
   6   1 -11    2.60    1.48
   6   1 -11    4.67    1.75
   6   1 -11    6.28    2.09
   6   1 -11    0.94    1.76
   6   1 -11    4.52    1.86
  -6  -1  11   -1.41    2.03
  -6  -1  11    3.45    2.18
   5   1 -11   83.71    5.12
   5   1 -11   82.71    5.48
   5   1 -11   77.40    4.91
   5   1 -11   80.72    5.07
  -5  -1  11   77.23    5.98
  -5  -1  11   72.52    5.25
  -5  -1  11   77.70    6.15
   4   1 -11   42.96    3.60
   4   1 -11   37.61    3.43
   4   1 -11   38.16    3.70
   4   1 -11   48.22    3.80
  -4  -1  11   37.79    4.02
  -4  -1  11   38.01    3.91
   3   1 -11    0.02    1.24
   3   1 -11    2.19    1.58
   3   1 -11    1.69    1.20
   3   1 -11    0.07    0.98
  -3  -1  11    1.14    1.14
  -3  -1  11    0.64    1.34
  -3  -1  11    1.94    1.15
  -3  -1  11    1.08    1.00
  -3  -1  11   -0.67    1.06
  -3  -1  11    1.25    1.48
   2   1 -11  112.31    5.85
   2   1 -11  107.94    5.90
   2   1 -11  106.21    5.48
   2   1 -11   99.11    5.89
   2   1 -11  108.46    6.46
   2   1 -11  120.98    6.33
  -2  -1  11  114.94    5.36
  -2  -1  11  107.83    5.24
  -2  -1  11  110.15    6.03
  -2  -1  11  104.98    5.49
  -2  -1  11  112.90    5.30
  -2  -1  11  105.57    6.57
   1   1 -11   39.00    3.56
   1   1 -11   29.49    3.32
   1   1 -11   33.14    3.07
   1   1 -11   32.66    3.64
   1   1 -11   41.44    3.62
   1   1 -11   36.67    3.26
  -1  -1  11   32.86    3.08
  -1  -1  11   36.83    3.13
  -1  -1  11   33.90    3.83
  -1  -1  11   31.29    2.90
  -1  -1  11   35.34    2.36
  -1  -1  11   34.06    3.48
   0   1 -11    8.80    1.96
   0   1 -11    5.67    1.65
   0   1 -11    6.09    2.26
   0   1 -11    8.48    2.26
   0   1 -11    5.13    1.84
   0  -1  11    5.86    1.79
   0  -1  11   10.22    2.23
   0  -1  11    3.49    1.68
   0  -1  11   11.84    2.53
   0  -1  11    6.23    2.28
  -1   1 -11  116.57    6.27
  -1   1 -11  121.63    5.98
  -1   1 -11  128.12    7.44
  -1   1 -11  134.78    6.21
   1  -1  11  131.57    7.44
   1  -1  11  150.84    8.89
   1  -1  11  118.46    6.42
   1  -1  11  120.56    6.45
  -2   1 -11    7.87    2.49
  -2   1 -11   10.60    2.32
  -2   1 -11    7.27    1.76
  -2   1 -11   10.25    1.89
   2  -1  11    8.30    2.54
   2  -1  11   11.54    2.67
  -3   1 -11    4.69    2.29
  -3   1 -11    8.20    1.62
  -3   1 -11    9.88    3.01
   3  -1  11    6.05    2.39
   3  -1  11    4.33    1.95
  -4   1 -11   48.60    5.07
   4  -1  11   33.38    3.95
   4  -1  11   38.96    4.70
  -5   1 -11    6.79    2.75
   5  -1  11    6.40    2.88
   5  -1  11   15.29    3.43
  -6   1 -11    7.85    3.12
   6  -1  11    9.47    2.96
  -7   1 -11   16.19    4.20
   7  -1  11   22.17    4.38
   9   0 -11   25.01    3.59
   9   0 -11   18.34    3.81
  -9   0  11   37.57    6.10
  -9   0  11   25.07    3.72
  -9   0  11   30.50    4.50
   8   0 -11   23.22    3.09
   8   0 -11   20.08    3.15
   8   0 -11   17.78    3.15
  -8   0  11   22.71    4.45
  -8   0  11   19.36    3.29
  -8   0  11   24.48    5.65
   7   0 -11    2.51    1.75
   7   0 -11   -0.06    1.36
   7   0 -11    0.51    1.35
   7   0 -11    2.03    1.53
  -7   0  11    1.45    1.66
  -7   0  11    2.27    1.90
  -7   0  11   -1.13    1.96
   6   0 -11   23.90    3.08
   6   0 -11   26.22    3.08
   6   0 -11   28.30    3.02
  -6   0  11   29.29    3.55
  -6   0  11   31.14    4.09
  -6   0  11   25.30    4.02
   5   0 -11   66.17    4.57
   5   0 -11   62.03    4.80
   5   0 -11   55.11    4.23
   5   0 -11   60.45    4.21
  -5   0  11   62.21    5.19
  -5   0  11   61.70    5.53
  -5   0  11   61.47    4.79
   4   0 -11    4.18    1.72
   4   0 -11    1.22    1.03
   4   0 -11    1.73    1.33
   4   0 -11    3.65    1.96
  -4   0  11    1.63    1.90
  -4   0  11    0.46    1.32
  -4   0  11    3.49    1.98
   3   0 -11   30.16    3.42
   3   0 -11   27.58    3.14
   3   0 -11   23.44    2.77
   3   0 -11   25.24    2.95
  -3   0  11   27.42    1.74
  -3   0  11   27.94    2.46
  -3   0  11   24.43    1.70
  -3   0  11   30.05    2.96
  -3   0  11   24.20    3.37
   2   0 -11  120.05    6.35
   2   0 -11   96.31    5.90
   2   0 -11  125.46    8.64
   2   0 -11  115.31    6.09
   2   0 -11  100.73    6.02
   2   0 -11  127.71    6.83
  -2   0  11  115.03    5.17
  -2   0  11  115.42    6.14
  -2   0  11  116.35    6.77
  -2   0  11  108.97    5.09
  -2   0  11  110.99    5.50
  -2   0  11  116.42    5.18
   1   0 -11    1.14    1.19
   1   0 -11    1.03    1.34
   1   0 -11   -0.05    1.02
   1   0 -11    2.14    1.27
   1   0 -11   -0.91    1.07
   1   0 -11    2.01    1.41
  -1   0  11   -0.83    0.97
  -1   0  11   -0.17    1.02
  -1   0  11    1.65    1.32
  -1   0  11    0.48    0.58
  -1   0  11    2.64    1.86
  -1   0  11   -0.05    1.21
   0   0 -11    2.52    1.80
   0   0 -11    7.93    2.20
   0   0 -11    4.15    1.72
   0   0 -11    3.38    1.47
   0   0 -11    3.49    1.80
   0   0  11    4.39    2.04
   0   0  11    7.15    1.86
   0   0  11    4.53    1.55
   0   0  11    5.04    1.82
   0   0  11    3.36    1.57
  -1   0 -11   83.46    5.90
  -1   0 -11   84.23    5.18
  -1   0 -11   78.25    4.72
  -1   0 -11   80.72    4.90
   1   0  11   75.79    5.76
   1   0  11   83.74    5.04
   1   0  11   79.59    4.81
   1   0  11   75.04    4.87
  -2   0 -11   -0.88    1.52
  -2   0 -11    0.61    1.48
  -2   0 -11    2.02    1.14
  -2   0 -11    2.21    1.48
   2   0  11    0.36    1.37
   2   0  11   -0.67    1.07
  -3   0 -11    5.57    2.10
  -3   0 -11    5.93    1.73
  -3   0 -11    5.67    2.62
   3   0  11    5.38    1.93
   3   0  11    4.99    2.33
  -4   0 -11   88.30    4.40
  -4   0 -11   89.58    4.37
  -4   0 -11   76.27    6.54
   4   0  11  107.23    6.52
   4   0  11   91.14    6.87
  -5   0 -11    2.53    2.27
   5   0  11    0.28    2.23
   5   0  11   -0.41    1.67
  -6   0 -11    3.81    2.40
   6   0  11   -1.99    1.69
  -7   0 -11   31.92    4.99
   7   0  11   16.38    3.98
   9  -1 -11   14.77    2.75
   9  -1 -11   14.86    2.97
   9  -1 -11    9.15    2.59
  -9   1  11   14.80    4.96
  -9   1  11   14.44    3.95
   8  -1 -11    5.70    1.87
   8  -1 -11    8.58    2.46
   8  -1 -11    9.34    2.20
   8  -1 -11   12.63    2.69
  -8   1  11   13.60    4.18
  -8   1  11   10.16    2.66
  -8   1  11   11.50    3.68
   7  -1 -11    8.21    2.24
   7  -1 -11   14.57    2.66
   7  -1 -11   10.27    2.17
   7  -1 -11    8.79    2.20
  -7   1  11   10.56    3.11
  -7   1  11   15.48    4.22
  -7   1  11    9.94    2.58
   6  -1 -11   40.12    3.46
   6  -1 -11   45.60    3.84
   6  -1 -11   38.55    3.62
  -6   1  11   48.92    5.11
  -6   1  11   41.61    4.84
  -6   1  11   40.31    4.00
   5  -1 -11   28.26    3.49
   5  -1 -11   27.04    2.89
   5  -1 -11   28.35    3.04
   5  -1 -11   27.53    4.07
   5  -1 -11   26.41    3.06
  -5   1  11   30.22    3.56
  -5   1  11   36.55    4.07
  -5   1  11   29.56    4.10
   4  -1 -11   14.41    2.30
   4  -1 -11   19.37    3.12
   4  -1 -11   17.01    3.13
   4  -1 -11   14.93    2.90
   4  -1 -11   13.17    2.58
  -4   1  11   16.61    3.15
  -4   1  11   22.63    4.18
  -4   1  11   18.24    2.80
   3  -1 -11   32.14    3.68
   3  -1 -11   38.90    3.72
   3  -1 -11   34.40    3.50
   3  -1 -11   34.70    3.43
   3  -1 -11   41.37    3.51
  -3   1  11   39.70    4.38
  -3   1  11   39.02    3.85
  -3   1  11   32.36    3.02
   2  -1 -11   64.40    4.46
   2  -1 -11   60.64    4.53
   2  -1 -11   67.53    4.97
   2  -1 -11   60.51    4.63
   2  -1 -11   62.31    4.63
  -2   1  11   61.75    3.15
  -2   1  11   57.67    4.71
  -2   1  11   55.48    3.35
  -2   1  11   62.71    3.11
  -2   1  11   58.92    3.71
   1  -1 -11    5.80    1.84
   1  -1 -11    4.61    1.90
   1  -1 -11    8.86    2.32
   1  -1 -11    7.84    2.10
  -1   1  11    6.71    2.32
  -1   1  11    4.21    1.35
  -1   1  11    7.30    1.87
  -1   1  11    3.91    1.27
  -1   1  11    4.90    1.74
   0  -1 -11   20.85    3.28
   0  -1 -11   23.40    3.37
   0  -1 -11   26.99    3.51
   0  -1 -11   22.36    3.13
   0   1  11   20.32    2.66
   0   1  11   17.09    2.52
   0   1  11   22.24    3.37
   0   1  11   22.14    2.60
  -1  -1 -11   98.55    5.56
  -1  -1 -11  105.71    6.08
  -1  -1 -11  101.66    6.78
  -1  -1 -11  116.07    6.89
   1   1  11  102.38    5.81
   1   1  11  102.71    5.79
   1   1  11  103.09    6.86
   1   1  11   96.83    5.45
  -2  -1 -11    8.44    2.10
  -2  -1 -11    9.92    2.61
  -2  -1 -11    9.35    2.07
  -2  -1 -11    8.55    2.92
   2   1  11   10.32    3.01
   2   1  11    7.73    2.26
  -3  -1 -11   25.95    4.26
  -3  -1 -11   27.97    3.06
  -3  -1 -11   21.94    3.48
   3   1  11   33.84    4.37
   3   1  11   29.68    3.61
  -4  -1 -11   50.80    5.62
  -4  -1 -11   57.60    3.92
   4   1  11   50.89    4.95
   4   1  11   62.13    5.88
  -5  -1 -11   10.37    3.38
  -5  -1 -11   11.36    1.70
  -5  -1 -11   16.77    1.95
   5   1  11   11.10    3.17
   5   1  11   19.81    4.55
  -6  -1 -11    2.58    2.81
   6   1  11    1.66    2.15
   6   1  11    0.01    3.02
   9  -2 -11   18.22    2.84
   9  -2 -11   18.85    3.23
  -9   2  11   20.21    5.80
  -9   2  11   21.17    4.83
   8  -2 -11    2.23    1.66
   8  -2 -11    0.87    1.65
   8  -2 -11   -0.51    1.46
   8  -2 -11    0.30    1.28
  -8   2  11    0.79    2.39
  -8   2  11    2.12    2.18
   7  -2 -11   48.57    4.06
   7  -2 -11   42.73    4.22
   7  -2 -11   40.97    3.55
   7  -2 -11   43.43    3.87
  -7   2  11   47.59    5.55
  -7   2  11   50.22    3.82
  -7   2  11   48.58    5.31
   6  -2 -11   25.14    3.25
   6  -2 -11   22.73    2.67
   6  -2 -11   20.12    3.02
   6  -2 -11   24.62    3.10
  -6   2  11   28.33    4.28
  -6   2  11   28.43    3.30
  -6   2  11   24.58    3.96
   5  -2 -11    7.98    2.13
   5  -2 -11   10.03    2.34
   5  -2 -11    8.50    1.95
   5  -2 -11    7.85    2.18
  -5   2  11   11.19    2.53
  -5   2  11    8.10    2.91
  -5   2  11   10.89    3.14
   4  -2 -11   69.64    4.65
   4  -2 -11   63.36    4.70
   4  -2 -11   73.21    4.84
   4  -2 -11   70.78    5.14
   4  -2 -11   67.86    4.97
  -4   2  11   76.79    5.19
  -4   2  11   73.74    6.00
  -4   2  11   68.86    4.98
   3  -2 -11   49.68    4.14
   3  -2 -11   43.05    3.80
   3  -2 -11   40.96    3.67
   3  -2 -11   38.81    3.76
   3  -2 -11   38.97    4.07
  -3   2  11   35.05    3.83
  -3   2  11   36.76    4.29
  -3   2  11   45.70    3.58
   2  -2 -11   12.49    2.73
   2  -2 -11   11.86    2.63
   2  -2 -11   13.19    3.07
   2  -2 -11   11.61    2.41
   2  -2 -11   10.40    2.66
  -2   2  11   15.88    3.44
  -2   2  11   11.22    2.66
   1  -2 -11  108.69    6.30
   1  -2 -11   99.81    7.28
   1  -2 -11   98.87    6.50
   1  -2 -11   96.08    5.86
  -1   2  11   82.33    4.90
  -1   2  11   85.23    6.14
  -1   2  11   96.34    6.43
  -1   2  11   97.30    4.58
  -1   2  11   97.24    4.47
   0  -2 -11   34.03    3.68
   0  -2 -11   37.00    4.27
   0   2  11   31.86    3.16
   0   2  11   33.37    3.07
   0   2  11   34.18    3.05
   0   2  11   30.77    3.98
  -1  -2 -11   16.17    3.66
  -1  -2 -11   19.94    3.54
   1   2  11    7.48    1.86
   1   2  11   15.04    3.76
   1   2  11   12.93    2.70
   1   2  11   12.94    2.59
  -2  -2 -11   82.12    5.63
  -2  -2 -11   74.42    6.18
   2   2  11   87.03    6.53
   2   2  11   68.40    5.08
  -3  -2 -11   13.36    3.27
  -3  -2 -11    8.80    3.33
   3   2  11   17.67    3.54
   3   2  11   21.69    4.23
  -4  -2 -11   16.14    2.92
  -4  -2 -11   17.87    4.11
   4   2  11    8.04    2.92
   4   2  11   17.19    3.72
  -5  -2 -11   15.28    2.52
  -5  -2 -11   14.61    4.22
  -5  -2 -11   20.96    2.77
   5   2  11   21.20    4.63
   5   2  11   19.26    3.83
  -6  -2 -11    5.96    3.08
   6   2  11   10.21    3.26
   6   2  11   11.50    4.31
   9  -3 -11    5.29    2.15
   9  -3 -11    3.20    1.69
  -9   3  11   -0.47    1.70
  -9   3  11   -1.46    2.67
   8  -3 -11   13.91    2.75
   8  -3 -11   12.42    2.43
   8  -3 -11   17.51    3.08
   8  -3 -11   15.94    3.05
  -8   3  11   24.58    5.72
  -8   3  11   18.68    4.97
   7  -3 -11   48.44    4.25
   7  -3 -11   47.78    4.10
   7  -3 -11   47.94    3.70
   7  -3 -11   42.28    4.13
  -7   3  11   58.01    5.89
  -7   3  11   56.80    3.77
  -7   3  11   52.40    5.83
   6  -3 -11    4.47    1.59
   6  -3 -11    2.67    1.98
   6  -3 -11    4.41    1.76
   6  -3 -11    3.35    1.85
  -6   3  11    7.95    3.21
  -6   3  11    6.67    2.65
  -6   3  11    1.70    1.61
   5  -3 -11   10.16    2.58
   5  -3 -11   17.69    3.14
   5  -3 -11   12.22    2.39
   5  -3 -11   12.23    2.55
  -5   3  11   15.67    3.90
  -5   3  11   11.14    2.55
  -5   3  11   15.30    3.59
   4  -3 -11  106.87    6.09
   4  -3 -11   97.50    6.07
   4  -3 -11   89.50    5.62
   4  -3 -11   94.35    5.59
  -4   3  11   95.21    5.88
  -4   3  11  104.63    7.33
  -4   3  11  102.28    6.28
   3  -3 -11    1.16    1.52
   3  -3 -11    0.59    1.11
   3  -3 -11   -0.35    1.23
   3  -3 -11    1.43    1.82
   3  -3 -11    0.01    1.33
  -3   3  11    0.87    1.58
  -3   3  11    0.33    1.57
   2  -3 -11    0.71    1.56
   2  -3 -11    4.00    1.97
   2  -3 -11    3.50    1.76
   2  -3 -11    3.16    1.84
  -2   3  11    1.04    1.95
  -2   3  11    1.78    1.90
   1  -3 -11  109.36    7.16
   1  -3 -11  112.61    6.47
  -1   3  11  111.96    6.96
  -1   3  11  117.11    7.16
  -1   3  11  115.19    4.21
  -1   3  11  116.64    4.26
   0  -3 -11    1.18    1.90
   0  -3 -11    4.65    2.21
   0   3  11    3.05    2.04
   0   3  11    1.20    1.51
   0   3  11    1.68    1.21
   0   3  11   -0.36    1.62
   0   3  11    3.85    1.55
  -1  -3 -11    2.58    2.10
  -1  -3 -11    2.56    1.98
   1   3  11    0.56    1.52
   1   3  11    1.99    1.98
   1   3  11   -0.19    1.23
   1   3  11    1.89    1.53
   1   3  11    0.78    1.67
  -2  -3 -11   88.37    7.11
  -2  -3 -11   93.19    6.38
   2   3  11  111.44    6.24
   2   3  11   92.32    6.97
   2   3  11   92.67    5.98
  -3  -3 -11    2.86    2.56
  -3  -3 -11    2.10    2.18
   3   3  11    5.48    2.77
   3   3  11    2.15    1.79
  -4  -3 -11   -2.48    2.26
   4   3  11    5.50    2.87
   4   3  11    2.39    2.41
  -5  -3 -11   43.01    5.85
  -5  -3 -11   51.69    4.33
  -5  -3 -11   45.31    4.14
   5   3  11   50.49    5.40
   5   3  11   63.10    6.64
  -6  -3 -11    5.23    3.60
   6   3  11    1.78    3.23
   6   3  11    0.42    2.23
   8  -4 -11   21.47    2.78
   8  -4 -11   23.15    3.46
   8  -4 -11   30.89    3.65
  -8   4  11   19.07    5.19
  -8   4  11   15.74    4.50
   7  -4 -11   19.27    3.22
   7  -4 -11   17.38    2.60
   7  -4 -11   21.71    3.35
   7  -4 -11   21.12    3.55
  -7   4  11   21.40    4.91
  -7   4  11   10.09    3.64
   6  -4 -11    4.66    1.82
   6  -4 -11    6.37    2.10
   6  -4 -11    6.68    2.18
   6  -4 -11    7.41    2.27
  -6   4  11    4.04    1.67
  -6   4  11    3.95    2.93
  -6   4  11    8.57    3.18
   5  -4 -11   32.25    3.77
   5  -4 -11   27.42    3.14
   5  -4 -11   27.44    3.34
   5  -4 -11   29.63    3.39
  -5   4  11   30.96    3.36
  -5   4  11   28.40    4.58
  -5   4  11   24.79    3.94
   4  -4 -11   49.98    4.52
   4  -4 -11   43.42    4.09
   4  -4 -11   40.13    3.81
   4  -4 -11   44.76    4.15
  -4   4  11   35.67    3.77
  -4   4  11   50.89    5.21
   3  -4 -11    4.94    2.12
   3  -4 -11    6.26    2.30
   3  -4 -11    6.94    2.19
  -3   4  11    7.21    2.71
  -3   4  11    9.98    2.56
   2  -4 -11   25.78    3.91
   2  -4 -11   26.07    3.49
   2  -4 -11   26.96    3.65
   2  -4 -11   23.41    3.95
  -2   4  11   26.45    3.62
  -2   4  11   28.33    4.13
   1  -4 -11  104.34    7.00
   1  -4 -11   85.35    5.95
  -1   4  11   83.22    6.19
  -1   4  11   96.32    6.47
   0  -4 -11   16.98    3.74
   0  -4 -11   14.11    3.18
   0   4  11   13.40    3.03
   0   4  11   13.67    1.86
   0   4  11    8.08    2.76
   0   4  11   13.03    1.85
  -1  -4 -11    6.17    2.56
  -1  -4 -11    4.82    2.75
   1   4  11    2.74    1.59
   1   4  11    7.73    2.58
   1   4  11    8.25    1.98
   1   4  11    6.18    2.51
  -2  -4 -11   47.78    5.56
  -2  -4 -11   46.60    4.82
   2   4  11   51.31    5.70
   2   4  11   47.50    4.06
   2   4  11   47.99    4.37
   2   4  11   54.64    5.82
  -3  -4 -11    4.73    2.83
  -3  -4 -11    0.58    2.21
   3   4  11    0.50    2.58
   3   4  11    1.38    2.05
  -4  -4 -11    2.88    2.75
   4   4  11    1.00    2.35
   4   4  11    0.61    2.65
  -5  -4 -11   39.74    5.58
  -5  -4 -11   35.71    5.98
   5   4  11   29.22    5.96
   5   4  11   39.56    5.06
   8  -5 -11    5.89    2.43
   8  -5 -11   10.11    2.31
   8  -5 -11   12.12    2.78
  -8   5  11   12.81    4.67
  -8   5  11    7.83    3.36
   7  -5 -11    3.31    1.92
   7  -5 -11    3.69    2.29
   7  -5 -11    4.72    1.76
  -7   5  11    4.81    3.32
  -7   5  11    3.27    3.25
   6  -5 -11   30.74    3.57
   6  -5 -11   34.99    3.58
   6  -5 -11   35.05    4.16
   6  -5 -11   33.61    3.74
  -6   5  11   37.10    5.31
   5  -5 -11   22.86    3.67
   5  -5 -11   20.94    3.67
   5  -5 -11   18.61    3.00
   5  -5 -11   25.12    3.43
  -5   5  11   27.09    5.12
  -5   5  11   22.49    3.30
   4  -5 -11    3.41    2.09
   4  -5 -11    6.22    2.21
   4  -5 -11    4.79    2.22
  -4   5  11    2.86    2.55
  -4   5  11    5.46    2.17
   3  -5 -11   42.45    4.31
   3  -5 -11   41.97    4.85
   3  -5 -11   36.68    3.93
  -3   5  11   37.08    4.16
  -3   5  11   47.88    5.03
   2  -5 -11   21.59    3.82
  -2   5  11   19.15    3.91
  -2   5  11   24.28    4.10
   1  -5 -11   15.69    3.41
   1  -5 -11   10.13    3.17
  -1   5  11   12.02    3.36
  -1   5  11   14.86    3.35
   0  -5 -11   28.82    3.99
   0  -5 -11   18.57    4.25
   0   5  11   20.32    4.13
   0   5  11   23.74    3.66
  -1  -5 -11    5.58    2.62
  -1  -5 -11    4.81    2.82
   1   5  11    1.85    1.34
   1   5  11    6.68    3.17
   1   5  11    4.80    1.52
  -2  -5 -11   28.13    5.61
  -2  -5 -11   24.86    4.91
   2   5  11   19.18    3.15
   2   5  11   25.36    3.22
   2   5  11   23.01    4.70
  -3  -5 -11   24.40    5.22
  -3  -5 -11   26.33    4.62
   3   5  11   16.25    4.20
  -4  -5 -11    5.87    3.46
   4   5  11    1.92    2.78
   7  -6 -11    1.98    1.93
   7  -6 -11    4.98    2.37
   7  -6 -11    2.52    1.69
  -7   6  11   -0.31    2.46
   6  -6 -11   34.97    4.16
   6  -6 -11   34.38    5.79
   6  -6 -11   31.19    3.89
  -6   6  11   36.24    5.35
   5  -6 -11    0.74    1.61
   5  -6 -11   -0.23    1.80
   5  -6 -11    0.72    1.86
  -5   6  11    0.94    1.67
  -5   6  11    1.44    2.19
   4  -6 -11    0.44    1.79
   4  -6 -11   -0.63    1.52
  -4   6  11   -0.84    2.03
  -4   6  11    1.05    1.59
   3  -6 -11   52.57    4.78
  -3   6  11   58.04    5.79
  -3   6  11   53.90    4.81
   2  -6 -11    0.12    1.77
  -2   6  11    2.07    2.10
  -2   6  11    5.80    2.65
   1  -6 -11    1.75    2.02
  -1   6  11    1.54    1.88
  -1   6  11   -1.27    1.78
   0  -6 -11   33.50    5.44
   0  -6 -11   41.63    4.86
   0   6  11   38.29    4.95
  -1  -6 -11    3.83    2.79
  -1  -6 -11    2.77    2.48
   1   6  11    4.33    2.81
  -2  -6 -11   -2.26    2.33
  -2  -6 -11   -1.43    2.69
   2   6  11   -2.26    1.27
   2   6  11   -0.60    2.14
   2   6  11    1.52    1.42
  -3  -6 -11   27.07    5.92
  -3  -6 -11   26.84    5.09
   3   6  11   40.56    5.75
   3   6  11   30.20    4.00
   3   6  11   33.32    4.03
   5  -7 -11    2.41    2.03
   5  -7 -11    3.35    2.34
  -5   7  11    2.91    2.70
   4  -7 -11    4.78    2.49
  -4   7  11    4.09    2.26
  -4   7  11    7.33    3.26
   3  -7 -11   31.83    4.05
  -3   7  11   31.84    4.90
  -3   7  11   27.95    3.97
   2  -7 -11    3.52    2.01
  -2   7  11    1.55    2.24
  -2   7  11    3.79    2.70
   1  -7 -11    4.72    2.70
  -1   7  11    1.15    2.36
   0  -7 -11   51.11    5.57
   0   7  11   51.55    5.85
  -1  -7 -11    1.63    2.61
   1   7  11   -0.20    2.53
   3   9 -12    9.32    3.38
   3   9 -12    8.13    2.13
   3   9 -12    9.26    2.14
  -3  -9  12   16.19    4.02
   2   9 -12   42.09    5.28
  -2  -9  12   45.95    5.14
   1   9 -12   14.50    4.07
  -1  -9  12   13.16    3.58
   0   9 -12   16.57    4.19
   0  -9  12    6.16    2.86
  -1   9 -12   26.76    5.07
   1  -9  12   37.55    4.92
  -2   9 -12    5.29    2.95
   2  -9  12    9.84    3.34
   5   8 -12   57.84    6.58
   4   8 -12    3.82    2.65
  -4  -8  12    5.80    2.78
   3   8 -12   -0.89    1.30
   3   8 -12    2.07    2.19
  -3  -8  12    0.76    2.13
   2   8 -12   69.80    6.19
   2   8 -12   67.05    3.83
   2   8 -12   60.48    3.98
  -2  -8  12   67.07    5.72
   1   8 -12    1.55    2.12
  -1  -8  12    0.91    2.52
   0   8 -12    2.56    2.05
   0  -8  12    2.93    2.34
  -1   8 -12   60.00    6.03
   1  -8  12   71.56    5.94
  -2   8 -12    3.44    2.62
   2  -8  12    1.97    2.18
  -3   8 -12    1.67    2.50
   3  -8  12    3.41    2.22
   6   7 -12   10.43    3.55
  -6  -7  12   10.28    3.16
   5   7 -12   43.63    5.50
   4   7 -12    4.08    2.28
  -4  -7  12    4.29    2.38
   3   7 -12    6.49    2.03
   3   7 -12    4.66    2.55
  -3  -7  12    8.25    2.74
   2   7 -12   77.62    4.81
   2   7 -12   76.89    6.19
  -2  -7  12   74.77    5.83
   1   7 -12    5.95    1.52
   1   7 -12    1.39    2.01
  -1  -7  12    3.94    2.12
   0   7 -12    3.03    2.05
   0  -7  12    9.61    2.82
  -1   7 -12   72.62    6.26
   1  -7  12   76.02    6.00
   1  -7  12   95.72    7.27
  -2   7 -12   12.04    3.34
   2  -7  12    8.54    2.87
  -3   7 -12    0.40    1.89
   3  -7  12    0.80    1.69
  -4   7 -12   50.19    5.36
   4  -7  12   45.66    5.04
   7   6 -12   25.17    5.79
  -7  -6  12   21.89    2.69
  -7  -6  12   21.15    2.66
   6   6 -12    8.99    3.43
  -6  -6  12   18.45    3.30
  -6  -6  12    9.21    3.67
  -6  -6  12   14.43    2.95
   5   6 -12   15.37    3.73
  -5  -6  12   16.94    3.22
   4   6 -12   34.76    4.54
  -4  -6  12   40.61    4.34
   3   6 -12   18.50    3.84
  -3  -6  12   20.49    3.61
   2   6 -12   40.80    3.64
   2   6 -12   39.40    4.59
   2   6 -12   43.70    3.50
  -2  -6  12   41.44    4.31
   1   6 -12   53.96    3.52
   1   6 -12   49.76    5.00
   1   6 -12   47.20    3.60
  -1  -6  12   53.05    4.68
   0   6 -12   13.03    1.68
   0   6 -12   14.69    3.63
   0   6 -12   14.87    2.82
   0  -6  12   15.23    3.35
  -1   6 -12   43.00    4.78
  -1   6 -12   51.60    4.58
   1  -6  12   38.98    4.28
   1  -6  12   38.77    5.18
  -2   6 -12   32.32    4.39
  -2   6 -12   29.54    4.03
   2  -6  12   45.88    6.17
   2  -6  12   35.72    4.24
  -3   6 -12    5.43    2.44
   3  -6  12    1.70    2.00
  -4   6 -12   60.54    5.69
   4  -6  12   56.17    5.29
  -5   6 -12   14.14    3.61
   5  -6  12   15.29    3.42
  -8  -5  12   -0.01    3.13
   7   5 -12   59.46    6.18
  -7  -5  12   48.85    8.29
   6   5 -12   -0.10    2.04
  -6  -5  12    1.08    2.06
  -6  -5  12   -0.88    1.35
  -6  -5  12    0.03    1.45
   5   5 -12   -0.63    1.61
  -5  -5  12    0.03    1.56
  -5  -5  12   -1.09    1.57
   4   5 -12  103.51    7.02
  -4  -5  12   94.53    6.00
  -4  -5  12  109.08    6.12
  -4  -5  12  107.64    6.81
   3   5 -12   10.96    2.92
  -3  -5  12   12.47    2.75
   2   5 -12    4.79    1.77
   2   5 -12    4.48    1.73
   2   5 -12    3.15    1.99
  -2  -5  12    6.57    2.34
   1   5 -12  128.14    6.43
   1   5 -12  141.32    7.97
   1   5 -12  127.47    6.22
   1   5 -12  122.95    6.07
  -1  -5  12  130.40    7.29
   0   5 -12    5.41    1.48
   0   5 -12    8.03    2.16
   0   5 -12    7.98    2.73
   0   5 -12    8.46    2.83
   0   5 -12    4.16    1.41
   0  -5  12    5.64    2.17
   0  -5  12    7.58    2.91
  -1   5 -12   19.54    3.53
  -1   5 -12   17.92    3.21
  -1   5 -12   15.80    3.52
   1  -5  12   20.10    3.96
   1  -5  12   14.26    3.02
  -2   5 -12   85.90    6.44
  -2   5 -12   96.51    6.50
   2  -5  12   97.14    7.15
   2  -5  12   92.04    6.28
  -3   5 -12    7.23    2.65
   3  -5  12    8.52    2.50
  -4   5 -12   11.53    3.30
   4  -5  12   17.45    3.52
  -5   5 -12   55.15    5.60
   5  -5  12   54.48    4.89
  -6   5 -12    2.15    2.49
   6  -5  12    4.43    2.57
  -8  -4  12    5.88    4.18
   7   4 -12   41.56    4.91
  -7  -4  12   47.79    6.31
  -7  -4  12   38.27    5.11
   6   4 -12    1.35    1.93
  -6  -4  12    8.34    3.06
  -6  -4  12    3.33    1.10
  -6  -4  12    3.28    1.09
   5   4 -12   11.96    3.20
  -5  -4  12    6.01    1.83
  -5  -4  12    9.36    2.18
   4   4 -12  168.11    8.73
  -4  -4  12  148.91    7.15
  -4  -4  12  157.38    7.50
  -4  -4  12  150.02    7.31
   3   4 -12   11.95    3.00
   3   4 -12    4.78    1.99
   3   4 -12    5.90    2.45
  -3  -4  12    7.95    2.06
  -3  -4  12    4.59    1.87
  -3  -4  12    2.93    1.66
   2   4 -12    2.01    1.53
   2   4 -12    4.56    1.72
   2   4 -12    5.23    2.19
   2   4 -12    2.46    1.34
  -2  -4  12    5.36    2.07
  -2  -4  12    3.77    1.78
   1   4 -12  157.78    7.48
   1   4 -12  162.13    8.68
   1   4 -12  153.23    7.43
   1   4 -12  154.15    7.08
   1   4 -12  158.99    7.17
   1   4 -12  164.18    8.68
  -1  -4  12  134.60    7.58
  -1  -4  12  162.31    8.74
   0   4 -12    2.74    1.23
   0   4 -12    0.30    1.65
   0   4 -12    4.25    1.40
   0   4 -12    3.45    1.86
   0   4 -12    2.52    1.65
   0   4 -12    5.32    1.90
   0  -4  12    3.35    2.19
   0  -4  12    2.07    1.72
  -1   4 -12    0.39    1.78
  -1   4 -12    0.85    1.40
  -1   4 -12    2.10    1.64
  -1   4 -12    0.98    0.97
  -1   4 -12    1.74    1.08
   1  -4  12    1.75    2.07
   1  -4  12    0.63    1.58
  -2   4 -12  154.57    8.64
  -2   4 -12  155.74    8.79
   2  -4  12  132.37    7.80
   2  -4  12  175.54    9.23
  -3   4 -12    0.10    1.95
  -3   4 -12    2.40    1.95
   3  -4  12    1.46    1.69
   3  -4  12    4.34    2.44
  -4   4 -12    0.33    1.89
   4  -4  12    2.17    2.08
  -5   4 -12   60.28    5.94
   5  -4  12   67.86    5.51
  -6   4 -12    0.10    2.06
   6  -4  12    0.63    2.05
  -9  -3  12   15.66    5.61
  -8  -3  12   11.28    4.43
  -8  -3  12   19.17    4.33
  -7  -3  12   35.57    5.51
  -7  -3  12   34.30    4.70
   6   3 -12   45.79    4.30
   6   3 -12   40.78    4.52
  -6  -3  12   42.93    5.05
  -6  -3  12   41.81    5.39
   5   3 -12   36.66    3.89
   5   3 -12   34.71    3.96
  -5  -3  12   35.02    2.56
  -5  -3  12   28.69    2.43
   4   3 -12   76.95    5.29
   4   3 -12   77.09    5.67
  -4  -3  12   71.26    4.48
  -4  -3  12   73.36    4.41
  -4  -3  12   86.40    4.97
   3   3 -12   68.28    5.01
   3   3 -12   80.44    5.72
  -3  -3  12   75.02    4.68
  -3  -3  12   73.40    4.76
  -3  -3  12   78.35    4.81
   2   3 -12   15.19    2.78
   2   3 -12   16.64    2.95
   2   3 -12   14.16    3.25
  -2  -3  12   11.85    2.40
  -2  -3  12   16.95    2.68
  -2  -3  12   17.42    2.95
  -2  -3  12   16.32    3.56
   1   3 -12  108.52    6.86
   1   3 -12  111.42    5.81
   1   3 -12  103.17    5.63
   1   3 -12  106.72    6.04
  -1  -3  12  109.51    6.09
  -1  -3  12  106.62    6.18
  -1  -3  12  117.46    7.11
   0   3 -12   82.23    4.64
   0   3 -12   70.73    5.76
   0   3 -12   80.43    4.61
   0   3 -12   71.80    5.23
   0   3 -12   85.94    5.16
   0  -3  12   76.45    5.25
   0  -3  12   81.67    6.17
  -1   3 -12   15.26    3.23
  -1   3 -12   12.39    2.45
  -1   3 -12   11.39    3.04
  -1   3 -12   13.23    2.19
  -1   3 -12   13.68    2.11
   1  -3  12   15.38    3.04
   1  -3  12   12.47    3.12
  -2   3 -12   85.56    6.34
  -2   3 -12   91.81    6.47
  -2   3 -12   84.36    4.03
  -2   3 -12   88.60    3.99
   2  -3  12   90.07    5.83
   2  -3  12   84.64    6.33
  -3   3 -12   31.17    4.25
  -3   3 -12   31.28    4.25
   3  -3  12   33.37    3.80
   3  -3  12   26.48    4.27
  -4   3 -12    5.16    2.51
   4  -3  12    3.79    2.60
   4  -3  12    1.01    1.93
  -5   3 -12   56.90    5.72
   5  -3  12   53.95    5.05
  -6   3 -12    5.91    2.79
   6  -3  12    4.75    2.65
  -9  -2  12   43.59    6.89
  -9  -2  12   52.65    5.59
  -8  -2  12    4.96    3.66
  -8  -2  12    9.45    3.57
   7   2 -12    3.67    2.12
  -7  -2  12    1.28    2.82
  -7  -2  12    4.96    2.96
   6   2 -12  120.46    7.27
   6   2 -12  113.34    6.75
  -6  -2  12  112.63    7.82
  -6  -2  12  137.32    8.59
   5   2 -12   10.77    2.71
   5   2 -12   14.18    3.24
  -5  -2  12   11.18    3.39
  -5  -2  12   10.92    3.26
   4   2 -12    8.63    2.40
   4   2 -12    7.10    2.34
  -4  -2  12    8.04    2.78
  -4  -2  12    6.65    1.66
  -4  -2  12    5.37    1.50
   3   2 -12  136.46    7.09
   3   2 -12  141.91    7.68
  -3  -2  12  127.16    6.39
  -3  -2  12  129.78    6.97
  -3  -2  12  131.90    6.20
  -3  -2  12  144.93    6.36
  -3  -2  12  138.95    7.75
   2   2 -12    7.24    2.35
   2   2 -12    8.18    2.18
  -2  -2  12    7.87    1.94
  -2  -2  12    9.74    2.71
  -2  -2  12    6.84    1.89
  -2  -2  12    5.96    1.97
   1   2 -12   28.51    3.61
   1   2 -12   22.74    2.95
   1   2 -12   28.34    3.09
   1   2 -12   22.00    2.72
  -1  -2  12   21.45    3.39
  -1  -2  12   28.71    3.19
  -1  -2  12   19.92    2.81
  -1  -2  12   26.00    2.87
   0   2 -12  160.64    8.56
   0   2 -12  155.05    7.53
   0   2 -12  164.71    7.38
   0   2 -12  153.72    7.13
   0  -2  12  152.56    7.77
   0  -2  12  161.03    8.77
   0  -2  12  163.44    8.02
  -1   2 -12    8.34    2.68
  -1   2 -12    8.47    2.61
  -1   2 -12   12.07    2.34
  -1   2 -12    9.01    1.96
  -1   2 -12    8.12    1.93
   1  -2  12    9.43    2.39
   1  -2  12   10.79    2.97
  -2   2 -12   39.50    3.15
  -2   2 -12   48.13    3.19
  -2   2 -12   43.30    4.61
  -2   2 -12   40.54    4.55
  -2   2 -12   37.14    3.57
   2  -2  12   35.52    3.68
   2  -2  12   42.53    4.65
  -3   2 -12   85.26    3.68
  -3   2 -12   81.73    6.76
  -3   2 -12   94.89    6.86
   3  -2  12  107.14    7.13
   3  -2  12   89.94    5.97
  -4   2 -12    2.03    2.08
   4  -2  12    6.53    2.63
   4  -2  12    1.90    2.37
  -5   2 -12   13.53    3.56
   5  -2  12   15.12    3.28
  -6   2 -12   28.69    4.78
   6  -2  12   33.37    4.55
  -9  -1  12   58.16    7.36
  -9  -1  12   48.43    5.85
  -9  -1  12   37.43    4.90
   8   1 -12    2.15    2.04
  -8  -1  12    0.45    2.24
  -8  -1  12    1.63    3.05
  -8  -1  12    4.63    2.61
   7   1 -12    7.52    2.41
  -7  -1  12    6.42    3.02
  -7  -1  12    3.14    2.19
  -7  -1  12    4.06    2.95
   6   1 -12   96.74    5.95
  -6  -1  12   89.56    6.28
  -6  -1  12   98.65    7.42
  -6  -1  12  102.97    7.51
   5   1 -12    5.65    2.09
   5   1 -12    7.98    2.95
   5   1 -12    4.54    1.92
   5   1 -12    3.70    1.85
  -5  -1  12    5.39    2.28
  -5  -1  12    6.17    2.90
  -5  -1  12    8.31    2.93
   4   1 -12    0.81    1.56
   4   1 -12    1.54    1.54
   4   1 -12    2.00    1.52
  -4  -1  12    0.29    1.68
  -4  -1  12    0.20    1.53
   3   1 -12  192.75    8.87
   3   1 -12  183.22    9.15
   3   1 -12  179.68    8.58
  -3  -1  12  200.08    9.63
  -3  -1  12  173.21    7.64
  -3  -1  12  195.34    8.43
  -3  -1  12  193.43    7.33
  -3  -1  12  181.92    7.34
   2   1 -12   -0.80    1.28
   2   1 -12    0.47    1.43
   2   1 -12   -1.10    1.30
  -2  -1  12    0.58    1.13
  -2  -1  12   -1.30    1.01
  -2  -1  12   -0.95    1.10
  -2  -1  12   -0.12    1.11
  -2  -1  12    0.55    1.58
   1   1 -12    2.05    1.29
   1   1 -12    1.13    1.41
   1   1 -12    1.10    1.70
  -1  -1  12    0.08    1.20
  -1  -1  12    1.10    1.23
  -1  -1  12    0.52    1.80
  -1  -1  12   -0.36    1.21
   0   1 -12  180.18    7.84
   0   1 -12  166.09    7.50
   0   1 -12  165.34    7.95
   0   1 -12  170.00    8.99
   0  -1  12  163.20    7.55
   0  -1  12  157.12    7.83
   0  -1  12  170.72    7.79
   0  -1  12  170.43    8.91
  -1   1 -12    2.21    1.88
  -1   1 -12    0.61    1.37
  -1   1 -12    1.51    1.19
  -1   1 -12    1.67    1.39
   1  -1  12    4.05    1.99
   1  -1  12    1.61    1.56
  -2   1 -12    2.97    1.89
  -2   1 -12    4.54    2.39
  -2   1 -12    1.95    1.43
  -2   1 -12    1.67    1.25
   2  -1  12    2.14    1.68
   2  -1  12    2.66    2.18
  -3   1 -12   71.90    4.09
  -3   1 -12   79.50    6.63
  -3   1 -12   85.29    6.50
   3  -1  12   71.96    5.42
   3  -1  12   82.09    6.43
  -4   1 -12   -0.33    1.94
   4  -1  12    1.38    1.87
   4  -1  12    0.67    1.81
  -5   1 -12    4.33    2.56
   5  -1  12    1.94    2.21
   5  -1  12    4.28    2.91
  -6   1 -12   43.95    5.76
   6  -1  12   53.84    5.49
   9   0 -12   18.72    3.48
  -9   0  12   21.95    5.72
  -9   0  12   17.61    3.52
  -9   0  12   28.41    4.66
   8   0 -12   22.95    3.56
  -8   0  12   37.21    5.55
  -8   0  12   21.18    4.58
  -8   0  12   25.14    3.91
   7   0 -12    5.99    2.19
   7   0 -12    5.72    1.91
   7   0 -12    4.30    2.15
  -7   0  12    9.71    3.36
  -7   0  12    5.13    2.38
  -7   0  12   13.27    4.06
   6   0 -12   60.37    4.74
   6   0 -12   63.13    4.71
   6   0 -12   62.80    4.62
  -6   0  12   63.35    6.02
  -6   0  12   71.42    6.04
  -6   0  12   62.13    5.27
   5   0 -12   38.62    3.61
   5   0 -12   30.86    3.48
   5   0 -12   34.31    3.95
   5   0 -12   39.89    3.71
  -5   0  12   29.65    3.88
  -5   0  12   35.56    4.02
  -5   0  12   46.20    5.02
   4   0 -12   13.08    2.78
   4   0 -12   19.25    2.98
   4   0 -12   18.31    2.72
   4   0 -12   18.86    3.18
  -4   0  12   17.74    4.14
  -4   0  12   19.45    3.18
  -4   0  12   17.05    2.88
   3   0 -12  121.97    6.58
   3   0 -12  127.78    6.97
   3   0 -12  120.06    6.72
   3   0 -12  117.84    7.08
  -3   0  12  127.13    4.66
  -3   0  12  119.67    7.25
  -3   0  12  122.21    4.67
  -3   0  12  127.80    6.29
   2   0 -12   61.30    4.69
   2   0 -12   62.63    4.56
   2   0 -12   52.17    4.73
  -2   0  12   54.89    4.88
  -2   0  12   61.87    3.70
  -2   0  12   58.66    3.64
  -2   0  12   56.86    3.34
  -2   0  12   54.77    3.88
   1   0 -12    2.50    1.77
   1   0 -12    1.35    1.59
  -1   0  12    2.59    1.39
  -1   0  12    3.82    2.17
  -1   0  12    0.38    1.21
  -1   0  12    0.90    1.25
   0   0 -12  106.57    6.70
   0   0 -12   99.20    5.87
   0   0 -12  113.28    7.06
   0   0  12   94.43    5.67
   0   0  12  101.02    6.75
   0   0  12   91.18    5.61
   0   0  12  104.72    5.55
  -1   0 -12    7.25    2.17
  -1   0 -12    9.53    2.01
  -1   0 -12    9.09    2.64
  -1   0 -12   16.00    3.02
   1   0  12   12.46    3.25
   1   0  12   13.77    3.05
   1   0  12   12.84    2.64
  -2   0 -12    2.76    1.82
  -2   0 -12    0.47    1.34
  -2   0 -12    4.34    1.60
  -2   0 -12    5.15    2.11
   2   0  12    2.77    2.24
   2   0  12    4.57    2.12
  -3   0 -12  109.33    8.45
  -3   0 -12   99.22    7.32
  -3   0 -12   93.00    5.18
   3   0  12   91.62    6.17
   3   0  12  102.25    7.31
  -4   0 -12    6.22    1.56
  -4   0 -12    3.11    2.20
  -4   0 -12    2.61    1.27
   4   0  12    6.06    2.51
   4   0  12    3.00    2.24
  -5   0 -12    1.25    2.19
   5   0  12    5.31    3.03
   5   0  12    8.95    3.05
  -6   0 -12   40.40    5.62
   6   0  12   53.91    5.66
   9  -1 -12    1.33    1.96
   9  -1 -12    0.75    1.68
  -9   1  12    1.37    2.51
  -9   1  12    4.00    3.44
   8  -1 -12   42.61    4.03
   8  -1 -12   45.84    4.28
   8  -1 -12   43.65    4.36
  -8   1  12   44.20    5.49
  -8   1  12   47.53    5.94
  -8   1  12   48.04    4.40
   7  -1 -12    3.44    2.02
   7  -1 -12    5.95    1.99
   7  -1 -12    5.83    2.10
  -7   1  12    3.93    2.21
  -7   1  12    1.10    2.39
  -7   1  12    1.55    2.28
   6  -1 -12   16.66    3.12
   6  -1 -12   17.36    2.74
   6  -1 -12   13.79    2.64
  -6   1  12   17.25    4.25
  -6   1  12   13.61    2.95
  -6   1  12   23.62    3.85
   5  -1 -12   94.46    5.95
   5  -1 -12  108.40    5.97
   5  -1 -12   94.47    5.78
  -5   1  12  103.71    6.33
  -5   1  12   99.52    7.44
  -5   1  12  100.86    6.52
   4  -1 -12    8.80    2.76
   4  -1 -12    9.51    2.36
   4  -1 -12   12.23    2.64
   4  -1 -12    6.73    2.30
  -4   1  12   11.08    2.72
  -4   1  12    7.50    2.55
  -4   1  12    5.64    2.55
   3  -1 -12   43.34    4.22
   3  -1 -12   27.29    3.41
   3  -1 -12   32.84    3.51
   3  -1 -12   33.07    3.64
  -3   1  12   34.48    4.44
  -3   1  12   32.47    3.03
  -3   1  12   33.61    3.96
   2  -1 -12   94.54    5.90
   2  -1 -12  109.97    6.76
   2  -1 -12  111.32    6.52
  -2   1  12  100.39    4.46
  -2   1  12  101.32    4.49
  -2   1  12  108.36    6.74
   1  -1 -12   13.20    2.91
   1  -1 -12    7.80    2.51
  -1   1  12   14.59    2.24
  -1   1  12   12.98    2.10
  -1   1  12   15.42    3.47
  -1   1  12   13.83    2.51
   0  -1 -12   61.31    5.42
   0  -1 -12   66.04    4.96
   0   1  12   67.28    4.39
   0   1  12   63.03    4.23
   0   1  12   56.83    4.34
   0   1  12   68.20    5.52
  -1  -1 -12  128.02    7.95
  -1  -1 -12  123.45    6.97
   1   1  12  110.14    6.40
   1   1  12  138.35    9.26
   1   1  12  121.49    6.52
   1   1  12  133.79    8.11
  -2  -1 -12   14.87    3.30
  -2  -1 -12   16.60    3.71
  -2  -1 -12   19.29    2.94
   2   1  12   11.56    2.77
   2   1  12   14.34    3.66
  -3  -1 -12   29.97    3.44
  -3  -1 -12   32.32    4.03
   3   1  12   29.20    3.85
   3   1  12   26.15    4.33
  -4  -1 -12   49.72    3.82
  -4  -1 -12   45.09    5.59
   4   1  12   55.20    5.04
   4   1  12   56.07    5.95
  -5  -1 -12    7.66    1.45
  -5  -1 -12   10.44    1.63
  -5  -1 -12   11.15    4.01
   5   1  12    8.20    3.09
   5   1  12    4.86    3.32
  -6  -1 -12    9.85    3.87
   6   1  12    7.47    3.14
   9  -2 -12    0.48    1.98
   9  -2 -12    0.60    1.60
  -9   2  12    1.81    2.73
  -9   2  12    2.80    2.98
   8  -2 -12   65.42    4.87
   8  -2 -12   53.70    4.37
   8  -2 -12   43.24    5.56
   8  -2 -12   54.05    4.72
  -8   2  12   57.65    6.28
  -8   2  12   63.42    6.60
   7  -2 -12    0.85    1.49
   7  -2 -12    1.67    2.45
   7  -2 -12    0.15    1.19
   7  -2 -12    1.46    1.72
  -7   2  12   -1.63    1.59
  -7   2  12    0.57    1.62
  -7   2  12   -0.37    2.00
   6  -2 -12    0.09    1.56
   6  -2 -12    0.45    1.16
   6  -2 -12    3.61    1.82
   6  -2 -12    1.15    1.82
  -6   2  12    0.57    2.14
  -6   2  12    2.09    1.77
  -6   2  12    3.61    2.33
   5  -2 -12  141.13    7.98
   5  -2 -12  145.64    7.34
   5  -2 -12  136.09    7.42
   5  -2 -12  149.34    7.46
  -5   2  12  142.06    7.56
  -5   2  12  150.80    9.36
  -5   2  12  147.95    8.21
   4  -2 -12   -0.09    1.13
   4  -2 -12   -0.61    2.51
   4  -2 -12   -0.47    1.45
   4  -2 -12    0.18    1.47
  -4   2  12   -2.13    1.40
  -4   2  12   -1.78    1.28
  -4   2  12    1.30    1.42
   3  -2 -12    0.86    1.43
   3  -2 -12   -0.58    1.34
   3  -2 -12    1.40    1.93
   3  -2 -12    0.36    1.52
  -3   2  12    0.28    1.31
  -3   2  12    2.98    2.20
  -3   2  12   -0.06    1.47
   2  -2 -12  193.94    9.43
   2  -2 -12  179.18    8.67
   2  -2 -12  236.88   14.11
  -2   2  12  163.29    9.04
  -2   2  12  163.79    9.51
   1  -2 -12    0.74    1.58
   1  -2 -12   -0.48    1.68
  -1   2  12   -0.39    1.37
  -1   2  12    1.03    0.95
  -1   2  12   -0.47    1.45
  -1   2  12    1.54    1.16
   0  -2 -12    0.06    1.74
   0  -2 -12   -1.05    1.48
   0   2  12    0.21    1.79
   0   2  12    0.85    1.30
   0   2  12   -0.39    1.17
   0   2  12    0.49    1.30
  -1  -2 -12  133.13    7.58
  -1  -2 -12  165.15    9.16
   1   2  12  117.01    6.41
   1   2  12  144.01    7.22
  -2  -2 -12    0.48    1.75
  -2  -2 -12   -0.41    1.92
   2   2  12    0.47    1.51
   2   2  12    0.14    1.98
  -3  -2 -12    5.62    3.29
  -3  -2 -12    3.69    2.50
   3   2  12   -1.05    1.61
   3   2  12    3.89    2.64
  -4  -2 -12   65.37    4.82
  -4  -2 -12   54.77    6.41
   4   2  12   76.17    6.74
   4   2  12   76.70    5.96
  -5  -2 -12    2.08    1.59
  -5  -2 -12    1.88    1.58
  -5  -2 -12   -2.65    2.03
   5   2  12    0.58    2.70
   5   2  12   -2.81    2.07
   8  -3 -12   37.92    3.81
   8  -3 -12   41.25    4.34
   8  -3 -12   50.29    4.92
  -8   3  12   51.99    6.13
  -8   3  12   62.18    6.79
   7  -3 -12   26.51    3.58
   7  -3 -12   27.98    3.65
   7  -3 -12   29.18    3.95
   7  -3 -12   23.45    3.12
  -7   3  12   28.73    3.18
  -7   3  12   24.42    5.00
  -7   3  12   26.89    5.32
   6  -3 -12   16.00    2.71
   6  -3 -12   19.55    3.36
   6  -3 -12   16.12    3.21
   6  -3 -12   14.15    2.91
  -6   3  12   17.59    4.22
  -6   3  12   17.91    3.11
  -6   3  12   19.33    4.38
   5  -3 -12   66.50    4.86
   5  -3 -12   65.58    4.89
   5  -3 -12   75.04    6.51
   5  -3 -12   66.44    5.18
  -5   3  12   58.16    4.74
  -5   3  12   71.61    6.47
  -5   3  12   68.16    5.63
   4  -3 -12   24.59    3.91
   4  -3 -12   24.44    3.18
   4  -3 -12   21.33    3.50
  -4   3  12   22.02    4.65
  -4   3  12   21.62    3.22
  -4   3  12   20.01    3.34
   3  -3 -12   11.35    3.13
   3  -3 -12    8.65    2.49
   3  -3 -12   11.84    2.90
   3  -3 -12    8.85    2.47
  -3   3  12    7.83    2.59
  -3   3  12    4.26    2.47
   2  -3 -12   96.90    6.24
   2  -3 -12  100.68    6.85
  -2   3  12  103.68    6.82
  -2   3  12   99.48    7.12
   1  -3 -12   22.82    3.45
   1  -3 -12   15.13    3.49
  -1   3  12   14.21    3.33
  -1   3  12   13.82    1.38
  -1   3  12   15.74    1.46
  -1   3  12   10.54    2.91
   0  -3 -12    9.40    3.08
   0  -3 -12    6.65    2.56
   0   3  12    5.27    1.69
   0   3  12    4.97    2.53
   0   3  12    3.83    1.37
   0   3  12    5.48    2.58
  -1  -3 -12   79.26    5.89
  -1  -3 -12   72.09    6.38
   1   3  12   71.12    4.60
   1   3  12   77.17    6.40
   1   3  12   78.76    5.07
   1   3  12   72.49    5.69
   1   3  12   74.23    5.23
  -2  -3 -12    6.47    2.70
  -2  -3 -12    4.02    2.64
   2   3  12    4.75    2.60
   2   3  12    3.90    2.24
   2   3  12    8.80    2.67
  -3  -3 -12   -2.08    2.01
  -3  -3 -12    4.16    2.63
   3   3  12    0.31    1.71
   3   3  12   -0.79    2.07
  -4  -3 -12   26.87    5.33
   4   3  12   52.32    6.38
   4   3  12   47.53    5.05
  -5  -3 -12    2.76    1.93
  -5  -3 -12    4.20    2.97
  -5  -3 -12    1.02    1.95
   5   3  12    3.76    3.35
   5   3  12    0.44    2.62
   8  -4 -12    5.90    2.26
   8  -4 -12    6.02    2.01
  -8   4  12    7.48    4.02
  -8   4  12    6.63    3.31
   7  -4 -12   48.30    4.44
   7  -4 -12   45.01    5.25
   7  -4 -12   49.67    4.26
   7  -4 -12   62.85    5.07
  -7   4  12   53.35    6.34
  -7   4  12   44.72    6.03
   6  -4 -12    5.70    2.41
   6  -4 -12    4.17    2.16
   6  -4 -12    6.09    3.48
   6  -4 -12    3.24    1.72
  -6   4  12    3.45    2.79
  -6   4  12    2.92    2.55
  -6   4  12    4.46    1.90
   5  -4 -12   27.81    3.53
   5  -4 -12   28.73    3.57
   5  -4 -12   25.72    3.83
  -5   4  12   27.05    3.42
  -5   4  12   30.40    4.70
  -5   4  12   29.86    4.17
   4  -4 -12   52.47    4.59
   4  -4 -12   55.50    5.03
   4  -4 -12   58.38    4.88
  -4   4  12   55.94    4.73
  -4   4  12   53.37    5.77
   3  -4 -12    6.63    2.29
  -3   4  12   11.13    3.37
  -3   4  12    8.38    2.61
   2  -4 -12   27.69    4.25
   2  -4 -12   28.00    3.75
  -2   4  12   17.98    3.95
  -2   4  12   28.16    3.98
   1  -4 -12   52.08    5.37
   1  -4 -12   51.74    4.72
  -1   4  12   37.68    4.55
  -1   4  12   38.31    4.66
   0  -4 -12   10.16    2.99
   0  -4 -12    6.23    2.73
   0   4  12    5.34    2.55
   0   4  12    4.18    2.25
   0   4  12    3.97    1.18
   0   4  12    3.09    1.15
  -1  -4 -12   28.85    4.30
  -1  -4 -12   35.88    5.22
   1   4  12   41.74    5.09
   1   4  12   30.05    3.40
   1   4  12   38.75    4.47
   1   4  12   30.03    3.18
  -2  -4 -12   19.84    4.92
  -2  -4 -12   29.51    4.37
   2   4  12   20.31    4.36
   2   4  12   23.19    3.49
  -3  -4 -12    4.81    2.62
  -3  -4 -12    6.53    3.37
   3   4  12    3.63    2.96
  -4  -4 -12   13.52    4.29
   4   4  12   13.93    5.31
   4   4  12   17.15    4.93
   7  -5 -12   33.76    3.80
   7  -5 -12   39.84    4.22
  -7   5  12   40.73    5.86
  -7   5  12   44.65    6.10
   6  -5 -12   -0.54    1.97
   6  -5 -12    0.23    1.91
   6  -5 -12   -0.52    1.30
  -6   5  12   -0.17    2.20
   5  -5 -12    4.85    2.24
   5  -5 -12    1.37    1.83
   5  -5 -12    0.44    1.99
  -5   5  12    0.59    1.90
  -5   5  12    0.46    2.25
   4  -5 -12   74.88    5.57
   4  -5 -12   72.78    6.51
  -4   5  12   77.97    5.65
  -4   5  12   88.36    7.37
   3  -5 -12   -0.77    1.72
  -3   5  12    2.84    2.02
  -3   5  12   -0.12    2.02
   2  -5 -12    2.98    2.33
  -2   5  12    4.48    2.47
  -2   5  12    3.21    2.22
   1  -5 -12   75.53    6.08
  -1   5  12   68.28    6.19
  -1   5  12   84.60    6.51
   0  -5 -12    1.35    2.30
   0  -5 -12   -3.14    1.74
   0   5  12    1.53    2.44
   0   5  12    2.26    2.09
  -1  -5 -12    1.60    2.30
  -1  -5 -12   -0.43    2.23
   1   5  12   -0.54    1.15
   1   5  12    0.81    1.16
   1   5  12   -0.16    2.26
  -2  -5 -12   33.61    4.83
  -2  -5 -12   48.90    6.34
   2   5  12   35.53    3.83
   2   5  12   33.60    5.46
   2   5  12   39.67    3.67
  -3  -5 -12    0.06    2.55
  -3  -5 -12    1.38    2.61
   3   5  12   -0.36    2.30
   6  -6 -12    6.35    2.35
   6  -6 -12    4.16    2.24
  -6   6  12    4.57    3.27
   5  -6 -12    3.19    3.22
   5  -6 -12    7.00    2.57
  -5   6  12    6.96    2.40
  -5   6  12    4.22    3.18
   4  -6 -12   46.20    4.81
  -4   6  12   43.94    5.72
  -4   6  12   49.44    4.56
   3  -6 -12   11.59    3.06
  -3   6  12    8.98    2.98
  -3   6  12   10.49    3.55
   2  -6 -12    0.84    2.02
  -2   6  12    5.71    2.72
  -2   6  12    0.94    2.15
   1  -6 -12   46.91    5.14
  -1   6  12   41.30    5.17
  -1   6  12   54.86    5.71
   0  -6 -12    1.39    2.57
   0   6  12    1.62    2.69
  -1  -6 -12    0.58    2.67
  -1  -6 -12    1.39    2.63
   1   6  12   -1.72    2.48
  -2  -6 -12   41.68    5.41
  -2  -6 -12   32.86    6.49
   2   6  12   18.13    4.32
   2   6  12   25.11    2.70
   4  -7 -12   14.02    3.46
  -4   7  12   17.93    4.66
  -4   7  12   17.23    3.65
   3  -7 -12   11.04    3.51
  -3   7  12   10.52    3.75
  -3   7  12    9.52    3.21
   2  -7 -12    4.12    2.75
  -2   7  12    6.42    3.26
  -2   7  12    2.58    2.56
   1  -7 -12   25.54    4.90
  -1   7  12   24.21    4.71
   0  -7 -12   19.87    4.34
   0   7  12    8.46    3.74
   2   9 -13    3.80    3.01
  -2  -9  13    3.66    2.90
   1   9 -13    0.34    2.50
  -1  -9  13    1.09    2.45
   0   9 -13   58.18    6.12
   0  -9  13   55.06    5.98
   4   8 -13    2.24    2.37
  -4  -8  13    1.55    2.63
   3   8 -13   56.38    4.60
   3   8 -13   62.93    6.24
  -3  -8  13   61.82    5.84
   2   8 -13    5.28    3.09
   2   8 -13    2.25    1.45
  -2  -8  13    1.04    2.21
   1   8 -13   -0.86    1.91
  -1  -8  13    2.10    2.32
   0   8 -13   48.30    5.60
   0  -8  13   54.09    5.59
  -1   8 -13   -0.06    2.38
   1  -8  13    0.36    2.42
  -2   8 -13    1.26    2.35
   2  -8  13    0.34    1.93
  -3   8 -13   42.81    5.45
   3  -8  13   45.40    5.20
   6   7 -13   26.92    5.63
  -6  -7  13   23.93    3.90
   5   7 -13   35.97    5.23
   4   7 -13    9.34    3.20
  -4  -7  13    7.72    2.88
   3   7 -13   35.36    4.63
   3   7 -13   25.37    3.46
  -3  -7  13   35.00    4.40
   2   7 -13   39.70    5.04
   2   7 -13   40.19    3.65
  -2  -7  13   42.73    4.75
   1   7 -13   15.07    3.81
   1   7 -13   11.58    1.93
  -1  -7  13   11.07    3.29
   0   7 -13   40.55    5.06
   0  -7  13   47.21    4.85
  -1   7 -13   23.76    4.72
   1  -7  13   15.87    3.56
  -2   7 -13   12.27    3.56
   2  -7  13    8.23    2.99
  -3   7 -13   27.80    4.50
   3  -7  13   28.87    4.33
  -4   7 -13   14.15    3.78
   4  -7  13    6.91    2.92
   7   6 -13    0.48    2.53
   6   6 -13    5.77    2.74
  -6  -6  13    4.67    2.26
  -6  -6  13    0.59    1.87
   5   6 -13   79.40    6.71
  -5  -6  13   72.30    5.25
   4   6 -13    2.63    2.15
  -4  -6  13    4.72    2.50
   3   6 -13    0.19    1.51
  -3  -6  13    3.25    2.28
   2   6 -13  107.61    7.48
   2   6 -13  110.19    5.90
   2   6 -13   99.17    5.91
  -2  -6  13  104.38    6.83
   1   6 -13    6.94    1.95
   1   6 -13   11.47    3.15
   1   6 -13   11.63    2.24
  -1  -6  13   10.41    2.86
   0   6 -13   10.31    1.64
   0   6 -13    7.50    3.12
   0  -6  13   12.44    3.70
   0  -6  13   11.53    3.25
  -1   6 -13   80.81    6.63
  -1   6 -13   88.55    6.10
   1  -6  13   85.85    6.82
   1  -6  13   80.18    6.14
  -2   6 -13    4.67    2.52
   2  -6  13    2.96    2.28
  -3   6 -13    6.22    2.85
   3  -6  13    1.41    1.90
  -4   6 -13   23.46    4.43
   4  -6  13   20.39    4.02
   7   5 -13    3.78    2.56
  -7  -5  13    9.35    3.54
   6   5 -13    3.53    2.37
  -6  -5  13    4.27    1.83
  -6  -5  13    3.37    2.62
  -6  -5  13    3.80    1.73
   5   5 -13   72.00    6.34
  -5  -5  13   77.36    4.98
  -5  -5  13   76.34    5.31
   4   5 -13    6.44    2.28
  -4  -5  13    6.28    2.51
  -4  -5  13    2.13    1.90
   3   5 -13    5.48    2.63
  -3  -5  13    2.82    2.08
   2   5 -13  119.20    6.47
   2   5 -13  124.19    7.90
  -2  -5  13  125.42    7.21
   1   5 -13   -0.01    1.26
   1   5 -13    1.97    1.55
   1   5 -13    1.37    1.76
   1   5 -13    2.45    1.56
  -1  -5  13    1.51    1.81
   0   5 -13    1.44    1.17
   0   5 -13    0.54    1.16
   0   5 -13    1.37    1.56
   0   5 -13    1.22    2.09
   0  -5  13    4.53    2.31
   0  -5  13    1.02    1.95
  -1   5 -13   86.27    3.46
  -1   5 -13   91.73    6.84
  -1   5 -13   90.77    6.24
   1  -5  13   87.69    6.24
   1  -5  13   93.09    7.17
  -2   5 -13    0.78    1.96
  -2   5 -13    0.71    2.04
   2  -5  13    4.37    2.69
   2  -5  13    1.32    1.82
  -3   5 -13    0.31    1.94
   3  -5  13   -1.14    1.47
  -4   5 -13   58.24    5.76
   4  -5  13   62.15    5.56
  -5   5 -13    6.69    3.02
   5  -5  13    6.68    2.72
  -8  -4  13   19.25    4.58
  -8  -4  13   28.28    6.40
  -7  -4  13   31.60    4.86
  -7  -4  13   24.79    5.93
   6   4 -13   15.89    4.10
  -6  -4  13   14.16    4.13
  -6  -4  13    9.88    3.44
   5   4 -13   51.03    5.00
  -5  -4  13   49.12    3.97
  -5  -4  13   50.47    3.74
   4   4 -13   52.35    4.47
   4   4 -13   36.60    4.43
  -4  -4  13   32.62    3.61
  -4  -4  13   31.61    3.72
  -4  -4  13   39.80    3.73
   3   4 -13   21.30    3.25
   3   4 -13   23.90    3.71
  -3  -4  13   23.10    3.23
  -3  -4  13   25.69    3.93
  -3  -4  13   23.89    4.04
   2   4 -13   82.33    5.17
   2   4 -13   86.39    6.33
   2   4 -13   95.39    5.82
  -2  -4  13   74.51    5.40
   1   4 -13   38.83    3.46
   1   4 -13   35.58    3.36
   1   4 -13   30.22    3.52
   1   4 -13   30.56    4.24
   1   4 -13   41.35    3.89
  -1  -4  13   31.82    3.77
  -1  -4  13   39.73    4.85
   0   4 -13   30.88    4.13
   0   4 -13   20.30    3.34
   0   4 -13   18.99    2.42
   0   4 -13   20.60    3.03
   0  -4  13   18.60    3.34
   0  -4  13   27.50    4.77
  -1   4 -13   69.71    5.86
  -1   4 -13   74.42    5.31
  -1   4 -13   66.70    5.50
  -1   4 -13   62.15    3.68
  -1   4 -13   66.27    3.84
   1  -4  13   64.69    5.31
   1  -4  13   68.15    6.18
  -2   4 -13   27.74    4.04
  -2   4 -13   15.51    3.58
   2  -4  13   17.13    3.51
   2  -4  13   21.09    4.25
  -3   4 -13   20.28    4.07
   3  -4  13   21.38    4.40
   3  -4  13   17.44    3.51
  -4   4 -13   42.58    5.13
   4  -4  13   45.96    4.83
  -5   4 -13    2.53    2.95
   5  -4  13    5.05    2.40
  -8  -3  13    8.08    3.62
  -8  -3  13   -2.06    2.85
  -7  -3  13  101.71    8.42
  -7  -3  13  101.17    7.85
   6   3 -13    2.19    2.06
   6   3 -13    5.22    2.76
  -6  -3  13    4.66    2.89
  -6  -3  13   12.72    3.87
   5   3 -13    8.03    2.87
   5   3 -13   13.82    3.33
  -5  -3  13   13.24    1.92
  -5  -3  13    9.54    1.76
  -5  -3  13    7.22    2.97
   4   3 -13  118.71    7.42
   4   3 -13  121.99    7.05
  -4  -3  13  121.82    5.97
  -4  -3  13  121.00    6.11
   3   3 -13   21.59    3.73
   3   3 -13   20.74    3.48
  -3  -3  13   16.52    3.17
  -3  -3  13   19.70    2.83
  -3  -3  13   17.32    2.94
  -3  -3  13   19.44    4.00
   2   3 -13   14.29    3.06
   2   3 -13   15.43    3.53
  -2  -3  13   14.99    3.62
  -2  -3  13    7.44    2.24
  -2  -3  13   12.62    2.70
  -2  -3  13    7.82    2.25
   1   3 -13  112.99    7.34
   1   3 -13   98.17    6.14
   1   3 -13  112.12    5.97
  -1  -3  13  117.11    7.48
  -1  -3  13  109.44    6.46
   0   3 -13   15.28    2.63
   0   3 -13   15.48    2.59
   0   3 -13   16.48    3.62
   0   3 -13   13.94    3.06
   0   3 -13   14.35    2.88
   0  -3  13   13.65    3.52
   0  -3  13    9.15    2.45
  -1   3 -13   13.83    2.30
  -1   3 -13   15.62    2.94
  -1   3 -13   13.69    2.29
  -1   3 -13   18.18    3.95
  -1   3 -13   17.41    3.60
   1  -3  13   10.57    2.68
   1  -3  13   12.15    3.26
  -2   3 -13   47.08    5.14
  -2   3 -13   53.41    3.15
  -2   3 -13   47.94    5.29
  -2   3 -13   47.33    3.00
   2  -3  13   47.94    4.57
   2  -3  13   53.84    5.33
  -3   3 -13   12.81    3.42
   3  -3  13   18.61    4.06
   3  -3  13   11.17    3.06
  -4   3 -13    7.16    3.11
   4  -3  13   11.66    3.17
  -5   3 -13   18.04    4.19
   5  -3  13   14.85    3.43
  -6   3 -13    4.62    2.79
   6  -3  13    3.89    2.48
  -9  -2  13    2.78    3.38
  -9  -2  13    3.03    2.67
   8   2 -13    5.12    2.45
  -8  -2  13    6.92    3.52
  -8  -2  13    1.10    3.07
   7   2 -13   78.31    6.03
  -7  -2  13   99.09    7.72
  -7  -2  13   89.87    7.78
   6   2 -13   -1.25    1.56
   6   2 -13    0.69    1.79
  -6  -2  13   -1.29    2.12
  -6  -2  13    3.19    2.45
   5   2 -13    1.55    1.80
   5   2 -13    1.95    1.77
  -5  -2  13    4.15    2.29
  -5  -2  13    1.60    2.09
  -5  -2  13    2.82    2.33
   4   2 -13  119.36    7.00
   4   2 -13  118.88    7.42
  -4  -2  13  137.66    7.47
  -4  -2  13  121.59    5.55
  -4  -2  13  123.89    7.66
  -4  -2  13  129.10    5.49
   3   2 -13    2.34    2.01
   3   2 -13    2.94    1.89
  -3  -2  13    1.87    1.81
  -3  -2  13    3.14    1.84
  -3  -2  13    1.41    1.28
  -3  -2  13    1.53    1.39
  -3  -2  13    0.70    1.43
   2   2 -13   -0.19    1.43
   2   2 -13    1.90    1.86
  -2  -2  13    2.53    1.63
  -2  -2  13    0.56    1.36
  -2  -2  13   -0.54    1.31
  -2  -2  13    2.54    1.70
  -2  -2  13   -3.53    1.26
   1   2 -13  105.92    6.96
   1   2 -13   92.35    5.88
  -1  -2  13  105.01    7.16
  -1  -2  13  112.21    6.08
  -1  -2  13   89.30    5.71
  -1  -2  13  105.23    6.10
   0   2 -13    8.35    2.85
   0   2 -13    4.89    1.64
   0   2 -13    3.82    1.86
   0   2 -13    3.02    1.72
   0  -2  13    3.54    2.22
   0  -2  13    0.25    1.67
  -1   2 -13   -1.40    1.37
  -1   2 -13   -1.50    1.09
  -1   2 -13    0.99    1.22
  -1   2 -13   -0.85    1.48
  -1   2 -13   -1.27    1.49
   1  -2  13    0.01    1.56
   1  -2  13    0.89    1.52
  -2   2 -13   62.02    3.93
  -2   2 -13   74.39    4.29
  -2   2 -13   62.33    5.78
  -2   2 -13   62.79    5.77
   2  -2  13   83.26    6.38
   2  -2  13   64.82    5.10
  -3   2 -13    1.51    2.15
  -3   2 -13    3.16    1.00
   3  -2  13    6.57    2.42
   3  -2  13    1.58    2.21
  -4   2 -13   -1.45    1.68
   4  -2  13    0.85    2.04
   4  -2  13    2.24    2.40
  -5   2 -13    9.77    3.03
   5  -2  13   21.98    4.06
  -6   2 -13    5.23    3.12
   6  -2  13    3.21    2.58
   9   1 -13   14.35    3.25
  -9  -1  13   15.46    3.35
  -9  -1  13   18.17    4.50
  -9  -1  13   25.21    5.90
   8   1 -13    8.53    2.76
  -8  -1  13   12.05    4.53
  -8  -1  13    3.50    2.28
  -8  -1  13    7.87    3.17
   7   1 -13   49.66    4.71
  -7  -1  13   56.43    5.31
  -7  -1  13   48.56    5.87
  -7  -1  13   54.54    6.07
   6   1 -13   21.16    3.83
  -6  -1  13   22.79    4.60
  -6  -1  13   18.47    4.42
  -6  -1  13   22.40    3.62
   5   1 -13   15.73    3.45
   5   1 -13    8.57    2.53
  -5  -1  13   10.30    3.16
  -5  -1  13   10.31    3.62
  -5  -1  13    4.96    2.39
   4   1 -13   70.21    5.15
   4   1 -13   69.82    5.59
  -4  -1  13   72.98    5.80
  -4  -1  13   71.41    5.22
   3   1 -13   22.86    3.20
   3   1 -13   15.86    3.40
  -3  -1  13   15.17    2.25
  -3  -1  13   17.92    2.73
  -3  -1  13   13.95    3.52
  -3  -1  13   16.72    2.20
   2   1 -13   12.31    2.91
   2   1 -13   11.91    3.17
  -2  -1  13   16.24    2.55
  -2  -1  13   12.68    2.32
  -2  -1  13   10.89    2.28
  -2  -1  13   10.35    2.85
   1   1 -13  109.49    6.37
   1   1 -13  108.02    7.11
  -1  -1  13   94.99    5.79
  -1  -1  13  102.08    5.59
  -1  -1  13  109.04    5.82
  -1  -1  13  105.74    7.14
   0   1 -13   15.04    3.53
   0   1 -13   17.33    3.18
   0   1 -13   12.03    2.52
   0  -1  13   11.62    2.70
   0  -1  13   11.88    2.58
   0  -1  13    5.44    2.32
  -1   1 -13   23.28    4.13
  -1   1 -13   18.14    2.90
  -1   1 -13   17.29    2.69
  -1   1 -13   16.21    3.03
   1  -1  13   19.56    3.83
   1  -1  13   14.80    2.98
  -2   1 -13   60.42    4.67
  -2   1 -13   43.80    5.29
  -2   1 -13   59.68    4.18
  -2   1 -13   57.52    4.12
  -2   1 -13   56.46    5.58
   2  -1  13   50.10    4.40
   2  -1  13   49.56    5.13
  -3   1 -13    0.40    2.07
  -3   1 -13    1.65    1.22
   3  -1  13    0.54    2.05
   3  -1  13    0.32    1.99
  -4   1 -13    8.62    3.38
   4  -1  13    9.48    2.82
   4  -1  13    6.52    2.97
  -5   1 -13   37.36    5.24
   5  -1  13   35.15    4.62
  -6   1 -13    0.06    2.26
   6  -1  13   -1.22    2.00
   9   0 -13   38.04    4.48
  -9   0  13   46.00    6.10
  -9   0  13   28.72    6.33
  -9   0  13   36.66    4.57
   8   0 -13    5.84    2.37
  -8   0  13    6.59    2.82
  -8   0  13    5.20    3.64
  -8   0  13    5.14    3.18
   7   0 -13   15.08    3.38
  -7   0  13   14.10    4.21
  -7   0  13   15.03    4.42
  -7   0  13   11.67    3.21
   6   0 -13   64.29    4.99
  -6   0  13   69.61    6.16
  -6   0  13   61.13    5.39
  -6   0  13   80.98    7.06
   5   0 -13   15.20    3.20
   5   0 -13   14.52    3.25
  -5   0  13   12.77    3.48
  -5   0  13    9.36    2.95
  -5   0  13   11.46    3.33
   4   0 -13   17.27    3.55
   4   0 -13   17.14    3.29
  -4   0  13   16.55    3.65
  -4   0  13   21.96    3.83
  -4   0  13   15.64    4.15
   3   0 -13   81.46    5.94
   3   0 -13   72.58    5.32
  -3   0  13   76.19    3.53
  -3   0  13   86.13    6.23
  -3   0  13   88.93    5.74
  -3   0  13   90.65    3.64
   2   0 -13   38.84    4.38
   2   0 -13   38.83    3.90
  -2   0  13   35.83    2.99
  -2   0  13   27.11    2.81
  -2   0  13   34.72    4.12
  -2   0  13   34.38    3.28
   1   0 -13   25.83    4.46
   1   0 -13   22.51    3.25
  -1   0  13   16.37    2.48
  -1   0  13   24.55    4.36
  -1   0  13   19.77    2.82
  -1   0  13   18.89    2.74
   0   0 -13   67.55    5.66
   0   0 -13   67.12    4.96
   0   0  13   63.53    4.75
   0   0  13   70.67    5.85
   0   0  13   60.77    4.52
   0   0  13   61.33    4.39
  -1   0 -13   24.90    4.11
  -1   0 -13   25.03    3.57
   1   0  13   34.38    4.50
   1   0  13   27.01    3.41
  -2   0 -13   18.49    2.96
  -2   0 -13   18.99    4.16
  -2   0 -13   18.30    2.89
  -2   0 -13   17.81    3.35
   2   0  13   14.21    2.96
   2   0  13   19.22    4.04
  -3   0 -13   28.19    4.53
  -3   0 -13   27.52    3.12
   3   0  13   26.68    4.48
   3   0  13   25.83    3.85
  -4   0 -13   18.79    4.18
  -4   0 -13   20.89    2.42
  -4   0 -13   22.15    2.50
   4   0  13   25.43    4.91
   4   0  13   19.70    3.81
  -5   0 -13    6.94    2.91
   5   0  13    6.70    3.03
   5   0  13    7.52    3.37
   9  -1 -13   39.00    4.57
  -9   1  13   55.46    6.46
  -9   1  13   52.76    6.74
   8  -1 -13   -0.83    1.64
  -8   1  13    2.05    1.98
  -8   1  13    2.78    2.38
  -8   1  13    1.05    2.68
   7  -1 -13   -0.48    1.44
   7  -1 -13    4.21    1.89
  -7   1  13    2.09    2.07
  -7   1  13    2.80    2.61
  -7   1  13    0.70    2.01
   6  -1 -13   88.86    5.77
   6  -1 -13   86.33    5.79
  -6   1  13   76.53    5.81
  -6   1  13   98.42    7.97
  -6   1  13   89.64    6.71
   5  -1 -13   -0.54    1.31
   5  -1 -13   -0.68    1.37
  -5   1  13    0.71    1.62
  -5   1  13   -0.36    1.86
  -5   1  13    0.33    2.12
   4  -1 -13   -0.11    1.56
   4  -1 -13    1.18    1.89
  -4   1  13    2.16    1.59
  -4   1  13   -0.40    1.65
  -4   1  13    3.27    1.92
   3  -1 -13  137.30    7.34
   3  -1 -13  140.13    8.06
  -3   1  13  133.84    7.91
  -3   1  13  134.63    8.81
   2  -1 -13    2.85    2.06
   2  -1 -13    1.33    2.05
  -2   1  13    5.40    2.45
  -2   1  13    5.55    1.37
  -2   1  13    6.29    1.36
   1  -1 -13    0.76    1.72
   1  -1 -13    4.53    2.37
  -1   1  13    1.80    1.39
  -1   1  13    0.48    1.67
  -1   1  13    1.87    1.55
  -1   1  13    2.19    1.43
   0  -1 -13   77.39    6.25
   0  -1 -13   67.80    5.33
   0   1  13   60.30    4.27
   0   1  13   59.67    5.54
   0   1  13   74.77    4.86
   0   1  13   64.44    4.72
  -1  -1 -13    8.24    2.77
  -1  -1 -13    5.35    2.65
   1   1  13    6.90    2.49
   1   1  13   10.78    3.37
  -2  -1 -13    2.67    2.13
  -2  -1 -13   -0.11    1.89
   2   1  13    1.31    1.94
   2   1  13    0.25    1.79
  -3  -1 -13   37.81    5.05
  -3  -1 -13   49.51    4.73
   3   1  13   45.82    4.67
   3   1  13   43.41    5.47
  -4  -1 -13    7.65    3.51
  -4  -1 -13    9.40    2.28
   4   1  13    9.28    3.40
   4   1  13    3.56    2.15
  -5  -1 -13   -2.34    1.95
  -5  -1 -13   -0.27    0.87
  -5  -1 -13    0.41    1.07
   5   1  13    1.03    2.70
   5   1  13    0.17    2.24
   8  -2 -13   16.55    3.30
   8  -2 -13    6.21    2.29
  -8   2  13   21.67    5.18
  -8   2  13   19.31    4.89
   7  -2 -13    7.89    2.61
   7  -2 -13    7.12    2.30
   7  -2 -13   10.54    3.67
  -7   2  13   10.03    3.53
  -7   2  13    7.49    3.21
  -7   2  13    9.46    2.66
   6  -2 -13   55.59    5.39
   6  -2 -13   52.82    4.59
   6  -2 -13   59.68    4.73
  -6   2  13   61.97    6.32
  -6   2  13   53.41    5.37
  -6   2  13   51.82    4.86
   5  -2 -13    9.31    2.63
   5  -2 -13   15.06    4.72
   5  -2 -13   13.96    2.93
  -5   2  13    9.66    2.91
  -5   2  13   17.30    3.78
  -5   2  13   13.19    4.17
   4  -2 -13   14.62    3.07
  -4   2  13   16.84    3.44
  -4   2  13   20.32    4.51
   3  -2 -13   63.30    5.09
   3  -2 -13   66.43    5.54
  -3   2  13   72.25    5.60
  -3   2  13   66.01    6.11
   2  -2 -13    5.77    2.39
   2  -2 -13    4.75    2.52
  -2   2  13    5.62    2.65
  -2   2  13    6.24    2.50
   1  -2 -13    9.96    2.94
   1  -2 -13   12.52    3.25
  -1   2  13    7.42    1.59
  -1   2  13    4.09    2.34
  -1   2  13    8.13    2.97
  -1   2  13    7.47    1.53
   0  -2 -13   72.69    5.65
   0  -2 -13   70.63    6.10
   0   2  13   62.00    5.77
   0   2  13   62.97    4.14
   0   2  13   69.43    6.36
   0   2  13   66.65    4.51
  -1  -2 -13    2.46    2.14
  -1  -2 -13    3.84    2.68
   1   2  13    0.53    1.69
   1   2  13    0.54    2.04
   1   2  13   -1.70    1.39
  -2  -2 -13   17.19    4.28
  -2  -2 -13   22.25    4.03
   2   2  13   16.92    4.18
   2   2  13   21.04    3.78
  -3  -2 -13   17.88    4.51
  -3  -2 -13   34.15    4.80
   3   2  13   34.92    5.14
   3   2  13   28.39    4.16
  -4  -2 -13   -0.94    2.32
  -4  -2 -13   -0.37    2.54
   4   2  13    1.59    2.14
   4   2  13    0.78    2.29
  -5  -2 -13    4.86    3.87
  -5  -2 -13    2.93    1.82
  -5  -2 -13    2.59    1.67
   5   2  13    6.84    2.99
   5   2  13    2.94    3.52
   8  -3 -13   34.06    3.90
   8  -3 -13   28.12    4.09
  -8   3  13   37.24    5.64
  -8   3  13   37.87    5.67
   7  -3 -13    9.84    2.29
   7  -3 -13   17.07    3.51
   7  -3 -13   13.90    2.98
  -7   3  13    5.81    3.21
  -7   3  13   10.40    3.64
  -7   3  13   10.01    2.59
   6  -3 -13   14.07    3.13
   6  -3 -13   16.17    3.51
   6  -3 -13   21.48    3.20
  -6   3  13   16.40    3.20
  -6   3  13   13.24    3.69
  -6   3  13   13.16    3.90
   5  -3 -13   48.68    4.51
   5  -3 -13   34.68    4.00
  -5   3  13   39.21    4.28
  -5   3  13   36.26    6.14
  -5   3  13   47.26    5.69
   4  -3 -13   26.07    3.53
  -4   3  13   15.00    4.08
  -4   3  13   21.21    3.54
   3  -3 -13   14.92    3.07
  -3   3  13   21.43    3.76
  -3   3  13   13.94    3.64
   2  -3 -13   29.35    4.47
   2  -3 -13   34.70    4.16
  -2   3  13   42.68    5.13
  -2   3  13   34.28    4.53
   1  -3 -13   21.83    4.39
   1  -3 -13   24.82    3.84
  -1   3  13   20.45    3.96
  -1   3  13   28.73    4.12
   0  -3 -13    9.07    2.95
   0  -3 -13   12.85    3.79
   0   3  13   14.65    3.53
   0   3  13   11.11    2.29
   0   3  13    9.46    1.88
   0   3  13   12.66    3.56
  -1  -3 -13   25.94    4.49
  -1  -3 -13   19.75    4.57
   1   3  13   25.90    4.94
   1   3  13   18.87    2.87
   1   3  13   24.07    3.24
   1   3  13   18.14    3.69
  -2  -3 -13   17.00    3.83
  -2  -3 -13    9.50    3.65
   2   3  13   11.29    3.12
   2   3  13   10.84    3.48
  -3  -3 -13    3.06    2.84
  -3  -3 -13   13.67    4.21
   3   3  13    8.16    3.49
   3   3  13    8.55    2.98
  -4  -3 -13   -0.17    2.58
   4   3  13    2.52    2.45
   4   3  13   -1.40    2.90
   7  -4 -13   -0.05    2.15
   7  -4 -13    0.50    2.06
   7  -4 -13    0.74    1.71
  -7   4  13    2.09    2.70
  -7   4  13    2.51    3.27
   6  -4 -13    0.85    1.45
   6  -4 -13    2.28    2.05
  -6   4  13   -1.74    2.45
  -6   4  13   -1.47    1.61
   5  -4 -13   39.90    4.33
   5  -4 -13   69.57    7.92
  -5   4  13   42.95    4.38
  -5   4  13   50.50    5.99
   4  -4 -13    1.77    2.11
  -4   4  13   -1.18    1.62
  -4   4  13    2.59    2.35
   3  -4 -13    1.72    1.82
  -3   4  13    0.57    2.36
  -3   4  13    0.26    1.76
   2  -4 -13   47.14    4.79
  -2   4  13   41.98    5.21
  -2   4  13   34.55    4.55
   1  -4 -13    5.43    2.74
   1  -4 -13    9.88    3.05
  -1   4  13    4.31    2.59
  -1   4  13    7.82    2.81
   0  -4 -13    1.94    2.05
   0  -4 -13    2.03    2.18
   0   4  13   -0.30    1.94
   0   4  13    2.31    2.48
   0   4  13    0.60    0.97
   0   4  13    0.56    1.00
  -1  -4 -13   17.06    4.23
  -1  -4 -13   20.95    4.25
   1   4  13   23.90    4.46
   1   4  13   19.77    2.82
   1   4  13   23.97    3.15
   1   4  13   28.48    4.75
  -2  -4 -13    8.14    3.72
  -2  -4 -13   14.46    3.74
   2   4  13    5.73    2.22
   2   4  13   17.94    4.45
  -3  -4 -13    0.17    2.52
  -3  -4 -13    0.65    2.54
   3   4  13   -3.00    2.82
   6  -5 -13    0.39    1.90
   6  -5 -13    1.84    2.70
  -6   5  13   -0.76    2.41
   5  -5 -13   29.29    4.15
  -5   5  13   33.66    4.26
  -5   5  13   32.91    5.32
   4  -5 -13    0.04    1.88
  -4   5  13    0.85    1.95
  -4   5  13   -0.76    2.35
   3  -5 -13    7.97    2.87
  -3   5  13    7.35    3.24
  -3   5  13   11.89    3.31
   2  -5 -13   38.12    4.69
  -2   5  13   44.24    5.14
  -2   5  13   49.28    5.52
   1  -5 -13    0.35    2.04
  -1   5  13    0.56    2.62
  -1   5  13    2.10    2.26
   0  -5 -13    9.22    3.80
   0  -5 -13    8.62    3.22
   0   5  13   14.73    4.11
   0   5  13    4.26    2.50
  -1  -5 -13   19.80    4.95
  -1  -5 -13   22.78    4.83
   1   5  13   18.76    4.40
   1   5  13   17.96    2.15
   1   5  13   14.92    2.10
  -2  -5 -13    1.47    3.03
  -2  -5 -13    0.38    2.58
   2   5  13   -0.11    2.99
   2   5  13    1.12    1.72
   2   5  13    1.66    1.82
   5  -6 -13   15.50    3.40
  -5   6  13   14.01    3.14
  -5   6  13    9.79    4.09
   4  -6 -13    7.89    2.95
  -4   6  13   14.42    3.33
  -4   6  13   18.60    4.71
   3  -6 -13   19.08    3.91
  -3   6  13   12.89    4.04
  -3   6  13   18.50    3.99
   2  -6 -13    8.92    3.21
  -2   6  13    7.59    3.22
  -2   6  13    2.60    2.62
   1  -6 -13    4.91    2.99
  -1   6  13    2.41    2.97
   0  -6 -13   17.50    4.03
   0   6  13   21.02    4.82
  -1  -6 -13   16.08    4.18
  -1  -6 -13   15.23    7.01
   1   6  13    5.66    3.46
   4   8 -14   22.96    5.20
   3   8 -14   15.78    4.58
   3   8 -14   10.46    2.35
  -3  -8  14   10.78    3.47
   2   8 -14   23.34    2.59
   2   8 -14   22.70    4.82
  -2  -8  14   19.82    4.20
   1   8 -14   18.46    4.49
  -1  -8  14   16.18    4.23
   0   8 -14    5.25    3.19
   0  -8  14    9.39    3.36
  -1   8 -14   25.22    4.89
   1  -8  14   26.14    4.86
   5   7 -14   12.00    4.25
   4   7 -14   -1.15    1.87
   3   7 -14   38.07    5.15
  -3  -7  14   39.65    4.89
   2   7 -14   15.25    4.02
   2   7 -14   17.30    2.94
  -2  -7  14   21.25    4.12
   1   7 -14   -0.36    1.09
   1   7 -14   -0.27    1.94
  -1  -7  14    0.29    1.91
   0   7 -14   23.92    4.98
   0  -7  14   34.05    4.59
   0  -7  14   34.13    6.26
  -1   7 -14   22.23    4.61
   1  -7  14   13.00    3.55
  -2   7 -14   -1.24    1.91
   2  -7  14   -1.18    1.94
  -3   7 -14    7.86    3.17
   3  -7  14    8.45    3.30
   6   6 -14   31.82    6.06
  -6  -6  14   31.08    3.84
  -6  -6  14   29.68    3.74
   5   6 -14    0.70    2.02
  -5  -6  14   -1.30    1.86
   4   6 -14    7.71    2.86
  -4  -6  14    7.90    4.45
   3   6 -14   40.51    5.14
  -3  -6  14   32.99    4.32
   2   6 -14    6.02    2.12
   2   6 -14    2.62    2.42
  -2  -6  14    2.18    2.19
   1   6 -14    9.46    2.05
   1   6 -14   16.80    2.76
   1   6 -14   13.49    3.73
  -1  -6  14   21.81    4.73
  -1  -6  14   12.66    3.38
   0   6 -14   55.33    5.68
   0   6 -14   32.80    2.47
   0  -6  14   47.59    5.68
   0  -6  14   33.25    4.57
  -1   6 -14    8.45    2.97
   1  -6  14   14.72    4.09
   1  -6  14   12.13    3.35
  -2   6 -14   10.75    3.45
   2  -6  14    5.26    2.56
  -3   6 -14   28.18    4.62
   3  -6  14   25.32    4.67
  -4   6 -14   12.09    3.80
   4  -6  14    9.48    3.09
   7   5 -14    5.77    3.22
  -7  -5  14   12.55    3.81
  -7  -5  14   13.26    4.77
   6   5 -14   21.84    4.44
  -6  -5  14    3.85    2.87
  -6  -5  14   13.62    2.30
  -6  -5  14   10.76    2.27
   5   5 -14    4.25    2.41
  -5  -5  14    6.72    2.31
  -5  -5  14    3.44    2.03
   4   5 -14   35.79    4.85
  -4  -5  14   42.84    4.17
   3   5 -14   27.25    4.97
  -3  -5  14   30.32    4.03
   2   5 -14    5.64    2.55
  -2  -5  14    9.24    2.78
   1   5 -14   66.22    6.03
   1   5 -14   56.97    4.13
   1   5 -14   60.22    4.37
  -1  -5  14   57.00    6.03
  -1  -5  14   52.46    5.16
   0   5 -14   19.66    2.52
   0   5 -14   24.84    2.68
   0   5 -14   23.03    3.64
   0   5 -14   26.68    4.31
   0  -5  14   25.90    4.96
   0  -5  14   23.71    3.75
  -1   5 -14    2.46    2.15
  -1   5 -14    2.27    1.98
   1  -5  14    0.43    1.64
   1  -5  14    0.73    2.12
  -2   5 -14   52.94    5.60
   2  -5  14   46.56    5.07
   2  -5  14   57.98    6.19
  -3   5 -14   14.88    3.80
   3  -5  14    5.91    2.49
  -4   5 -14    2.84    2.43
   4  -5  14   -0.87    1.93
  -8  -4  14   20.54    4.64
  -7  -4  14   23.41    4.95
  -7  -4  14   16.83    5.47
   6   4 -14    1.83    2.56
  -6  -4  14   -0.71    2.26
  -6  -4  14    0.11    2.51
   5   4 -14   50.63    5.40
  -5  -4  14   49.73    3.76
  -5  -4  14   49.19    4.04
   4   4 -14   44.20    5.04
   4   4 -14   50.06    4.82
  -4  -4  14   40.54    3.93
  -4  -4  14   44.67    4.14
   3   4 -14   -0.95    1.64
   3   4 -14    2.66    2.12
  -3  -4  14    2.64    1.96
  -3  -4  14   -0.68    1.76
   2   4 -14   31.09    3.94
   2   4 -14   34.08    4.50
  -2  -4  14   31.16    4.68
  -2  -4  14   32.17    3.93
   1   4 -14   50.47    4.55
   1   4 -14   54.13    5.40
   1   4 -14   48.40    4.08
   1   4 -14   47.27    4.52
  -1  -4  14   43.30    4.42
  -1  -4  14   51.21    5.45
   0   4 -14    1.19    1.35
   0   4 -14   -0.17    1.72
   0   4 -14    1.05    1.23
   0   4 -14   -0.15    1.79
   0  -4  14    0.80    1.90
   0  -4  14    0.89    2.06
  -1   4 -14   15.12    2.18
  -1   4 -14   13.59    3.39
  -1   4 -14   13.58    3.33
  -1   4 -14   11.48    2.08
   1  -4  14   15.77    3.80
   1  -4  14   16.69    3.50
  -2   4 -14   35.45    4.85
   2  -4  14   40.71    4.47
   2  -4  14   27.72    4.69
  -3   4 -14   -0.59    1.79
   3  -4  14   -0.45    1.91
   3  -4  14    1.24    2.15
  -4   4 -14   -1.35    1.91
   4  -4  14    3.79    2.37
  -5   4 -14   34.91    5.24
   5  -4  14   33.54    4.46
  -8  -3  14   38.75    6.42
  -8  -3  14   35.31    5.71
  -7  -3  14    2.10    3.11
  -7  -3  14    3.06    3.34
   6   3 -14   17.55    3.57
   6   3 -14   14.31    3.75
  -6  -3  14   11.37    4.03
  -6  -3  14   13.53    4.00
   5   3 -14   51.77    5.23
   5   3 -14   49.60    4.91
  -5  -3  14   52.60    3.02
  -5  -3  14   43.88    2.90
  -5  -3  14   59.53    5.88
   4   3 -14    8.74    2.96
   4   3 -14   18.94    3.84
  -4  -3  14   12.34    3.31
  -4  -3  14   15.10    2.71
  -4  -3  14    9.74    2.32
  -4  -3  14   11.80    3.37
   3   3 -14   11.29    3.32
   3   3 -14    9.66    2.75
  -3  -3  14   14.86    3.82
  -3  -3  14   11.32    2.59
  -3  -3  14   10.60    2.68
  -3  -3  14    6.81    2.16
   2   3 -14   41.19    4.78
   2   3 -14   40.75    4.24
  -2  -3  14   42.79    4.16
  -2  -3  14   36.95    3.87
  -2  -3  14   40.47    4.79
   1   3 -14   22.54    4.45
   1   3 -14   25.66    4.16
   1   3 -14   21.27    3.71
  -1  -3  14   18.06    4.00
  -1  -3  14   17.26    3.23
   0   3 -14    9.42    2.63
   0   3 -14    9.57    2.67
   0   3 -14   15.27    3.57
   0   3 -14    8.48    2.05
   0   3 -14   11.70    2.41
   0  -3  14   13.02    3.47
   0  -3  14    7.51    2.42
  -1   3 -14   23.76    2.67
  -1   3 -14   25.39    4.09
  -1   3 -14   26.99    2.91
  -1   3 -14   19.32    3.99
   1  -3  14   26.10    4.34
   1  -3  14   24.95    3.67
  -2   3 -14   29.14    4.51
  -2   3 -14   21.91    2.37
   2  -3  14   26.82    4.83
   2  -3  14   29.01    4.02
  -3   3 -14   10.35    3.17
   3  -3  14    4.57    2.36
   3  -3  14    8.21    3.34
  -4   3 -14   12.25    3.69
   4  -3  14   10.88    3.01
  -5   3 -14   19.69    4.49
   5  -3  14   22.67    4.40
   8   2 -14   22.02    4.32
  -8  -2  14   15.85    5.16
  -8  -2  14    5.66    3.14
  -8  -2  14   13.35    4.37
   7   2 -14    2.18    2.09
  -7  -2  14    1.97    2.59
  -7  -2  14    5.49    3.62
  -7  -2  14    1.32    2.93
   6   2 -14   31.45    4.17
  -6  -2  14   33.50    4.79
  -6  -2  14   31.60    4.86
  -6  -2  14   35.39    5.18
   5   2 -14   26.20    4.22
   5   2 -14   26.99    4.08
  -5  -2  14   24.98    5.13
  -5  -2  14   23.56    4.13
  -5  -2  14   27.42    4.33
   4   2 -14   -0.22    1.76
   4   2 -14    0.40    1.90
  -4  -2  14    1.54    1.18
  -4  -2  14    1.59    1.99
  -4  -2  14   -0.66    1.07
  -4  -2  14    1.58    1.93
   3   2 -14   42.60    4.29
   3   2 -14   50.93    5.09
  -3  -2  14   41.79    4.87
  -3  -2  14   42.72    3.65
  -3  -2  14   41.73    3.58
   2   2 -14   24.44    4.01
   2   2 -14   23.84    3.91
  -2  -2  14   21.70    3.06
  -2  -2  14   31.15    3.41
  -2  -2  14   22.86    3.42
  -2  -2  14   25.14    4.13
   1   2 -14   -0.32    1.61
   1   2 -14   -0.20    1.84
  -1  -2  14    3.14    2.03
  -1  -2  14    3.21    2.64
  -1  -2  14    0.16    1.68
   0   2 -14   53.70    4.17
   0   2 -14   58.54    4.80
   0   2 -14   57.39    5.55
   0  -2  14   61.52    5.87
   0  -2  14   50.35    4.59
  -1   2 -14   19.02    2.64
  -1   2 -14   21.53    4.23
  -1   2 -14   18.80    2.77
  -1   2 -14   22.79    3.43
  -1   2 -14   19.37    4.12
   1  -2  14   28.39    4.46
   1  -2  14   22.93    3.90
  -2   2 -14    4.87    1.70
  -2   2 -14    2.66    1.50
  -2   2 -14    1.51    2.25
   2  -2  14    4.01    2.58
   2  -2  14    6.12    2.35
  -3   2 -14   34.94    2.37
  -3   2 -14   40.45    5.15
   3  -2  14   31.08    3.98
   3  -2  14   34.57    5.03
  -4   2 -14    6.32    3.03
   4  -2  14    4.08    2.57
   4  -2  14   10.30    3.46
  -5   2 -14    3.43    2.63
   5  -2  14    1.91    2.48
   8   1 -14    0.94    2.03
  -8  -1  14   -2.27    2.26
  -8  -1  14    1.03    2.87
  -8  -1  14    2.50    2.46
   7   1 -14   26.22    3.99
  -7  -1  14   23.52    5.38
  -7  -1  14   23.85    5.49
  -7  -1  14   14.01    3.71
   6   1 -14   38.18    4.38
  -6  -1  14   29.19    4.73
  -6  -1  14   35.67    4.62
  -6  -1  14   37.86    5.51
   5   1 -14    2.26    2.08
   5   1 -14   -1.92    1.52
  -5  -1  14   -0.37    1.91
  -5  -1  14    0.82    2.14
  -5  -1  14    3.26    2.67
   4   1 -14   28.02    4.06
   4   1 -14   28.35    3.71
  -4  -1  14   18.52    4.01
  -4  -1  14   22.25    4.83
  -4  -1  14   16.40    3.50
   3   1 -14   71.35    5.90
   3   1 -14   69.84    5.27
  -3  -1  14   65.36    5.85
  -3  -1  14   63.35    4.04
  -3  -1  14   72.94    4.12
   2   1 -14    2.17    2.11
   2   1 -14    1.37    1.70
  -2  -1  14   -1.26    1.20
  -2  -1  14    0.28    2.09
  -2  -1  14    0.57    1.45
  -2  -1  14    1.56    1.44
   1   1 -14   14.87    3.60
   1   1 -14   17.82    3.63
  -1  -1  14   17.44    3.15
  -1  -1  14   18.77    2.99
  -1  -1  14    8.30    2.20
  -1  -1  14   12.19    3.42
   0   1 -14   86.48    5.90
   0   1 -14   88.55    6.70
   0  -1  14   77.19    6.53
   0  -1  14   73.96    5.46
  -1   1 -14    3.30    2.37
  -1   1 -14    3.31    1.67
  -1   1 -14    0.96    1.76
   1  -1  14    5.63    2.74
   1  -1  14    4.00    2.06
  -2   1 -14    0.52    2.00
  -2   1 -14    2.72    1.72
  -2   1 -14    2.28    1.75
   2  -1  14    3.91    2.54
   2  -1  14    0.86    1.71
  -3   1 -14   58.54    5.99
  -3   1 -14   53.31    3.76
   3  -1  14   58.56    5.29
   3  -1  14   59.77    6.11
  -4   1 -14   -0.88    2.11
   4  -1  14    1.49    2.55
   4  -1  14   -2.66    1.77
  -5   1 -14    0.59    2.42
   5  -1  14    2.15    2.26
   8   0 -14    4.88    2.55
  -8   0  14   11.82    4.13
  -8   0  14    6.75    2.67
  -8   0  14    4.41    3.68
   7   0 -14   34.51    4.26
  -7   0  14   26.09    4.15
  -7   0  14   34.95    5.63
  -7   0  14   36.00    5.45
   6   0 -14    9.42    2.68
  -6   0  14    6.14    3.06
  -6   0  14    9.57    3.08
  -6   0  14   11.99    3.94
   5   0 -14   15.22    3.32
  -5   0  14   13.42    4.00
  -5   0  14   19.11    3.98
  -5   0  14   12.73    3.33
   4   0 -14   45.27    4.80
   4   0 -14   44.79    4.46
  -4   0  14   41.43    4.82
  -4   0  14   40.66    5.35
   3   0 -14   27.47    3.73
   3   0 -14   31.84    4.30
  -3   0  14   35.04    4.35
  -3   0  14   28.39    2.02
  -3   0  14   28.40    1.98
   2   0 -14   18.46    3.86
   2   0 -14   20.31    3.58
  -2   0  14   17.35    3.89
  -2   0  14   17.88    2.57
  -2   0  14   18.10    2.46
   1   0 -14   32.78    4.04
   1   0 -14   36.70    4.63
  -1   0  14   43.67    3.78
  -1   0  14   35.66    4.53
  -1   0  14   29.89    3.50
  -1   0  14   31.93    3.24
   0   0 -14   44.18    5.05
   0   0 -14   51.02    4.69
   0   0  14   41.09    5.05
   0   0  14   48.06    4.31
   0   0  14   39.27    4.01
  -1   0 -14   16.19    3.90
  -1   0 -14   12.61    3.02
   1   0  14   10.64    2.97
   1   0  14   12.44    3.03
  -2   0 -14   11.54    3.63
  -2   0 -14   11.14    2.61
  -2   0 -14   18.05    3.64
   2   0  14   13.86    3.72
   2   0  14   14.18    3.13
  -3   0 -14   28.86    4.89
  -3   0 -14   29.92    3.45
   3   0  14   28.94    4.23
   3   0  14   18.79    4.23
  -4   0 -14    3.98    1.44
  -4   0 -14    5.89    1.68
  -4   0 -14    6.21    2.71
   4   0  14    5.21    2.72
   4   0  14    8.71    3.85
  -5   0 -14    6.52    3.38
   5   0  14    8.53    3.65
   5   0  14    3.90    2.74
   8  -1 -14   25.76    3.84
  -8   1  14   17.69    4.65
  -8   1  14   21.84    3.98
  -8   1  14   24.18    5.63
   7  -1 -14   14.32    3.11
  -7   1  14   22.97    5.08
  -7   1  14   17.71    3.51
  -7   1  14   19.95    4.86
   6  -1 -14    3.11    2.23
  -6   1  14    0.57    1.90
  -6   1  14   -2.36    2.13
  -6   1  14   -0.49    2.31
   5  -1 -14   53.53    4.66
  -5   1  14   51.91    6.07
  -5   1  14   46.07    4.94
   4  -1 -14   27.03    4.04
   4  -1 -14   22.59    3.52
  -4   1  14   23.48    4.78
  -4   1  14   20.42    4.04
   3  -1 -14    2.16    2.05
   3  -1 -14    0.40    1.87
  -3   1  14    3.06    2.17
  -3   1  14    0.96    2.18
   2  -1 -14   60.32    5.69
   2  -1 -14   57.91    5.00
  -2   1  14   49.40    3.06
  -2   1  14   60.86    5.57
  -2   1  14   56.64    5.76
  -2   1  14   49.94    3.08
   1  -1 -14   22.91    3.88
   1  -1 -14   24.86    4.60
  -1   1  14   18.64    2.60
  -1   1  14   21.74    4.27
  -1   1  14   17.96    2.44
   0  -1 -14    6.14    2.68
   0  -1 -14    7.16    2.64
   0   1  14    2.19    1.59
   0   1  14    3.87    1.77
   0   1  14    6.44    2.31
   0   1  14    1.79    2.24
  -1  -1 -14   40.47    4.57
  -1  -1 -14   42.90    5.32
   1   1  14   33.61    3.99
   1   1  14   42.97    5.24
  -2  -1 -14   19.81    3.83
  -2  -1 -14   15.51    3.92
   2   1  14    9.72    2.66
   2   1  14    7.64    3.30
  -3  -1 -14    9.40    3.16
   3   1  14    7.91    2.94
   3   1  14   25.22    5.00
  -4  -1 -14   21.02    4.69
  -4  -1 -14   23.11    3.20
   4   1  14   20.94    4.06
   4   1  14   34.25    5.74
   8  -2 -14   24.44    3.84
  -8   2  14   28.35    5.90
  -8   2  14   32.43    6.72
   7  -2 -14    0.89    2.25
  -7   2  14    1.53    2.08
  -7   2  14    1.66    2.58
  -7   2  14    1.52    2.32
   6  -2 -14   12.14    3.03
  -6   2  14   11.99    3.02
  -6   2  14   13.11    4.24
   5  -2 -14   38.05    4.20
  -5   2  14   51.46    4.90
  -5   2  14   44.51    5.92
   4  -2 -14    4.22    2.37
  -4   2  14    2.11    1.94
  -4   2  14    0.40    2.50
   3  -2 -14    7.84    2.97
   3  -2 -14    1.73    2.04
  -3   2  14    2.70    1.94
  -3   2  14    3.51    2.62
   2  -2 -14   74.24    5.72
   2  -2 -14   73.96    6.32
  -2   2  14   70.94    6.51
  -2   2  14   60.26    5.87
   1  -2 -14    1.93    2.17
   1  -2 -14    4.40    2.55
  -1   2  14    1.57    1.22
  -1   2  14   -0.25    1.75
  -1   2  14    2.39    1.35
  -1   2  14   -0.47    1.69
   0  -2 -14    2.53    2.35
   0  -2 -14    1.15    2.23
   0   2  14    1.02    1.53
   0   2  14   -0.33    1.77
   0   2  14    1.92    1.48
  -1  -2 -14   60.92    6.37
  -1  -2 -14   66.45    5.74
   1   2  14   54.71    4.72
   1   2  14   55.57    5.94
  -2  -2 -14    1.27    2.39
  -2  -2 -14   -0.35    2.14
   2   2  14    1.82    2.42
   2   2  14    2.63    1.98
  -3  -2 -14   -1.15    2.42
   3   2  14    2.01    2.84
   3   2  14   -2.67    1.96
  -4  -2 -14   24.29    5.26
   4   2  14   32.44    4.83
   4   2  14   24.83    5.08
   7  -3 -14    8.83    2.89
  -7   3  14    4.75    3.22
  -7   3  14    6.17    2.40
   6  -3 -14   26.18    4.25
  -6   3  14   26.09    5.51
  -6   3  14   20.81    3.66
   5  -3 -14   28.99    4.04
  -5   3  14   23.30    3.83
  -5   3  14   25.06    5.32
   4  -3 -14    2.79    2.17
  -4   3  14    5.96    2.61
  -4   3  14   10.23    3.84
   3  -3 -14   11.03    3.31
  -3   3  14   20.47    4.05
  -3   3  14   24.07    5.03
   2  -3 -14   41.40    5.15
   2  -3 -14   26.93    4.14
  -2   3  14   30.42    4.42
  -2   3  14   28.89    4.89
   1  -3 -14    9.26    3.17
   1  -3 -14    9.75    3.39
  -1   3  14    5.30    2.72
  -1   3  14    5.72    2.79
   0  -3 -14    2.58    2.29
   0  -3 -14   -0.59    1.95
   0   3  14    9.75    3.34
   0   3  14    2.33    2.59
   0   3  14    3.97    1.53
   0   3  14    3.33    1.64
  -1  -3 -14   39.19    5.07
   1   3  14   38.42    3.97
   1   3  14   44.62    5.56
   1   3  14   41.24    4.98
   1   3  14   31.54    3.53
  -2  -3 -14    2.82    2.82
  -2  -3 -14    3.89    2.90
   2   3  14    1.35    2.57
  -3  -3 -14    4.36    3.34
   3   3  14   -0.13    2.72
   6  -4 -14   16.78    3.34
  -6   4  14   12.16    4.55
  -6   4  14   14.18    3.20
   5  -4 -14    1.07    2.29
  -5   4  14    4.60    3.07
  -5   4  14    3.28    2.25
   4  -4 -14   19.98    3.84
  -4   4  14   19.49    4.61
  -4   4  14   17.18    3.85
   3  -4 -14    9.01    3.16
  -3   4  14   13.46    3.67
  -3   4  14    7.16    3.61
   2  -4 -14    5.18    2.64
  -2   4  14    6.10    3.10
  -2   4  14    7.97    3.09
   1  -4 -14   21.18    4.24
   1  -4 -14   19.57    4.37
  -1   4  14   17.68    4.00
  -1   4  14   26.77    4.39
   0  -4 -14   18.99    4.42
   0  -4 -14   12.85    3.68
   0   4  14    9.13    1.43
   0   4  14   13.70    3.68
   0   4  14   13.41    3.60
  -1  -4 -14   10.55    4.00
  -1  -4 -14   10.50    3.45
   1   4  14    4.84    1.72
   1   4  14   15.32    4.42
   1   4  14   12.29    2.44
  -2  -4 -14   16.56    4.79
  -2  -4 -14   15.38    4.09
   2   4  14   16.22    4.49
   2   4  14   24.67    3.78
   5  -5 -14    1.62    2.20
  -5   5  14    1.45    2.35
  -5   5  14   -0.24    2.45
   4  -5 -14   37.87    4.59
  -4   5  14   27.62    4.43
  -4   5  14   43.60    5.87
   3  -5 -14    2.99    2.46
  -3   5  14    0.41    2.37
  -3   5  14    0.41    2.13
   2  -5 -14   -0.09    2.17
  -2   5  14    0.77    2.28
  -2   5  14   -0.06    2.28
   1  -5 -14   47.75    5.43
  -1   5  14   51.71    5.71
  -1   5  14   57.01    6.14
   0  -5 -14    0.86    2.51
   0   5  14    0.19    2.72
  -1  -5 -14   -0.76    2.52
  -1  -5 -14   -0.12    2.52
   1   5  14   -2.07    2.41
   3  -6 -14    6.17    2.99
  -3   6  14    0.71    2.73
   2  -6 -14    5.89    3.06
  -2   6  14   11.13    3.86
  -2   6  14    2.55    2.86
  -2  -8  15    3.80    2.85
   1   8 -15    4.61    3.21
  -1  -8  15    4.78    3.12
   4   7 -15   10.39    4.03
   3   7 -15    7.87    3.38
  -3  -7  15   15.96    3.97
   2   7 -15   30.08    4.91
   2   7 -15   25.69    3.35
  -2  -7  15   36.47    5.02
   1   7 -15    0.05    2.64
   1   7 -15    7.42    1.63
  -1  -7  15    8.97    3.83
  -1  -7  15   11.81    3.31
   0   7 -15   24.35    5.14
   0  -7  15   23.26    5.25
   0  -7  15   20.34    4.35
  -1   7 -15   22.69    5.00
   1  -7  15   28.75    5.25
  -2   7 -15    5.93    3.14
   2  -7  15    2.57    2.72
   6   6 -15    1.88    2.52
  -6  -6  15   -0.74    1.79
   5   6 -15   39.66    5.60
  -5  -6  15   40.27    4.55
   4   6 -15    3.53    2.98
   3   6 -15    2.81    2.38
  -3  -6  15    2.36    2.04
   2   6 -15   75.56    6.87
   2   6 -15   86.91    5.50
  -2  -6  15   80.22    6.52
   1   6 -15   10.75    3.44
   1   6 -15   12.04    2.48
   1   6 -15    7.13    2.10
  -1  -6  15    9.14    4.03
  -1  -6  15    8.22    3.03
   0   6 -15    4.10    1.34
   0   6 -15    6.00    3.04
   0  -6  15    6.14    3.13
   0  -6  15    5.74    2.89
  -1   6 -15   62.27    6.26
   1  -6  15   59.01    5.75
   1  -6  15   57.70    6.64
  -2   6 -15    2.36    2.55
   2  -6  15    4.67    2.79
  -3   6 -15   -0.02    2.47
   3  -6  15    5.58    2.64
   6   5 -15    4.76    3.44
  -6  -5  15    3.90    3.24
  -6  -5  15    5.07    1.64
  -6  -5  15    2.56    1.62
   5   5 -15   76.67    6.97
  -5  -5  15   71.16    4.96
  -5  -5  15   60.57    5.03
   4   5 -15    1.84    2.35
  -4  -5  15    4.91    2.87
   3   5 -15   10.37    3.32
  -3  -5  15   15.96    3.60
   2   5 -15   98.61    7.62
  -2  -5  15   99.44    7.94
  -2  -5  15   89.35    6.65
   1   5 -15    1.64    2.54
   1   5 -15    3.02    1.65
   1   5 -15    4.00    2.09
  -1  -5  15    3.16    2.54
  -1  -5  15    7.66    3.04
   0   5 -15    1.91    1.42
   0   5 -15    4.86    1.71
   0   5 -15    1.48    2.15
   0  -5  15    3.65    3.05
   0  -5  15    0.06    1.88
  -1   5 -15   68.05    6.46
   1  -5  15   80.71    7.23
   1  -5  15   63.89    5.89
  -2   5 -15    2.61    2.25
   2  -5  15    0.09    2.56
   2  -5  15    1.19    2.03
  -3   5 -15    1.24    2.35
   3  -5  15   -1.48    1.67
  -7  -4  15   27.73    5.72
  -7  -4  15   34.63    5.97
   6   4 -15   24.12    4.99
  -6  -4  15   22.81    5.55
  -6  -4  15   14.91    4.20
   5   4 -15   27.69    5.15
   5   4 -15   27.47    4.16
  -5  -4  15   23.58    2.86
  -5  -4  15   31.50    5.74
  -5  -4  15   20.59    3.09
   4   4 -15   35.55    4.76
   4   4 -15   46.25    4.84
  -4  -4  15   36.66    5.16
  -4  -4  15   38.69    3.96
  -4  -4  15   35.15    3.93
   3   4 -15    8.97    2.78
   3   4 -15   10.95    3.60
  -3  -4  15   14.38    4.08
  -3  -4  15    9.38    2.96
   2   4 -15   43.19    5.19
   2   4 -15   39.73    4.57
  -2  -4  15   47.08    4.65
  -2  -4  15   36.69    4.94
   1   4 -15   23.99    3.54
   1   4 -15   30.92    3.93
   1   4 -15   30.21    4.63
   1   4 -15   26.90    3.98
  -1  -4  15   25.02    4.21
  -1  -4  15   20.37    4.65
   0   4 -15    3.39    2.54
   0   4 -15    7.01    2.03
   0   4 -15    3.02    2.50
   0   4 -15    8.62    2.04
   0  -4  15   -1.01    2.05
   0  -4  15    8.70    2.82
  -1   4 -15   41.98    3.27
  -1   4 -15   42.46    3.28
  -1   4 -15   39.91    5.20
   1  -4  15   50.82    5.04
   1  -4  15   53.35    6.01
  -2   4 -15   18.08    4.44
   2  -4  15   18.27    3.79
   2  -4  15   18.36    4.11
  -3   4 -15    5.16    2.96
   3  -4  15   -0.05    1.79
  -4   4 -15   42.50    5.52
   4  -4  15   31.19    4.72
   7   3 -15   58.67    5.58
  -7  -3  15   54.57    6.93
  -7  -3  15   49.45    5.83
  -7  -3  15   45.34    6.44
   6   3 -15    1.63    2.23
   6   3 -15    4.99    2.60
  -6  -3  15    2.35    2.64
  -6  -3  15    3.98    3.14
  -6  -3  15    3.70    3.29
   5   3 -15    6.18    2.79
   5   3 -15    1.45    2.40
  -5  -3  15    5.59    2.85
  -5  -3  15    4.46    2.78
  -5  -3  15    1.41    0.96
  -5  -3  15    2.51    1.08
   4   3 -15   75.69    6.53
   4   3 -15   81.24    6.14
  -4  -3  15   79.54    6.64
  -4  -3  15   72.56    4.53
  -4  -3  15   70.30    4.78
   3   3 -15   11.97    3.50
   3   3 -15    1.44    2.27
  -3  -3  15    6.07    2.92
  -3  -3  15    3.40    1.86
  -3  -3  15   10.85    2.54
   2   3 -15   13.57    3.39
   2   3 -15   13.26    3.60
  -2  -3  15    9.63    3.52
  -2  -3  15   13.54    3.01
   1   3 -15   81.07    6.06
   1   3 -15   92.92    6.61
   1   3 -15   90.35    7.07
  -1  -3  15   83.64    7.16
  -1  -3  15   74.04    5.75
   0   3 -15    5.64    2.54
   0   3 -15    5.01    1.97
   0   3 -15    3.63    2.27
   0   3 -15    4.43    2.39
   0  -3  15    5.11    2.81
   0  -3  15    6.77    2.55
  -1   3 -15   13.21    2.41
  -1   3 -15   16.54    4.01
  -1   3 -15   10.95    2.30
   1  -3  15   16.09    3.77
   1  -3  15   13.41    3.12
  -2   3 -15   68.54    6.38
  -2   3 -15   60.58    3.64
   2  -3  15   55.45    5.42
   2  -3  15   80.24    7.00
  -3   3 -15    2.62    2.47
   3  -3  15    5.20    3.31
   3  -3  15    4.09    2.51
  -4   3 -15   12.97    3.92
   4  -3  15   11.21    3.24
   8   2 -15    6.08    2.83
  -8  -2  15    7.04    3.22
  -8  -2  15    6.95    4.09
  -8  -2  15    3.78    3.50
   7   2 -15   53.77    5.50
  -7  -2  15   56.31    5.87
  -7  -2  15   55.71    6.57
  -7  -2  15   63.03    7.11
   6   2 -15    1.11    2.04
  -6  -2  15    1.45    2.16
  -6  -2  15    1.05    2.33
  -6  -2  15    0.41    2.45
   5   2 -15    2.01    2.37
   5   2 -15    3.59    2.39
  -5  -2  15    1.75    2.81
  -5  -2  15    3.77    2.38
   4   2 -15  108.52    7.53
   4   2 -15   97.96    6.70
  -4  -2  15   95.20    7.36
  -4  -2  15   90.18    4.69
  -4  -2  15   93.57    4.58
   3   2 -15    3.82    2.24
   3   2 -15    2.09    2.30
  -3  -2  15    2.88    1.84
  -3  -2  15   -0.60    1.85
  -3  -2  15    3.20    1.77
   2   2 -15    1.39    1.86
   2   2 -15    1.41    2.32
  -2  -2  15    0.43    1.87
  -2  -2  15   -0.95    1.32
  -2  -2  15   -0.02    2.03
  -2  -2  15    2.61    1.67
   1   2 -15   99.51    6.54
   1   2 -15  100.06    7.54
  -1  -2  15  102.53    6.44
  -1  -2  15  106.28    7.76
   0   2 -15    1.17    1.81
   0   2 -15    1.58    2.09
   0  -2  15    4.03    2.38
   0  -2  15   -0.15    1.67
  -1   2 -15    0.95    1.44
  -1   2 -15    1.11    2.47
  -1   2 -15    1.04    1.50
   1  -2  15   -0.16    1.53
   1  -2  15    0.43    2.34
  -2   2 -15   72.90    4.64
  -2   2 -15   93.01    7.27
  -2   2 -15   74.15    4.61
   2  -2  15   91.91    7.39
  -3   2 -15    1.07    2.28
  -3   2 -15   -0.23    0.91
   3  -2  15    0.30    1.98
   3  -2  15   -0.93    1.87
  -4   2 -15    1.35    2.46
   4  -2  15   -0.75    2.68
   4  -2  15    0.49    2.11
   8   1 -15    3.96    2.77
  -8  -1  15   11.80    4.28
  -8  -1  15    7.50    3.01
  -8  -1  15   16.62    4.87
   7   1 -15   31.09    4.42
  -7  -1  15   24.29    4.54
  -7  -1  15   13.68    4.37
  -7  -1  15   13.22    4.55
   6   1 -15   27.92    4.64
  -6  -1  15   15.24    3.90
  -6  -1  15   32.96    6.43
  -6  -1  15   24.42    4.94
   5   1 -15   10.66    3.11
   5   1 -15   14.02    3.70
  -5  -1  15   11.99    3.55
  -5  -1  15   11.18    4.02
   4   1 -15   50.71    5.35
   4   1 -15   48.73    4.83
  -4  -1  15   55.65    6.23
  -4  -1  15   41.05    5.10
   3   1 -15   33.57    4.64
   3   1 -15   40.51    4.34
  -3  -1  15   34.17    4.67
  -3  -1  15   33.99    2.93
  -3  -1  15   27.31    2.96
   2   1 -15    6.50    2.71
   2   1 -15   12.40    3.01
  -2  -1  15    7.20    2.02
  -2  -1  15    4.99    1.77
  -2  -1  15    7.06    2.99
   1   1 -15   68.27    6.15
   1   1 -15   66.32    5.31
  -1  -1  15   60.78    4.96
  -1  -1  15   67.86    5.20
  -1  -1  15   61.55    6.03
   0   1 -15   25.39    3.85
   0   1 -15   32.74    4.78
   0  -1  15   37.09    5.03
   0  -1  15   30.02    3.93
  -1   1 -15    6.71    2.90
  -1   1 -15    9.36    2.81
   1  -1  15    8.05    2.70
   1  -1  15    6.66    2.98
  -2   1 -15   54.12    4.25
  -2   1 -15   51.20    4.26
  -2   1 -15   46.75    5.63
   2  -1  15   57.27    5.21
  -3   1 -15    5.72    1.65
  -3   1 -15   12.26    3.86
   3  -1  15    9.79    3.41
   3  -1  15    2.43    2.19
  -4   1 -15    1.47    2.90
   4  -1  15    4.30    3.29
   4  -1  15   -0.09    2.11
   8   0 -15   -1.14    2.08
  -8   0  15    3.12    3.36
  -8   0  15    2.21    2.86
  -8   0  15    6.18    3.12
   7   0 -15    4.79    2.66
  -7   0  15    0.00    2.57
  -7   0  15    0.71    2.39
  -7   0  15    4.90    3.40
   6   0 -15   62.65    5.38
  -6   0  15   54.43    6.75
  -6   0  15   47.46    5.40
   5   0 -15   11.18    3.11
  -5   0  15    1.64    2.14
  -5   0  15    2.21    2.38
   4   0 -15    6.81    2.72
   4   0 -15    7.95    2.87
  -4   0  15   11.40    3.83
  -4   0  15   13.72    3.52
   3   0 -15   76.52    6.48
   3   0 -15   77.59    5.87
  -3   0  15   67.91    3.00
  -3   0  15   78.07    3.12
  -3   0  15   84.91    7.21
  -3   0  15   77.95    6.39
   2   0 -15   12.64    3.17
   2   0 -15    4.42    2.38
  -2   0  15    4.32    1.60
  -2   0  15    8.66    3.18
  -2   0  15    8.59    1.83
   1   0 -15   19.08    4.50
   1   0 -15   25.84    4.23
  -1   0  15   15.21    2.58
  -1   0  15   24.13    3.18
  -1   0  15   26.12    4.33
   0   0 -15   72.55    6.49
   0   0 -15   72.19    5.71
   0   0  15   62.73    6.20
   0   0  15   62.25    5.13
  -1   0 -15    8.54    3.10
  -1   0 -15    6.28    2.81
   1   0  15    5.74    2.79
   1   0  15    6.14    2.43
  -2   0 -15   40.46    5.37
   2   0  15   25.01    5.06
   2   0  15   23.06    4.18
  -3   0 -15   34.06    3.71
  -3   0 -15   22.49    5.07
   3   0  15   26.25    4.08
   3   0  15   35.22    5.47
  -4   0 -15    6.78    3.38
  -4   0 -15    3.10    1.42
   4   0  15    4.12    2.96
   4   0  15    2.35    3.12
   7  -1 -15    2.19    2.03
  -7   1  15    2.62    2.94
  -7   1  15    1.13    2.22
   6  -1 -15   86.66    6.25
  -6   1  15   78.71    6.27
  -6   1  15   73.29    7.81
   5  -1 -15    2.91    2.41
  -5   1  15   -3.03    1.88
  -5   1  15    0.55    2.15
   4  -1 -15    1.60    2.02
  -4   1  15    3.82    2.75
  -4   1  15    2.30    2.29
   3  -1 -15  123.33    8.06
   3  -1 -15  115.41    7.10
  -3   1  15  113.84    8.50
  -3   1  15   98.72    7.39
   2  -1 -15    0.50    1.86
   2  -1 -15   -1.62    1.83
  -2   1  15   -0.33    0.93
  -2   1  15    0.68    1.01
  -2   1  15    1.00    2.03
  -2   1  15   -0.40    1.96
   1  -1 -15   -0.33    2.01
   1  -1 -15    0.89    2.22
  -1   1  15   -1.15    1.29
  -1   1  15    0.65    1.95
  -1   1  15    0.13    1.30
   0  -1 -15   83.42    6.23
   0  -1 -15   74.77    6.79
   0   1  15   78.13    5.34
   0   1  15   75.78    6.93
   0   1  15   86.23    5.28
  -1  -1 -15    1.84    2.18
  -1  -1 -15    0.65    2.19
   1   1  15   -1.28    2.02
   1   1  15   -0.07    1.95
  -2  -1 -15    3.57    2.90
  -2  -1 -15   -0.90    2.01
   2   1  15    2.48    2.93
   2   1  15   -0.02    1.81
  -3  -1 -15   42.81    5.86
   3   1  15   37.50    5.74
   3   1  15   47.14    5.21
  -4  -1 -15   -1.57    1.62
  -4  -1 -15    1.40    1.74
  -4  -1 -15    0.92    2.70
   4   1  15    4.30    3.64
   4   1  15   -0.09    2.48
   7  -2 -15   12.17    3.26
  -7   2  15   10.05    2.96
  -7   2  15    3.03    2.75
   6  -2 -15   41.62    4.62
  -6   2  15   44.14    6.32
  -6   2  15   26.23    4.03
   5  -2 -15   31.45    4.13
  -5   2  15   22.30    5.06
  -5   2  15   23.31    3.84
   4  -2 -15    4.54    2.54
  -4   2  15    6.00    2.66
  -4   2  15    6.31    3.35
   3  -2 -15   53.12    5.23
  -3   2  15   60.57    6.31
  -3   2  15   51.62    5.55
   2  -2 -15    7.16    3.17
   2  -2 -15    8.88    3.07
  -2   2  15   12.81    3.60
  -2   2  15   15.55    4.26
   1  -2 -15    0.91    2.36
   1  -2 -15    2.47    2.77
  -1   2  15    1.84    1.31
  -1   2  15    6.98    3.10
  -1   2  15   -0.02    1.25
  -1   2  15    2.74    2.52
   0  -2 -15   52.10    5.51
   0  -2 -15   61.75    6.34
   0   2  15   52.26    5.51
   0   2  15   47.09    5.71
   0   2  15   43.07    3.77
   0   2  15   50.04    4.05
  -1  -2 -15    8.40    3.27
  -1  -2 -15    8.38    3.22
   1   2  15    5.20    3.05
   1   2  15    5.22    3.09
  -2  -2 -15    0.84    2.44
  -2  -2 -15    0.80    2.33
   2   2  15    0.03    2.79
  -3  -2 -15   18.83    5.15
   3   2  15   35.31    5.74
   6  -3 -15   10.94    3.13
  -6   3  15    4.12    3.54
  -6   3  15   13.74    3.32
   5  -3 -15   32.02    4.40
  -5   3  15   30.87    4.41
  -5   3  15   29.33    6.06
   4  -3 -15    5.54    2.90
  -4   3  15    5.40    3.23
  -4   3  15    1.04    2.25
   3  -3 -15   25.60    4.45
  -3   3  15   13.56    3.74
  -3   3  15   16.80    4.33
   2  -3 -15   38.18    4.92
  -2   3  15   34.91    4.86
  -2   3  15   20.11    4.50
   1  -3 -15    1.89    2.64
   1  -3 -15    4.10    2.82
  -1   3  15    3.76    2.67
  -1   3  15    3.82    2.83
   0  -3 -15   17.43    4.16
   0  -3 -15   18.24    4.63
   0   3  15   21.43    2.82
   0   3  15   16.46    2.38
   0   3  15   13.63    3.85
   0   3  15   15.68    4.16
  -1  -3 -15   32.20    5.20
  -1  -3 -15   28.21    4.96
   1   3  15   23.24    3.66
   1   3  15   27.43    5.61
   1   3  15   19.98    4.29
   1   3  15   22.45    3.18
  -2  -3 -15    2.42    2.77
  -2  -3 -15    5.88    2.95
   2   3  15    1.51    2.93
   5  -4 -15   41.00    4.77
  -5   4  15   56.40    6.84
  -5   4  15   49.97    5.17
   4  -4 -15   -1.89    1.91
  -4   4  15    0.23    2.58
  -4   4  15    0.53    2.22
   3  -4 -15   -1.12    2.04
  -3   4  15    2.02    2.25
  -3   4  15   -1.12    2.36
   2  -4 -15   60.71    5.93
  -2   4  15   51.57    6.34
  -2   4  15   57.30    6.12
   1  -4 -15    0.70    2.45
  -1   4  15    2.18    2.50
  -1   4  15   -0.10    2.39
   0  -4 -15   -2.18    2.60
   0  -4 -15    1.17    2.78
   0   4  15   -1.09    2.41
   0   4  15   -0.36    2.32
  -1  -4 -15   39.44    5.54
  -1  -4 -15   46.92    6.80
   1   4  15   33.48    3.26
   1   4  15   51.50    6.44
   1   4  15   37.38    3.58
   4  -5 -15    5.19    2.59
  -4   5  15    7.38    3.49
   3  -5 -15    4.49    2.69
  -3   5  15    4.85    3.63
  -3   5  15    3.86    2.80
   2  -5 -15   35.36    5.28
  -2   5  15   37.23    5.36
  -2   5  15   27.93    5.52
   1  -5 -15    5.22    3.26
  -1   5  15    4.54    3.17
  -1   5  15    4.65    3.01
   3   7 -16   46.79    5.95
  -3  -7  16   41.70    5.87
   2   7 -16    1.92    2.98
   2   7 -16    2.46    1.68
  -2  -7  16   -1.64    2.45
  -2  -7  16    3.06    3.47
   1   7 -16    1.05    2.94
  -1  -7  16    7.81    3.20
  -1  -7  16    2.69    3.40
   0   7 -16   47.36    6.24
   0  -7  16   58.12    6.92
   0  -7  16   41.68    5.51
   5   6 -16   -0.23    2.52
   4   6 -16    1.26    2.67
   3   6 -16   64.03    6.72
  -3  -6  16   58.60    6.75
  -3  -6  16   85.65   10.38
   2   6 -16    0.43    2.43
   2   6 -16   -2.17    1.95
  -2  -6  16    1.81    2.55
  -2  -6  16   -3.44    2.33
   1   6 -16    4.33    1.87
   1   6 -16    3.72    3.02
   1   6 -16    4.40    1.98
  -1  -6  16    9.19    3.12
  -1  -6  16    5.39    3.03
   0   6 -16   75.09    7.14
   0   6 -16   67.04    3.47
   0  -6  16   67.24    6.42
   0  -6  16   71.36    7.52
  -1   6 -16    2.28    2.67
   1  -6  16    2.45    2.32
   1  -6  16    1.33    3.14
   6   5 -16   21.85    4.89
  -6  -5  16   28.26    5.87
   5   5 -16   29.92    4.96
  -5  -5  16   22.06    3.46
  -5  -5  16   16.53    3.21
   4   5 -16   13.71    4.08
  -4  -5  16    9.24    3.88
   3   5 -16   41.44    5.65
  -3  -5  16   42.21    5.94
   2   5 -16   35.89    5.29
  -2  -5  16   31.77    5.21
  -2  -5  16   42.82    5.04
   1   5 -16    9.60    2.38
   1   5 -16   16.60    4.42
  -1  -5  16    7.78    3.17
  -1  -5  16    9.71    4.06
   0   5 -16   22.88    2.91
   0   5 -16   28.80    2.90
   0   5 -16   31.36    5.73
   0  -5  16   18.64    3.85
   0  -5  16   33.62    6.15
  -1   5 -16    7.99    3.48
   1  -5  16    5.95    3.41
   1  -5  16    6.80    2.98
  -2   5 -16    4.14    2.77
   2  -5  16    1.78    2.26
   6   4 -16    6.90    3.38
  -6  -4  16   -0.51    2.95
  -6  -4  16   -0.31    2.50
   5   4 -16   73.60    6.20
   5   4 -16   64.35    6.42
  -5  -4  16   58.74    3.95
  -5  -4  16   43.03    3.86
  -5  -4  16   60.03    6.61
   4   4 -16    2.92    2.46
   4   4 -16    1.66    2.58
  -4  -4  16    3.89    2.24
  -4  -4  16    3.97    3.04
  -4  -4  16    2.97    2.15
   3   4 -16    5.37    2.77
   3   4 -16    1.81    2.48
  -3  -4  16    2.62    2.35
   2   4 -16   60.75    5.72
   2   4 -16   63.03    6.54
  -2  -4  16   62.19    6.69
  -2  -4  16   69.09    5.73
   1   4 -16    2.36    2.72
  -1  -4  16    2.98    2.85
  -1  -4  16    4.82    2.71
   0   4 -16   13.54    3.97
   0   4 -16   17.05    2.74
   0   4 -16   14.42    2.78
   0  -4  16   12.03    3.96
   0  -4  16    9.74    2.98
  -1   4 -16   33.21    2.99
  -1   4 -16   38.10    5.27
   1  -4  16   27.59    5.45
   1  -4  16   32.52    4.55
  -2   4 -16    2.78    2.93
   2  -4  16    7.62    2.85
   2  -4  16   15.14    4.53
  -3   4 -16    1.82    2.51
   3  -4  16    4.85    2.63
   7   3 -16    1.12    2.24
  -7  -3  16    2.11    3.48
  -7  -3  16   -4.67    3.59
  -7  -3  16    0.71    2.97
   6   3 -16    4.27    2.92
  -6  -3  16   -2.72    2.48
  -6  -3  16    1.57    2.63
   5   3 -16   83.68    7.25
   5   3 -16   76.52    6.48
  -5  -3  16   78.28    6.93
   4   3 -16    1.45    2.44
   4   3 -16    0.07    2.00
  -4  -3  16    0.44    1.50
  -4  -3  16    2.24    2.22
  -4  -3  16   -1.07    1.48
   3   3 -16   -0.34    1.96
   3   3 -16   -1.88    1.91
  -3  -3  16   -0.73    2.23
  -3  -3  16    1.40    1.82
  -3  -3  16    1.78    1.75
   2   3 -16   62.67    6.27
   2   3 -16   61.33    5.59
  -2  -3  16   61.61    6.55
  -2  -3  16   60.41    5.32
   1   3 -16    1.96    2.31
   1   3 -16    1.58    2.16
   1   3 -16    0.35    2.05
  -1  -3  16    1.53    2.11
  -1  -3  16    0.85    2.12
   0   3 -16    2.71    1.62
   0   3 -16    1.49    1.89
   0  -3  16   -1.02    2.15
   0  -3  16    0.16    1.92
  -1   3 -16   51.20    4.23
  -1   3 -16   63.05    4.44
  -1   3 -16   59.58    6.41
   1  -3  16   69.50    5.80
   1  -3  16   90.19    7.41
  -2   3 -16   -1.00    2.18
  -2   3 -16    1.15    1.26
   2  -3  16    2.30    2.99
   2  -3  16    0.16    2.08
  -3   3 -16    3.01    2.93
   3  -3  16   -1.06    1.86
   3  -3  16    2.32    3.07
   7   2 -16   11.00    3.28
  -7  -2  16    8.22    3.13
  -7  -2  16   10.93    4.20
   6   2 -16   11.51    3.38
  -6  -2  16    8.11    3.51
  -6  -2  16    9.66    4.08
   5   2 -16   42.75    5.03
   5   2 -16   34.56    5.81
  -5  -2  16   29.99    5.63
  -5  -2  16   30.93    6.04
   4   2 -16   21.62    3.98
   4   2 -16   22.19    4.64
  -4  -2  16   16.65    2.35
  -4  -2  16   17.03    2.18
  -4  -2  16   17.31    4.36
   3   2 -16    7.97    3.24
   3   2 -16    7.67    2.82
  -3  -2  16    9.19    2.30
  -3  -2  16    8.24    2.23
  -3  -2  16   17.25    4.23
   2   2 -16   31.88    4.43
   2   2 -16   37.52    5.13
  -2  -2  16   44.13    5.58
  -2  -2  16   65.38    4.71
   1   2 -16   15.95    3.60
   1   2 -16   13.50    3.76
  -1  -2  16   18.16    4.29
  -1  -2  16   12.30    3.02
   0   2 -16   13.85    3.92
   0   2 -16   11.09    3.20
   0  -2  16   17.14    4.26
   0  -2  16   10.13    2.97
  -1   2 -16   29.10    4.75
  -1   2 -16   29.44    3.50
   1  -2  16   37.43    5.42
   1  -2  16   27.47    4.07
  -2   2 -16    2.85    1.61
  -2   2 -16    5.27    3.03
  -2   2 -16    5.67    1.72
   2  -2  16    2.08    2.20
   2  -2  16    2.26    2.53
  -3   2 -16    1.54    2.64
  -3   2 -16    3.57    1.47
   3  -2  16    7.30    2.84
   3  -2  16    1.48    2.77
   7   1 -16   58.70    5.89
  -7  -1  16   46.55    5.82
  -7  -1  16   60.05    7.39
   6   1 -16    2.12    2.42
  -6  -1  16    0.82    2.87
  -6  -1  16    1.78    2.48
   5   1 -16    6.93    3.02
  -5  -1  16    9.25    3.72
  -5  -1  16    8.47    3.18
   4   1 -16   52.53    5.11
   4   1 -16   49.39    5.68
  -4  -1  16   45.12    6.05
  -4  -1  16   35.90    5.04
   3   1 -16    4.37    2.71
   3   1 -16    8.91    2.98
  -3  -1  16   10.70    2.17
  -3  -1  16    9.75    3.43
  -3  -1  16    8.65    2.03
   2   1 -16   15.33    3.37
   2   1 -16   10.92    3.45
  -2  -1  16    7.93    2.20
  -2  -1  16   13.43    2.66
  -2  -1  16    9.94    3.11
   1   1 -16   36.19    5.05
   1   1 -16   42.14    4.59
  -1  -1  16   40.57    4.15
  -1  -1  16   42.62    5.57
   0   1 -16   13.99    3.66
   0   1 -16   19.57    3.82
   0  -1  16   13.97    3.95
   0  -1  16   14.08    3.17
  -1   1 -16   11.45    3.94
   1  -1  16    8.61    3.43
   1  -1  16   11.68    3.20
  -2   1 -16    8.36    3.14
  -2   1 -16   12.52    2.76
   2  -1  16   12.21    3.48
   2  -1  16   16.02    4.39
  -3   1 -16   14.75    4.09
  -3   1 -16    6.48    1.77
   3  -1  16   14.57    4.36
   3  -1  16   11.94    3.38
   7   0 -16   39.03    4.79
  -7   0  16   24.96    5.95
  -7   0  16   36.69    5.11
   6   0 -16    1.14    2.35
  -6   0  16   -1.22    2.31
  -6   0  16    0.33    2.39
   5   0 -16    3.75    2.39
  -5   0  16   -2.97    2.29
  -5   0  16    1.76    2.11
   4   0 -16   82.87    6.51
   4   0 -16   86.11    7.53
  -4   0  16   84.36    7.97
  -4   0  16   79.54    6.78
   3   0 -16    5.26    2.82
   3   0 -16    0.40    2.08
  -3   0  16    0.78    2.36
  -3   0  16    2.02    2.67
   2   0 -16   -0.57    2.10
   2   0 -16   -1.49    1.98
  -2   0  16    1.39    1.29
  -2   0  16    0.96    2.05
  -2   0  16    0.15    1.29
   1   0 -16   77.24    6.83
   1   0 -16   68.51    5.87
  -1   0  16   71.01    6.75
  -1   0  16   68.72    4.66
  -1   0  16   74.30    5.10
   0   0 -16    2.84    2.57
   0   0 -16    3.45    2.57
   0   0  16    6.02    3.09
  -1   0 -16   -0.87    2.39
  -1   0 -16    1.05    2.23
   1   0  16    1.73    2.22
   1   0  16   -2.38    2.11
  -2   0 -16   29.99    5.80
   2   0  16   34.36    5.46
   2   0  16   14.53    3.53
  -3   0 -16    2.83    1.90
  -3   0 -16    8.21    3.70
   3   0  16    2.13    2.40
   3   0  16    5.76    3.38
   7  -1 -16   38.24    4.72
  -7   1  16   34.30    5.00
  -7   1  16   38.64    6.54
   6  -1 -16    3.48    2.37
  -6   1  16   -0.06    2.64
  -6   1  16   -0.40    2.22
   5  -1 -16   26.30    4.43
  -5   1  16   12.71    4.41
  -5   1  16   19.10    4.20
   4  -1 -16   47.54    5.00
  -4   1  16   46.60    5.40
  -4   1  16   40.36    5.88
   3  -1 -16   15.85    4.20
   3  -1 -16   14.02    3.45
  -3   1  16   17.48    4.66
  -3   1  16   18.12    4.48
   2  -1 -16   12.92    3.37
   2  -1 -16    6.58    3.20
  -2   1  16    5.54    1.31
  -2   1  16    9.29    3.41
  -2   1  16    8.09    1.56
  -2   1  16    7.17    2.98
   1  -1 -16   29.50    4.47
   1  -1 -16   34.63    5.20
  -1   1  16   36.76    3.36
  -1   1  16   28.96    3.30
  -1   1  16   36.67    5.10
   0  -1 -16    1.09    2.25
   0  -1 -16    4.91    3.20
   0   1  16    2.25    2.49
   0   1  16    0.66    1.65
  -1  -1 -16    2.36    2.61
  -1  -1 -16    6.48    2.99
   1   1  16    2.85    2.84
  -2  -1 -16   17.50    4.67
   2   1  16   19.20    4.93
   6  -2 -16   26.77    4.26
  -6   2  16   33.73    4.65
  -6   2  16   32.25    6.72
   5  -2 -16   12.51    3.38
  -5   2  16    4.79    3.52
  -5   2  16    1.92    2.09
   4  -2 -16    4.96    2.74
  -4   2  16    0.90    2.02
  -4   2  16    2.61    3.04
   3  -2 -16   27.86    4.60
  -3   2  16   16.92    4.45
  -3   2  16   14.34    3.95
   2  -2 -16   10.69    3.41
   2  -2 -16   10.28    3.37
  -2   2  16    8.30    3.41
  -2   2  16    7.78    3.37
   1  -2 -16   16.71    4.19
   1  -2 -16   14.66    4.28
  -1   2  16    9.90    1.84
  -1   2  16   11.41    1.83
  -1   2  16   15.26    4.05
  -1   2  16   20.53    4.81
   0  -2 -16   17.47    4.12
   0  -2 -16    9.51    3.66
   0   2  16    6.51    2.23
   0   2  16    8.77    3.51
   0   2  16   10.09    3.52
   0   2  16    5.98    2.09
  -1  -2 -16    6.83    3.55
  -1  -2 -16   20.72    4.32
   1   2  16    9.89    3.66
  -2  -2 -16    8.82    4.24
   2   2  16    8.08    3.64
   5  -3 -16    0.73    2.29
  -5   3  16    3.78    3.30
  -5   3  16    6.21    2.92
   4  -3 -16   -0.83    2.46
  -4   3  16    0.49    2.34
  -4   3  16   -0.24    2.99
   3  -3 -16   39.89    5.13
  -3   3  16   34.57    5.63
  -3   3  16   30.40    4.76
   2  -3 -16    6.00    3.14
  -2   3  16    6.38    3.06
  -2   3  16   10.02    3.89
   1  -3 -16   -1.42    2.33
   1  -3 -16    1.39    2.71
  -1   3  16   -0.51    2.30
  -1   3  16    0.08    2.64
   0  -3 -16   34.82    5.56
   0  -3 -16   33.30    5.35
   0   3  16   26.94    5.61
   0   3  16   26.56    2.89
   0   3  16   37.52    5.21
   0   3  16   30.08    2.81
  -1  -3 -16    3.74    3.31
  -1  -3 -16    4.90    3.19
   1   3  16    5.62    3.43
   1   3  16    7.63    2.54
   1   3  16    6.28    2.15
   4  -4 -16    8.04    3.15
  -4   4  16    5.23    2.94
  -4   4  16    6.44    3.54
   3  -4 -16   37.62    5.81
  -3   4  16   28.45    5.26
  -3   4  16   31.10    6.40
   2  -4 -16    0.74    2.61
  -2   4  16    2.25    2.73
  -2   4  16   -2.25    2.59
   1  -4 -16    2.41    3.00
  -1   4  16    8.02    3.57
  -1   4  16    4.51    3.14
   3   6 -17   13.59    4.55
  -3  -6  17    1.07    3.48
   2   6 -17   27.88    5.74
  -2  -6  17   18.67    4.40
  -2  -6  17   20.43    5.13
   1   6 -17   19.78    2.85
   1   6 -17    8.99    3.93
   1   6 -17   14.12    2.79
  -1  -6  17   11.20    4.55
  -1  -6  17   15.88    3.85
   4   5 -17   -2.39    2.59
  -4  -5  17    5.42    3.46
   3   5 -17   24.96    5.49
  -3  -5  17   12.27    3.80
   2   5 -17   32.24    5.41
  -2  -5  17   35.09    4.99
  -2  -5  17   30.55    6.19
   1   5 -17    3.33    1.84
   1   5 -17    1.75    2.37
  -1  -5  17    1.82    2.36
  -1  -5  17    0.79    2.83
   0   5 -17   17.68    2.59
   0   5 -17   16.32    4.45
   0   5 -17   14.87    2.56
   0  -5  17   23.01    5.07
   0  -5  17    8.59    3.23
  -1   5 -17   21.65    4.92
   1  -5  17   14.52    3.67
   1  -5  17   17.50    5.00
   5   4 -17    1.76    2.28
   5   4 -17    5.27    3.33
  -5  -4  17    2.89    3.13
  -5  -4  17    2.41    1.64
   4   4 -17   13.53    4.50
   4   4 -17   12.19    3.49
  -4  -4  17   17.85    4.50
  -4  -4  17   14.06    3.09
  -4  -4  17    7.46    2.32
   3   4 -17   32.73    4.87
   3   4 -17   26.51    5.27
  -3  -4  17   30.74    6.03
   2   4 -17    3.83    2.92
   2   4 -17    7.14    3.29
  -2  -4  17    7.91    3.69
   1   4 -17   13.56    4.22
  -1  -4  17   16.10    4.31
  -1  -4  17    7.51    3.13
   0   4 -17   10.11    2.61
   0   4 -17    8.83    2.27
   0   4 -17   15.77    4.32
   0  -4  17    9.72    4.13
   0  -4  17    7.73    2.81
  -1   4 -17    6.92    1.91
  -1   4 -17    6.05    3.02
  -1   4 -17    6.96    1.91
   1  -4  17    8.54    3.44
   1  -4  17    5.09    2.84
  -2   4 -17    5.58    2.95
   2  -4  17    5.04    2.64
   2  -4  17    8.60    3.90
   6   3 -17   12.54    3.93
  -6  -3  17    3.85    2.92
  -6  -3  17    5.15    3.69
   5   3 -17    4.37    3.02
   5   3 -17    5.60    3.46
  -5  -3  17    4.41    3.17
  -5  -3  17    3.56    2.91
   4   3 -17   25.26    5.28
   4   3 -17   20.09    4.44
  -4  -3  17   13.23    2.69
  -4  -3  17   18.12    4.40
  -4  -3  17   21.38    2.92
   3   3 -17   13.72    3.66
   3   3 -17   16.62    4.38
  -3  -3  17   11.60    3.86
  -3  -3  17   14.97    3.08
  -3  -3  17    6.91    2.61
   2   3 -17    1.57    2.75
   2   3 -17    0.70    2.18
  -2  -3  17    2.41    2.74
   1   3 -17   17.35    4.03
   1   3 -17   21.60    5.04
  -1  -3  17   21.05    5.18
  -1  -3  17   17.88    3.63
   0   3 -17    7.52    3.24
   0  -3  17   10.75    3.26
   0  -3  17    9.56    3.63
  -1   3 -17    2.92    1.64
  -1   3 -17   -0.20    2.57
  -1   3 -17    1.73    1.67
   1  -3  17    0.46    2.54
   1  -3  17    5.79    2.72
  -2   3 -17   32.54    3.62
  -2   3 -17   34.77    5.45
   2  -3  17   36.77    6.11
   2  -3  17   24.22    4.58
   6   2 -17    2.13    2.74
  -6  -2  17   -0.28    2.61
  -6  -2  17    3.30    3.19
   5   2 -17   21.76    4.51
  -5  -2  17   20.22    5.53
  -5  -2  17    8.66    3.65
   4   2 -17   39.40    5.45
   4   2 -17   27.86    4.91
  -4  -2  17   34.50    5.18
  -4  -2  17   32.77    2.51
  -4  -2  17   27.01    2.39
   3   2 -17    1.47    2.23
   3   2 -17    5.36    3.06
  -3  -2  17   -0.49    1.68
  -3  -2  17    0.28    1.50
  -3  -2  17    0.81    2.44
   2   2 -17   14.01    3.56
   2   2 -17    6.92    3.18
  -2  -2  17   21.83    4.76
  -2  -2  17   11.28    2.95
   1   2 -17   30.59    4.50
   1   2 -17   33.74    5.09
  -1  -2  17   31.73    5.15
   0   2 -17    0.48    2.26
   0  -2  17   -0.25    1.92
   0  -2  17    2.08    2.75
  -1   2 -17    3.04    2.34
  -1   2 -17    4.73    2.90
   1  -2  17    2.88    2.91
   1  -2  17    4.91    2.63
  -2   2 -17   32.75    5.48
  -2   2 -17   35.67    3.58
   2  -2  17   30.86    4.77
   2  -2  17   36.56    5.86
   6   1 -17   13.44    3.75
  -6  -1  17   12.79    3.93
  -6  -1  17    8.89    4.30
   5   1 -17   33.03    5.36
  -5  -1  17   24.49    5.71
  -5  -1  17   25.34    5.26
   4   1 -17   13.18    3.63
   4   1 -17   11.23    3.65
  -4  -1  17    7.28    3.64
  -4  -1  17    8.54    3.42
   3   1 -17    7.48    3.36
   3   1 -17    4.24    2.58
  -3  -1  17    3.17    1.49
  -3  -1  17    2.16    1.47
  -3  -1  17    4.51    2.68
   2   1 -17   18.99    4.77
   2   1 -17   28.93    4.33
  -2  -1  17   22.66    3.24
  -2  -1  17   29.64    5.34
  -2  -1  17   26.99    3.33
   1   1 -17   27.80    4.62
   1   1 -17   22.88    5.13
  -1  -1  17   33.16    5.29
   0   1 -17    5.45    2.85
   0   1 -17    7.13    2.97
   0  -1  17   11.28    3.87
  -1   1 -17   15.33    4.41
   1  -1  17   11.08    3.23
   1  -1  17   17.41    3.72
  -2   1 -17   15.88    4.50
  -2   1 -17   13.38    2.59
   2  -1  17   10.99    3.50
   2  -1  17    7.17    3.75
   6   0 -17   29.13    4.45
  -6   0  17   18.40    4.36
  -6   0  17   15.83    5.20
   5   0 -17   19.34    4.11
  -5   0  17   11.33    3.66
  -5   0  17   19.74    5.87
   4   0 -17    4.84    2.59
  -4   0  17    0.84    2.36
  -4   0  17    3.14    3.09
   3   0 -17   35.19    4.90
   3   0 -17   39.08    5.66
  -3   0  17   45.59    5.61
  -3   0  17   44.17    6.10
   2   0 -17   23.60    4.41
   2   0 -17   16.62    4.43
  -2   0  17   11.73    2.10
  -2   0  17   18.55    4.74
  -2   0  17   20.53    2.64
   1   0 -17    1.03    2.68
   1   0 -17   -0.45    2.16
  -1   0  17    1.81    2.19
  -1   0  17    1.48    1.75
  -1   0  17    1.36    1.75
   0   0 -17   28.52    4.96
   0   0 -17   25.56    5.55
   0   0  17   11.89    3.58
  -1   0 -17    8.16    3.61
   1   0  17    1.94    2.97
  -2   0 -17    7.44    3.19
   2   0  17    6.00    3.39
   2   0  17    6.19    4.82
   6  -1 -17   25.98    4.73
   5  -1 -17   -1.86    2.14
  -5   1  17    1.05    2.77
  -5   1  17    2.41    2.36
   4  -1 -17   13.98    3.59
  -4   1  17    1.54    2.62
  -4   1  17    8.91    3.45
   3  -1 -17   36.26    4.83
  -3   1  17   34.22    5.50
  -3   1  17   24.98    4.99
   2  -1 -17    1.96    2.54
   2  -1 -17    1.29    2.46
  -2   1  17   -2.32    2.01
  -2   1  17   -1.04    1.84
   1  -1 -17    0.89    2.35
   1  -1 -17    0.82    2.59
  -1   1  17    1.48    1.42
  -1   1  17   -1.23    1.41
  -1   1  17    2.90    2.65
  -1   1  17    5.33    2.86
   0  -1 -17   42.15    5.91
   0  -1 -17   30.26    5.11
   0   1  17   21.83    5.09
   0   1  17   28.75    3.87
  -1  -1 -17    2.19    3.41
  -1  -1 -17    1.42    2.52
   1   1  17    2.55    2.87
   5  -2 -17    2.39    2.50
  -5   2  17   -0.29    2.51
  -5   2  17    9.24    4.40
   4  -2 -17   17.85    4.06
  -4   2  17   17.71    4.33
  -4   2  17    5.11    3.58
   3  -2 -17   19.22    4.24
  -3   2  17   11.79    3.74
  -3   2  17   17.09    4.76
   2  -2 -17    4.23    2.82
  -2   2  17    4.42    3.06
  -2   2  17    1.99    2.54
   1  -2 -17   10.04    3.98
   1  -2 -17    9.24    3.70
  -1   2  17    7.14    1.72
  -1   2  17   10.09    3.76
  -1   2  17    7.14    3.19
   0  -2 -17   29.34    5.01
   0  -2 -17   21.87    4.95
   0   2  17   25.18    3.42
   0   2  17   16.36    4.50
   0   2  17   23.66    3.07
   0   2  17   20.72    4.88
   3  -3 -17    1.74    2.78
  -3   3  17    1.64    2.56
  -3   3  17    0.77    2.68
   2  -3 -17   16.26    4.41
  -2   3  17   12.11    3.99
  -2   3  17   15.00    4.58
   4   4 -18    1.25    2.90
   4   4 -18   -0.46    2.35
  -4  -4  18    2.29    3.16
  -4  -4  18    1.85    2.21
   3   4 -18    1.83    2.86
   3   4 -18    2.24    2.85
  -3  -4  18   -1.20    2.53
   2   4 -18   49.19    6.23
  -2  -4  18   41.13    6.14
   1   4 -18    2.02    2.42
  -1  -4  18    6.81    3.94
   0   4 -18    0.96    2.46
   0   4 -18    5.57    1.81
   0  -4  18    4.13    3.75
   0  -4  18   10.02    3.38
   4   3 -18    2.41    2.91
   4   3 -18    5.22    3.11
  -4  -3  18    3.66    2.07
  -4  -3  18    1.12    1.75
  -4  -3  18   -0.42    2.78
   3   3 -18    0.18    2.53
   3   3 -18    0.49    2.46
  -3  -3  18   -0.80    2.17
  -3  -3  18    1.02    2.39
  -3  -3  18    3.05    3.06
   2   3 -18   72.36    7.25
   2   3 -18   70.35    6.36
  -2  -3  18   65.33    7.31
   1   3 -18    1.64    2.41
  -1  -3  18   -1.60    2.47
   0   3 -18   -1.52    2.30
   0  -3  18    5.56    2.71
   0  -3  18    5.29    3.32
   5   2 -18   26.40    4.93
  -5  -2  18   24.59    5.39
  -5  -2  18   23.59    5.95
   4   2 -18   21.31    4.56
   4   2 -18   26.23    5.71
  -4  -2  18   20.28    5.03
   3   2 -18    6.51    3.23
   3   2 -18   -2.09    2.46
  -3  -2  18   -2.20    2.38
  -3  -2  18    5.69    1.99
  -3  -2  18    4.71    2.12
   2   2 -18   40.42    5.31
   2   2 -18   35.59    5.44
  -2  -2  18   43.10    5.93
  -2  -2  18   37.15    4.18
   1   2 -18   10.32    3.36
   1   2 -18    9.82    3.76
  -1  -2  18   19.05    4.97
   0   2 -18    2.99    2.79
   0  -2  18   -1.45    2.45
   5   1 -18   -0.33    2.31
  -5  -1  18    6.13    3.38
  -5  -1  18    1.13    3.07
   4   1 -18   40.71    5.22
  -4  -1  18   27.81    6.47
  -4  -1  18   34.19    5.38
   3   1 -18    8.63    3.02
   3   1 -18   13.15    4.13
  -3  -1  18    7.97    1.72
  -3  -1  18   17.41    4.55
  -3  -1  18    6.47    1.64
   2   1 -18   20.19    5.23
   2   1 -18    7.86    3.35
  -2  -1  18   10.46    2.48
  -2  -1  18   10.30    3.84
  -2  -1  18   13.29    2.83
   1   1 -18   55.40    5.72
   1   1 -18   47.84    6.17
  -1  -1  18   52.63    6.30
   0   1 -18    8.56    3.73
   0  -1  18    3.07    2.98
   4   0 -18   55.02    5.62
  -4   0  18   60.68    6.45
  -4   0  18   47.61    6.93
   3   0 -18   -1.82    2.65
   3   0 -18    2.95    2.37
  -3   0  18   -1.56    2.56
  -3   0  18    1.25    2.57
   2   0 -18    0.36    2.41
   2   0 -18    3.44    3.19
  -2   0  18    0.98    1.53
  -2   0  18    1.63    1.45
  -2   0  18    2.81    3.08
   1   0 -18   32.52    5.82
   1   0 -18   38.30    5.39
  -1   0  18   38.31    5.38
  -1   0  18   35.99    3.95
   0   0 -18   -1.85    2.02
   0   0 -18    1.16    2.70
   0   0  18   -2.38    2.32
   4  -1 -18   24.04    4.67
  -4   1  18   26.49    6.16
   3  -1 -18   11.92    3.86
  -3   1  18    8.01    3.90
  -3   1  18    7.16    3.21
   2  -1 -18   -2.31    2.85
   2  -1 -18    2.60    2.86
  -2   1  18    1.59    2.93
  -2   1  18    3.03    3.10
   1  -1 -18   32.41    5.97
   1  -1 -18   27.15    4.92
  -1   1  18   27.63    3.23
  -1   1  18   34.35    5.71
  -1   1  18   37.54    5.74
   0   0   0    0.00    0.00
;
_shelx_hkl_checksum              11603
loop_
_space_group_symop_operation_xyz
'x, y, z'
'-x, -y, -z'
loop_
_atom_site_label
_atom_site_type_symbol
_atom_site_fract_x
_atom_site_fract_y
_atom_site_fract_z
_atom_site_U_iso_or_equiv
_atom_site_adp_type
_atom_site_occupancy
_atom_site_site_symmetry_order
_atom_site_calc_flag
_atom_site_refinement_flags_posn
_atom_site_refinement_flags_adp
Pt1 Pt 0.66093(2) 0.10188(2) 0.75903(2) 0.01768(6) Uani 1 1 d . .
I1 I 0.98918(4) -0.01128(4) 0.83390(3) 0.02228(8) Uani 1 1 d . .
O1 O 0.8605(6) 0.3510(5) 0.3114(3) 0.0294(9) Uani 1 1 d . .
H1 H 0.899746 0.262048 0.284933 0.044 Uiso 1 1 calc R U
N1 N 0.6990(5) 0.2942(5) 0.8965(3) 0.0192(8) Uani 1 1 d . .
C1 C 0.5296(8) -0.0814(7) 0.8143(4) 0.0283(12) Uani 1 1 d . .
H1B H 0.521797 -0.038483 0.885692 0.042 Uiso 1 1 calc R U
H1C H 0.410330 -0.108434 0.771443 0.042 Uiso 1 1 calc R U
H1D H 0.594008 -0.184458 0.812207 0.042 Uiso 1 1 calc R U
N2 N 0.7980(7) 0.3240(5) 0.7173(3) 0.0252(10) Uani 1 1 d . .
C2 C 0.6243(7) -0.0677(7) 0.6242(4) 0.0240(11) Uani 1 1 d . .
H2A H 0.725363 -0.137603 0.625740 0.036 Uiso 1 1 calc R U
H2B H 0.516046 -0.141511 0.616054 0.036 Uiso 1 1 calc R U
H2C H 0.614003 -0.005478 0.566088 0.036 Uiso 1 1 calc R U
C3 C 0.4219(7) 0.1842(7) 0.6982(5) 0.0277(12) Uani 1 1 d . .
H3A H 0.392604 0.276957 0.747716 0.042 Uiso 1 1 calc R U
H3B H 0.428286 0.225589 0.633955 0.042 Uiso 1 1 calc R U
H3C H 0.330329 0.089557 0.683922 0.042 Uiso 1 1 calc R U
C4 C 0.6786(7) 0.2705(7) 0.9897(4) 0.0227(10) Uani 1 1 d . .
H4A H 0.644508 0.158945 0.999102 0.027 Uiso 1 1 calc R U
C5 C 0.7049(7) 0.4021(7) 1.0735(4) 0.0265(11) Uani 1 1 d . .
H5A H 0.684322 0.382144 1.138241 0.032 Uiso 1 1 calc R U
C6 C 0.7616(7) 0.5622(7) 1.0611(4) 0.0276(12) Uani 1 1 d . .
H6A H 0.782745 0.653878 1.117710 0.033 Uiso 1 1 calc R U
C7 C 0.7877(7) 0.5892(7) 0.9649(4) 0.0236(11) Uani 1 1 d . .
H7A H 0.827511 0.698665 0.954805 0.028 Uiso 1 1 calc R U
C8 C 0.7542(7) 0.4523(6) 0.8845(4) 0.0221(10) Uani 1 1 d . .
C9 C 0.7749(9) 0.4698(8) 0.7788(5) 0.0377(16) Uani 1 1 d . .
H9A H 0.772031 0.576674 0.755684 0.045 Uiso 1 1 calc R U
C10 C 0.8116(6) 0.3317(6) 0.6123(4) 0.0192(10) Uani 1 1 d . .
C11 C 0.7229(7) 0.4443(6) 0.5565(4) 0.0203(10) Uani 1 1 d . .
H11A H 0.650382 0.520325 0.587441 0.024 Uiso 1 1 calc R U
C12 C 0.7383(7) 0.4481(7) 0.4555(4) 0.0240(11) Uani 1 1 d . .
H12A H 0.674785 0.524520 0.417044 0.029 Uiso 1 1 calc R U
C13 C 0.8475(7) 0.3389(6) 0.4112(4) 0.0216(10) Uani 1 1 d . .
C14 C 0.9376(7) 0.2274(7) 0.4671(4) 0.0265(11) Uani 1 1 d . .
H14A H 1.011386 0.152254 0.436513 0.032 Uiso 1 1 calc R U
C15 C 0.9215(8) 0.2240(7) 0.5676(4) 0.0278(12) Uani 1 1 d . .
H15A H 0.985705 0.148028 0.606124 0.033 Uiso 1 1 calc R U
loop_
_atom_site_aniso_label
_atom_site_aniso_U_11
_atom_site_aniso_U_22
_atom_site_aniso_U_33
_atom_site_aniso_U_23
_atom_site_aniso_U_13
_atom_site_aniso_U_12
Pt1 0.01845(10) 0.01576(9) 0.02091(10) 0.00565(7) 0.00710(7) 0.00126(7)
I1 0.02171(17) 0.02254(16) 0.02392(17) 0.00658(13) 0.00553(13) 0.00353(12)
O1 0.040(2) 0.029(2) 0.023(2) 0.0058(16) 0.0145(17) -0.0015(18)
N1 0.019(2) 0.019(2) 0.022(2) 0.0074(17) 0.0089(17) 0.0047(16)
C1 0.035(3) 0.024(3) 0.031(3) 0.010(2) 0.017(2) -0.004(2)
N2 0.044(3) 0.016(2) 0.018(2) 0.0044(17) 0.0112(19) 0.0041(19)
C2 0.031(3) 0.022(2) 0.019(2) 0.002(2) 0.005(2) 0.002(2)
C3 0.026(3) 0.025(3) 0.033(3) 0.010(2) 0.004(2) 0.005(2)
C4 0.026(3) 0.022(2) 0.022(3) 0.009(2) 0.007(2) 0.004(2)
C5 0.031(3) 0.037(3) 0.014(2) 0.007(2) 0.008(2) 0.002(2)
C6 0.031(3) 0.030(3) 0.021(3) -0.002(2) 0.007(2) 0.001(2)
C7 0.026(3) 0.022(2) 0.025(3) 0.006(2) 0.008(2) 0.001(2)
C8 0.027(3) 0.020(2) 0.023(3) 0.008(2) 0.011(2) 0.004(2)
C9 0.064(4) 0.025(3) 0.028(3) -0.001(2) 0.027(3) -0.014(3)
C10 0.019(2) 0.019(2) 0.021(2) 0.0070(19) 0.0049(19) 0.0012(18)
C11 0.021(2) 0.019(2) 0.023(3) 0.006(2) 0.0069(19) 0.0017(19)
C12 0.028(3) 0.023(3) 0.026(3) 0.011(2) 0.011(2) 0.006(2)
C13 0.024(3) 0.020(2) 0.020(2) 0.004(2) 0.006(2) -0.006(2)
C14 0.028(3) 0.024(3) 0.030(3) 0.005(2) 0.011(2) 0.005(2)
C15 0.033(3) 0.028(3) 0.024(3) 0.005(2) 0.007(2) 0.009(2)
loop_
_atom_type_symbol
_atom_type_description
_atom_type_scat_dispersion_real
_atom_type_scat_dispersion_imag
_atom_type_scat_source
C C 0.0033 0.0016 'International Tables Vol C Tables 4.2.6.8 and 6.1.1.4'
H H 0.0000 0.0000 'International Tables Vol C Tables 4.2.6.8 and 6.1.1.4'
N N 0.0061 0.0033 'International Tables Vol C Tables 4.2.6.8 and 6.1.1.4'
O O 0.0106 0.0060 'International Tables Vol C Tables 4.2.6.8 and 6.1.1.4'
I I -0.4742 1.8119 'International Tables Vol C Tables 4.2.6.8 and 6.1.1.4'
Pt Pt -1.7033 8.3905 'International Tables Vol C Tables 4.2.6.8 and 6.1.1.4'
loop_
_geom_angle_atom_site_label_1
_geom_angle_atom_site_label_2
_geom_angle_atom_site_label_3
_geom_angle
C2 Pt1 C3 85.9(2)
C2 Pt1 C1 86.6(2)
C3 Pt1 C1 88.9(2)
C2 Pt1 N1 176.48(18)
C3 Pt1 N1 92.3(2)
C1 Pt1 N1 96.4(2)
C2 Pt1 N2 100.8(2)
C3 Pt1 N2 89.8(2)
C1 Pt1 N2 172.42(19)
N1 Pt1 N2 76.17(17)
C2 Pt1 I1 92.34(16)
C3 Pt1 I1 177.70(17)
C1 Pt1 I1 92.45(18)
N1 Pt1 I1 89.34(12)
N2 Pt1 I1 89.07(14)
C13 O1 H1 109.5
C4 N1 C8 118.4(4)
C4 N1 Pt1 126.7(3)
C8 N1 Pt1 114.9(3)
Pt1 C1 H1B 109.5
Pt1 C1 H1C 109.5
H1B C1 H1C 109.5
Pt1 C1 H1D 109.5
H1B C1 H1D 109.5
H1C C1 H1D 109.5
C9 N2 C10 118.6(4)
C9 N2 Pt1 110.0(4)
C10 N2 Pt1 122.1(3)
Pt1 C2 H2A 109.5
Pt1 C2 H2B 109.5
H2A C2 H2B 109.5
Pt1 C2 H2C 109.5
H2A C2 H2C 109.5
H2B C2 H2C 109.5
Pt1 C3 H3A 109.5
Pt1 C3 H3B 109.5
H3A C3 H3B 109.5
Pt1 C3 H3C 109.5
H3A C3 H3C 109.5
H3B C3 H3C 109.5
N1 C4 C5 122.7(5)
N1 C4 H4A 118.7
C5 C4 H4A 118.7
C6 C5 C4 118.7(5)
C6 C5 H5A 120.7
C4 C5 H5A 120.7
C5 C6 C7 119.7(5)
C5 C6 H6A 120.2
C7 C6 H6A 120.2
C8 C7 C6 118.1(5)
C8 C7 H7A 120.9
C6 C7 H7A 120.9
N1 C8 C7 122.4(5)
N1 C8 C9 115.7(5)
C7 C8 C9 121.9(5)
N2 C9 C8 116.0(5)
N2 C9 H9A 122.0
C8 C9 H9A 122.0
C11 C10 C15 119.4(5)
C11 C10 N2 122.2(5)
C15 C10 N2 118.4(5)
C10 C11 C12 120.8(5)
C10 C11 H11A 119.6
C12 C11 H11A 119.6
C11 C12 C13 119.4(5)
C11 C12 H12A 120.3
C13 C12 H12A 120.3
C14 C13 O1 123.3(5)
C14 C13 C12 119.9(5)
O1 C13 C12 116.8(5)
C13 C14 C15 120.4(5)
C13 C14 H14A 119.8
C15 C14 H14A 119.8
C14 C15 C10 120.1(5)
C14 C15 H15A 120.0
C10 C15 H15A 120.0
loop_
_geom_bond_atom_site_label_1
_geom_bond_atom_site_label_2
_geom_bond_distance
Pt1 C2 2.043(5)
Pt1 C3 2.049(5)
Pt1 C1 2.057(5)
Pt1 N1 2.166(4)
Pt1 N2 2.227(5)
Pt1 I1 2.7851(15)
O1 C13 1.381(6)
O1 H1 0.8400
N1 C4 1.334(7)
N1 C8 1.355(7)
C1 H1B 0.9800
C1 H1C 0.9800
C1 H1D 0.9800
N2 C9 1.357(7)
N2 C10 1.445(7)
C2 H2A 0.9800
C2 H2B 0.9800
C2 H2C 0.9800
C3 H3A 0.9800
C3 H3B 0.9800
C3 H3C 0.9800
C4 C5 1.387(7)
C4 H4A 0.9500
C5 C6 1.376(8)
C5 H5A 0.9500
C6 C7 1.394(8)
C6 H6A 0.9500
C7 C8 1.383(7)
C7 H7A 0.9500
C8 C9 1.487(8)
C9 H9A 0.9500
C10 C11 1.377(7)
C10 C15 1.390(7)
C11 C12 1.390(7)
C11 H11A 0.9500
C12 C13 1.391(7)
C12 H12A 0.9500
C13 C14 1.376(8)
C14 C15 1.384(8)
C14 H14A 0.9500
C15 H15A 0.9500
loop_
_geom_torsion_atom_site_label_1
_geom_torsion_atom_site_label_2
_geom_torsion_atom_site_label_3
_geom_torsion_atom_site_label_4
_geom_torsion
C8 N1 C4 C5 2.5(8)
Pt1 N1 C4 C5 -179.6(4)
N1 C4 C5 C6 -2.8(8)
C4 C5 C6 C7 1.2(8)
C5 C6 C7 C8 0.4(8)
C4 N1 C8 C7 -0.7(8)
Pt1 N1 C8 C7 -178.9(4)
C4 N1 C8 C9 179.8(5)
Pt1 N1 C8 C9 1.6(6)
C6 C7 C8 N1 -0.7(8)
C6 C7 C8 C9 178.7(6)
C10 N2 C9 C8 177.5(5)
Pt1 N2 C9 C8 30.1(7)
N1 C8 C9 N2 -22.3(8)
C7 C8 C9 N2 158.2(6)
C9 N2 C10 C11 -32.3(8)
Pt1 N2 C10 C11 111.1(5)
C9 N2 C10 C15 146.2(6)
Pt1 N2 C10 C15 -70.5(6)
C15 C10 C11 C12 1.8(8)
N2 C10 C11 C12 -179.8(5)
C10 C11 C12 C13 -1.3(8)
C11 C12 C13 C14 0.6(8)
C11 C12 C13 O1 -178.6(5)
O1 C13 C14 C15 178.7(5)
C12 C13 C14 C15 -0.5(8)
C13 C14 C15 C10 1.0(9)
C11 C10 C15 C14 -1.7(8)
N2 C10 C15 C14 179.8(5)
