#------------------------------------------------------------------------------
#$Date: 2019-10-28 10:30:49 +0200 (Mon, 28 Oct 2019) $
#$Revision: 219941 $
#$URL: file:///home/coder/svn-repositories/cod/cif/4/51/47/4514781.cif $
#------------------------------------------------------------------------------
#
# This file is available in the Crystallography Open Database (COD),
# http://www.crystallography.net/
#
# All data on this site have been placed in the public domain by the
# contributors.
#
data_4514781
loop_
_publ_author_name
'Batuecas, Mar\'ia'
'Luo, Junfei'
'Gergelitsov\'a, Ivana'
'Kr\"amer, Katrina'
'Whitaker, Daniel'
'Vitorica-Yrezabal, I\~nigo J.'
'Larrosa, Igor'
_publ_section_title
;
 Catalytic Asymmetric C--H Arylation of (\h6-Arene)Chromium Complexes:
 Facile Access to Planar-Chiral Phosphines
;
_journal_issue                   6
_journal_name_full               'ACS Catalysis'
_journal_page_first              5268
_journal_paper_doi               10.1021/acscatal.9b00918
_journal_volume                  9
_journal_year                    2019
_chemical_absolute_configuration ad
_chemical_formula_moiety         'C17 H11 Cr F O5'
_chemical_formula_sum            'C17 H11 Cr F O5'
_chemical_formula_weight         366.26
_space_group_crystal_system      triclinic
_space_group_IT_number           1
_space_group_name_Hall           'P 1'
_space_group_name_H-M_alt        'P 1'
_symmetry_space_group_name_Hall  'P 1'
_symmetry_space_group_name_H-M   'P 1'
_atom_sites_solution_hydrogens   geom
_atom_sites_solution_primary     dual
_audit_creation_date             2018-06-21
_audit_creation_method
;
Olex2 1.2
(compiled 2018.05.18 svn.r3508 for OlexSys, GUI svn.r5497)
;
_cell_angle_alpha                85.775(3)
_cell_angle_beta                 87.502(3)
_cell_angle_gamma                64.437(3)
_cell_formula_units_Z            2
_cell_length_a                   7.0791(2)
_cell_length_b                   7.2172(2)
_cell_length_c                   16.4881(6)
_cell_measurement_reflns_used    11673
_cell_measurement_temperature    150.00(10)
_cell_measurement_theta_max      76.5260
_cell_measurement_theta_min      6.9290
_cell_volume                     757.81(5)
_computing_cell_refinement       'CrysAlisPro 1.171.39.46 (Rigaku OD, 2018)'
_computing_data_collection       'CrysAlisPro 1.171.39.46 (Rigaku OD, 2018)'
_computing_data_reduction        'CrysAlisPro 1.171.39.46 (Rigaku OD, 2018)'
_computing_molecular_graphics    'Olex2 (Dolomanov et al., 2009)'
_computing_publication_material  'Olex2 (Dolomanov et al., 2009)'
_computing_structure_refinement  'ShelXL (Sheldrick, 2015)'
_computing_structure_solution    'ShelXT (Sheldrick, 2015)'
_diffrn_ambient_environment      N~2~
_diffrn_ambient_temperature      150.00(10)
_diffrn_detector                 'CCD plate'
_diffrn_measured_fraction_theta_full 0.935
_diffrn_measured_fraction_theta_max 0.958
_diffrn_measurement_details
;
List of Runs (angles in degrees, time in seconds):

  # Type    Start    End  Width  t~exp~   \w     \q     \k     \f   Frames
--------------------------------------------------------------------------
  1  \w    -47.00  38.00   1.00    1.00    --  -44.80  64.00  73.00   85
  2  \w    -87.00  -9.00   1.00    1.00    --  -44.80 -64.00 -62.00   78
  3  \w   -153.00-126.00   1.00    1.00    -- -110.00 -64.00 -62.00   27
  4  \w   -106.00 -79.00   1.00    1.00    -- -110.00 -64.00 -62.00   27
  5  \w    -83.00 -42.00   1.00    1.00    -- -110.00  64.00  73.00   41
  6  \w   -140.00-113.00   1.00    1.00    -- -110.00  64.00  73.00   27
  7  \w    -23.00   4.00   1.00    1.00    --    5.00 -64.00 -62.00   27
  8  \w    -54.00 -27.00   1.00    1.00    --    5.00 -64.00 -62.00   27
  9  \w      8.00  33.00   1.00    1.00    --    5.00  64.00  73.00   25
 10  \w    -84.00  45.00   1.00    1.00    --  -44.80  76.00  90.00  129
 11  \w    -76.00  44.00   1.00    1.00    --  -44.80  57.00 -90.00  120
 12  \w   -151.00 -98.00   1.00    1.00    -- -110.00  38.00-180.00   53
 13  \w    -47.00 -22.00   1.00    1.00    -- -110.00  76.00 -60.00   25
 14  \w   -148.00 -25.00   1.00    1.00    -- -110.00  76.00   0.00  123
 15  \w   -131.00 -52.00   1.00    1.00    -- -110.00  76.00 -60.00   79
 16  \w    -66.00 -39.00   1.00    1.00    -- -110.00  76.00-150.00   27
 17  \w   -117.00 -22.00   1.00    1.00    -- -110.00  76.00 120.00   95
 18  \w    -99.00 -72.00   1.00    1.00    -- -110.00  76.00-150.00   27
 19  \w   -108.00 -21.00   1.00    1.00    -- -110.00  38.00 -30.00   87
 20  \w    -49.00 -23.00   1.00    1.00    -- -110.00  38.00-180.00   26
 21  \w   -151.00-125.00   1.00    1.00    -- -110.00  38.00 -30.00   26
 22  \w   -196.00 -27.00   1.00    1.00    -- -110.00  19.00-150.00  169
 23  \w   -113.00 -80.00   1.00    1.00    -- -110.00  76.00  60.00   33
 24  \w   -105.00 -69.00   1.00    1.00    -- -110.00  76.00-180.00   36
 25  \w    -53.00 -22.00   1.00    1.00    -- -110.00  76.00-180.00   31
 26  \w   -115.00 -21.00   1.00    1.00    -- -110.00  57.00-180.00   94
 27  \w    -66.00 -40.00   1.00    1.00    -- -110.00  57.00  60.00   26
 28  \w   -184.00-141.00   1.00    1.00    -- -110.00 -57.00-150.00   43
 29  \w   -103.00 -77.00   1.00    1.00    -- -110.00  64.00  73.00   26
 30  \w     16.00  43.00   1.00    1.00    --    5.00  57.00-180.00   27
 31  \w   -140.00-114.00   1.00    1.00    -- -110.00 -57.00-150.00   26
 32  \w   -119.00 -93.00   1.00    1.00    -- -110.00  57.00 -60.00   26
 33  \w    -96.00 -71.00   1.00    1.00    --  -45.00 -64.00 -62.00   25
 34  \w    -96.00 -71.00   1.00    1.00    --  -45.00 -64.00 -62.00   25
 35  \w   -176.00-136.00   1.00    1.00    -- -110.00 -64.00 -62.00   40
 36  \w   -127.00-100.00   1.00    1.00    -- -110.00 -57.00-180.00   27
 37  \w   -153.00-127.00   1.00    1.00    -- -110.00 -57.00-120.00   26
 38  \w    -99.00 -72.00   1.00    1.00    -- -110.00  76.00 150.00   27
 39  \w   -124.00 -97.00   1.00    1.00    -- -110.00  76.00  90.00   27
 40  \w   -168.00-142.00   1.00    1.00    -- -110.00 -57.00-180.00   26
 41  \w    -23.00   3.00   1.00    1.00    --    5.00  76.00-150.00   26
 42  \w     16.00  42.00   1.00    1.00    --    5.00  76.00-150.00   26
 43  \w    -37.00 -10.00   1.00    1.00    --  -45.00 -68.00  25.07   27
 44  \w   -134.00-104.00   1.00    1.00    --  -45.00 -68.00  25.07   30
 45  \w    -98.00 -72.00   1.00    1.00    --  -62.00 -74.00 126.02   26
 46  \w    -50.00 -24.00   1.00    1.00    --  -62.00 -72.00-132.86   26
 47  \w    -69.00 -23.00   1.00    1.00    --  -62.00 -74.00 126.02   46
 48  \w   -151.00-102.00   1.00    1.00    --  -62.00 -72.00-132.86   49
 49  \w    -47.00 -22.00   1.00    1.00    --  -62.00 -75.00 -39.86   25
 50  \w    -54.00 -27.00   1.00    1.00    --  -66.00 -74.00  43.59   27
 51  \w   -151.00-125.00   1.00    1.00    --  -66.00 -74.00  43.59   26
 52  \w    -70.00 -31.00   1.00    1.00    --  -70.00 -74.00-169.29   39
 53  \w   -152.00-126.00   1.00    1.00    --  -70.00 -74.00-169.29   26
 54  \w    -56.00 -30.00   1.00    1.00    --  -70.00 -75.00  12.08   26
 55  \w    -61.00 -34.00   1.00    1.00    --  -70.00 -68.00 -80.61   27
 56  \w    -65.00 -35.00   1.00    1.00    --  -74.00 -73.00  -5.98   30
 57  \w    -60.00 -34.00   1.00    1.00    --  -74.00 -75.00-100.55   26
 58  \w    -69.00 -39.00   1.00    1.00    --  -78.00 -74.00 150.38   30
 59  \w    -68.00 -43.00   1.00    1.00    --  -78.00 -69.00  79.51   25
 60  \w    -65.00 -39.00   1.00    1.00    --  -78.00 -73.00 -44.85   26
 61  \w   -138.00-112.00   1.00    1.00    --  -86.00 -72.00 131.37   26
 62  \w    -79.00 -48.00   1.00    1.00    --  -86.00 -72.00 131.37   31
 63  \w    -72.00 -46.00   1.00    1.00    --  -86.00 -76.00-112.85   26
 64  \w    -77.00 -51.00   1.00    1.00    --  -86.00 -69.00  59.44   26
 65  \w    -76.00 -46.00   1.00    1.00    --  -86.00 -75.00  99.28   30
 66  \w    -85.00 -50.00   1.00    1.00    --  -90.00 -76.00 -41.76   35
 67  \w   -120.00 -94.00   1.00    1.00    --  -90.00 -76.00 -41.76   26
 68  \w    -84.00 -51.00   1.00    1.00    --  -90.00 -76.00-151.91   33
 69  \w   -107.00 -58.00   1.00    1.00    --  -98.00 -76.00 -76.43   49
 70  \w   -107.00 -63.00   1.00    1.00    --  -98.00 -72.00-126.14   44
 71  \w   -125.00 -59.00   1.00    1.00    --  -98.00 -74.00 142.49   66
 72  \w   -105.00 -62.00   1.00    1.00    -- -102.00 -75.00 -15.38   43
 73  \w    -93.00 -62.00   1.00    1.00    -- -102.00 -76.00  20.98   31
 74  \w   -129.00-100.00   1.00    1.00    -- -102.00 -76.00  20.98   29
 75  \w    -93.00 -62.00   1.00    1.00    -- -102.00 -76.00  62.08   31
 76  \w   -150.00-113.00   1.00    1.00    -- -102.00 -76.00  62.08   37
 77  \w    -94.00 -64.00   1.00    1.00    -- -102.00 -72.00 107.23   30
 78  \w   -125.00 -63.00   1.00    1.00    -- -102.00 -75.00 -99.79   62
 79  \w    -97.00 -65.00   1.00    1.00    -- -102.00 -73.00-165.37   32
 80  \w   -166.00-126.00   1.00    1.00    -- -102.00 -73.00-165.37   40
 81  \w   -142.00-111.00   1.00    1.00    -- -102.00 -72.00 107.23   31
 82  \w   -102.00 -76.00   1.00    1.00    -- -110.00 -43.00 -63.98   26
 83  \w   -139.00-114.00   1.00    1.00    -- -110.00 -43.00 -63.98   25
 84  \w   -130.00 -70.00   1.00    1.00    -- -110.00 -76.00-175.64   60
 85  \w   -143.00 -70.00   1.00    1.00    -- -110.00 -76.00  98.24   73
 86  \w   -150.00 -71.00   1.00    1.00    -- -110.00 -75.00  43.43   79
;
_diffrn_measurement_device       'four-circle diffractometer'
_diffrn_measurement_device_type  'XtaLAB AFC11 (RINC): Kappa single'
_diffrn_measurement_method       '\w scans'
_diffrn_orient_matrix_type
'CrysAlisPro convention (1999,Acta A55,543-557)'
_diffrn_orient_matrix_UB_11      0.0518367000
_diffrn_orient_matrix_UB_12      0.1277486000
_diffrn_orient_matrix_UB_13      -0.0688051000
_diffrn_orient_matrix_UB_21      -0.2340834000
_diffrn_orient_matrix_UB_22      0.1486193000
_diffrn_orient_matrix_UB_23      -0.0067127000
_diffrn_orient_matrix_UB_31      0.0268624000
_diffrn_orient_matrix_UB_32      0.1333760000
_diffrn_orient_matrix_UB_33      0.0632451000
_diffrn_radiation_monochromator  mirror
_diffrn_radiation_probe          x-ray
_diffrn_radiation_type           CuK\a
_diffrn_radiation_wavelength     1.54184
_diffrn_reflns_av_R_equivalents  0.0188
_diffrn_reflns_av_unetI/netI     0.0153
_diffrn_reflns_Laue_measured_fraction_full 0.935
_diffrn_reflns_Laue_measured_fraction_max 0.958
_diffrn_reflns_limit_h_max       8
_diffrn_reflns_limit_h_min       -8
_diffrn_reflns_limit_k_max       8
_diffrn_reflns_limit_k_min       -8
_diffrn_reflns_limit_l_max       19
_diffrn_reflns_limit_l_min       -19
_diffrn_reflns_number            14891
_diffrn_reflns_point_group_measured_fraction_full 0.913
_diffrn_reflns_point_group_measured_fraction_max 0.935
_diffrn_reflns_theta_full        67.684
_diffrn_reflns_theta_max         66.594
_diffrn_reflns_theta_min         6.813
_diffrn_source                   'Rotating-anode X-ray tube (dual wavelength)'
_diffrn_source_type              'Rigaku (Cu) X-ray DW Source'
_exptl_absorpt_coefficient_mu    6.559
_exptl_absorpt_correction_T_max  1.00000
_exptl_absorpt_correction_T_min  0.54022
_exptl_absorpt_correction_type   multi-scan
_exptl_absorpt_process_details
;
CrysAlisPro 1.171.39.46 (Rigaku Oxford Diffraction, 2018)
Empirical absorption correction using spherical harmonics,
 implemented in SCALE3 ABSPACK scaling algorithm.
;
_exptl_crystal_colour            'clear yellowish orange'
_exptl_crystal_colour_lustre     clear
_exptl_crystal_colour_modifier   yellowish
_exptl_crystal_colour_primary    orange
_exptl_crystal_density_diffrn    1.605
_exptl_crystal_description       block
_exptl_crystal_F_000             372
_exptl_crystal_size_max          0.38
_exptl_crystal_size_mid          0.32
_exptl_crystal_size_min          0.25
_refine_diff_density_max         0.329
_refine_diff_density_min         -0.453
_refine_diff_density_rms         0.053
_refine_ls_abs_structure_details
;
 Classical Flack method preferred over Parsons because s.u. lower.
;
_refine_ls_abs_structure_Flack   0.018(7)
_refine_ls_extinction_method     none
_refine_ls_goodness_of_fit_ref   1.040
_refine_ls_hydrogen_treatment    constr
_refine_ls_matrix_type           full
_refine_ls_number_parameters     455
_refine_ls_number_reflns         5014
_refine_ls_number_restraints     3
_refine_ls_restrained_S_all      1.040
_refine_ls_R_factor_all          0.0484
_refine_ls_R_factor_gt           0.0479
_refine_ls_shift/su_max          0.000
_refine_ls_shift/su_mean         0.000
_refine_ls_structure_factor_coef Fsqd
_refine_ls_weighting_details
'w=1/[\s^2^(Fo^2^)+(0.1055P)^2^+0.2926P] where P=(Fo^2^+2Fc^2^)/3'
_refine_ls_weighting_scheme      calc
_refine_ls_wR_factor_gt          0.1277
_refine_ls_wR_factor_ref         0.1284
_reflns_Friedel_coverage         0.953
_reflns_Friedel_fraction_full    0.891
_reflns_Friedel_fraction_max     0.913
_reflns_number_gt                4925
_reflns_number_total             5014
_reflns_threshold_expression     'I > 2\s(I)'
_cod_data_source_file            cs9b00918_si_004.cif
_cod_data_source_block           s5267r
_cod_original_cell_volume        757.81(4)
_cod_database_code               4514781
_shelxl_version_number           2014/6
_shelx_space_group_comment
;
The symmetry employed for this shelxl refinement is uniquely defined
by the following loop, which should always be used as a source of
symmetry information in preference to the above space-group names.
They are only intended as comments.
;
_shelx_estimated_absorpt_t_max   0.291
_shelx_estimated_absorpt_t_min   0.190
_olex2_refinement_description
;
1. Fixed Uiso
 At 1.2 times of:
  All C(H) groups
 At 1.5 times of:
  All C(H,H,H) groups
2. Others
 Sof(F2L)=Sof(H5A)=1-FVAR(1)
 Sof(H9A)=Sof(F2R)=FVAR(1)
 Sof(F1L)=Sof(H5)=1-FVAR(2)
 Sof(H9)=Sof(F1R)=FVAR(2)
3.a Aromatic/amide H refined with riding coordinates:
 C14A(H14A), C7(H7), C9A(H9A), C5A(H5A), C6A(H6A), C12A(H12A), C11A(H11A),
 C8A(H8A), C15A(H15A), C15(H15), C12(H12), C6(H6), C11(H11), C5(H5), C9(H9),
 C8(H8), C7A(H7A), C14(H14)
3.b Idealised Me refined as rotating group:
 C17(H17D,H17E,H17F), C17A(H17A,H17B,H17C)
;
_shelx_res_file
;
TITL s5267r_b.res in P1
REM Old TITL s5267r in P1
REM SHELXT solution in P1
REM R1 0.100, Rweak 0.018, Alpha 0.000, Orientation as input
REM Flack x = 0.409 ( 0.012 ) from Parsons' quotients
REM Formula found by SHELXT: C30 O16 Cr2
CELL 1.54184 7.0791 7.2172 16.4881 85.775 87.502 64.437
ZERR 2 0.0002 0.0002 0.0006 0.003 0.003 0.003
LATT -1
SFAC C H Cr F O
UNIT 34 22 2 2 10

L.S. 10
PLAN  20
SIZE 0.38 0.32 0.25
BIND F1R C5
BIND F2R C5A
BIND F1L C9
BIND F2L C9A
BOND $H
LIST 6
fmap 2
ACTA
SHEL 100 0.84
REM <olex2.extras>
REM <HklSrc "%.\\s5267r.hkl">
REM </olex2.extras>

WGHT    0.105500    0.292600
FVAR       1.86254   0.85089   0.88732
CR1A  3    0.266114    0.878749    0.350890    11.00000    0.02221    0.03081 =
         0.02383   -0.00237    0.00122   -0.01433
CR1   3    0.735406    0.115471    0.654091    11.00000    0.02121    0.02590 =
         0.02492   -0.00251    0.00282   -0.01202
C14A  1    0.718409    0.389521    0.085201    11.00000    0.03069    0.03055 =
         0.02297   -0.00292    0.00109   -0.01791
AFIX  43
H14A  2    0.704236    0.351198    0.034003    11.00000   -1.20000
AFIX   0

C7    1    1.006344    0.191082    0.644665    11.00000    0.03449    0.05263 =
         0.04345   -0.01575    0.01334   -0.03069
AFIX  43
H7    2    1.126924    0.134176    0.612719    11.00000   -1.20000
AFIX   0
O4    5   -0.058728    0.786019    1.015234    11.00000    0.02496    0.03685 =
         0.03161   -0.00948    0.00336   -0.00831

O3A   5    0.503390    1.089803    0.259767    11.00000    0.03581    0.05125 =
         0.05529    0.00481    0.00301   -0.02842
O4A   5    1.068149    0.210336   -0.010724    11.00000    0.03035    0.03804 =
         0.03205   -0.00863    0.00250   -0.01423
O3    5    0.409175    0.226472    0.526704    11.00000    0.04187    0.05931 =
         0.04632    0.00443   -0.01361   -0.02377
O2A   5    0.000394    1.276787    0.425281    11.00000    0.03745    0.04422 =
         0.04322   -0.01383    0.00749   -0.01300
O5    5   -0.269002    0.742482    0.928431    11.00000    0.02673    0.04247 =
         0.04925   -0.01533    0.00347   -0.01572
C1    1    0.599517   -0.023417    0.710950    11.00000    0.02201    0.02621 =
         0.03343   -0.00221   -0.00124   -0.00806
C16A  1    1.107094    0.256765    0.061084    11.00000    0.02902    0.02648 =
         0.03108   -0.00448   -0.00163   -0.00878
C2    1    0.900550   -0.126342    0.605319    11.00000    0.02895    0.03450 =
         0.02994   -0.00504    0.00437   -0.01536
PART 2
F2L   4    0.194432    0.885678    0.156437   -21.00000    0.02361    0.04588 =
         0.01389   -0.00286   -0.00004   -0.01046
PART 0
C9A   1    0.190732    0.804133    0.233521    11.00000    0.02943    0.03868 =
         0.02471   -0.00405   -0.00156   -0.01871
PART 1
AFIX  43
H9A   2    0.196347    0.864122    0.182129    21.00000   -1.20000
AFIX   0
PART 0
C5A   1    0.355879    0.546710    0.341429    11.00000    0.04386    0.03365 =
         0.02723   -0.00248    0.00437   -0.02361
PART 2
AFIX  43
H5A   2    0.470955    0.432138    0.362102   -21.00000   -1.20000
AFIX   0

PART 0
C4    1    0.633682    0.364468    0.741018    11.00000    0.02575    0.02606 =
         0.02688   -0.00213    0.00284   -0.01540

C6A   1    0.171960    0.630002    0.389898    11.00000    0.04832    0.04692 =
         0.03325   -0.00542    0.01168   -0.03162
AFIX  43
H6A   2    0.166963    0.572650    0.441880    11.00000   -1.20000
AFIX   0
C1A   1    0.451586    0.806940    0.435826    11.00000    0.04544    0.02812 =
         0.04197    0.00052   -0.01153   -0.01498
C13A  1    0.915188    0.354464    0.111898    11.00000    0.02927    0.02346 =
         0.03016    0.00113   -0.00281   -0.00839

O1    5    0.511271   -0.106354    0.745372    11.00000    0.03104    0.03970 =
         0.05198    0.00269    0.00711   -0.02063
C12A  1    0.936137    0.410760    0.188893    11.00000    0.02459    0.03283 =
         0.03353   -0.00623   -0.00469   -0.00486
AFIX  43
H12A  2    1.067638    0.387350    0.206961    11.00000   -1.20000
AFIX   0

O2    5    1.008066   -0.279970    0.576503    11.00000    0.04587    0.04304 =
         0.04955   -0.01562    0.01654   -0.01270
C10A  1    0.562812    0.537619    0.211880    11.00000    0.03046    0.02675 =
         0.02511    0.00052    0.00166   -0.01441
C10   1    0.443801    0.456384    0.793160    11.00000    0.02678    0.02205 =
         0.02681    0.00088   -0.00087   -0.01184
C11A  1    0.760086    0.502262    0.238990    11.00000    0.03560    0.03501 =
         0.02406   -0.00228   -0.00641   -0.01341
AFIX  43
H11A  2    0.774425    0.539557    0.290363    11.00000   -1.20000
AFIX   0
C8A   1    0.005614    0.887380    0.278871    11.00000    0.02642    0.05866 =
         0.04213   -0.00794   -0.00068   -0.02610
AFIX  43
H8A   2   -0.111538    0.998653    0.257590    11.00000   -1.20000
AFIX   0
C15A  1    0.543427    0.481187    0.134435    11.00000    0.03319    0.04066 =
         0.02438   -0.00210   -0.00208   -0.02202
AFIX  43
H15A  2    0.412104    0.505411    0.115894    11.00000   -1.20000
AFIX   0

C15   1    0.463080    0.514749    0.869516    11.00000    0.02437    0.03046 =
         0.02860   -0.00343   -0.00028   -0.01471
AFIX  43
H15   2    0.593635    0.495671    0.887107    11.00000   -1.20000
AFIX   0
PART 2
F1L   4    0.454827    0.601517    0.631105   -31.00000    0.02912    0.02347 =
         0.02329    0.00242   -0.00005    0.00391

PART 0
O5A   5    1.281198    0.220831    0.082599    11.00000    0.02897    0.09132 =
         0.05300   -0.03371   -0.00384   -0.00706

C17   1   -0.239495    0.889298    1.066716    11.00000    0.03179    0.03458 =
         0.03949   -0.01257    0.00698   -0.01113
AFIX 137
H17D  2   -0.333473    1.015750    1.039277    11.00000   -1.50000
H17E  2   -0.195321    0.918365    1.116559    11.00000   -1.50000
H17F  2   -0.309755    0.802376    1.078506    11.00000   -1.50000
AFIX   0

C4A   1    0.371044    0.631157    0.262869    11.00000    0.03765    0.03830 =
         0.02328   -0.00490    0.00273   -0.02426
C13   1    0.091923    0.632071    0.893433    11.00000    0.02626    0.02162 =
         0.02611   -0.00072   -0.00102   -0.00868
C12   1    0.072699    0.574621    0.816787    11.00000    0.02556    0.03204 =
         0.03229   -0.00168   -0.00809   -0.01157
AFIX  43
H12   2   -0.058251    0.595628    0.798934    11.00000   -1.20000
AFIX   0

C17A  1    1.251510    0.102585   -0.061844    11.00000    0.02983    0.03400 =
         0.03553   -0.00969    0.00660   -0.00720
AFIX 137
H17A  2    1.209181    0.062302   -0.109519    11.00000   -1.50000
H17B  2    1.349163   -0.017550   -0.031981    11.00000   -1.50000
H17C  2    1.316791    0.192128   -0.077658    11.00000   -1.50000
AFIX   0

C6    1    1.000139    0.103395    0.724071    11.00000    0.02154    0.04542 =
         0.03929   -0.00966    0.00335   -0.01738
AFIX  43
H6    2    1.115164   -0.011191    0.744768    11.00000   -1.20000
AFIX   0
C11   1    0.245444    0.487001    0.767080    11.00000    0.02717    0.02754 =
         0.02640   -0.00458   -0.00284   -0.00805
AFIX  43
H11   2    0.231088    0.447866    0.716063    11.00000   -1.20000
AFIX   0
C5    1    0.816399    0.193952    0.770343    11.00000    0.02670    0.03471 =
         0.02940   -0.00341   -0.00141   -0.01899
PART 2
AFIX  43
H5    2    0.813756    0.139638    0.823084   -31.00000   -1.20000
AFIX   0
PART 0
C9    1    0.645783    0.444683    0.661308    11.00000    0.04422    0.02545 =
         0.03031   -0.00293    0.00270   -0.02039
PART 1
AFIX  43
H9    2    0.528399    0.554166    0.639214    31.00000   -1.20000
AFIX   0

PART 0
O1A   5    0.564731    0.762688    0.489147    11.00000    0.07927    0.04782 =
         0.06373    0.00736   -0.04622   -0.02387
C2A   1    0.101690    1.123786    0.397647    11.00000    0.02631    0.04514 =
         0.02897    0.00036    0.00072   -0.01844
PART 1
F2R   4    0.527599    0.383667    0.372534    21.00000    0.05440    0.03343 =
         0.03260    0.00443    0.00222   -0.01957

PART 0
C3    1    0.538531    0.182006    0.574500    11.00000    0.03590    0.03424 =
         0.03469   -0.00328    0.00371   -0.01800
C8    1    0.831847    0.362650    0.614335    11.00000    0.05425    0.03937 =
         0.03218   -0.00762    0.01310   -0.03517
AFIX  43
H8    2    0.838338    0.422905    0.563089    11.00000   -1.20000
AFIX   0
PART 1
F1R   4    0.811802    0.111287    0.845838    31.00000    0.03308    0.03554 =
         0.03057    0.00322   -0.00364   -0.01225
PART 0
C16   1   -0.099927    0.726281    0.946100    11.00000    0.02554    0.02504 =
         0.03365   -0.00085   -0.00227   -0.00913

C3A   1    0.411417    1.008178    0.295380    11.00000    0.01961    0.03619 =
         0.03547   -0.00756    0.00024   -0.01141
C7A   1   -0.000985    0.798889    0.358506    11.00000    0.03712    0.06809 =
         0.03937   -0.01659    0.01359   -0.03871
AFIX  43
H7A   2   -0.122748    0.855023    0.389852    11.00000   -1.20000
AFIX   0

C14   1    0.288836    0.601308    0.919696    11.00000    0.03140    0.02999 =
         0.02572   -0.00168   -0.00310   -0.01586
AFIX  43
H14   2    0.302978    0.639046    0.971010    11.00000   -1.20000
AFIX   0
HKLF 4

REM  s5267r_b.res in P1
REM R1 =  0.0479 for    4925 Fo > 4sig(Fo)  and  0.0484 for all    5014 data
REM    455 parameters refined using      3 restraints

END

WGHT      0.1055      0.2926

REM Highest difference peak  0.329,  deepest hole -0.453,  1-sigma level  0.053
Q1    1   0.4105  0.7315  0.3666  11.00000  0.05    0.33
Q2    1   0.5954  0.2610  0.6361  11.00000  0.05    0.32
Q3    1   0.8702 -0.0372  0.6619  11.00000  0.05    0.30
Q4    1   1.0167  0.2779  0.0888  11.00000  0.05    0.27
Q5    1   1.2584  0.1207  0.0906  11.00000  0.05    0.26
Q6    1  -0.2551  0.8776  0.9166  11.00000  0.05    0.26
Q7    1   0.5622  0.4043  0.7636  11.00000  0.05    0.25
Q8    1   0.1297  1.0405  0.3457  11.00000  0.05    0.25
Q9    1   1.1178  0.2051 -0.0194  11.00000  0.05    0.25
Q10   1   0.6518  0.2438  0.6048  11.00000  0.05    0.24
Q11   1   0.4571  0.5778  0.2361  11.00000  0.05    0.23
Q12   1   0.0960  0.7889  0.3901  11.00000  0.05    0.23
Q13   1   0.0027  0.7058  0.9132  11.00000  0.05    0.22
Q14   1   0.6799  0.1575  0.5782  11.00000  0.05    0.22
Q15   1   0.7778 -0.0773  0.6425  11.00000  0.05    0.22
Q16   1   0.9244  0.1387  0.7425  11.00000  0.05    0.22
Q17   1   0.6389 -0.0239  0.6680  11.00000  0.05    0.21
Q18   1   0.0876  0.8626  0.2588  11.00000  0.05    0.21
Q19   1   0.7657  0.4279  0.6566  11.00000  0.05    0.21
Q20   1   0.3630  1.0190  0.3369  11.00000  0.05    0.21
;
_shelx_res_checksum              57930
_shelx_hkl_file
;
  -8  -7  -3   20.89    2.63
  -8  -7  -2  641.86    8.41
  -8  -7  -1   68.29    3.29
  -8  -6  -6   21.86    2.62
  -8  -6  -5  148.48    4.39
  -8  -6  -4   34.78    3.92
  -8  -6  -4   42.39    3.79
  -8  -6  -3  504.29    8.38
  -8  -6  -3  507.61    8.03
  -8  -6  -2  131.49    5.25
  -8  -6  -2  138.51    4.46
  -8  -6  -1   12.39    3.34
  -8  -6   0  778.34   10.78
  -8  -6   1  478.54    8.23
  -8  -6   1  502.54    8.30
  -8  -6   2   18.16    3.73
  -8  -6   2    7.54    3.56
  -8  -6   3  202.58    5.23
  -8  -6   3  200.12    4.81
  -8  -6   4  408.63    6.87
  -8  -5  -7  387.07    6.95
  -8  -5  -6   92.32    4.61
  -8  -5  -6   85.99    4.00
  -8  -5  -5  188.53    5.62
  -8  -5  -4   16.92    4.38
  -8  -5  -4   24.55    4.40
  -8  -5  -3  305.88    7.40
  -8  -5  -3  318.54    7.15
  -8  -5  -2   74.81    4.68
  -8  -5  -2   63.53    5.48
  -8  -5  -1  192.95    6.82
  -8  -5  -1  212.15    5.84
  -8  -5   0 1796.97   21.05
  -8  -5   0 1824.57   19.70
  -8  -5   1  189.65    6.44
  -8  -5   1  199.03    6.38
  -8  -5   2  109.56    5.56
  -8  -5   2  102.51    5.28
  -8  -5   3  913.04   12.80
  -8  -5   3  898.46   12.59
  -8  -5   3  896.83   12.02
  -8  -5   4  109.85    5.12
  -8  -5   4  100.23    4.23
  -8  -4  -8  826.66   10.63
  -8  -4  -8  832.37   10.79
  -8  -4  -7  211.12    5.54
  -8  -4  -7  226.84    5.82
  -8  -4  -6   68.28    4.48
  -8  -4  -6   79.55    4.90
  -8  -4  -6   75.04    4.22
  -8  -4  -5   22.78    4.38
  -8  -4  -5   15.87    4.12
  -8  -4  -4    4.61    3.98
  -8  -4  -4   14.66    4.79
  -8  -4  -4    2.80    4.39
  -8  -4  -4   12.99    4.67
  -8  -4  -3  181.71    6.69
  -8  -4  -3  177.46    6.58
  -8  -4  -3  174.26    5.40
  -8  -4  -2    5.09    5.31
  -8  -4  -2   18.67    4.71
  -8  -4  -2   16.77    5.26
  -8  -4  -2   11.27    3.56
  -8  -4  -1  123.22    6.43
  -8  -4  -1  126.37    6.45
  -8  -4  -1  142.42    5.45
  -8  -4   0  149.54    5.16
  -8  -4   0  132.94    6.79
  -8  -4   1    7.17    5.56
  -8  -4   1   21.57    5.28
  -8  -4   2  700.39   11.19
  -8  -4   3  334.57    8.02
  -8  -4   3  348.63    7.57
  -8  -4   4  172.09    5.20
  -8  -4   4  162.41    5.95
  -8  -4   5  296.03    5.57
  -8  -3  -8  401.18    6.62
  -8  -3  -8  410.35    6.84
  -8  -3  -7  106.70    4.37
  -8  -3  -7  114.15    4.74
  -8  -3  -6   56.37    4.68
  -8  -3  -6   53.56    4.08
  -8  -3  -5   83.34    4.85
  -8  -3  -5   77.34    4.41
  -8  -3  -4  509.96    9.26
  -8  -3  -4  492.39    8.49
  -8  -3  -4  509.81    9.06
  -8  -3  -4  486.65    7.97
  -8  -3  -3   -3.24    4.80
  -8  -3  -3    8.14    4.92
  -8  -3  -3    0.94    3.34
  -8  -3  -3   -0.43    4.51
  -8  -3  -3    2.93    4.18
  -8  -3  -2   25.42    4.77
  -8  -3  -2   27.06    5.34
  -8  -3  -2   35.56    5.48
  -8  -3  -2   24.32    4.83
  -8  -3  -1  418.33    9.15
  -8  -3  -1  412.89    8.15
  -8  -3  -1  425.87    9.21
  -8  -3   0   66.07    5.86
  -8  -3   0   61.76    4.58
  -8  -3   1  306.94    8.12
  -8  -3   2  136.61    6.43
  -8  -3   2  137.15    6.05
  -8  -3   3  167.28    5.87
  -8  -3   4  197.55    6.30
  -8  -3   6  210.04    5.44
  -8  -3   7  131.39    3.77
  -8  -2  -7   28.39    3.36
  -8  -2  -6  535.67    7.65
  -8  -2  -6  572.71    8.66
  -8  -2  -5  212.89    4.77
  -8  -2  -4  176.72    4.24
  -8  -2  -4  174.34    4.52
  -8  -2  -3  877.75   12.02
  -8  -2  -3  860.76   11.32
  -8  -2  -2  696.84   10.57
  -8  -2  -2  688.90   10.33
  -8  -2  -2  711.03   10.37
  -8  -2  -1  116.27    5.59
  -8  -2  -1  117.99    5.68
  -8  -2  -1  105.86    4.88
  -8  -2   0  394.51    8.16
  -8  -2   0  379.05    8.17
  -8  -2   1   87.29    5.67
  -8  -2   1   82.70    5.58
  -8  -2   2   44.32    5.18
  -8  -2   2   50.93    5.09
  -8  -2   3   76.91    5.24
  -8  -2   4  406.80    7.73
  -8  -2   5  277.44    6.12
  -8  -2   6   16.53    3.21
  -8  -1  -5   30.70    2.57
  -8  -1  -2   57.71    3.80
  -8  -1  -1   68.00    4.27
  -8  -1   0  509.63    8.32
  -8  -1   1   70.18    4.47
  -8  -1   2   99.75    4.71
  -8  -1   4  187.08    4.73
  -8  -1   4  154.38    3.89
  -8  -1   5  189.43    4.21
  -8   0  -2   15.88    2.12
  -8   0  -1  661.39    8.10
  -8   0   0  188.15    3.97
  -7  -7  -5   13.85    3.72
  -7  -7  -4   31.72    4.36
  -7  -7  -3  651.22   10.15
  -7  -7  -3  660.75   11.17
  -7  -7  -2   74.85    5.16
  -7  -7  -2   84.13    4.70
  -7  -7  -2   76.22    4.35
  -7  -7  -1   64.94    4.37
  -7  -7  -1   71.73    4.95
  -7  -7   0  422.12    8.98
  -7  -7   0  421.30    8.93
  -7  -7   0  398.31    8.02
  -7  -7   1   69.94    4.73
  -7  -7   1   84.46    5.35
  -7  -7   1   78.59    4.99
  -7  -7   2  390.34    8.67
  -7  -7   2  397.16    8.03
  -7  -7   2  379.84    7.77
  -7  -7   3   43.61    4.44
  -7  -7   3   50.54    4.83
  -7  -7   4   60.57    4.29
  -7  -7   4   63.47    4.80
  -7  -7   6   38.35    3.24
  -7  -6  -9   25.89    4.04
  -7  -6  -8  175.93    6.06
  -7  -6  -7  116.98    4.93
  -7  -6  -6    8.60    4.17
  -7  -6  -5   76.33    5.57
  -7  -6  -5   85.43    5.31
  -7  -6  -4  333.52    8.05
  -7  -6  -4  325.97    8.67
  -7  -6  -3  472.83    9.51
  -7  -6  -3  480.98    9.25
  -7  -6  -3  457.48   10.49
  -7  -6  -2   48.23    4.82
  -7  -6  -2   47.34    5.38
  -7  -6  -2   55.32    5.52
  -7  -6  -2   53.50    6.01
  -7  -6  -1 1673.04   20.48
  -7  -6  -1 1596.52   21.13
  -7  -6  -1 1615.85   20.22
  -7  -6  -1 1622.81   21.86
  -7  -6   0  155.99    7.11
  -7  -6   0  139.81    6.81
  -7  -6   1   10.23    5.45
  -7  -6   1   10.93    5.29
  -7  -6   1    6.77    5.20
  -7  -6   2  645.04   12.08
  -7  -6   2  641.04   12.41
  -7  -6   2  632.13   11.32
  -7  -6   3  152.44    6.79
  -7  -6   3  167.46    7.35
  -7  -6   3  166.65    6.72
  -7  -6   4   34.28    4.50
  -7  -6   4   26.88    5.23
  -7  -6   4   27.47    5.54
  -7  -6   5  268.85    8.21
  -7  -6   6 1094.86   14.59
  -7  -6   7  192.61    5.59
  -7  -6   8   86.23    3.78
  -7  -5 -10  612.55    9.49
  -7  -5 -10  605.31    9.73
  -7  -5  -9  252.07    6.89
  -7  -5  -8  431.33    9.34
  -7  -5  -8  419.59    8.84
  -7  -5  -7   95.28    4.97
  -7  -5  -7   86.61    6.48
  -7  -5  -7   76.11    5.59
  -7  -5  -6  311.68    8.30
  -7  -5  -6  303.86    7.99
  -7  -5  -5   56.98    5.73
  -7  -5  -5   49.89    5.68
  -7  -5  -5   52.30    5.40
  -7  -5  -4  251.68    7.75
  -7  -5  -4  243.20    8.01
  -7  -5  -4  258.90    8.54
  -7  -5  -4  251.17    7.45
  -7  -5  -3  778.73   14.26
  -7  -5  -3  771.36   12.97
  -7  -5  -2  975.98   15.03
  -7  -5  -2 1003.48   15.45
  -7  -5  -2 1011.35   14.66
  -7  -5  -2  974.50   16.43
  -7  -5  -2  950.91   15.21
  -7  -5  -1  242.32    8.15
  -7  -5  -1  243.47    7.17
  -7  -5  -1  246.10    7.81
  -7  -5  -1  241.42    9.02
  -7  -5  -1  243.34    8.20
  -7  -5   0   15.16    5.71
  -7  -5   0    8.92    4.84
  -7  -5   0   10.73    4.36
  -7  -5   0   12.44    6.19
  -7  -5   0    9.12    5.97
  -7  -5   1  685.34   13.46
  -7  -5   1  680.39   11.94
  -7  -5   2  835.84   13.01
  -7  -5   2  854.35   12.58
  -7  -5   2  853.14   14.39
  -7  -5   2  828.81   14.77
  -7  -5   2  840.48   15.22
  -7  -5   3  697.61   13.19
  -7  -5   3  705.96   13.79
  -7  -5   4  184.88    8.50
  -7  -5   5 2357.81   29.66
  -7  -5   5 2451.81   26.66
  -7  -5   6    4.25    5.22
  -7  -5   6    1.67    4.16
  -7  -5   7   22.45    4.86
  -7  -5   8  479.73    8.45
  -7  -4 -12  472.53    7.53
  -7  -4 -11   30.21    3.56
  -7  -4 -11   20.45    4.01
  -7  -4 -11   16.55    4.31
  -7  -4 -10  316.64    7.31
  -7  -4  -9  873.45   13.19
  -7  -4  -9  909.31   13.35
  -7  -4  -8  171.30    6.83
  -7  -4  -8  185.95    7.27
  -7  -4  -7   31.29    5.39
  -7  -4  -7   33.26    6.34
  -7  -4  -6 1002.96   15.84
  -7  -4  -6  982.86   14.81
  -7  -4  -6 1002.18   15.27
  -7  -4  -5  260.60    8.04
  -7  -4  -5  238.60    8.73
  -7  -4  -5  264.61    8.43
  -7  -4  -5  243.47    7.62
  -7  -4  -5  267.57    9.27
  -7  -4  -4  673.08   12.30
  -7  -4  -4  667.04   13.04
  -7  -4  -4  684.89   12.01
  -7  -4  -3  334.13    9.21
  -7  -4  -3  323.78    8.69
  -7  -4  -3  331.43    9.98
  -7  -4  -3  326.93    9.88
  -7  -4  -2 1534.16   22.01
  -7  -4  -2 1529.62   20.84
  -7  -4  -2 1514.73   20.58
  -7  -4  -2 1503.15   19.75
  -7  -4  -1   23.34    6.42
  -7  -4  -1   32.46    5.15
  -7  -4  -1   28.56    5.79
  -7  -4  -1   34.73    6.75
  -7  -4  -1   26.22    6.52
  -7  -4   0  141.27    7.42
  -7  -4   0  134.97    5.89
  -7  -4   0  127.47    7.71
  -7  -4   0  129.42    7.82
  -7  -4   0  135.33    8.14
  -7  -4   1  409.23   11.25
  -7  -4   1  434.27   11.34
  -7  -4   1  437.44   11.09
  -7  -4   1  452.89    9.92
  -7  -4   2  920.36   13.45
  -7  -4   2  883.54   15.43
  -7  -4   2  921.58   16.47
  -7  -4   3  574.74   11.79
  -7  -4   3  562.36   12.38
  -7  -4   3  537.72   13.02
  -7  -4   4  109.83    7.32
  -7  -4   4  121.43    8.15
  -7  -4   5  431.76   10.64
  -7  -4   5  430.70    9.44
  -7  -4   6   -2.86    5.94
  -7  -4   6    4.66    5.77
  -7  -4   6    4.95    4.84
  -7  -4   7  490.43    9.19
  -7  -4   7  503.22   10.06
  -7  -4   8  732.58   11.39
  -7  -4   8  664.80    9.94
  -7  -4   9   89.82    4.17
  -7  -4  10  216.21    4.83
  -7  -3 -12   18.41    3.54
  -7  -3 -11  344.23    6.66
  -7  -3 -11  357.76    7.41
  -7  -3 -10  603.19    9.89
  -7  -3 -10  613.78   10.44
  -7  -3 -10  611.71   10.21
  -7  -3  -9  712.28   11.80
  -7  -3  -9  694.73   11.45
  -7  -3  -9  681.77   11.35
  -7  -3  -8   25.52    5.92
  -7  -3  -8   20.64    5.38
  -7  -3  -7  897.27   13.32
  -7  -3  -7  926.86   14.62
  -7  -3  -7  899.00   13.94
  -7  -3  -6  109.40    6.70
  -7  -3  -6  110.63    6.51
  -7  -3  -6  108.15    7.50
  -7  -3  -6  109.85    6.65
  -7  -3  -5 1267.41   17.23
  -7  -3  -5 1294.46   18.15
  -7  -3  -5 1326.78   18.36
  -7  -3  -5 1303.33   17.64
  -7  -3  -4   79.83    7.47
  -7  -3  -4   93.17    6.35
  -7  -3  -4   89.87    5.62
  -7  -3  -4   91.88    6.20
  -7  -3  -3 1161.17   17.86
  -7  -3  -3 1125.36   15.75
  -7  -3  -3 1150.37   16.46
  -7  -3  -3 1176.70   17.56
  -7  -3  -2  169.74    6.70
  -7  -3  -2  154.91    8.70
  -7  -3  -2  180.94    8.07
  -7  -3  -2  167.26    8.32
  -7  -3  -1  947.14   13.94
  -7  -3  -1  980.26   15.67
  -7  -3  -1  987.23   16.22
  -7  -3  -1  981.99   16.41
  -7  -3   0  673.53   13.59
  -7  -3   0  684.82   12.40
  -7  -3   1   34.83    5.72
  -7  -3   1   35.11    7.20
  -7  -3   2  161.92    8.81
  -7  -3   2  163.79    8.61
  -7  -3   2  174.96    6.65
  -7  -3   3   46.96    6.88
  -7  -3   3   52.00    7.34
  -7  -3   4  372.37   10.56
  -7  -3   4  395.19    9.91
  -7  -3   5  202.77    8.41
  -7  -3   5  189.86    6.37
  -7  -3   5  207.13    8.38
  -7  -3   5  205.71    7.64
  -7  -3   6  233.00    8.53
  -7  -3   6  238.35    7.22
  -7  -3   6  226.22    8.18
  -7  -3   6  229.76    6.89
  -7  -3   7  980.58   12.59
  -7  -3   7 1009.98   14.14
  -7  -3   8  114.49    5.42
  -7  -3   8  120.40    5.20
  -7  -3   9  276.00    6.64
  -7  -3  10  596.48    9.01
  -7  -3  11   65.36    3.37
  -7  -2 -12   23.00    3.16
  -7  -2 -12   22.79    3.15
  -7  -2 -11  512.63    8.14
  -7  -2 -11  525.19    8.41
  -7  -2 -10  379.38    7.57
  -7  -2 -10  389.12    7.62
  -7  -2 -10  370.87    7.48
  -7  -2 -10  383.15    7.94
  -7  -2  -9   56.53    5.46
  -7  -2  -9   63.45    4.96
  -7  -2  -8  186.13    7.18
  -7  -2  -8  179.43    7.17
  -7  -2  -8  186.06    6.58
  -7  -2  -7  513.39    9.77
  -7  -2  -7  517.23   10.88
  -7  -2  -7  518.88   10.65
  -7  -2  -6  790.93   12.65
  -7  -2  -6  820.70   13.80
  -7  -2  -6  803.04   13.27
  -7  -2  -5  121.01    7.07
  -7  -2  -5  124.40    7.10
  -7  -2  -5  115.99    6.18
  -7  -2  -5  127.16    7.68
  -7  -2  -5  113.03    5.95
  -7  -2  -5  115.97    6.43
  -7  -2  -4 1196.72   17.28
  -7  -2  -4 1239.74   17.06
  -7  -2  -4 1206.02   16.52
  -7  -2  -4 1197.43   15.96
  -7  -2  -4 1237.37   17.59
  -7  -2  -3  616.54   12.58
  -7  -2  -3  595.12   12.32
  -7  -2  -3  614.30   12.54
  -7  -2  -3  604.39   11.25
  -7  -2  -2  996.96   14.57
  -7  -2  -2 1044.03   16.19
  -7  -2  -2 1033.68   16.70
  -7  -2  -2 1021.39   16.65
  -7  -2  -1 2775.33   32.88
  -7  -2  -1 2720.22   29.86
  -7  -2  -1 2842.90   31.80
  -7  -2  -1 2896.02   32.74
  -7  -2   0  244.09    8.35
  -7  -2   0  228.39    9.58
  -7  -2   0  255.23    9.70
  -7  -2   1   22.37    6.15
  -7  -2   1   18.92    7.43
  -7  -2   2 1205.62   18.53
  -7  -2   2 1169.42   15.89
  -7  -2   2 1215.38   18.07
  -7  -2   3  435.65   10.45
  -7  -2   3  396.79    8.48
  -7  -2   4  158.72    6.27
  -7  -2   4  160.29    7.83
  -7  -2   4  162.57    8.36
  -7  -2   5  256.43    7.24
  -7  -2   5  247.24    7.97
  -7  -2   5  264.74    9.04
  -7  -2   6  172.85    6.68
  -7  -2   6  181.00    7.45
  -7  -2   7  830.09   12.60
  -7  -2   7  835.12   12.87
  -7  -2   8   66.10    5.17
  -7  -2   8   70.25    5.30
  -7  -2   9  638.15    9.02
  -7  -2   9  665.97   10.16
  -7  -2  10  652.50    9.42
  -7  -2  11   12.62    2.89
  -7  -2  12  529.12    7.07
  -7  -1 -11   32.85    3.30
  -7  -1 -10   37.88    3.47
  -7  -1 -10   38.18    3.29
  -7  -1  -9   30.88    4.55
  -7  -1  -9   31.75    4.32
  -7  -1  -9   31.18    3.87
  -7  -1  -8  791.48   11.99
  -7  -1  -8  774.51   10.68
  -7  -1  -7   51.87    4.28
  -7  -1  -7   52.98    5.57
  -7  -1  -7   56.42    5.79
  -7  -1  -6   30.58    6.08
  -7  -1  -6   31.94    5.45
  -7  -1  -6   29.50    4.37
  -7  -1  -5  811.37   13.40
  -7  -1  -5  798.44   12.41
  -7  -1  -4  113.12    6.26
  -7  -1  -4  119.11    6.23
  -7  -1  -4  123.20    5.98
  -7  -1  -3    1.57    4.98
  -7  -1  -3    6.70    5.81
  -7  -1  -3    0.12    6.11
  -7  -1  -3    7.44    5.74
  -7  -1  -2 1659.09   21.05
  -7  -1  -2 1663.70   21.10
  -7  -1  -2 1619.90   20.84
  -7  -1  -1  230.98    8.16
  -7  -1  -1  218.41    8.53
  -7  -1  -1  235.49    8.78
  -7  -1   0  376.87   10.38
  -7  -1   0  394.39   10.28
  -7  -1   0  402.63   10.52
  -7  -1   1  701.07   11.31
  -7  -1   1  712.83   11.90
  -7  -1   1  775.03   13.91
  -7  -1   1  790.74   13.81
  -7  -1   2 1273.65   16.56
  -7  -1   2 1406.37   19.23
  -7  -1   2 1329.42   17.10
  -7  -1   2 1428.14   19.48
  -7  -1   3   83.87    7.22
  -7  -1   3   81.56    5.71
  -7  -1   4  313.46    9.18
  -7  -1   4  316.09    7.81
  -7  -1   5  840.82   13.69
  -7  -1   5  848.80   12.76
  -7  -1   5  877.99   13.74
  -7  -1   6  250.66    7.68
  -7  -1   6  244.34    7.13
  -7  -1   7   15.43    4.80
  -7  -1   7   19.11    4.50
  -7  -1   8  203.16    5.48
  -7  -1   8  210.86    5.95
  -7  -1   9  626.55    8.04
  -7  -1   9  757.24   10.12
  -7  -1  10    0.77    3.66
  -7  -1  10    2.44    3.14
  -7  -1  11   26.55    2.84
  -7  -1  11   28.46    2.52
  -7   0  -9   95.95    3.84
  -7   0  -8  157.78    4.89
  -7   0  -7   53.92    4.25
  -7   0  -6  226.88    5.96
  -7   0  -6  219.55    6.53
  -7   0  -6  204.40    5.40
  -7   0  -5  921.63   12.99
  -7   0  -5  860.70   11.92
  -7   0  -4    9.26    3.96
  -7   0  -3  444.93    9.20
  -7   0  -3  423.60    8.74
  -7   0  -2  265.05    7.68
  -7   0  -2  265.41    7.76
  -7   0  -1    7.30    4.11
  -7   0  -1    6.22    5.11
  -7   0  -1    4.47    5.52
  -7   0   0  251.13    7.17
  -7   0   0  241.47    6.70
  -7   0   1  876.11   12.85
  -7   0   1  971.44   14.37
  -7   0   2  371.49    8.20
  -7   0   2  390.05    9.47
  -7   0   3   25.65    5.00
  -7   0   4 1370.46   17.09
  -7   0   4 1408.74   17.72
  -7   0   5  186.31    6.54
  -7   0   5  188.56    6.22
  -7   0   6   36.23    4.51
  -7   0   6   33.12    4.48
  -7   0   6   35.58    3.68
  -7   0   7  631.78    8.91
  -7   0   7  609.92    8.79
  -7   0   8  112.87    4.50
  -7   0   8   98.86    3.88
  -7   0   9   18.47    2.69
  -7   0   9   22.64    3.02
  -7   0  10   27.34    2.24
  -7   1  -5   20.55    2.86
  -7   1  -5   20.06    2.98
  -7   1  -4   15.37    3.48
  -7   1  -3  552.80    8.65
  -7   1  -2  476.58    8.03
  -7   1  -2  383.25    6.73
  -7   1  -1  189.02    5.87
  -7   1  -1  170.96    5.07
  -7   1   0  102.50    4.60
  -7   1   0  107.53    5.22
  -7   1   1  167.08    5.35
  -7   1   2  101.06    5.00
  -7   1   2  104.68    4.78
  -7   1   3  317.67    6.59
  -7   1   3  321.86    6.77
  -7   1   4  380.11    6.63
  -7   1   4  373.10    7.04
  -7   1   5  228.65    4.70
  -7   1   5  235.00    4.81
  -7   1   6  626.67    8.59
  -7   1   7   43.55    2.83
  -7   2  -1  113.23    2.98
  -7   2  -1  111.50    3.04
  -7   2   0   15.92    2.35
  -7   2   0   15.10    2.24
  -6  -8  -5   23.05    3.04
  -6  -8  -4  366.93    7.82
  -6  -8  -4  352.68    7.33
  -6  -8  -3  243.13    6.74
  -6  -8  -3  251.44    6.61
  -6  -8  -2   15.97    4.17
  -6  -8  -1  341.56    7.94
  -6  -8  -1  346.87    8.07
  -6  -8   0  413.58    8.56
  -6  -8   0  441.74    9.05
  -6  -8   1    6.90    4.29
  -6  -8   4    9.23    3.35
  -6  -7  -8  270.60    6.75
  -6  -7  -7   40.53    4.60
  -6  -7  -6  163.01    6.57
  -6  -7  -6  168.02    6.04
  -6  -7  -5  450.82    9.99
  -6  -7  -5  467.38    9.72
  -6  -7  -4  252.79    7.84
  -6  -7  -4  268.69    7.81
  -6  -7  -4  264.92    8.34
  -6  -7  -3    3.22    4.13
  -6  -7  -3    7.12    4.79
  -6  -7  -3    2.03    5.41
  -6  -7  -3    7.98    5.26
  -6  -7  -2  331.89    8.92
  -6  -7  -2  327.02    9.45
  -6  -7  -2  324.90    9.28
  -6  -7  -1  658.97   11.22
  -6  -7  -1  659.58   13.03
  -6  -7   0   32.08    4.42
  -6  -7   0   42.24    5.43
  -6  -7   0   40.57    5.96
  -6  -7   0   44.92    6.48
  -6  -7   1  345.32    9.44
  -6  -7   1  339.30    9.99
  -6  -7   1  342.45    9.07
  -6  -7   2  741.53   12.91
  -6  -7   2  749.80   13.34
  -6  -7   3    5.70    5.73
  -6  -7   3    6.95    4.99
  -6  -7   4  205.54    6.53
  -6  -7   5  205.76    7.66
  -6  -7   5  194.32    6.05
  -6  -7   6    4.45    3.78
  -6  -7   6    5.96    4.60
  -6  -7   7  112.39    4.69
  -6  -7   7  128.87    5.47
  -6  -7   8  283.18    5.69
  -6  -6 -11  135.71    5.10
  -6  -6  -9   78.72    5.44
  -6  -6  -8  492.20   10.03
  -6  -6  -8  460.51    9.19
  -6  -6  -7  917.85   15.02
  -6  -6  -7  941.49   14.57
  -6  -6  -6  767.41   13.89
  -6  -6  -6  783.33   13.54
  -6  -6  -5  299.70    9.29
  -6  -6  -5  292.13    8.06
  -6  -6  -5  300.73    8.74
  -6  -6  -4   61.64    5.42
  -6  -6  -4   59.71    6.66
  -6  -6  -4   55.46    6.23
  -6  -6  -4   64.35    6.21
  -6  -6  -3  228.26    8.59
  -6  -6  -3  244.93    7.64
  -6  -6  -3  240.81    8.84
  -6  -6  -3  237.51    8.39
  -6  -6  -2  536.81   11.76
  -6  -6  -2  513.42   12.09
  -6  -6  -2  536.16   12.24
  -6  -6  -1  203.49    8.73
  -6  -6  -1  209.95    8.55
  -6  -6  -1  208.65    7.23
  -6  -6  -1  208.87    8.91
  -6  -6   0   50.10    7.29
  -6  -6   0   54.79    5.42
  -6  -6   1  624.23   11.38
  -6  -6   1  645.72   13.12
  -6  -6   1  641.08   13.85
  -6  -6   1  629.53   13.33
  -6  -6   2  597.75   12.67
  -6  -6   2  593.79   10.75
  -6  -6   2  598.83   13.50
  -6  -6   2  598.92   12.89
  -6  -6   3   13.12    4.02
  -6  -6   3   14.72    5.90
  -6  -6   3   10.52    6.83
  -6  -6   4  384.14   11.06
  -6  -6   4  370.93    9.69
  -6  -6   5  125.49    6.52
  -6  -6   5  126.18    6.30
  -6  -6   6   15.65    4.32
  -6  -6   6   15.27    5.26
  -6  -6   6   11.89    6.25
  -6  -6   7  250.68    8.54
  -6  -6   7  233.90    7.45
  -6  -6   8  639.59   10.44
  -6  -6   8  640.82   11.98
  -6  -6   9   11.25    3.83
  -6  -6   9   15.00    4.59
  -6  -6  10  318.48    5.42
  -6  -5 -13  464.92    7.60
  -6  -5 -12  209.87    6.39
  -6  -5 -11  133.01    5.97
  -6  -5 -10  664.60   11.76
  -6  -5  -9  416.38    9.82
  -6  -5  -9  398.21    9.01
  -6  -5  -8    3.07    4.83
  -6  -5  -8    0.90    5.57
  -6  -5  -8    3.75    4.54
  -6  -5  -7 1608.24   20.69
  -6  -5  -7 1474.30   20.84
  -6  -5  -6  200.83    7.38
  -6  -5  -6  195.76    8.12
  -6  -5  -6  203.45    7.89
  -6  -5  -5   33.83    5.74
  -6  -5  -5   36.44    5.50
  -6  -5  -5   33.71    6.19
  -6  -5  -4 1251.60   19.18
  -6  -5  -4 1258.74   16.86
  -6  -5  -4 1255.64   17.82
  -6  -5  -3 1166.43   18.84
  -6  -5  -3 1131.08   17.90
  -6  -5  -3 1167.84   18.37
  -6  -5  -2   69.08    6.77
  -6  -5  -2   73.40    7.48
  -6  -5  -2   75.11    6.69
  -6  -5  -1  801.25   15.53
  -6  -5  -1  806.70   15.15
  -6  -5  -1  828.06   13.65
  -6  -5  -1  811.12   15.04
  -6  -5   0  715.93   14.25
  -6  -5   0  731.31   14.58
  -6  -5   0  733.82   12.67
  -6  -5   1   40.11    7.25
  -6  -5   1   40.31    5.29
  -6  -5   2   97.22    8.08
  -6  -5   2   89.52    7.58
  -6  -5   2   99.21    5.79
  -6  -5   3 1041.90   14.96
  -6  -5   3 1002.13   17.90
  -6  -5   3 1003.14   17.26
  -6  -5   4 1560.85   23.23
  -6  -5   4 1532.47   21.94
  -6  -5   4 1539.52   19.25
  -6  -5   5  509.64   12.83
  -6  -5   5  494.12   11.21
  -6  -5   6  618.30   11.90
  -6  -5   6  562.20   11.47
  -6  -5   7 6099.06   62.86
  -6  -5   7 6557.33   65.69
  -6  -5   8   87.20    6.09
  -6  -5   8   67.45    6.58
  -6  -5   8   72.69    7.18
  -6  -5   8   75.55    5.18
  -6  -5   9  527.33   11.00
  -6  -5   9  536.78    9.48
  -6  -5  10  957.18   12.38
  -6  -5  10  874.48   12.41
  -6  -5  11   75.58    4.29
  -6  -5  12   -2.21    2.72
  -6  -5  12    4.93    2.83
  -6  -4 -14  643.03    8.73
  -6  -4 -13  265.19    6.58
  -6  -4 -13  260.42    6.70
  -6  -4 -12   26.78    5.13
  -6  -4 -11  629.45   11.59
  -6  -4 -11  620.38   10.87
  -6  -4 -11  615.37   11.17
  -6  -4 -10  885.08   14.02
  -6  -4 -10  876.66   14.15
  -6  -4 -10  861.45   14.12
  -6  -4  -9   90.98    6.65
  -6  -4  -9   86.43    6.60
  -6  -4  -8  430.89   10.45
  -6  -4  -8  423.04   10.06
  -6  -4  -8  447.27   10.45
  -6  -4  -7  316.72    9.39
  -6  -4  -7  288.89    8.45
  -6  -4  -7  297.66    8.73
  -6  -4  -6    3.28    5.54
  -6  -4  -6    6.97    5.69
  -6  -4  -5 1535.18   20.45
  -6  -4  -5 1535.43   20.75
  -6  -4  -4 1775.62   22.88
  -6  -4  -4 1750.95   22.78
  -6  -4  -4 1703.95   21.78
  -6  -4  -4 1677.26   23.81
  -6  -4  -3  501.81   12.32
  -6  -4  -3  494.06   10.90
  -6  -4  -3  482.14   10.72
  -6  -4  -2 2552.53   31.11
  -6  -4  -2 2680.27   30.39
  -6  -4  -2 2566.61   32.39
  -6  -4  -2 2653.66   31.07
  -6  -4  -1 1216.88   19.01
  -6  -4  -1 1287.58   18.20
  -6  -4  -1 1193.40   19.79
  -6  -4  -1 1316.11   18.35
  -6  -4  -1 1266.54   18.40
  -6  -4   0   39.21    5.49
  -6  -4   0   39.10    7.05
  -6  -4   0   38.89    6.71
  -6  -4   1  112.77    6.51
  -6  -4   1  102.67    7.77
  -6  -4   1  105.69    6.19
  -6  -4   2  207.85    7.31
  -6  -4   2  209.33    7.70
  -6  -4   2  209.73    9.34
  -6  -4   2  213.39    9.17
  -6  -4   3  422.87    9.89
  -6  -4   3  390.16   11.13
  -6  -4   3  406.34    9.21
  -6  -4   3  411.51   11.87
  -6  -4   4 1693.56   24.58
  -6  -4   4 1645.42   20.71
  -6  -4   4 1694.53   23.43
  -6  -4   5  984.78   16.36
  -6  -4   5  986.30   16.26
  -6  -4   5  938.49   17.66
  -6  -4   6  803.54   14.13
  -6  -4   6  771.70   15.86
  -6  -4   7   19.72    6.24
  -6  -4   7   19.40    5.16
  -6  -4   7   16.31    5.46
  -6  -4   7   18.84    6.20
  -6  -4   8  601.34   11.53
  -6  -4   8  560.43   11.01
  -6  -4   8  569.87   13.64
  -6  -4   9 1123.20   15.56
  -6  -4   9 1062.97   15.78
  -6  -4  10   34.80    4.84
  -6  -4  10   28.84    5.43
  -6  -4  11  139.96    5.98
  -6  -4  12  621.81    9.62
  -6  -4  12  588.38    9.81
  -6  -4  13  563.40    8.18
  -6  -4  13  517.44    8.20
  -6  -4  14   25.90    2.41
  -6  -3 -15   12.97    3.10
  -6  -3 -14   17.15    3.60
  -6  -3 -14   17.10    4.16
  -6  -3 -13   23.25    4.55
  -6  -3 -13   22.31    4.62
  -6  -3 -12  222.33    7.39
  -6  -3 -12  218.98    7.25
  -6  -3 -11 1092.50   15.11
  -6  -3 -11 1073.32   15.85
  -6  -3 -10   48.77    5.85
  -6  -3 -10   48.06    6.29
  -6  -3 -10   49.65    6.49
  -6  -3  -9  166.81    7.51
  -6  -3  -9  163.72    7.98
  -6  -3  -8 1426.72   19.66
  -6  -3  -8 1429.04   19.98
  -6  -3  -8 1389.30   19.94
  -6  -3  -7  100.87    6.48
  -6  -3  -7  116.29    6.84
  -6  -3  -7  113.92    7.96
  -6  -3  -6  359.93    9.37
  -6  -3  -6  361.90    9.28
  -6  -3  -6  371.37   10.64
  -6  -3  -6  362.36    9.29
  -6  -3  -6  365.02    9.58
  -6  -3  -6  355.00    9.38
  -6  -3  -5 1853.08   23.92
  -6  -3  -5 1846.83   23.81
  -6  -3  -5 1871.54   24.37
  -6  -3  -5 1876.72   24.45
  -6  -3  -5 1853.00   24.07
  -6  -3  -5 1871.91   24.03
  -6  -3  -4  981.21   15.47
  -6  -3  -4 1019.08   16.35
  -6  -3  -4 1004.33   16.76
  -6  -3  -4 1023.46   16.57
  -6  -3  -4 1011.66   16.27
  -6  -3  -4 1040.54   16.02
  -6  -3  -4 1013.58   16.27
  -6  -3  -3   77.49    6.92
  -6  -3  -3   71.19    6.23
  -6  -3  -3   82.41    6.88
  -6  -3  -3   67.61    7.12
  -6  -3  -3   72.23    6.20
  -6  -3  -3   70.79    6.74
  -6  -3  -2 1231.76   18.29
  -6  -3  -2 1237.00   19.45
  -6  -3  -2 1256.00   17.81
  -6  -3  -2 1291.13   19.06
  -6  -3  -1 1581.39   20.12
  -6  -3  -1 1480.87   21.42
  -6  -3  -1 1509.96   20.95
  -6  -3  -1 1526.29   21.45
  -6  -3  -1 1532.94   22.45
  -6  -3  -1 1597.17   21.26
  -6  -3   0   23.75    6.49
  -6  -3   0   29.56    5.65
  -6  -3   0   27.89    6.21
  -6  -3   0   34.53    5.23
  -6  -3   0   32.62    6.62
  -6  -3   1  103.55    7.70
  -6  -3   1  105.79    6.51
  -6  -3   1  122.78    8.18
  -6  -3   1  111.13    5.79
  -6  -3   1  105.40    7.72
  -6  -3   1   99.91    6.83
  -6  -3   2  908.35   15.38
  -6  -3   2  925.71   15.84
  -6  -3   2  939.25   14.30
  -6  -3   2  887.70   14.50
  -6  -3   2  917.07   15.50
  -6  -3   2  891.21   16.69
  -6  -3   2  906.28   15.54
  -6  -3   3   48.58    7.20
  -6  -3   3   44.42    5.94
  -6  -3   3   45.99    6.17
  -6  -3   3   49.38    5.71
  -6  -3   3   49.68    6.20
  -6  -3   3   52.32    7.00
  -6  -3   3   56.64    7.50
  -6  -3   4 2244.33   29.76
  -6  -3   4 2130.06   25.83
  -6  -3   4 2190.55   27.29
  -6  -3   4 2189.68   28.51
  -6  -3   4 2183.06   27.00
  -6  -3   4 2164.83   26.84
  -6  -3   5  724.74   14.09
  -6  -3   5  713.09   15.70
  -6  -3   5  697.88   12.65
  -6  -3   6 1288.47   17.97
  -6  -3   6 1330.34   19.34
  -6  -3   6 1280.61   18.43
  -6  -3   7   89.06    6.95
  -6  -3   7   68.05    6.69
  -6  -3   7   80.54    6.09
  -6  -3   7   79.83    7.53
  -6  -3   8  669.23   12.87
  -6  -3   8  673.59   12.55
  -6  -3   8  684.91   12.24
  -6  -3   9  527.99   11.36
  -6  -3   9  545.24   10.98
  -6  -3  10   26.55    5.62
  -6  -3  10   14.67    5.43
  -6  -3  11 1276.70   17.08
  -6  -3  11 1270.96   17.52
  -6  -3  12  676.08   10.86
  -6  -3  12  656.11   11.07
  -6  -3  13   52.84    4.61
  -6  -3  13   66.84    4.36
  -6  -3  14  323.91    5.71
  -6  -3  14  287.47    5.75
  -6  -2 -14   57.26    4.04
  -6  -2 -14   58.82    3.83
  -6  -2 -14   59.87    4.38
  -6  -2 -13  644.67   10.49
  -6  -2 -13  672.11   10.38
  -6  -2 -13  655.48   10.61
  -6  -2 -12  468.95    9.55
  -6  -2 -12  493.16    9.66
  -6  -2 -11  138.41    6.89
  -6  -2 -11  143.07    7.09
  -6  -2 -11  136.18    6.19
  -6  -2 -10  173.54    8.00
  -6  -2 -10  156.75    6.82
  -6  -2 -10  171.48    7.17
  -6  -2  -9  987.12   15.34
  -6  -2  -9  916.86   14.53
  -6  -2  -8  945.36   15.36
  -6  -2  -8  928.19   15.03
  -6  -2  -7   22.52    5.34
  -6  -2  -7   23.91    5.59
  -6  -2  -7   19.68    6.31
  -6  -2  -7   20.71    6.96
  -6  -2  -6  558.31   11.04
  -6  -2  -6  577.30   11.62
  -6  -2  -6  587.15   12.57
  -6  -2  -6  559.30   11.65
  -6  -2  -6  576.89   11.89
  -6  -2  -5   25.20    5.44
  -6  -2  -5   35.82    7.21
  -6  -2  -5   22.28    5.30
  -6  -2  -5   19.80    6.46
  -6  -2  -5   43.76    6.21
  -6  -2  -5   23.72    5.40
  -6  -2  -4  582.59   10.85
  -6  -2  -4  563.91   12.31
  -6  -2  -4  571.65   11.76
  -6  -2  -4  599.77   11.81
  -6  -2  -4  581.50   12.22
  -6  -2  -4  568.26   11.78
  -6  -2  -3 2244.63   26.38
  -6  -2  -3 2280.86   27.76
  -6  -2  -3 2367.84   27.47
  -6  -2  -3 2294.70   28.12
  -6  -2  -3 2334.85   28.35
  -6  -2  -3 2228.99   28.44
  -6  -2  -3 2345.60   27.77
  -6  -2  -3 2322.44   28.16
  -6  -2  -2 1525.05   19.72
  -6  -2  -2 1475.31   20.67
  -6  -2  -2 1506.06   20.93
  -6  -2  -2 1456.18   18.76
  -6  -2  -2 1507.71   21.06
  -6  -2  -2 1507.48   20.82
  -6  -2  -2 1473.02   21.36
  -6  -2  -2 1477.82   20.97
  -6  -2  -2 1504.80   20.93
  -6  -2  -1   69.13    5.44
  -6  -2  -1   52.47    7.36
  -6  -2  -1   59.18    6.43
  -6  -2  -1   58.21    6.39
  -6  -2  -1   62.55    7.01
  -6  -2  -1   60.22    6.71
  -6  -2  -1   62.93    7.13
  -6  -2  -1   63.39    6.59
  -6  -2   0  487.93   11.33
  -6  -2   0  494.57   11.34
  -6  -2   0  494.25   11.96
  -6  -2   0  511.22    9.66
  -6  -2   0  497.37   11.51
  -6  -2   0  507.87   11.33
  -6  -2   0  500.74   11.84
  -6  -2   0  489.43   11.76
  -6  -2   1 3822.30   42.60
  -6  -2   1 3749.29   42.72
  -6  -2   1 3876.13   40.94
  -6  -2   2  592.57   13.26
  -6  -2   2  614.27   12.71
  -6  -2   2  631.03   12.79
  -6  -2   2  605.14   11.20
  -6  -2   2  614.12   12.94
  -6  -2   2  634.58   12.73
  -6  -2   2  587.99   11.31
  -6  -2   2  589.01   12.62
  -6  -2   3  111.92    6.91
  -6  -2   3  121.19    6.33
  -6  -2   3  118.41    6.76
  -6  -2   3  110.62    7.91
  -6  -2   3  117.55    7.63
  -6  -2   3  112.95    6.90
  -6  -2   3  113.04    6.90
  -6  -2   4 1303.25   18.96
  -6  -2   4 1320.66   18.93
  -6  -2   4 1306.86   18.79
  -6  -2   4 1298.38   18.64
  -6  -2   4 1365.90   20.26
  -6  -2   5  819.78   14.53
  -6  -2   5  821.56   15.33
  -6  -2   5  839.70   14.32
  -6  -2   5  845.98   15.46
  -6  -2   6    0.07    6.49
  -6  -2   6    2.76    6.07
  -6  -2   6   -0.65    7.22
  -6  -2   6    1.48    5.65
  -6  -2   6    2.81    6.84
  -6  -2   7  589.77   12.52
  -6  -2   7  583.45   10.68
  -6  -2   7  582.69   12.50
  -6  -2   7  600.35   12.33
  -6  -2   7  553.54   11.55
  -6  -2   8  459.07   11.36
  -6  -2   8  444.72   10.34
  -6  -2   9   20.23    5.69
  -6  -2   9   27.30    5.34
  -6  -2   9   12.70    6.88
  -6  -2  10  288.22    8.59
  -6  -2  10  293.47    8.97
  -6  -2  11  550.81   11.10
  -6  -2  11  550.06   10.66
  -6  -2  12  256.67    7.53
  -6  -2  12  267.76    7.31
  -6  -2  13  521.03    8.77
  -6  -2  13  517.96    8.89
  -6  -2  14  940.97   11.76
  -6  -2  14 1002.17   11.81
  -6  -1 -14  349.20    5.92
  -6  -1 -13  101.82    4.75
  -6  -1 -12   37.57    5.27
  -6  -1 -12   39.47    4.89
  -6  -1 -12   32.54    4.20
  -6  -1 -11  120.14    6.55
  -6  -1 -11  115.66    6.49
  -6  -1 -11  105.17    5.29
  -6  -1 -10  124.09    6.45
  -6  -1 -10  126.26    7.36
  -6  -1 -10  127.56    6.67
  -6  -1  -9  639.84   12.34
  -6  -1  -9  606.43   11.75
  -6  -1  -9  615.07   11.69
  -6  -1  -8   52.99    6.40
  -6  -1  -8   42.21    6.90
  -6  -1  -7   91.94    6.73
  -6  -1  -7   93.28    7.52
  -6  -1  -7   90.09    7.38
  -6  -1  -6  877.96   14.85
  -6  -1  -6  802.92   13.39
  -6  -1  -6  859.28   14.61
  -6  -1  -6  782.17   12.75
  -6  -1  -6  827.05   13.79
  -6  -1  -5   29.93    6.67
  -6  -1  -5   35.92    5.74
  -6  -1  -5   29.32    4.63
  -6  -1  -5   27.70    5.70
  -6  -1  -5   34.27    5.67
  -6  -1  -5   42.78    7.30
  -6  -1  -5   39.38    6.49
  -6  -1  -4 1914.18   24.32
  -6  -1  -4 1937.57   23.18
  -6  -1  -4 2000.20   24.24
  -6  -1  -4 1967.17   23.77
  -6  -1  -4 1953.11   23.95
  -6  -1  -3 1365.17   18.59
  -6  -1  -3 1342.01   17.51
  -6  -1  -3 1344.55   19.20
  -6  -1  -3 1342.87   19.36
  -6  -1  -3 1367.69   19.46
  -6  -1  -3 1305.30   19.22
  -6  -1  -2  108.02    5.82
  -6  -1  -2  108.06    6.59
  -6  -1  -2  111.06    8.08
  -6  -1  -2  118.06    7.30
  -6  -1  -2  100.42    6.38
  -6  -1  -2  109.21    7.79
  -6  -1  -2  107.84    7.77
  -6  -1  -2  113.01    7.26
  -6  -1  -1 2542.17   28.55
  -6  -1  -1 2526.45   30.16
  -6  -1  -1 2579.95   30.53
  -6  -1  -1 2579.14   30.69
  -6  -1  -1 2533.83   30.82
  -6  -1  -1 2558.74   30.10
  -6  -1  -1 2617.34   30.73
  -6  -1   0  241.27    7.39
  -6  -1   0  257.22    8.83
  -6  -1   0  245.44    8.46
  -6  -1   0  261.86    9.50
  -6  -1   0  226.88    9.96
  -6  -1   0  253.44    8.75
  -6  -1   0  253.78    8.78
  -6  -1   1   98.15    7.02
  -6  -1   1  104.62    6.27
  -6  -1   1  107.63    7.18
  -6  -1   1   98.16    8.11
  -6  -1   2  837.37   14.49
  -6  -1   2  827.24   15.59
  -6  -1   2  840.23   14.60
  -6  -1   2  849.67   14.90
  -6  -1   2  852.56   15.02
  -6  -1   2  839.18   13.71
  -6  -1   2  847.82   13.76
  -6  -1   3 3994.46   43.32
  -6  -1   3 3969.24   42.18
  -6  -1   3 4089.06   42.86
  -6  -1   4  759.08   13.66
  -6  -1   4  729.47   13.63
  -6  -1   5   38.96    7.35
  -6  -1   5   44.74    6.92
  -6  -1   5   45.77    5.85
  -6  -1   5   52.36    6.77
  -6  -1   6 1754.07   23.53
  -6  -1   6 1765.31   22.50
  -6  -1   6 1788.53   22.17
  -6  -1   7 1106.70   17.23
  -6  -1   7 1096.25   16.65
  -6  -1   8   45.30    6.13
  -6  -1   8   43.86    6.41
  -6  -1   8   42.71    7.30
  -6  -1   9  304.87    8.81
  -6  -1   9  298.65    7.58
  -6  -1   9  302.17    9.68
  -6  -1  10  497.57   10.56
  -6  -1  10  467.74   10.44
  -6  -1  11  276.85    8.02
  -6  -1  11  270.11    7.77
  -6  -1  12    9.61    4.71
  -6  -1  12    8.89    4.53
  -6  -1  13  388.35    7.24
  -6  -1  14  224.69    4.85
  -6   0 -13  102.35    3.81
  -6   0 -12   87.62    4.47
  -6   0 -12   95.98    4.73
  -6   0 -11  304.10    7.04
  -6   0 -11  321.23    7.48
  -6   0 -10   26.75    4.65
  -6   0 -10   33.87    5.01
  -6   0 -10   31.21    5.23
  -6   0  -9  133.83    6.52
  -6   0  -9  142.91    6.40
  -6   0  -8   27.07    5.38
  -6   0  -8   27.54    6.11
  -6   0  -7 1662.75   20.36
  -6   0  -7 1710.53   21.78
  -6   0  -7 1724.01   21.72
  -6   0  -6   29.34    6.76
  -6   0  -6   29.69    6.55
  -6   0  -6   26.47    4.96
  -6   0  -6   26.95    5.13
  -6   0  -5   32.76    5.18
  -6   0  -5   33.17    7.15
  -6   0  -5   32.54    5.79
  -6   0  -5   31.04    6.60
  -6   0  -4  454.91   10.32
  -6   0  -4  458.16   10.36
  -6   0  -4  451.41    9.66
  -6   0  -3   56.04    6.21
  -6   0  -3   45.48    5.36
  -6   0  -3   51.75    6.78
  -6   0  -3   50.37    6.54
  -6   0  -2  742.04   13.79
  -6   0  -2  732.59   12.14
  -6   0  -2  735.70   13.32
  -6   0  -2  769.09   13.77
  -6   0  -1  243.37    7.96
  -6   0  -1  265.90    9.47
  -6   0  -1  274.21    9.12
  -6   0  -1  273.32    9.60
  -6   0  -1  262.40    7.26
  -6   0   0 1184.11   18.04
  -6   0   0 1157.71   16.88
  -6   0   0 1186.58   17.41
  -6   0   0 1177.26   17.83
  -6   0   1  115.86    7.38
  -6   0   1  128.27    7.13
  -6   0   1  129.07    8.61
  -6   0   1  123.91    8.25
  -6   0   2  126.35    8.35
  -6   0   2  114.75    6.90
  -6   0   2  119.03    7.40
  -6   0   2  125.32    8.19
  -6   0   3 1219.82   17.58
  -6   0   3 1169.28   15.86
  -6   0   3 1220.41   18.47
  -6   0   4   28.47    6.66
  -6   0   4   24.19    7.21
  -6   0   5  129.34    8.11
  -6   0   5  126.50    7.92
  -6   0   5  120.21    8.00
  -6   0   6 1171.22   17.15
  -6   0   6 1194.67   17.69
  -6   0   7  366.18    9.98
  -6   0   7  351.54    9.05
  -6   0   8  247.85    8.26
  -6   0   8  221.58    7.19
  -6   0   9  251.93    7.99
  -6   0   9  232.43    6.27
  -6   0  10   22.78    5.09
  -6   0  11   32.99    5.56
  -6   0  12  180.77    5.86
  -6   0  13   60.06    3.68
  -6   0  13   60.16    3.16
  -6   1 -11   61.84    3.76
  -6   1  -9  703.31    9.46
  -6   1  -8  332.98    7.83
  -6   1  -8  286.79    6.00
  -6   1  -7  263.18    7.66
  -6   1  -6   30.83    5.96
  -6   1  -6   28.48    5.64
  -6   1  -6   30.32    4.67
  -6   1  -5  110.60    6.83
  -6   1  -5  109.10    6.44
  -6   1  -5   93.44    5.62
  -6   1  -4  351.60    8.50
  -6   1  -4  396.60    9.06
  -6   1  -3    8.73    5.22
  -6   1  -3    6.70    5.30
  -6   1  -3    2.50    5.85
  -6   1  -2  933.71   14.71
  -6   1  -2  918.48   14.17
  -6   1  -2  936.76   14.72
  -6   1  -2  899.44   13.00
  -6   1  -1  588.02   11.31
  -6   1  -1  601.92   12.16
  -6   1  -1  583.45   11.51
  -6   1   0   43.12    6.07
  -6   1   0   39.88    6.34
  -6   1   0   41.93    6.85
  -6   1   1   78.12    6.37
  -6   1   1   86.95    7.19
  -6   1   2  625.13   11.81
  -6   1   3  779.47   13.59
  -6   1   4   27.19    6.66
  -6   1   4   31.57    6.44
  -6   1   5  414.74    9.68
  -6   1   5  403.82    8.98
  -6   1   6  107.36    6.40
  -6   1   6   93.80    6.18
  -6   1   6   95.29    6.30
  -6   1   6   96.72    5.76
  -6   1   7    3.29    3.98
  -6   1   7    4.36    5.72
  -6   1   7    1.68    4.70
  -6   1   7    4.36    5.25
  -6   1   8  839.52   12.68
  -6   1   8  779.37   12.37
  -6   1   9  113.12    5.82
  -6   1  10   49.92    4.65
  -6   1  11  585.80    8.22
  -6   1  11  552.12    8.41
  -6   1  12  422.58    6.24
  -6   1  12  441.43    5.92
  -6   2  -8  346.13    6.15
  -6   2  -7    3.64    3.49
  -6   2  -6  550.55    7.91
  -6   2  -6  538.99    7.80
  -6   2  -5  329.12    6.57
  -6   2  -5  340.72    6.75
  -6   2  -5  339.81    6.82
  -6   2  -4  110.93    5.63
  -6   2  -4   97.69    4.50
  -6   2  -4  108.84    5.37
  -6   2  -3  181.78    6.35
  -6   2  -3  158.20    6.15
  -6   2  -2   72.54    5.73
  -6   2  -2   91.31    5.82
  -6   2  -1   48.85    5.56
  -6   2  -1   44.53    5.44
  -6   2   0   55.08    5.93
  -6   2   0   55.31    5.69
  -6   2   1  110.00    6.33
  -6   2   2  425.89    9.28
  -6   2   3  306.55    7.73
  -6   2   3  317.92    8.13
  -6   2   4  160.20    6.66
  -6   2   4  163.89    6.02
  -6   2   4  153.67    6.19
  -6   2   5  162.54    5.74
  -6   2   5  169.83    6.46
  -6   2   5  159.73    5.51
  -6   2   6   33.19    3.72
  -6   2   6   33.09    3.87
  -6   2   7   72.51    3.22
  -6   2   7   64.21    3.09
  -6   2   8  441.07    6.76
  -6   2   8  520.28    7.89
  -6   2   9   91.84    3.56
  -6   3  -4   14.99    2.39
  -6   3  -3  122.83    3.85
  -6   3  -3  138.45    3.96
  -6   3  -2  137.52    4.38
  -6   3  -2  136.53    4.25
  -6   3  -1   57.38    3.90
  -6   3  -1   56.13    3.82
  -6   3  -1   51.11    3.72
  -6   3   0  223.97    5.43
  -6   3   0  223.87    5.34
  -6   3   1   42.28    3.82
  -6   3   2    2.91    3.37
  -6   3   3  363.44    6.48
  -6   3   3  364.81    6.23
  -6   3   3  364.00    6.18
  -6   3   4  437.44    6.33
  -5  -8  -7   29.65    3.46
  -5  -8  -6   37.15    4.25
  -5  -8  -5  323.00    8.20
  -5  -8  -4  219.37    7.35
  -5  -8  -3   24.00    5.22
  -5  -8  -2  191.32    7.72
  -5  -8  -1  125.24    4.92
  -5  -8  -1  121.65    6.93
  -5  -8   0   33.87    3.89
  -5  -8   0   23.70    4.66
  -5  -8   0   24.04    5.69
  -5  -8   1  391.50    8.70
  -5  -8   2  252.67    7.98
  -5  -8   2  217.32    6.51
  -5  -8   3  343.14    8.54
  -5  -8   4  726.87   11.72
  -5  -8   4  683.13   10.83
  -5  -8   5   44.91    3.87
  -5  -8   5   40.98    4.07
  -5  -8   6   13.18    3.33
  -5  -7  -9  278.22    7.12
  -5  -7  -8  305.55    7.35
  -5  -7  -7 2378.37   27.34
  -5  -7  -6  275.95    7.78
  -5  -7  -5  613.37   11.71
  -5  -7  -4   44.05    5.12
  -5  -7  -4   37.54    5.30
  -5  -7  -3  841.82   14.47
  -5  -7  -3  843.83   14.25
  -5  -7  -2  209.52    7.53
  -5  -7  -2  193.15    7.80
  -5  -7  -1   30.82    4.97
  -5  -7   0  540.27   11.02
  -5  -7   0  559.49   11.75
  -5  -7   1 1293.43   18.96
  -5  -7   1 1306.18   18.78
  -5  -7   2  436.10   10.06
  -5  -7   2  440.40   10.28
  -5  -7   2  441.20   10.82
  -5  -7   3  471.38   10.66
  -5  -7   3  486.77   12.52
  -5  -7   3  469.19   10.45
  -5  -7   4  538.22   11.04
  -5  -7   4  544.52   10.71
  -5  -7   5   11.43    5.84
  -5  -7   6  639.27   12.35
  -5  -7   6  612.89   11.86
  -5  -7   7  520.19   10.47
  -5  -7   7  507.30   10.50
  -5  -7   8   70.15    5.59
  -5  -7   8   71.75    4.61
  -5  -7   9   27.01    4.44
  -5  -7  10   29.87    3.89
  -5  -6 -10  366.41    8.59
  -5  -6  -9   98.65    5.56
  -5  -6  -8 2708.04   31.49
  -5  -6  -8 2943.02   31.56
  -5  -6  -7  555.92   10.59
  -5  -6  -7  505.42   10.68
  -5  -6  -6  244.84    8.02
  -5  -6  -5  326.54    9.20
  -5  -6  -5  354.05    9.04
  -5  -6  -4  541.76   11.25
  -5  -6  -4  544.05   11.57
  -5  -6  -3   29.84    5.77
  -5  -6  -3   36.39    5.32
  -5  -6  -2  424.50   10.42
  -5  -6  -2  448.39   10.40
  -5  -6   1   16.38    5.15
  -5  -6   1   16.81    7.22
  -5  -6   1   11.43    5.51
  -5  -6   2  113.96    6.59
  -5  -6   2  117.43    8.43
  -5  -6   2  117.03    6.98
  -5  -6   2  118.82    7.45
  -5  -6   3  457.51   10.78
  -5  -6   3  457.75   10.74
  -5  -6   3  486.46   11.42
  -5  -6   4   31.26    6.06
  -5  -6   4   33.92    7.76
  -5  -6   4   33.32    5.80
  -5  -6   5  269.47    8.13
  -5  -6   5  265.25    8.69
  -5  -6   5  274.04   10.44
  -5  -6   6  938.13   14.83
  -5  -6   6  965.17   16.33
  -5  -6   7   91.49    7.41
  -5  -6   7   89.03    7.38
  -5  -6   8  145.93    7.40
  -5  -6   8  138.30    7.73
  -5  -6   9  745.83   13.75
  -5  -6   9  765.10   13.16
  -5  -6  10   11.26    5.34
  -5  -6  11   25.95    5.04
  -5  -6  12   94.23    3.54
  -5  -5 -13   64.83    5.00
  -5  -5 -11  681.98   12.00
  -5  -5 -10  422.34    9.98
  -5  -5 -10  447.23   10.43
  -5  -5  -9   55.82    4.93
  -5  -5  -8  406.75    9.11
  -5  -5  -8  418.68    9.69
  -5  -5  -8  424.38    9.34
  -5  -5  -7 1016.29   15.18
  -5  -5  -7  994.25   15.30
  -5  -5  -6  451.21    9.76
  -5  -5  -6  449.83    9.29
  -5  -5  -6  422.62    9.78
  -5  -5  -5  704.61   11.87
  -5  -5  -5  683.74   12.67
  -5  -5  -4 1164.28   16.45
  -5  -5  -4 1147.49   17.34
  -5  -5  -3   50.69    5.53
  -5  -5  -3   59.98    5.04
  -5  -5  -2 2079.94   26.24
  -5  -5  -2 2166.48   25.45
  -5  -5  -1  101.01    6.29
  -5  -5  -1  105.28    5.67
  -5  -5   0  106.30    7.56
  -5  -5   1  899.18   16.34
  -5  -5   1  869.98   14.89
  -5  -5   1  881.94   13.84
  -5  -5   2  227.51    7.93
  -5  -5   2  248.08    9.56
  -5  -5   2  215.67    7.09
  -5  -5   2  206.27    7.14
  -5  -5   2  241.27    8.62
  -5  -5   3   30.82    6.03
  -5  -5   3   23.34    4.54
  -5  -5   3   26.07    5.58
  -5  -5   3   22.86    6.82
  -5  -5   4  306.86    9.58
  -5  -5   4  325.33    8.04
  -5  -5   4  310.71    9.25
  -5  -5   5  864.29   13.19
  -5  -5   5  815.01   14.73
  -5  -5   5  828.86   14.59
  -5  -5   6 1347.25   19.24
  -5  -5   6 1331.75   19.91
  -5  -5   7  266.91   10.08
  -5  -5   7  258.61    9.10
  -5  -5   8 2528.10   31.61
  -5  -5   8 2462.48   30.63
  -5  -5   9 1547.73   22.14
  -5  -5   9 1505.79   21.95
  -5  -5  10   19.25    6.84
  -5  -5  10   19.47    5.84
  -5  -5  11  107.44    7.26
  -5  -5  12  737.10   13.35
  -5  -5  13   13.30    4.04
  -5  -5  14   20.80    3.08
  -5  -4 -14  134.55    5.71
  -5  -4 -13  167.15    6.70
  -5  -4 -12  597.41   11.02
  -5  -4 -12  576.95   11.24
  -5  -4 -11   32.81    5.58
  -5  -4 -11   34.95    5.77
  -5  -4 -10  626.07   12.14
  -5  -4 -10  634.66   12.46
  -5  -4  -9 4884.32   50.02
  -5  -4  -9 4694.83   49.00
  -5  -4  -8   97.93    5.81
  -5  -4  -7  295.06    8.47
  -5  -4  -7  292.86    8.07
  -5  -4  -7  301.05    8.01
  -5  -4  -7  311.16    7.40
  -5  -4  -6  514.81   10.17
  -5  -4  -6  527.35   10.86
  -5  -4  -6  499.70   10.60
  -5  -4  -6  498.86    9.85
  -5  -4  -5  464.47   10.49
  -5  -4  -5  468.67    9.72
  -5  -4  -5  452.09    9.21
  -5  -4  -5  462.53   10.11
  -5  -4  -4   42.03    5.61
  -5  -4  -4   34.23    5.05
  -5  -4  -4   30.54    4.51
  -5  -4  -4   33.88    4.32
  -5  -4  -3  281.54    8.37
  -5  -4  -3  300.18    7.88
  -5  -4  -3  296.42    7.65
  -5  -4  -3  293.95    8.24
  -5  -4  -3  300.05    8.85
  -5  -4  -2 1161.76   17.37
  -5  -4  -2 1192.03   17.52
  -5  -4  -2 1138.13   16.15
  -5  -4  -2 1147.77   16.97
  -5  -4  -1  346.84    8.97
  -5  -4  -1  360.67    9.62
  -5  -4  -1  346.79    9.58
  -5  -4   0 1881.46   25.03
  -5  -4   0 1917.92   24.38
  -5  -4   1 1673.39   23.37
  -5  -4   1 1791.69   21.68
  -5  -4   2  132.43    7.06
  -5  -4   2  116.50    6.72
  -5  -4   2  123.44    5.71
  -5  -4   2  120.98    7.40
  -5  -4   3 1457.36   20.79
  -5  -4   3 1480.43   21.92
  -5  -4   3 1509.56   21.16
  -5  -4   3 1531.18   19.05
  -5  -4   4  518.43   11.48
  -5  -4   4  511.08   10.54
  -5  -4   4  540.73   10.28
  -5  -4   4  551.48   12.71
  -5  -4   4  540.55    9.33
  -5  -4   4  532.52   11.75
  -5  -4   5  629.52   12.72
  -5  -4   5  653.64   10.27
  -5  -4   5  614.59   12.20
  -5  -4   5  657.79   11.21
  -5  -4   6  247.19    6.88
  -5  -4   6  226.67    7.88
  -5  -4   6  224.13    8.56
  -5  -4   7 1547.99   20.61
  -5  -4   7 1511.11   21.61
  -5  -4   7 1540.49   23.11
  -5  -4   8  855.56   16.53
  -5  -4   8  826.06   15.63
  -5  -4   9   39.74    7.48
  -5  -4   9   37.26    7.17
  -5  -4  10  483.62   12.75
  -5  -4  10  503.55    9.93
  -5  -4  10  476.42   12.24
  -5  -4  11  422.05   11.75
  -5  -4  12   84.88    5.54
  -5  -4  13  208.44    6.83
  -5  -4  13  201.61    6.27
  -5  -4  14  452.15    7.83
  -5  -4  14  445.77    8.40
  -5  -4  15  222.64    5.36
  -5  -3 -16    3.95    4.03
  -5  -3 -16    7.99    3.42
  -5  -3 -15   13.53    4.02
  -5  -3 -15    9.30    4.71
  -5  -3 -14   96.27    5.44
  -5  -3 -14   99.06    5.90
  -5  -3 -14  102.66    5.97
  -5  -3 -13  110.54    6.69
  -5  -3 -13  103.64    6.35
  -5  -3 -12 1800.75   22.81
  -5  -3 -12 1803.23   22.88
  -5  -3 -12 1795.15   22.50
  -5  -3 -11  150.13    7.06
  -5  -3 -11  161.35    7.42
  -5  -3 -11  136.50    6.55
  -5  -3 -10  337.03    9.29
  -5  -3 -10  359.20    9.44
  -5  -3 -10  350.88    9.13
  -5  -3  -9    8.36    5.28
  -5  -3  -9    8.01    5.29
  -5  -3  -8  950.92   15.21
  -5  -3  -8  948.30   15.24
  -5  -3  -8  906.20   14.51
  -5  -3  -7 1338.64   17.89
  -5  -3  -7 1365.68   18.54
  -5  -3  -6  503.12    9.94
  -5  -3  -6  501.50   10.69
  -5  -3  -6  511.61   10.29
  -5  -3  -5   24.83    4.60
  -5  -3  -5   20.55    5.13
  -5  -3  -5    9.74    4.16
  -5  -3  -5   13.65    4.56
  -5  -3  -4 1136.48   17.13
  -5  -3  -4 1160.46   16.21
  -5  -3  -4 1123.44   16.89
  -5  -3  -4 1164.31   16.19
  -5  -3  -3 2762.20   32.17
  -5  -3  -3 2840.92   31.19
  -5  -3  -3 2896.92   31.13
  -5  -3  -3 2833.75   30.56
  -5  -3  -3 2750.85   32.26
  -5  -3  -2  373.88    9.40
  -5  -3  -2  378.83    9.46
  -5  -3  -2  387.92    8.79
  -5  -3  -2  379.05    8.45
  -5  -3  -1  132.64    5.62
  -5  -3  -1  127.95    6.32
  -5  -3  -1  133.51    6.78
  -5  -3  -1  133.13    5.83
  -5  -3  -1  130.41    6.16
  -5  -3   0 1535.25   20.83
  -5  -3   0 1497.18   20.82
  -5  -3   0 1569.69   19.96
  -5  -3   0 1559.73   21.42
  -5  -3   0 1614.72   19.52
  -5  -3   1 2327.32   26.17
  -5  -3   1 2341.90   28.35
  -5  -3   2 1178.28   15.66
  -5  -3   2 1196.58   16.52
  -5  -3   2 1180.14   17.96
  -5  -3   3 1042.94   17.00
  -5  -3   3 1027.11   14.23
  -5  -3   3 1080.69   15.28
  -5  -3   3 1056.34   16.67
  -5  -3   4  400.28   10.68
  -5  -3   4  382.39    7.94
  -5  -3   4  386.37    8.83
  -5  -3   4  395.61    9.99
  -5  -3   4  377.08    8.45
  -5  -3   5   19.13    4.54
  -5  -3   5   27.78    3.82
  -5  -3   5   30.10    6.45
  -5  -3   5   28.65    5.52
  -5  -3   5   30.16    4.34
  -5  -3   5   33.36    5.71
  -5  -3   6 1453.35   19.06
  -5  -3   6 1498.59   20.44
  -5  -3   6 1458.03   20.54
  -5  -3   7  575.21   11.49
  -5  -3   7  528.48   12.29
  -5  -3   8  143.08    6.65
  -5  -3   8  156.52    7.39
  -5  -3   8  142.68    8.42
  -5  -3   8  138.06    9.05
  -5  -3   9  245.75   10.47
  -5  -3   9  256.32    8.25
  -5  -3   9  250.85    9.97
  -5  -3  10  163.93    6.85
  -5  -3  10  153.76    7.01
  -5  -3  11  577.89   11.34
  -5  -3  11  583.21   12.22
  -5  -3  12  111.67    7.22
  -5  -3  12  119.29    6.65
  -5  -3  13  874.34   14.03
  -5  -3  13  854.63   13.43
  -5  -3  14  205.89    6.40
  -5  -3  14  201.13    7.09
  -5  -3  15   80.71    4.75
  -5  -3  15   71.32    4.77
  -5  -3  15   69.67    4.17
  -5  -3  16  271.74    5.50
  -5  -2 -16  111.54    4.63
  -5  -2 -16  111.82    4.89
  -5  -2 -15   10.89    4.79
  -5  -2 -14  365.41    8.86
  -5  -2 -14  352.24    8.53
  -5  -2 -14  347.12    7.88
  -5  -2 -13  799.47   12.99
  -5  -2 -13  793.53   13.25
  -5  -2 -12  393.38   10.14
  -5  -2 -12  388.85    9.66
  -5  -2 -11   48.80    5.95
  -5  -2 -11   46.15    6.42
  -5  -2 -11   49.10    5.68
  -5  -2 -10  349.00    9.61
  -5  -2 -10  333.42    9.06
  -5  -2 -10  342.43    9.39
  -5  -2 -10  352.28    9.16
  -5  -2  -9   26.50    6.08
  -5  -2  -9   29.96    6.01
  -5  -2  -8  189.25    7.58
  -5  -2  -8  210.20    8.05
  -5  -2  -7 1117.09   15.49
  -5  -2  -7 1141.98   16.47
  -5  -2  -7 1151.15   16.76
  -5  -2  -7 1173.53   16.86
  -5  -2  -7 1114.97   15.57
  -5  -2  -7 1072.40   15.82
  -5  -2  -6   30.07    4.92
  -5  -2  -6   33.82    4.85
  -5  -2  -6   25.88    4.39
  -5  -2  -6   32.10    4.80
  -5  -2  -6   36.81    4.77
  -5  -2  -5  149.19    6.62
  -5  -2  -5  152.51    6.34
  -5  -2  -5  156.20    6.46
  -5  -2  -5  130.78    6.04
  -5  -2  -5  151.16    6.40
  -5  -2  -4 1987.59   24.01
  -5  -2  -4 1941.49   24.03
  -5  -2  -4 1922.59   23.84
  -5  -2  -4 1944.98   23.40
  -5  -2  -4 1903.82   22.92
  -5  -2  -4 1995.62   23.79
  -5  -2  -4 1977.94   23.67
  -5  -2  -3 1278.77   17.69
  -5  -2  -3 1330.56   17.31
  -5  -2  -3 1282.21   17.72
  -5  -2  -3 1293.33   18.10
  -5  -2  -2    1.22    4.55
  -5  -2  -2   11.01    4.29
  -5  -2  -2    8.48    4.25
  -5  -2  -1   48.80    4.91
  -5  -2  -1   41.71    5.32
  -5  -2  -1   41.44    5.00
  -5  -2  -1   43.74    4.75
  -5  -2  -1   48.42    4.53
  -5  -2   0  673.70   11.79
  -5  -2   0  685.12   10.64
  -5  -2   0  681.72   12.13
  -5  -2   0  665.51   11.32
  -5  -2   0  642.31   12.33
  -5  -2   0  657.23   11.80
  -5  -2   1 1023.95   13.63
  -5  -2   1 1026.70   14.82
  -5  -2   1 1050.61   16.09
  -5  -2   1 1021.79   15.33
  -5  -2   2 1306.05   17.13
  -5  -2   2 1274.56   15.72
  -5  -2   2 1336.14   18.02
  -5  -2   2 1371.79   18.11
  -5  -2   2 1261.01   18.85
  -5  -2   3 4568.11   45.41
  -5  -2   3 4531.98   46.89
  -5  -2   3 4505.98   46.39
  -5  -2   3 4520.78   47.20
  -5  -2   3 4490.32   46.97
  -5  -2   3 4645.36   49.05
  -5  -2   3 4688.57   48.40
  -5  -2   3 4540.65   45.98
  -5  -2   4   55.72    5.88
  -5  -2   4   71.13    5.47
  -5  -2   4   66.26    6.04
  -5  -2   4   59.49    5.52
  -5  -2   4   59.50    6.59
  -5  -2   4   64.95    6.06
  -5  -2   4   60.41    5.59
  -5  -2   4   53.28    4.85
  -5  -2   5 1001.81   17.68
  -5  -2   5 1078.80   15.45
  -5  -2   5 1081.77   16.20
  -5  -2   5 1072.68   16.31
  -5  -2   5 1040.28   15.88
  -5  -2   5 1066.97   15.43
  -5  -2   5 1027.87   15.56
  -5  -2   6 1062.11   16.22
  -5  -2   6 1014.64   15.08
  -5  -2   6 1052.17   15.17
  -5  -2   6 1048.65   16.00
  -5  -2   6 1057.66   15.08
  -5  -2   6 1103.07   18.70
  -5  -2   6 1018.41   15.31
  -5  -2   6 1047.63   16.20
  -5  -2   7   40.06    5.76
  -5  -2   7   46.31    6.16
  -5  -2   7   37.34    6.52
  -5  -2   8  436.58    9.85
  -5  -2   8  430.84   10.16
  -5  -2   8  417.67   10.14
  -5  -2   8  426.56   10.69
  -5  -2   9  565.12   12.43
  -5  -2   9  575.12   10.91
  -5  -2   9  549.94   11.08
  -5  -2  10  329.34    9.91
  -5  -2  10  310.24    8.17
  -5  -2  11  195.17    8.11
  -5  -2  11  214.68    8.76
  -5  -2  12  643.55   12.67
  -5  -2  12  603.55   12.13
  -5  -2  13  262.59    7.97
  -5  -2  13  258.06    8.50
  -5  -2  14  160.70    6.78
  -5  -2  14  148.52    6.31
  -5  -2  15  225.34    6.51
  -5  -2  15  198.39    5.92
  -5  -2  16  449.16    7.09
  -5  -2  16  476.13    7.48
  -5  -1 -16    8.12    3.51
  -5  -1 -15  772.75   11.02
  -5  -1 -15  792.52   11.34
  -5  -1 -14  528.15    9.76
  -5  -1 -14  525.76    9.42
  -5  -1 -13   33.92    6.46
  -5  -1 -13   35.16    5.04
  -5  -1 -13   33.62    5.57
  -5  -1 -12 1871.24   23.55
  -5  -1 -12 1919.49   23.35
  -5  -1 -12 1890.67   22.71
  -5  -1 -11  799.18   13.93
  -5  -1 -11  828.67   14.14
  -5  -1 -11  781.01   12.75
  -5  -1 -10 1059.24   16.39
  -5  -1 -10 1064.90   16.43
  -5  -1 -10 1035.33   15.46
  -5  -1  -9   74.49    7.55
  -5  -1  -9   72.75    6.22
  -5  -1  -9   80.56    6.61
  -5  -1  -8  142.84    7.46
  -5  -1  -8  135.51    6.69
  -5  -1  -7  132.46    7.10
  -5  -1  -7  140.13    7.20
  -5  -1  -7  132.38    6.34
  -5  -1  -6  136.82    6.48
  -5  -1  -6  138.12    6.87
  -5  -1  -6  143.27    7.27
  -5  -1  -6  136.07    5.98
  -5  -1  -6  137.10    6.06
  -5  -1  -6  134.32    5.94
  -5  -1  -5  925.14   14.34
  -5  -1  -5  929.00   14.11
  -5  -1  -5  942.03   14.93
  -5  -1  -5  949.63   14.55
  -5  -1  -5  924.34   13.75
  -5  -1  -5  928.91   14.04
  -5  -1  -5  920.21   14.10
  -5  -1  -4 1050.05   14.67
  -5  -1  -4 1090.42   15.74
  -5  -1  -4 1074.11   16.06
  -5  -1  -4 1102.35   15.61
  -5  -1  -4 1083.84   15.60
  -5  -1  -4 1071.14   15.58
  -5  -1  -4 1071.53   14.87
  -5  -1  -3   23.02    4.87
  -5  -1  -3   21.60    5.44
  -5  -1  -3   32.30    4.73
  -5  -1  -3   26.45    4.78
  -5  -1  -3   25.01    4.14
  -5  -1  -3   25.02    4.85
  -5  -1  -3   27.17    4.53
  -5  -1  -2 1488.85   19.30
  -5  -1  -2 1480.46   18.41
  -5  -1  -2 1463.35   19.22
  -5  -1  -2 1426.19   19.04
  -5  -1  -2 1412.46   19.22
  -5  -1  -2 1424.45   19.62
  -5  -1  -2 1413.25   17.35
  -5  -1  -2 1487.50   19.35
  -5  -1  -2 1466.76   18.93
  -5  -1  -1  967.61   15.13
  -5  -1  -1 1075.41   15.16
  -5  -1  -1  999.64   13.19
  -5  -1  -1 1031.70   15.22
  -5  -1  -1 1060.65   14.16
  -5  -1  -1  995.13   15.53
  -5  -1  -1  998.37   15.14
  -5  -1  -1  999.50   15.09
  -5  -1  -1 1039.71   15.48
  -5  -1   0    4.52    4.46
  -5  -1   0   13.73    3.71
  -5  -1   0   11.80    4.72
  -5  -1   0    3.33    4.55
  -5  -1   0    1.52    5.26
  -5  -1   0    3.87    4.46
  -5  -1   0    3.83    4.80
  -5  -1   1  351.24    9.31
  -5  -1   1  360.74    8.46
  -5  -1   1  375.33    8.40
  -5  -1   1  353.78    7.18
  -5  -1   1  371.70    8.98
  -5  -1   2 3812.53   41.07
  -5  -1   2 3873.28   40.57
  -5  -1   2 3894.13   41.28
  -5  -1   2 3825.87   40.52
  -5  -1   2 3803.78   40.28
  -5  -1   2 3870.99   40.74
  -5  -1   2 3776.40   40.99
  -5  -1   2 3792.05   39.54
  -5  -1   3  133.72    6.35
  -5  -1   3  134.60    5.64
  -5  -1   3  129.96    6.90
  -5  -1   3  148.21    6.40
  -5  -1   3  127.97    6.40
  -5  -1   3  145.64    7.18
  -5  -1   3  131.04    6.26
  -5  -1   4 1294.70   17.99
  -5  -1   4 1259.79   17.44
  -5  -1   4 1236.57   17.32
  -5  -1   4 1269.88   17.36
  -5  -1   4 1247.78   17.33
  -5  -1   5 3884.12   41.54
  -5  -1   5 4031.52   41.96
  -5  -1   5 3757.66   41.67
  -5  -1   5 3794.33   40.73
  -5  -1   5 3979.21   41.97
  -5  -1   5 3788.84   40.71
  -5  -1   5 3968.03   42.05
  -5  -1   5 3831.96   40.63
  -5  -1   6  893.90   13.72
  -5  -1   6  872.80   14.86
  -5  -1   6  930.47   15.00
  -5  -1   6  883.00   15.07
  -5  -1   6  872.06   15.03
  -5  -1   6  890.27   13.80
  -5  -1   6  908.48   13.93
  -5  -1   6  918.07   15.58
  -5  -1   7  252.11    9.07
  -5  -1   7  258.96    8.41
  -5  -1   7  250.57    8.79
  -5  -1   7  277.55    9.58
  -5  -1   7  258.70    7.64
  -5  -1   7  250.81    9.22
  -5  -1   8 1761.96   24.24
  -5  -1   8 1839.38   24.34
  -5  -1   8 1793.98   23.26
  -5  -1   9  508.41   10.92
  -5  -1   9  488.70   12.45
  -5  -1   9  480.56   11.06
  -5  -1  10  622.63   13.34
  -5  -1  10  638.27   13.75
  -5  -1  11  102.19    8.13
  -5  -1  11  100.25    6.96
  -5  -1  11  112.42    8.32
  -5  -1  12  524.99   11.57
  -5  -1  12  568.98   12.13
  -5  -1  13  376.82    9.60
  -5  -1  13  349.25    9.23
  -5  -1  14   11.97    5.05
  -5  -1  14   11.60    4.75
  -5  -1  14    3.71    4.98
  -5  -1  15   36.33    4.61
  -5  -1  15   39.97    4.54
  -5  -1  15   33.07    4.02
  -5  -1  15   30.84    4.17
  -5  -1  16  119.04    3.69
  -5  -1  16  121.72    3.70
  -5   0 -15  471.49    7.66
  -5   0 -15  413.79    6.55
  -5   0 -14  107.80    4.63
  -5   0 -14  117.07    5.52
  -5   0 -14  111.56    5.04
  -5   0 -13  261.84    6.72
  -5   0 -13  282.58    7.45
  -5   0 -12  837.14   12.45
  -5   0 -12  865.13   13.50
  -5   0 -11  175.21    6.12
  -5   0 -11  187.28    7.84
  -5   0 -11  178.04    6.69
  -5   0 -11  192.74    7.86
  -5   0 -11  174.66    6.60
  -5   0 -10   30.18    6.01
  -5   0 -10   32.28    6.57
  -5   0 -10   32.40    6.89
  -5   0 -10   33.51    4.88
  -5   0  -9  114.72    7.23
  -5   0  -9  111.34    6.96
  -5   0  -9  109.60    7.47
  -5   0  -8  304.80    9.24
  -5   0  -8  322.99    9.63
  -5   0  -8  305.99    9.30
  -5   0  -7  266.89    8.64
  -5   0  -7  271.21    8.98
  -5   0  -6   57.68    5.16
  -5   0  -6   63.91    6.04
  -5   0  -6   65.30    6.74
  -5   0  -6   58.78    6.80
  -5   0  -5  719.23   13.10
  -5   0  -5  720.91   12.15
  -5   0  -5  690.94   12.30
  -5   0  -5  697.12   12.71
  -5   0  -5  698.50   11.87
  -5   0  -4   23.10    5.22
  -5   0  -4   22.49    6.16
  -5   0  -4   17.97    5.81
  -5   0  -4   10.95    4.11
  -5   0  -4   14.42    5.02
  -5   0  -4   18.05    5.69
  -5   0  -4   14.86    5.46
  -5   0  -4   15.41    5.36
  -5   0  -3 1014.31   13.55
  -5   0  -3 1066.27   15.52
  -5   0  -3 1071.30   14.55
  -5   0  -3 1025.43   15.25
  -5   0  -3 1070.19   14.80
  -5   0  -3 1036.83   15.74
  -5   0  -3 1069.01   15.71
  -5   0  -2  665.38   11.37
  -5   0  -2  649.03   10.31
  -5   0  -2  650.09   12.09
  -5   0  -2  662.52   12.26
  -5   0  -2  654.26   12.10
  -5   0  -2  636.75   11.28
  -5   0  -2  637.33   11.29
  -5   0  -1  240.26    7.91
  -5   0  -1  228.09    7.24
  -5   0  -1  222.87    6.90
  -5   0  -1  232.52    8.03
  -5   0  -1  224.57    8.08
  -5   0  -1  233.36    6.99
  -5   0   0  228.58    7.90
  -5   0   0  235.29    6.59
  -5   0   0  238.71    8.46
  -5   0   0  241.02    7.68
  -5   0   0  236.77    8.15
  -5   0   0  229.51    7.19
  -5   0   1  798.88   13.32
  -5   0   1  752.70   13.64
  -5   0   1  784.38   12.93
  -5   0   1  798.79   12.98
  -5   0   2 2941.24   31.87
  -5   0   2 2990.08   32.83
  -5   0   2 2946.05   33.39
  -5   0   2 2906.47   32.93
  -5   0   3   65.16    6.01
  -5   0   3   62.42    5.62
  -5   0   3   66.75    5.80
  -5   0   3   70.25    6.29
  -5   0   3   71.53    6.71
  -5   0   3   58.67    7.13
  -5   0   4 2040.64   23.46
  -5   0   4 2149.06   26.14
  -5   0   4 2005.91   25.45
  -5   0   4 2122.51   25.18
  -5   0   4 2100.08   24.84
  -5   0   4 2067.45   25.36
  -5   0   5  580.49   10.83
  -5   0   5  592.03   11.57
  -5   0   5  606.70   12.69
  -5   0   5  621.33   12.80
  -5   0   5  585.31   11.98
  -5   0   6   11.72    7.04
  -5   0   6   11.48    5.96
  -5   0   6    6.55    6.57
  -5   0   6    9.13    4.66
  -5   0   6    6.42    5.91
  -5   0   7 1480.21   21.31
  -5   0   7 1523.21   21.78
  -5   0   7 1556.51   20.99
  -5   0   7 1506.72   20.75
  -5   0   8  748.73   13.42
  -5   0   8  699.90   14.01
  -5   0   8  666.80   12.95
  -5   0   8  709.80   12.39
  -5   0   8  732.81   14.24
  -5   0   9   13.28    5.18
  -5   0   9    7.81    6.97
  -5   0   9   12.36    6.01
  -5   0  10   90.67    6.77
  -5   0  10   90.68    8.21
  -5   0  11 1100.69   17.47
  -5   0  11 1071.56   16.72
  -5   0  12  118.79    6.91
  -5   0  12  125.27    7.10
  -5   0  12  124.21    7.28
  -5   0  13    8.27    5.11
  -5   0  13    4.84    5.28
  -5   0  13    9.14    5.33
  -5   0  14   82.84    4.82
  -5   0  14   81.72    5.75
  -5   0  14   78.05    4.94
  -5   0  14   88.65    5.17
  -5   0  15   50.29    3.99
  -5   0  15   54.10    3.34
  -5   0  15   55.18    3.59
  -5   1 -14   42.01    3.67
  -5   1 -14   38.76    3.19
  -5   1 -13  525.43    8.77
  -5   1 -13  532.08    8.67
  -5   1 -12   93.58    5.57
  -5   1 -12   93.28    5.61
  -5   1 -11   36.29    5.70
  -5   1 -11   41.82    5.58
  -5   1 -10 1121.16   16.21
  -5   1 -10 1127.39   15.67
  -5   1  -9 1024.87   15.06
  -5   1  -9  984.71   14.77
  -5   1  -8  295.77    8.42
  -5   1  -8  295.23    8.82
  -5   1  -7  873.01   14.29
  -5   1  -7  859.87   14.32
  -5   1  -7  866.25   13.34
  -5   1  -6  495.43    9.84
  -5   1  -6  500.08   11.28
  -5   1  -6  499.75   10.98
  -5   1  -5   67.15    6.76
  -5   1  -5   75.20    7.22
  -5   1  -5   66.15    6.23
  -5   1  -5   76.60    5.50
  -5   1  -5   68.69    6.37
  -5   1  -5   67.20    5.61
  -5   1  -4  285.67    7.19
  -5   1  -4  295.87    9.40
  -5   1  -4  294.26    8.98
  -5   1  -4  292.39    8.15
  -5   1  -4  280.83    8.36
  -5   1  -4  295.91    8.75
  -5   1  -3  741.35   12.74
  -5   1  -3  751.37   12.64
  -5   1  -3  728.53   12.48
  -5   1  -3  751.15   13.44
  -5   1  -2  156.17    6.73
  -5   1  -2  158.59    7.66
  -5   1  -2  165.27    6.95
  -5   1  -2  164.40    7.78
  -5   1  -2  167.20    7.38
  -5   1  -2  158.95    6.38
  -5   1  -2  152.34    7.23
  -5   1  -1  604.44   11.55
  -5   1  -1  556.90   10.72
  -5   1  -1  575.20   11.74
  -5   1  -1  584.22   11.98
  -5   1  -1  588.61   11.83
  -5   1  -1  586.47   11.85
  -5   1  -1  558.59   10.43
  -5   1   0   93.02    7.40
  -5   1   0   88.13    7.02
  -5   1   0   98.87    6.69
  -5   1   0  104.03    7.99
  -5   1   0   86.87    6.19
  -5   1   0   86.64    7.01
  -5   1   1 9999.00   94.46
  -5   1   1 9963.80   93.69
  -5   1   1 9747.65   94.39
  -5   1   1 9671.33   94.08
  -5   1   1 9882.43   94.50
  -5   1   2  160.43    7.15
  -5   1   2  168.69    7.22
  -5   1   2  185.96    8.64
  -5   1   2  169.54    8.01
  -5   1   2  157.83    7.14
  -5   1   3  540.02   12.08
  -5   1   3  526.25   10.36
  -5   1   3  543.24   11.80
  -5   1   3  533.44   11.36
  -5   1   3  547.62   11.62
  -5   1   3  519.49   10.67
  -5   1   4 1731.94   22.61
  -5   1   4 1727.37   22.69
  -5   1   4 1715.81   21.83
  -5   1   5  462.40   10.89
  -5   1   5  456.55    9.67
  -5   1   5  476.15   11.45
  -5   1   6    7.51    6.18
  -5   1   6    9.45    6.51
  -5   1   7  118.57    7.06
  -5   1   7  102.57    6.81
  -5   1   8  759.96   11.93
  -5   1   8  792.74   12.65
  -5   1   8  769.25   13.63
  -5   1   9   37.61    6.75
  -5   1   9   36.13    7.16
  -5   1   9   30.33    5.88
  -5   1   9   32.64    4.87
  -5   1  10  178.49    7.52
  -5   1  10  195.89    8.06
  -5   1  10  194.75    7.87
  -5   1  10  185.18    8.73
  -5   1  11   98.08    6.49
  -5   1  11   82.36    6.16
  -5   1  11   96.86    7.42
  -5   1  12   75.75    6.57
  -5   1  12   77.56    5.52
  -5   1  12   58.78    5.62
  -5   1  13  660.55   10.45
  -5   1  13  728.75   10.16
  -5   1  14  187.79    4.93
  -5   1  14  199.79    4.41
  -5   1  15   12.46    2.33
  -5   2 -12    2.78    3.19
  -5   2 -11  148.93    5.41
  -5   2 -11  137.07    4.73
  -5   2 -10  719.95   10.97
  -5   2 -10  658.35    9.77
  -5   2  -9  588.13    9.13
  -5   2  -9  495.90    9.00
  -5   2  -8 1059.74   15.08
  -5   2  -8 1170.71   14.54
  -5   2  -7  307.03    7.01
  -5   2  -7  292.22    8.14
  -5   2  -6   51.33    6.22
  -5   2  -6   35.41    6.19
  -5   2  -6   54.21    5.54
  -5   2  -5  379.44    9.66
  -5   2  -5  400.04    9.24
  -5   2  -5  406.85    9.60
  -5   2  -4  549.84   10.85
  -5   2  -4  568.04   11.05
  -5   2  -3   74.05    6.09
  -5   2  -3   64.72    6.63
  -5   2  -2  512.02   10.02
  -5   2  -2  502.75   11.49
  -5   2  -1 3332.52   36.44
  -5   2  -1 3337.99   36.91
  -5   2  -1 3260.34   34.38
  -5   2   0  275.54    9.37
  -5   2   0  268.81    9.31
  -5   2   1  708.15   13.29
  -5   2   1  739.94   13.58
  -5   2   2  115.98    7.99
  -5   2   3  904.72   14.93
  -5   2   3  868.95   14.81
  -5   2   4  110.96    7.17
  -5   2   4  111.42    6.99
  -5   2   4  102.98    6.78
  -5   2   4  105.03    7.06
  -5   2   5   37.49    6.45
  -5   2   5   38.52    6.14
  -5   2   5   45.62    6.07
  -5   2   5   43.88    5.48
  -5   2   6  597.72   11.19
  -5   2   6  616.92   11.03
  -5   2   6  592.73   11.79
  -5   2   7  180.38    6.60
  -5   2   7  170.07    6.73
  -5   2   7  183.68    7.72
  -5   2   7  166.06    7.00
  -5   2   7  169.24    7.85
  -5   2   8  146.80    7.14
  -5   2   8  136.54    6.64
  -5   2   8  136.67    5.48
  -5   2   8  140.45    7.41
  -5   2   8  128.54    5.21
  -5   2   9  397.82    8.57
  -5   2   9  375.20    8.71
  -5   2   9  398.35    9.47
  -5   2  10  498.65    9.42
  -5   2  10  514.68   10.15
  -5   2  11   17.89    4.33
  -5   2  11   18.74    3.89
  -5   2  11   17.52    5.09
  -5   2  12  332.37    6.38
  -5   2  12  342.30    5.95
  -5   2  13  918.59   10.81
  -5   2  13 1023.71   11.71
  -5   3  -9   16.81    3.53
  -5   3  -9   10.43    2.53
  -5   3  -8  613.97    9.05
  -5   3  -8  525.46    8.33
  -5   3  -7  712.21   10.42
  -5   3  -7  646.69   10.20
  -5   3  -6   30.42    4.82
  -5   3  -6   32.71    4.06
  -5   3  -6   34.69    4.21
  -5   3  -6   34.02    4.71
  -5   3  -5  132.29    6.34
  -5   3  -5  141.99    5.57
  -5   3  -5  148.51    5.78
  -5   3  -5  144.73    5.80
  -5   3  -4  664.55   10.81
  -5   3  -4  615.95   11.40
  -5   3  -4  621.86   10.28
  -5   3  -4  666.25   10.93
  -5   3  -3  173.65    5.86
  -5   3  -3  175.21    7.14
  -5   3  -3  161.89    7.25
  -5   3  -3  172.35    6.83
  -5   3  -2  676.04   11.76
  -5   3  -2  646.18   11.95
  -5   3  -2  680.79   11.64
  -5   3  -2  629.89   10.73
  -5   3  -2  613.21    9.77
  -5   3  -1  218.46    7.90
  -5   3  -1  217.10    7.82
  -5   3  -1  206.27    8.08
  -5   3   0  145.54    7.30
  -5   3   0  144.08    7.58
  -5   3   0  144.99    6.93
  -5   3   1   32.04    6.24
  -5   3   1   29.66    5.96
  -5   3   1   23.58    5.89
  -5   3   2  582.99   11.55
  -5   3   3  198.18    7.68
  -5   3   3  206.94    7.40
  -5   3   4  136.94    6.76
  -5   3   4  130.91    6.42
  -5   3   5  488.16    9.59
  -5   3   5  488.27    9.23
  -5   3   5  479.58    9.25
  -5   3   6  629.35   10.60
  -5   3   6  605.12    9.93
  -5   3   6  573.18    9.62
  -5   3   6  579.56    9.65
  -5   3   6  614.86    9.81
  -5   3   7   65.22    4.88
  -5   3   7   62.48    4.65
  -5   3   7   72.39    5.22
  -5   3   7   72.64    4.32
  -5   3   8  229.80    6.21
  -5   3   8  219.44    5.79
  -5   3   8  237.12    5.99
  -5   3   9  531.45    8.42
  -5   3   9  547.27    8.03
  -5   3  10  158.10    4.58
  -5   3  10  144.70    3.94
  -5   3  10  156.22    3.70
  -5   3  11   18.91    2.67
  -5   4  -6   27.87    2.39
  -5   4  -5  257.55    5.17
  -5   4  -4  117.39    4.27
  -5   4  -4  120.22    3.77
  -5   4  -3   13.41    3.44
  -5   4  -3   13.26    3.61
  -5   4  -2  370.46    7.10
  -5   4  -2  388.81    6.90
  -5   4  -1   25.68    4.11
  -5   4  -1   17.27    4.06
  -5   4  -1   22.91    3.45
  -5   4   0   98.69    4.98
  -5   4   0   98.42    4.41
  -5   4   1  854.01   11.47
  -5   4   1  826.84   11.16
  -5   4   2  309.02    6.73
  -5   4   3    5.28    3.76
  -5   4   3    4.42    3.69
  -5   4   4  170.54    4.95
  -5   4   4  173.12    4.87
  -5   4   5  276.09    5.38
  -5   4   5  267.83    5.12
  -5   4   6  175.66    3.92
  -4  -8  -5    3.82    3.63
  -4  -8  -4   91.37    5.25
  -4  -8  -3    6.40    4.32
  -4  -8  -2   25.56    4.69
  -4  -8  -2   37.88    4.96
  -4  -8  -1   32.62    4.54
  -4  -8  -1   39.21    5.15
  -4  -8   0  205.90    7.35
  -4  -8   0  175.41    6.36
  -4  -8   1   82.63    5.80
  -4  -8   2  258.50    7.79
  -4  -8   2  239.28    8.21
  -4  -8   3  509.64   10.46
  -4  -8   3  537.32   10.86
  -4  -8   4   79.82    5.10
  -4  -8   5   43.21    3.86
  -4  -8   6  504.70    9.31
  -4  -8   7   30.05    3.72
  -4  -7  -7   45.71    5.04
  -4  -7  -6  325.17    8.51
  -4  -7  -6  310.82    8.45
  -4  -7  -5  693.01   12.71
  -4  -7  -5  698.15   12.85
  -4  -7  -4  605.28   11.94
  -4  -7  -4  622.70   12.69
  -4  -7  -3  183.03    8.32
  -4  -7  -3  195.59    7.60
  -4  -7  -3  194.97    8.26
  -4  -7  -2  391.77   10.90
  -4  -7  -2  420.85   11.00
  -4  -7  -1  295.21    9.95
  -4  -7  -1  307.00    8.93
  -4  -7  -1  322.99   10.11
  -4  -7   0    1.39    6.42
  -4  -7   0    6.51    4.88
  -4  -7   1  130.11    6.79
  -4  -7   1  127.83    8.00
  -4  -7   1  145.58    8.08
  -4  -7   2  482.55   10.70
  -4  -7   2  486.05   10.89
  -4  -7   2  495.07   12.37
  -4  -7   3  398.28   11.05
  -4  -7   3  381.92   11.83
  -4  -7   3  363.55    9.16
  -4  -7   4  190.69    8.65
  -4  -7   4  168.96    6.57
  -4  -7   4  179.86    8.87
  -4  -7   5  304.76   10.09
  -4  -7   5  302.66    7.76
  -4  -7   5  326.18    9.90
  -4  -7   6  469.35    9.40
  -4  -7   6  507.55   11.09
  -4  -7   7   62.81    5.36
  -4  -7   7   62.97    4.88
  -4  -7   8  265.94    8.52
  -4  -7   8  271.70    6.78
  -4  -7   9   51.70    4.09
  -4  -7   9   56.61    5.56
  -4  -7  10  160.69    4.64
  -4  -6  -9  509.71    9.97
  -4  -6  -8   57.53    4.85
  -4  -6  -7  116.04    5.94
  -4  -6  -7  125.95    6.13
  -4  -6  -6  429.41    9.88
  -4  -6  -6  427.69    9.88
  -4  -6  -6  431.94    8.97
  -4  -6  -5   39.42    5.60
  -4  -6  -5   39.32    4.25
  -4  -6  -5   33.19    5.26
  -4  -6  -4  160.24    6.18
  -4  -6  -4  172.96    7.37
  -4  -6  -4  163.93    7.02
  -4  -6  -3 1116.19   17.36
  -4  -6  -3 1087.25   16.86
  -4  -6  -3 1088.67   15.72
  -4  -6  -2  412.33    9.19
  -4  -6  -2  442.98   10.77
  -4  -6  -2  420.18   10.89
  -4  -6  -2  448.14   10.24
  -4  -6  -1   40.39    4.58
  -4  -6  -1   44.06    6.28
  -4  -6  -1   46.01    6.29
  -4  -6   0 1203.34   17.93
  -4  -6   0 1192.54   19.04
  -4  -6   1 1019.34   17.24
  -4  -6   1 1051.19   17.43
  -4  -6   1 1005.65   15.87
  -4  -6   2   69.18    7.15
  -4  -6   2   78.64    7.24
  -4  -6   2   79.32    6.05
  -4  -6   2   83.54    5.19
  -4  -6   3 1016.12   15.98
  -4  -6   3 1030.39   15.90
  -4  -6   3 1020.37   17.55
  -4  -6   3 1016.14   15.03
  -4  -6   4  234.94    9.25
  -4  -6   4  222.33    9.91
  -4  -6   4  234.75    7.58
  -4  -6   5  852.00   14.06
  -4  -6   5  911.53   17.00
  -4  -6   5  905.87   16.42
  -4  -6   5  855.64   14.40
  -4  -6   6  286.65   10.18
  -4  -6   6  290.19    9.95
  -4  -6   6  281.95    8.23
  -4  -6   7  340.44    8.86
  -4  -6   7  341.38   10.17
  -4  -6   8  251.87    7.92
  -4  -6   8  252.95    8.69
  -4  -6   9   12.48    6.35
  -4  -6   9   15.26    5.06
  -4  -6   9   21.67    5.22
  -4  -6  10   68.58    6.83
  -4  -6  10   67.19    5.51
  -4  -6  11  579.98   11.58
  -4  -6  11  558.88   10.19
  -4  -6  12   18.78    3.95
  -4  -6  13   90.16    5.05
  -4  -6  13   82.01    3.76
  -4  -5 -10 1840.54   23.26
  -4  -5  -9  618.17   10.68
  -4  -5  -8   10.60    4.15
  -4  -5  -7  105.92    5.48
  -4  -5  -7  111.07    4.85
  -4  -5  -6   95.09    4.73
  -4  -5  -6   90.18    5.38
  -4  -5  -6   92.20    5.59
  -4  -5  -5 2609.27   28.45
  -4  -5  -5 2519.81   29.01
  -4  -5  -5 2572.55   29.40
  -4  -5  -4    3.32    4.23
  -4  -5  -4    3.01    4.25
  -4  -5  -4    5.48    3.57
  -4  -5  -3 2427.02   28.14
  -4  -5  -3 2438.99   28.12
  -4  -5  -3 2451.80   27.31
  -4  -5  -2 1440.56   19.28
  -4  -5  -2 1438.20   18.98
  -4  -5  -2 1435.56   18.19
  -4  -5  -1   26.47    5.21
  -4  -5  -1   20.02    4.33
  -4  -5  -1   19.66    4.45
  -4  -5  -1   35.51    4.08
  -4  -5   0 1970.19   24.80
  -4  -5   0 2065.81   25.23
  -4  -5   1  467.03   10.46
  -4  -5   1  456.10    8.87
  -4  -5   1  438.52    9.41
  -4  -5   1  420.87   10.02
  -4  -5   2   39.23    5.38
  -4  -5   2   38.01    4.07
  -4  -5   2   32.32    4.76
  -4  -5   2   40.08    5.61
  -4  -5   3  474.81    9.89
  -4  -5   3  464.16   10.80
  -4  -5   3  478.51    9.88
  -4  -5   3  478.47    9.05
  -4  -5   4   99.55    6.75
  -4  -5   4   98.92    4.94
  -4  -5   4  112.04    7.60
  -4  -5   4   95.99    5.58
  -4  -5   5   14.09    5.63
  -4  -5   5    7.08    3.50
  -4  -5   5   14.21    4.68
  -4  -5   5   12.82    4.64
  -4  -5   5   15.90    6.35
  -4  -5   5   13.57    5.54
  -4  -5   6  139.44    6.06
  -4  -5   6  147.23    5.43
  -4  -5   6  150.63    7.67
  -4  -5   6  141.65    6.36
  -4  -5   6  153.99    8.34
  -4  -5   6  152.24    7.69
  -4  -5   7  181.14    6.96
  -4  -5   7  180.90    8.63
  -4  -5   7  176.77    7.26
  -4  -5   7  192.20    8.43
  -4  -5   8  673.99   12.41
  -4  -5   8  680.48   13.88
  -4  -5   8  663.22   13.84
  -4  -5   9   95.61    7.87
  -4  -5   9  104.61    7.99
  -4  -5   9   87.27    6.92
  -4  -5   9   98.16    6.36
  -4  -5  10 1013.19   16.13
  -4  -5  10 1001.07   17.64
  -4  -5  10  997.79   15.83
  -4  -5  10  977.10   15.46
  -4  -5  11  435.23   11.58
  -4  -5  11  411.64   10.03
  -4  -5  11  432.39   11.04
  -4  -5  12   80.45    6.13
  -4  -5  12   73.88    7.18
  -4  -5  13  678.25   11.61
  -4  -5  14  258.79    6.68
  -4  -5  15   -1.01    2.98
  -4  -4 -16  309.90    6.86
  -4  -4 -14  541.74   10.42
  -4  -4 -13  497.55   10.14
  -4  -4 -12  223.82    7.54
  -4  -4 -11  788.43   13.20
  -4  -4 -11  832.30   13.93
  -4  -4 -10 1068.24   16.23
  -4  -4  -9  399.01    8.30
  -4  -4  -8  122.22    5.21
  -4  -4  -8  124.50    5.29
  -4  -4  -8  128.21    5.10
  -4  -4  -7 4284.28   43.72
  -4  -4  -7 4285.16   42.95
  -4  -4  -7 4286.06   43.49
  -4  -4  -6 1420.55   17.97
  -4  -4  -6 1410.76   17.82
  -4  -4  -6 1405.13   17.25
  -4  -4  -5   35.96    4.15
  -4  -4  -5   31.77    3.50
  -4  -4  -4 3167.25   32.21
  -4  -4  -4 3085.89   32.77
  -4  -4  -3 1867.19   21.92
  -4  -4  -3 1894.69   22.24
  -4  -4  -3 1919.45   21.67
  -4  -4  -2  179.43    5.85
  -4  -4  -2  174.65    5.67
  -4  -4  -2  183.78    5.39
  -4  -4  -1  313.01    7.42
  -4  -4  -1  308.31    7.32
  -4  -4  -1  326.25    6.82
  -4  -4   0  754.79   12.18
  -4  -4   0  757.01   11.89
  -4  -4   1  563.96    9.92
  -4  -4   1  557.89   10.25
  -4  -4   1  540.08    9.16
  -4  -4   2 3824.38   39.39
  -4  -4   2 3903.51   39.37
  -4  -4   3  974.12   14.61
  -4  -4   3 1004.41   14.43
  -4  -4   3  985.02   13.57
  -4  -4   4  425.04    8.00
  -4  -4   4  404.06    9.07
  -4  -4   4  393.69    8.79
  -4  -4   4  391.23    9.33
  -4  -4   5 1966.38   22.30
  -4  -4   5 1878.83   24.20
  -4  -4   5 1953.23   23.37
  -4  -4   5 1930.65   25.36
  -4  -4   5 1944.45   23.72
  -4  -4   6 3061.13   33.77
  -4  -4   6 3140.44   32.49
  -4  -4   6 3175.39   36.37
  -4  -4   6 3056.58   34.03
  -4  -4   6 3149.71   34.23
  -4  -4   7 1137.98   16.32
  -4  -4   7 1165.85   17.04
  -4  -4   7 1191.91   18.61
  -4  -4   8  707.69   12.67
  -4  -4   8  740.76   14.28
  -4  -4   8  740.00   14.54
  -4  -4   8  757.16   13.42
  -4  -4   8  743.21   14.42
  -4  -4   9   85.57    6.31
  -4  -4   9   81.28    7.77
  -4  -4   9   91.37    6.13
  -4  -4   9   84.00    7.50
  -4  -4   9   78.93    7.13
  -4  -4   9   75.18    6.19
  -4  -4  10  541.14   11.63
  -4  -4  10  550.24   13.18
  -4  -4  10  581.06   12.98
  -4  -4  10  567.45   12.76
  -4  -4  10  538.07   11.16
  -4  -4  11  357.91    9.93
  -4  -4  11  364.15    9.99
  -4  -4  11  358.35    9.42
  -4  -4  11  372.35   11.57
  -4  -4  11  386.50   11.19
  -4  -4  12  229.83    7.72
  -4  -4  12  248.88   10.08
  -4  -4  12  227.48    8.36
  -4  -4  13  687.28   14.49
  -4  -4  13  667.48   12.82
  -4  -4  15  594.40   10.12
  -4  -4  16  468.31    7.83
  -4  -4  16  426.17    7.55
  -4  -3 -17  396.43    7.68
  -4  -3 -16   30.44    5.40
  -4  -3 -15  925.86   14.33
  -4  -3 -14  790.16   12.85
  -4  -3 -14  847.00   13.92
  -4  -3 -13   16.48    5.22
  -4  -3 -13   11.44    5.60
  -4  -3 -12  416.32    9.43
  -4  -3 -12  428.56    9.94
  -4  -3 -11   90.45    6.27
  -4  -3 -11   83.68    5.83
  -4  -3 -10  440.03   10.08
  -4  -3 -10  412.98    9.51
  -4  -3  -9   91.36    5.70
  -4  -3  -9   92.92    5.78
  -4  -3  -9   78.86    4.61
  -4  -3  -8 4088.23   41.52
  -4  -3  -7  104.25    4.74
  -4  -3  -7  104.82    4.21
  -4  -3  -7  108.36    4.63
  -4  -3  -6   79.08    4.38
  -4  -3  -6   73.16    4.23
  -4  -3  -6   68.31    3.85
  -4  -3  -5  394.70    7.46
  -4  -3  -5  413.20    7.84
  -4  -3  -5  413.18    7.71
  -4  -3  -4 1327.68   16.13
  -4  -3  -4 1350.67   16.75
  -4  -3  -3 1681.28   19.32
  -4  -3  -3 1710.78   20.01
  -4  -3  -2  221.70    5.89
  -4  -3  -2  215.91    5.44
  -4  -3   0  511.72    8.95
  -4  -3   0  489.70    8.37
  -4  -3   1   73.45    3.04
  -4  -3   2 3592.67   36.59
  -4  -3   2 3580.42   36.86
  -4  -3   3 1982.93   23.03
  -4  -3   3 1966.15   22.71
  -4  -3   3 1934.04   21.68
  -4  -3   3 1880.39   23.74
  -4  -3   3 1912.38   21.28
  -4  -3   4  202.75    7.28
  -4  -3   4  221.61    5.75
  -4  -3   4  201.65    6.32
  -4  -3   4  206.27    5.62
  -4  -3   4  198.72    6.43
  -4  -3   5 3166.11   33.48
  -4  -3   5 3191.44   32.77
  -4  -3   5 3154.93   34.11
  -4  -3   5 3107.97   34.29
  -4  -3   5 3178.07   34.14
  -4  -3   6  197.99    7.44
  -4  -3   6  195.47    6.64
  -4  -3   6  205.00    7.69
  -4  -3   6  198.94    5.53
  -4  -3   6  212.47    7.28
  -4  -3   6  202.63    6.26
  -4  -3   7  317.50    7.91
  -4  -3   7  311.13    8.26
  -4  -3   7  301.63    8.99
  -4  -3   7  322.28    6.75
  -4  -3   7  312.21    9.13
  -4  -3   7  320.06    9.53
  -4  -3   7  312.76    7.50
  -4  -3   8   78.82    6.91
  -4  -3   8   90.42    7.00
  -4  -3   8   86.01    5.48
  -4  -3   8   95.80    7.25
  -4  -3   8   85.29    5.85
  -4  -3   8   91.44    5.28
  -4  -3   9  400.09   11.39
  -4  -3   9  399.52    9.25
  -4  -3   9  397.36   11.20
  -4  -3   9  392.08    9.73
  -4  -3   9  387.30    9.97
  -4  -3  10  463.94   11.32
  -4  -3  10  482.75   11.13
  -4  -3  10  494.36   10.71
  -4  -3  10  509.64   12.64
  -4  -3  10  486.45   12.39
  -4  -3  11   10.76    5.85
  -4  -3  11    5.67    7.28
  -4  -3  11    9.95    5.29
  -4  -3  12   38.45    7.58
  -4  -3  12   33.88    6.61
  -4  -3  12   31.76    5.98
  -4  -3  12   33.60    7.99
  -4  -3  13  226.74    9.14
  -4  -3  14  434.69    9.12
  -4  -3  15  396.13    9.16
  -4  -3  16   52.58    4.82
  -4  -3  17  125.92    4.45
  -4  -3  17  116.73    4.18
  -4  -2 -17   10.68    4.49
  -4  -2 -16   29.36    4.74
  -4  -2 -16   26.13    5.88
  -4  -2 -15 1032.55   14.90
  -4  -2 -15 1059.17   15.47
  -4  -2 -14  812.57   13.73
  -4  -2 -14  769.62   13.04
  -4  -2 -13   96.27    6.80
  -4  -2 -13   89.91    6.23
  -4  -2 -12   55.78    6.60
  -4  -2 -12   58.49    6.00
  -4  -2 -11 1429.46   19.10
  -4  -2 -11 1415.67   19.49
  -4  -2 -11 1395.95   19.38
  -4  -2 -10 4662.55   48.08
  -4  -2 -10 4664.49   48.39
  -4  -2 -10 4683.42   47.26
  -4  -2  -9   32.58    5.28
  -4  -2  -9   22.51    4.78
  -4  -2  -8   89.15    4.82
  -4  -2  -8   91.84    5.66
  -4  -2  -8   98.14    5.52
  -4  -2  -7   44.75    3.62
  -4  -2  -7   46.68    4.51
  -4  -2  -7   48.08    4.20
  -4  -2  -6  976.40   13.45
  -4  -2  -6  956.58   13.39
  -4  -2  -6  993.26   12.96
  -4  -2  -6  987.46   13.81
  -4  -2  -5 2155.34   24.03
  -4  -2  -5 2131.90   23.34
  -4  -2  -5 2110.94   23.81
  -4  -2  -5 2111.89   23.60
  -4  -2  -4 3768.80   38.46
  -4  -2  -4 3750.53   38.62
  -4  -2  -4 3787.55   37.83
  -4  -2  -4 3758.30   37.99
  -4  -2  -3 4075.25   40.91
  -4  -2  -3 4009.43   39.87
  -4  -2  -3 3993.13   39.93
  -4  -2  -3 3971.21   40.61
  -4  -2  -2 6889.15   66.35
  -4  -2  -1  950.30   12.51
  -4  -2  -1  955.43   13.45
  -4  -2  -1  949.23   13.31
  -4  -2   0  776.06   10.72
  -4  -2   0  786.13   11.94
  -4  -2   0  816.41   11.15
  -4  -2   0  798.66   11.87
  -4  -2   1 4999.29   49.87
  -4  -2   1 4950.69   49.70
  -4  -2   2 3414.21   33.56
  -4  -2   2 3302.77   32.92
  -4  -2   2 3348.69   34.12
  -4  -2   3  560.26   10.15
  -4  -2   3  594.00    9.26
  -4  -2   3  577.65    8.50
  -4  -2   3  583.52    8.71
  -4  -2   4 2243.99   26.02
  -4  -2   4 2274.41   23.81
  -4  -2   4 2298.64   26.84
  -4  -2   4 2316.62   24.80
  -4  -2   4 2234.92   24.76
  -4  -2   5  705.22   12.48
  -4  -2   5  700.31   10.75
  -4  -2   5  664.25   11.44
  -4  -2   5  654.69    9.29
  -4  -2   5  663.78   10.21
  -4  -2   6  118.21    5.85
  -4  -2   6  103.12    5.37
  -4  -2   6  118.74    4.76
  -4  -2   6  116.84    5.36
  -4  -2   7 2034.33   23.65
  -4  -2   7 1955.59   24.02
  -4  -2   7 2000.59   22.65
  -4  -2   7 1992.38   23.22
  -4  -2   7 2005.35   22.38
  -4  -2   7 1981.16   25.85
  -4  -2   7 2016.05   22.43
  -4  -2   7 2023.13   24.77
  -4  -2   8 3163.45   34.01
  -4  -2   8 3209.17   34.75
  -4  -2   8 3186.48   37.59
  -4  -2   8 3246.29   34.57
  -4  -2   8 3155.04   36.56
  -4  -2   8 3297.69   36.01
  -4  -2   8 3156.40   35.81
  -4  -2   9  348.66   10.74
  -4  -2   9  356.63    8.26
  -4  -2   9  346.38    9.02
  -4  -2   9  333.65    8.15
  -4  -2   9  342.11   10.67
  -4  -2   9  355.46   10.07
  -4  -2  10  195.34    9.83
  -4  -2  10  210.05    7.96
  -4  -2  10  200.12    8.27
  -4  -2  10  224.24    8.89
  -4  -2  11  900.42   15.83
  -4  -2  12 1183.26   18.15
  -4  -2  13   92.33    6.51
  -4  -2  13   96.74    7.69
  -4  -2  14  295.66    8.35
  -4  -2  14  322.24    9.68
  -4  -2  14  328.14    9.38
  -4  -2  15  175.50    7.62
  -4  -2  15  165.23    6.35
  -4  -2  15  173.24    7.19
  -4  -2  16   89.67    5.43
  -4  -2  16   93.96    6.00
  -4  -2  17  244.51    6.26
  -4  -2  17  234.52    5.61
  -4  -2  17  255.45    6.22
  -4  -2  18  200.87    4.30
  -4  -1 -17   51.75    4.11
  -4  -1 -17   54.47    4.69
  -4  -1 -16  728.98   11.40
  -4  -1 -16  753.03   11.95
  -4  -1 -15  776.58   12.63
  -4  -1 -15  779.77   12.81
  -4  -1 -14   19.59    6.61
  -4  -1 -14   23.00    6.01
  -4  -1 -14   17.66    5.37
  -4  -1 -13 6611.99   66.74
  -4  -1 -13 6558.89   66.01
  -4  -1 -12  275.78    8.73
  -4  -1 -12  284.25    9.00
  -4  -1 -11  602.78   11.92
  -4  -1 -11  601.09   12.10
  -4  -1 -10  231.92    7.15
  -4  -1 -10  234.25    7.74
  -4  -1 -10  240.28    8.22
  -4  -1  -9 1385.10   18.09
  -4  -1  -9 1398.01   18.79
  -4  -1  -9 1376.59   18.62
  -4  -1  -8   17.41    4.89
  -4  -1  -8   20.87    4.81
  -4  -1  -8   32.25    5.14
  -4  -1  -7  728.41   10.62
  -4  -1  -7  714.33   11.81
  -4  -1  -7  692.64   11.63
  -4  -1  -7  719.78   10.62
  -4  -1  -6 2542.39   28.25
  -4  -1  -6 2592.21   28.44
  -4  -1  -6 2586.05   27.89
  -4  -1  -6 2630.71   28.18
  -4  -1  -6 2591.61   27.82
  -4  -1  -5 6168.13   60.11
  -4  -1  -5 6365.13   60.08
  -4  -1  -5 6267.05   59.77
  -4  -1  -5 6180.43   59.10
  -4  -1  -5 6030.42   60.15
  -4  -1  -5 6276.96   59.88
  -4  -1  -4   44.97    3.67
  -4  -1  -4   48.68    3.82
  -4  -1  -4   51.78    4.07
  -4  -1  -4   52.81    4.10
  -4  -1  -3  296.67    6.78
  -4  -1  -3  303.04    6.83
  -4  -1  -3  281.90    6.67
  -4  -1  -3  303.78    6.79
  -4  -1  -3  303.97    6.50
  -4  -1  -3  286.41    6.59
  -4  -1  -2 2023.19   22.83
  -4  -1  -2 2016.12   22.80
  -4  -1  -2 2032.05   22.96
  -4  -1  -2 2086.67   22.35
  -4  -1  -2 2080.27   23.44
  -4  -1  -1  142.54    5.15
  -4  -1  -1  138.37    5.28
  -4  -1  -1  135.52    4.86
  -4  -1  -1  146.33    5.17
  -4  -1   0  921.12   12.46
  -4  -1   0  925.93   12.75
  -4  -1   0  911.23   12.67
  -4  -1   0  908.99   11.79
  -4  -1   0  933.75   12.72
  -4  -1   1 3960.25   40.93
  -4  -1   1 4070.20   39.81
  -4  -1   1 3948.09   38.74
  -4  -1   2  841.73   12.04
  -4  -1   2  837.39   12.06
  -4  -1   2  843.62   12.15
  -4  -1   2  838.85   11.42
  -4  -1   2  844.14   10.52
  -4  -1   3 2248.97   26.12
  -4  -1   3 2335.67   25.40
  -4  -1   3 2333.87   25.58
  -4  -1   3 2323.06   25.30
  -4  -1   4 1544.93   18.91
  -4  -1   4 1582.65   18.70
  -4  -1   4 1530.08   20.54
  -4  -1   4 1580.98   18.75
  -4  -1   4 1582.33   19.32
  -4  -1   5  102.59    4.71
  -4  -1   5   93.15    5.85
  -4  -1   5   92.20    5.18
  -4  -1   5   98.37    4.66
  -4  -1   5  107.39    4.79
  -4  -1   6  514.30   11.53
  -4  -1   6  544.96    9.27
  -4  -1   6  543.60    9.36
  -4  -1   6  521.74    9.55
  -4  -1   6  566.96   10.33
  -4  -1   7 4898.67   49.58
  -4  -1   7 4855.62   48.25
  -4  -1   7 4946.40   50.13
  -4  -1   7 4851.65   48.14
  -4  -1   7 4935.92   49.77
  -4  -1   8  178.40    6.62
  -4  -1   8  187.24    6.66
  -4  -1   8  185.00    7.10
  -4  -1   8  188.52    6.98
  -4  -1   8  181.24    7.59
  -4  -1   9   37.42    6.26
  -4  -1   9   39.15    5.04
  -4  -1   9   37.40    6.08
  -4  -1  10 3351.50   38.01
  -4  -1  11 1370.33   20.59
  -4  -1  12  178.97    8.64
  -4  -1  12  181.43    8.87
  -4  -1  13  856.40   15.53
  -4  -1  13  862.49   15.08
  -4  -1  14  283.31    9.18
  -4  -1  14  271.37    9.37
  -4  -1  15    9.24    5.31
  -4  -1  15   12.18    5.75
  -4  -1  16   41.11    5.44
  -4  -1  16   47.67    5.40
  -4  -1  16   47.65    4.55
  -4  -1  16   49.27    4.98
  -4  -1  17  481.68    8.79
  -4  -1  17  475.45    7.61
  -4  -1  18  114.99    3.59
  -4   0 -17  217.27    5.11
  -4   0 -17  222.97    5.26
  -4   0 -16  143.34    5.63
  -4   0 -16  139.93    5.65
  -4   0 -15  145.14    6.58
  -4   0 -15  149.78    6.72
  -4   0 -14 3242.30   34.26
  -4   0 -14 3205.83   33.91
  -4   0 -14 3255.09   34.76
  -4   0 -13   79.53    6.18
  -4   0 -13   80.47    6.91
  -4   0 -13   87.62    7.22
  -4   0 -13   74.17    6.49
  -4   0 -12  819.35   13.97
  -4   0 -12  840.43   14.58
  -4   0 -12  810.52   13.31
  -4   0 -11  538.48   11.56
  -4   0 -11  542.95   10.82
  -4   0 -11  532.04   11.65
  -4   0 -10 1066.01   16.21
  -4   0 -10 1089.39   16.43
  -4   0  -9   53.54    5.63
  -4   0  -9   62.31    6.32
  -4   0  -9   61.14    6.51
  -4   0  -8 1219.07   16.74
  -4   0  -8 1206.10   17.17
  -4   0  -7 1583.77   19.95
  -4   0  -7 1559.29   18.71
  -4   0  -7 1547.79   19.56
  -4   0  -6   58.26    5.31
  -4   0  -6   60.62    5.13
  -4   0  -6   57.06    4.52
  -4   0  -5  200.17    6.63
  -4   0  -5  205.03    6.17
  -4   0  -5  207.28    5.88
  -4   0  -4 2050.09   23.25
  -4   0  -4 2002.59   23.36
  -4   0  -4 2035.05   22.89
  -4   0  -4 2070.47   22.45
  -4   0  -4 2074.17   22.88
  -4   0  -4 2021.35   22.37
  -4   0  -4 2051.04   23.10
  -4   0  -3 1036.10   14.18
  -4   0  -3 1008.51   13.81
  -4   0  -3 1010.95   13.38
  -4   0  -3 1017.44   13.92
  -4   0  -3 1044.09   13.38
  -4   0  -3 1017.55   12.92
  -4   0  -3 1057.95   13.81
  -4   0  -2   80.13    4.23
  -4   0  -2   77.67    4.65
  -4   0  -2   81.15    4.09
  -4   0  -2   78.26    4.57
  -4   0  -2   72.53    4.18
  -4   0  -2   76.70    3.42
  -4   0  -1  449.57    8.48
  -4   0  -1  472.38    8.64
  -4   0  -1  445.55    7.01
  -4   0  -1  456.40    7.36
  -4   0  -1  446.68    8.35
  -4   0  -1  453.48    8.64
  -4   0   0 5704.04   53.99
  -4   0   0 5750.15   54.09
  -4   0   0 5489.70   53.60
  -4   0   0 5460.56   51.89
  -4   0   0 5487.74   53.84
  -4   0   0 5348.14   51.38
  -4   0   1  303.70    6.94
  -4   0   1  286.16    6.89
  -4   0   2 1521.89   18.67
  -4   0   2 1514.30   18.59
  -4   0   2 1495.11   18.87
  -4   0   3 2215.98   24.63
  -4   0   3 2200.31   24.97
  -4   0   3 2216.05   24.73
  -4   0   3 2139.35   23.71
  -4   0   4  169.80    5.73
  -4   0   4  170.63    5.82
  -4   0   4  160.40    6.53
  -4   0   5  519.32   10.33
  -4   0   5  509.45   10.49
  -4   0   5  512.29    9.98
  -4   0   6  257.76    8.00
  -4   0   6  270.33    7.66
  -4   0   6  276.32    8.04
  -4   0   6  281.07    6.81
  -4   0   6  264.54    8.33
  -4   0   7 1191.88   18.19
  -4   0   7 1228.72   18.00
  -4   0   7 1221.93   17.89
  -4   0   7 1250.42   15.76
  -4   0   7 1217.21   17.52
  -4   0   8  758.58   14.00
  -4   0   8  744.90   13.94
  -4   0   8  791.88   13.27
  -4   0   8  794.85   13.36
  -4   0   9 1658.13   22.93
  -4   0   9 1682.26   23.28
  -4   0   9 1691.65   21.59
  -4   0   9 1722.78   21.51
  -4   0  10 2573.63   32.16
  -4   0  10 2576.48   32.06
  -4   0  10 2648.04   29.81
  -4   0  11  127.94    8.34
  -4   0  11  120.15    8.53
  -4   0  11  128.17    8.50
  -4   0  12  354.47   11.35
  -4   0  12  386.65   10.32
  -4   0  13 1437.30   19.56
  -4   0  13 1387.37   20.91
  -4   0  14  152.25    7.27
  -4   0  14  140.53    8.29
  -4   0  15   38.89    5.86
  -4   0  15   28.06    5.26
  -4   0  15   39.07    5.78
  -4   0  15   32.34    6.00
  -4   0  16   84.73    5.28
  -4   0  16   81.41    5.37
  -4   0  16   76.66    4.39
  -4   0  16   80.95    4.82
  -4   0  17  153.41    4.44
  -4   0  17  136.22    4.87
  -4   1 -16   71.77    4.05
  -4   1 -15   57.45    4.89
  -4   1 -15   59.18    4.36
  -4   1 -15   66.81    4.15
  -4   1 -15   51.55    3.74
  -4   1 -14  669.81   11.21
  -4   1 -14  636.97   10.34
  -4   1 -14  637.71   10.27
  -4   1 -13   84.50    6.12
  -4   1 -13   85.59    6.66
  -4   1 -13   90.05    5.74
  -4   1 -12  129.23    7.18
  -4   1 -12  126.00    5.38
  -4   1 -12  131.49    6.35
  -4   1 -11  446.36    9.53
  -4   1 -11  442.50    8.71
  -4   1 -11  451.07   10.49
  -4   1 -10  380.34    8.89
  -4   1 -10  368.72    8.80
  -4   1 -10  372.35    8.14
  -4   1 -10  404.84   10.17
  -4   1 -10  409.70   10.37
  -4   1  -9    5.99    6.11
  -4   1  -9    5.71    5.08
  -4   1  -9    6.51    6.17
  -4   1  -9    6.60    4.39
  -4   1  -9    6.24    5.42
  -4   1  -8  895.89   12.60
  -4   1  -8  933.73   14.85
  -4   1  -8  953.73   14.76
  -4   1  -8  888.78   14.41
  -4   1  -7  282.66    8.48
  -4   1  -7  286.44    8.38
  -4   1  -7  291.90    8.39
  -4   1  -7  276.91    8.26
  -4   1  -7  284.80    8.61
  -4   1  -6  439.56    8.89
  -4   1  -6  459.92    9.74
  -4   1  -6  439.92    9.65
  -4   1  -6  458.49   10.07
  -4   1  -5 2685.59   29.33
  -4   1  -5 2548.15   29.75
  -4   1  -5 2747.15   30.03
  -4   1  -5 2695.18   29.12
  -4   1  -5 2656.03   29.97
  -4   1  -5 2619.46   29.22
  -4   1  -4 1567.73   18.90
  -4   1  -4 1508.70   18.53
  -4   1  -4 1462.82   19.39
  -4   1  -4 1525.89   18.97
  -4   1  -4 1504.95   19.19
  -4   1  -4 1529.71   19.64
  -4   1  -4 1556.92   19.42
  -4   1  -3  294.58    8.01
  -4   1  -3  301.65    6.91
  -4   1  -3  281.22    7.50
  -4   1  -3  285.78    7.49
  -4   1  -3  306.26    7.48
  -4   1  -3  302.56    7.91
  -4   1  -3  286.99    6.84
  -4   1  -3  286.80    7.30
  -4   1  -2  678.77   10.17
  -4   1  -2  694.22   11.55
  -4   1  -2  643.65   11.21
  -4   1  -2  675.73   10.72
  -4   1  -2  681.90   11.23
  -4   1  -2  644.50   11.20
  -4   1  -2  668.23   11.05
  -4   1  -2  671.17   10.93
  -4   1  -1  127.54    5.58
  -4   1  -1  127.35    5.34
  -4   1  -1  126.19    5.37
  -4   1  -1  136.39    6.30
  -4   1  -1  129.83    5.74
  -4   1  -1  131.63    6.11
  -4   1  -1  135.14    6.23
  -4   1  -1  138.98    6.33
  -4   1   0 2040.29   23.56
  -4   1   0 1972.03   23.39
  -4   1   0 1941.61   23.30
  -4   1   0 2054.62   23.31
  -4   1   0 1992.54   23.11
  -4   1   0 2026.30   22.15
  -4   1   0 1938.70   23.31
  -4   1   0 1924.36   22.95
  -4   1   1  203.50    6.71
  -4   1   1  189.04    6.43
  -4   1   1  195.96    6.70
  -4   1   1  214.52    7.22
  -4   1   1  191.61    6.98
  -4   1   2 1118.19   15.51
  -4   1   2 1126.50   15.86
  -4   1   2 1078.66   15.39
  -4   1   2 1126.00   15.06
  -4   1   2 1098.73   15.79
  -4   1   2 1076.18   15.10
  -4   1   3 4270.21   43.04
  -4   1   3 4295.94   44.07
  -4   1   3 4212.50   43.97
  -4   1   3 4268.19   44.34
  -4   1   3 4168.95   44.16
  -4   1   3 4358.58   43.56
  -4   1   4  635.69   11.30
  -4   1   4  630.51   12.05
  -4   1   4  637.59   10.44
  -4   1   4  651.16   11.69
  -4   1   4  653.17   11.01
  -4   1   4  643.37   11.67
  -4   1   5 1099.30   16.32
  -4   1   5 1088.51   16.75
  -4   1   5 1118.52   15.33
  -4   1   5 1082.58   15.65
  -4   1   6 1307.67   18.31
  -4   1   6 1282.45   17.90
  -4   1   6 1265.58   16.60
  -4   1   6 1242.26   18.06
  -4   1   6 1225.42   18.45
  -4   1   6 1215.28   17.04
  -4   1   7   27.81    5.40
  -4   1   7   30.07    4.32
  -4   1   7   30.17    5.97
  -4   1   7   30.88    6.48
  -4   1   7   29.09    5.70
  -4   1   7   25.56    6.47
  -4   1   8  546.71   10.35
  -4   1   8  528.93   12.34
  -4   1   8  556.67   12.19
  -4   1   8  565.76   11.45
  -4   1   8  534.61   12.40
  -4   1   9  348.19   10.47
  -4   1   9  353.92    9.25
  -4   1   9  339.38   10.26
  -4   1   9  324.49   10.61
  -4   1  10 1252.01   19.78
  -4   1  10 1288.87   18.73
  -4   1  10 1244.90   19.45
  -4   1  11    1.51    6.57
  -4   1  11   -2.39    6.16
  -4   1  11    2.51    6.36
  -4   1  12 1399.32   20.31
  -4   1  12 1446.02   19.42
  -4   1  13  162.90    7.91
  -4   1  13  154.65    8.35
  -4   1  13  145.21    7.11
  -4   1  13  166.88    7.15
  -4   1  13  177.35    8.64
  -4   1  14   52.81    5.20
  -4   1  14   74.40    6.71
  -4   1  14   70.31    5.10
  -4   1  14   65.71    6.73
  -4   1  14   70.46    6.20
  -4   1  15  220.72    7.15
  -4   1  15  232.92    7.03
  -4   1  15  219.69    5.40
  -4   1  16  378.71    7.32
  -4   1  16  368.34    6.66
  -4   1  17  132.72    3.77
  -4   2 -14   24.28    3.56
  -4   2 -13  419.05    8.53
  -4   2 -13  399.80    8.00
  -4   2 -12  357.71    8.48
  -4   2 -12  370.58    8.50
  -4   2 -11  209.60    7.53
  -4   2 -11  216.04    7.73
  -4   2 -10  139.41    7.20
  -4   2 -10  123.65    6.59
  -4   2 -10  140.63    7.51
  -4   2  -9  423.29   10.33
  -4   2  -9  422.42    9.79
  -4   2  -8  484.73   10.46
  -4   2  -8  499.35   11.17
  -4   2  -8  474.48   11.01
  -4   2  -7   24.68    5.90
  -4   2  -7   13.23    6.20
  -4   2  -7   21.30    5.96
  -4   2  -6 1262.47   18.62
  -4   2  -6 1335.44   18.54
  -4   2  -6 1313.63   18.22
  -4   2  -6 1252.49   17.34
  -4   2  -6 1305.08   17.20
  -4   2  -5 1242.68   16.32
  -4   2  -5 1236.26   17.80
  -4   2  -5 1256.11   18.36
  -4   2  -5 1278.64   17.80
  -4   2  -5 1209.23   16.74
  -4   2  -4   37.96    6.32
  -4   2  -4   38.38    5.98
  -4   2  -4   39.14    4.89
  -4   2  -4   41.65    6.31
  -4   2  -4   36.91    5.11
  -4   2  -3 1941.59   24.52
  -4   2  -3 1966.47   24.15
  -4   2  -3 1994.64   23.78
  -4   2  -3 1932.69   24.19
  -4   2  -2 1793.44   22.47
  -4   2  -2 1750.29   21.82
  -4   2  -2 1752.23   22.71
  -4   2  -2 1825.02   21.66
  -4   2  -2 1728.38   21.14
  -4   2  -1  197.37    7.18
  -4   2  -1  199.12    7.56
  -4   2  -1  211.85    6.92
  -4   2  -1  195.51    7.61
  -4   2  -1  196.75    6.70
  -4   2  -1  192.33    7.96
  -4   2   0  184.38    6.86
  -4   2   0  192.79    6.96
  -4   2   0  181.16    7.52
  -4   2   0  179.58    7.54
  -4   2   0  196.03    6.41
  -4   2   1 6363.84   62.05
  -4   2   1 6328.53   62.76
  -4   2   1 6198.41   62.23
  -4   2   2 2630.93   30.06
  -4   2   2 2679.39   30.49
  -4   2   2 2640.62   30.49
  -4   2   2 2682.16   30.23
  -4   2   3  128.47    6.47
  -4   2   3  114.72    6.26
  -4   2   3  109.60    6.33
  -4   2   3  121.38    7.17
  -4   2   3  112.18    6.68
  -4   2   4 1316.93   18.50
  -4   2   4 1332.30   18.37
  -4   2   4 1340.52   17.84
  -4   2   4 1356.15   18.61
  -4   2   5  712.25   12.71
  -4   2   5  730.08   13.10
  -4   2   5  718.13   13.06
  -4   2   5  728.24   12.02
  -4   2   5  704.43   12.88
  -4   2   6  424.15    9.88
  -4   2   6  410.28    9.02
  -4   2   6  441.29   10.47
  -4   2   6  440.52    9.85
  -4   2   6  397.61   10.82
  -4   2   6  409.72   10.81
  -4   2   7   73.08    7.47
  -4   2   7   80.41    7.04
  -4   2   7   92.67    6.10
  -4   2   7   73.93    7.77
  -4   2   7   73.38    6.23
  -4   2   7   76.57    6.36
  -4   2   8  353.53    9.63
  -4   2   8  355.68    8.23
  -4   2   8  352.89   10.57
  -4   2   8  341.14   10.24
  -4   2   9  608.86   11.83
  -4   2   9  591.53   12.98
  -4   2   9  581.57   13.02
  -4   2  10  491.90   10.52
  -4   2  10  498.04   11.68
  -4   2  10  487.09   12.05
  -4   2  10  461.44   10.67
  -4   2  11  925.70   15.63
  -4   2  11  939.83   13.94
  -4   2  12  630.23   12.14
  -4   2  12  626.70   10.28
  -4   2  13    2.45    5.48
  -4   2  13    4.54    4.35
  -4   2  13   10.87    3.99
  -4   2  14  668.48    9.93
  -4   2  14  748.25   11.34
  -4   2  14  787.06   11.53
  -4   2  14  709.82    9.00
  -4   2  15  972.05   12.04
  -4   2  15  944.21   12.34
  -4   2  16   64.45    2.85
  -4   3 -12  147.11    4.95
  -4   3 -11    9.19    4.09
  -4   3 -11   10.19    4.38
  -4   3 -11    7.57    3.64
  -4   3 -10  152.93    5.68
  -4   3 -10  166.54    6.48
  -4   3  -9  550.19    9.51
  -4   3  -9  568.91   10.57
  -4   3  -8   19.21    4.77
  -4   3  -8   25.39    6.14
  -4   3  -7  116.57    5.91
  -4   3  -7  118.26    6.94
  -4   3  -6  134.10    5.76
  -4   3  -6  138.60    6.34
  -4   3  -6  131.45    6.46
  -4   3  -6  152.18    7.66
  -4   3  -6  126.41    7.78
  -4   3  -5   80.17    7.51
  -4   3  -5   95.21    6.74
  -4   3  -5   87.98    6.44
  -4   3  -5   86.44    6.59
  -4   3  -5   90.07    6.28
  -4   3  -4   15.37    5.93
  -4   3  -4   11.39    6.39
  -4   3  -4   15.42    5.98
  -4   3  -4   20.00    6.03
  -4   3  -3 1280.15   17.48
  -4   3  -3 1265.22   18.81
  -4   3  -3 1251.59   17.86
  -4   3  -2 1222.88   17.08
  -4   3  -2 1257.17   18.02
  -4   3  -2 1289.67   18.75
  -4   3  -1  260.86    9.32
  -4   3  -1  248.41    7.68
  -4   3   0 3325.56   34.85
  -4   3   0 3329.43   36.84
  -4   3   0 3267.38   36.03
  -4   3   1  198.81    7.69
  -4   3   1  201.74    8.25
  -4   3   2  132.83    6.90
  -4   3   3  419.18   10.26
  -4   3   3  435.22   10.46
  -4   3   3  405.92   10.18
  -4   3   4   55.54    6.31
  -4   3   4   56.15    6.78
  -4   3   4   65.46    6.87
  -4   3   4   54.38    6.57
  -4   3   5  123.35    7.42
  -4   3   5  121.87    7.16
  -4   3   5  120.68    7.34
  -4   3   5  112.56    7.18
  -4   3   5  115.03    7.44
  -4   3   6    4.36    5.76
  -4   3   6    8.78    6.12
  -4   3   6   -0.44    6.16
  -4   3   6    0.58    5.62
  -4   3   6    9.85    5.92
  -4   3   7 1501.23   19.58
  -4   3   7 1491.35   20.37
  -4   3   7 1518.41   20.85
  -4   3   7 1542.39   19.31
  -4   3   7 1540.75   19.38
  -4   3   8   68.89    6.82
  -4   3   8   65.84    5.37
  -4   3   8   65.99    5.85
  -4   3   8   66.65    7.12
  -4   3   8   62.66    5.06
  -4   3   9  384.69    9.97
  -4   3   9  361.23    8.36
  -4   3   9  385.32    9.88
  -4   3   9  375.70    8.56
  -4   3  10  594.12   11.47
  -4   3  10  556.26    9.93
  -4   3  10  591.08   11.34
  -4   3  10  586.42    9.71
  -4   3  11 1112.20   13.58
  -4   3  11 1130.08   15.42
  -4   3  11 1142.88   15.55
  -4   3  12   13.44    4.36
  -4   3  12   11.69    2.85
  -4   3  12   17.28    4.93
  -4   3  13  360.83    6.97
  -4   3  14  267.35    5.08
  -4   4 -10  407.04    6.08
  -4   4  -9   37.39    3.66
  -4   4  -8   16.32    4.28
  -4   4  -8   12.77    4.10
  -4   4  -7   84.14    5.68
  -4   4  -7   95.99    5.40
  -4   4  -6   79.05    4.54
  -4   4  -6   67.31    4.62
  -4   4  -6   76.18    5.87
  -4   4  -6   77.75    5.42
  -4   4  -5   79.46    6.23
  -4   4  -5   82.00    5.58
  -4   4  -5   86.73    5.48
  -4   4  -5   71.80    5.36
  -4   4  -4   32.37    5.33
  -4   4  -4   27.63    6.01
  -4   4  -4   37.67    5.43
  -4   4  -4   28.09    5.34
  -4   4  -4   36.41    5.20
  -4   4  -3 1819.38   21.74
  -4   4  -3 1781.76   20.88
  -4   4  -3 1790.34   21.79
  -4   4  -3 1771.84   21.76
  -4   4  -3 1768.28   22.53
  -4   4  -2  655.73   10.74
  -4   4  -2  686.74   12.17
  -4   4  -2  668.45   12.27
  -4   4  -2  678.69   12.05
  -4   4  -2  682.40   12.41
  -4   4  -1   60.57    6.55
  -4   4  -1   55.78    6.38
  -4   4   0  558.46   11.11
  -4   4   0  574.43   11.23
  -4   4   1  131.44    7.27
  -4   4   1  119.12    6.59
  -4   4   1  143.85    7.39
  -4   4   1  136.48    7.39
  -4   4   2  745.29   12.82
  -4   4   2  684.86   12.02
  -4   4   3  699.42   12.30
  -4   4   3  720.78   12.32
  -4   4   3  728.98   12.49
  -4   4   3  720.50   12.51
  -4   4   4  136.99    6.82
  -4   4   4  130.60    7.10
  -4   4   4  146.71    6.87
  -4   4   4  133.11    6.75
  -4   4   5  121.04    6.69
  -4   4   5  120.76    6.46
  -4   4   5  120.03    5.81
  -4   4   5  127.73    6.37
  -4   4   5  114.38    6.25
  -4   4   6  519.78    9.70
  -4   4   6  544.21    9.66
  -4   4   6  528.62   10.41
  -4   4   6  539.94    9.64
  -4   4   7  255.97    6.59
  -4   4   7  254.46    7.50
  -4   4   7  253.37    7.09
  -4   4   7  240.89    6.43
  -4   4   8   90.91    4.38
  -4   4   8   90.69    5.44
  -4   4   8   89.90    5.71
  -4   4   9  244.72    5.04
  -4   4   9  267.15    6.59
  -4   4   9  257.90    6.69
  -4   4  10  217.70    5.75
  -4   4  10  218.69    5.78
  -4   4  11   74.38    3.78
  -4   4  11   70.58    3.63
  -4   4  12  169.21    3.68
  -4   5  -6    1.42    2.33
  -4   5  -5  141.36    4.28
  -4   5  -4   35.38    2.93
  -4   5  -4   36.42    3.05
  -4   5  -3  100.73    4.10
  -4   5  -3   92.48    4.03
  -4   5  -2   87.61    4.59
  -4   5  -2   88.91    4.50
  -4   5  -2   84.06    4.38
  -4   5  -1 1205.65   14.75
  -4   5  -1 1240.65   14.74
  -4   5  -1 1217.29   14.80
  -4   5   0  573.40    9.10
  -4   5   0  602.62    9.31
  -4   5   0  579.63    9.39
  -4   5   1   81.82    4.60
  -4   5   1   90.47    5.02
  -4   5   1   90.46    4.90
  -4   5   2  834.52   11.22
  -4   5   2  910.97   12.03
  -4   5   3  386.28    7.24
  -4   5   3  372.25    6.70
  -4   5   4  114.93    4.56
  -4   5   4  102.23    4.12
  -4   5   4  103.16    3.84
  -4   5   5   56.19    2.81
  -4   5   5   63.36    3.56
  -4   5   5   59.53    3.57
  -4   5   6  124.75    3.92
  -4   5   7   19.70    2.43
  -3  -8  -8  185.92    5.21
  -3  -8  -7    2.59    3.50
  -3  -8  -6  119.61    5.53
  -3  -8  -5  183.09    6.75
  -3  -8  -4  135.35    6.54
  -3  -8  -3  174.60    7.21
  -3  -8  -3  173.82    6.77
  -3  -8  -2  278.29    8.15
  -3  -8  -2  257.41    6.98
  -3  -8  -1   66.38    4.87
  -3  -8  -1   67.95    6.15
  -3  -8   0   15.66    4.67
  -3  -8   0   10.43    5.18
  -3  -8   0   15.32    4.19
  -3  -8   1   86.79    5.06
  -3  -8   1   91.84    6.20
  -3  -8   2   57.07    5.57
  -3  -8   2   58.49    4.51
  -3  -8   3   93.71    4.96
  -3  -8   3   98.70    5.61
  -3  -8   4   65.33    4.35
  -3  -8   4   64.63    4.44
  -3  -8   5  865.53   12.02
  -3  -8   6    3.37    2.99
  -3  -8   7  182.99    5.22
  -3  -8   7  153.99    4.28
  -3  -7  -8   13.23    4.30
  -3  -7  -8    3.86    4.41
  -3  -7  -7   22.84    4.52
  -3  -7  -7   17.87    4.89
  -3  -7  -7   26.05    5.05
  -3  -7  -6  355.88    9.12
  -3  -7  -6  370.11    9.87
  -3  -7  -6  357.89    9.59
  -3  -7  -5  252.05    8.69
  -3  -7  -5  263.80    8.95
  -3  -7  -5  251.05    8.12
  -3  -7  -4  935.70   16.25
  -3  -7  -4  929.24   15.42
  -3  -7  -4  945.63   16.26
  -3  -7  -3  326.34   10.17
  -3  -7  -3  336.55   10.19
  -3  -7  -2    8.75    5.05
  -3  -7  -2   11.43    6.04
  -3  -7  -2    7.20    5.55
  -3  -7  -1  707.20   14.66
  -3  -7  -1  712.10   13.27
  -3  -7   0  910.45   15.92
  -3  -7   0  933.97   17.97
  -3  -7   0  927.64   15.38
  -3  -7   1  440.52   12.77
  -3  -7   1  429.51   10.13
  -3  -7   1  427.98   10.70
  -3  -7   2    6.53    5.61
  -3  -7   2    3.21    4.56
  -3  -7   2    9.57    6.23
  -3  -7   2    0.54    6.92
  -3  -7   3  171.57    6.59
  -3  -7   3  191.41    7.97
  -3  -7   3  206.31    8.67
  -3  -7   3  197.48    9.39
  -3  -7   4  537.49   12.96
  -3  -7   4  494.04   11.29
  -3  -7   5  223.29    9.10
  -3  -7   5  206.76    8.26
  -3  -7   5  199.49    7.67
  -3  -7   6   39.96    5.54
  -3  -7   6   37.22    5.64
  -3  -7   7  394.96    9.34
  -3  -7   8  189.81    6.87
  -3  -7   9  212.66    7.12
  -3  -7   9  182.33    6.33
  -3  -7  10  340.14    7.69
  -3  -7  10  293.27    6.94
  -3  -7  11  177.12    5.15
  -3  -7  11  153.40    4.70
  -3  -6  -9    3.74    4.02
  -3  -6  -9    3.19    4.16
  -3  -6  -8  507.12   10.57
  -3  -6  -8  514.67   10.73
  -3  -6  -8  499.60   10.40
  -3  -6  -7  722.82   13.26
  -3  -6  -7  759.23   13.47
  -3  -6  -6   78.88    6.15
  -3  -6  -6   77.24    4.85
  -3  -6  -6   81.85    6.45
  -3  -6  -5   88.28    4.96
  -3  -6  -5   81.52    6.29
  -3  -6  -5   92.35    6.66
  -3  -6  -4  897.56   13.96
  -3  -6  -4  948.95   16.02
  -3  -6  -4  940.52   15.88
  -3  -6  -3  870.80   15.23
  -3  -6  -3  851.59   15.19
  -3  -6  -2   37.74    4.59
  -3  -6  -2   50.51    6.64
  -3  -6  -2   35.42    6.28
  -3  -6  -1 2163.07   27.53
  -3  -6  -1 2155.90   27.57
  -3  -6   0  495.12   11.70
  -3  -6   0  475.06   10.40
  -3  -6   1    5.72    6.52
  -3  -6   1   10.05    4.76
  -3  -6   1    7.54    5.62
  -3  -6   1   14.59    4.28
  -3  -6   2 2016.31   28.20
  -3  -6   2 1991.33   25.97
  -3  -6   2 1992.00   24.40
  -3  -6   3  327.17   10.30
  -3  -6   3  313.78   10.92
  -3  -6   3  305.08    7.86
  -3  -6   3  320.87    8.57
  -3  -6   3  318.94    9.50
  -3  -6   4  256.97    7.56
  -3  -6   4  267.31   10.07
  -3  -6   4  263.84    7.33
  -3  -6   4  287.83    9.78
  -3  -6   4  266.56    8.87
  -3  -6   5    2.84    3.73
  -3  -6   5    8.29    4.09
  -3  -6   5   10.55    6.64
  -3  -6   5    7.31    5.78
  -3  -6   6  217.56    9.45
  -3  -6   6  215.90    8.86
  -3  -6   6  211.21    8.00
  -3  -6   7  330.48    9.86
  -3  -6   7  333.34    9.92
  -3  -6   8   11.89    5.08
  -3  -6   8   11.75    4.83
  -3  -6   8    8.17    5.60
  -3  -6   9  117.66    6.85
  -3  -6   9  111.60    6.23
  -3  -6  10  415.81   10.72
  -3  -6  10  392.28    9.35
  -3  -6  10  410.16    9.96
  -3  -6  11   30.49    5.64
  -3  -6  11   29.01    4.99
  -3  -6  11   31.88    5.06
  -3  -6  12   41.97    5.16
  -3  -6  12   48.39    5.48
  -3  -6  12   56.12    4.92
  -3  -6  13  272.58    7.01
  -3  -6  13  242.50    6.52
  -3  -6  14    7.60    2.88
  -3  -5  -9   25.98    3.92
  -3  -5  -8  717.85   11.78
  -3  -5  -7  303.69    6.95
  -3  -5  -7  323.97    8.00
  -3  -5  -6  768.42   12.45
  -3  -5  -6  735.11   11.33
  -3  -5  -5  642.36   11.44
  -3  -5  -5  646.61   10.36
  -3  -5  -4 1866.98   22.73
  -3  -5  -4 1803.52   21.25
  -3  -5  -3  229.27    6.14
  -3  -5  -3  245.88    7.54
  -3  -5  -2  411.86    8.02
  -3  -5  -2  419.68    9.15
  -3  -5  -2  404.41    9.33
  -3  -5  -1   80.92    5.61
  -3  -5  -1   70.99    4.26
  -3  -5  -1   90.53    5.69
  -3  -5   0  107.83    5.99
  -3  -5   0  104.20    5.85
  -3  -5   0  100.32    5.16
  -3  -5   1 1635.78   20.34
  -3  -5   1 1666.51   19.72
  -3  -5   1 1597.57   21.27
  -3  -5   2 2594.12   28.13
  -3  -5   2 2615.17   29.00
  -3  -5   3  119.78    6.91
  -3  -5   3  120.54    5.31
  -3  -5   3  115.71    5.80
  -3  -5   3  115.09    4.77
  -3  -5   4   60.41    5.78
  -3  -5   4   55.33    5.03
  -3  -5   4   55.33    4.66
  -3  -5   4   50.01    4.10
  -3  -5   4   50.25    6.04
  -3  -5   5  987.09   16.58
  -3  -5   5  961.96   13.31
  -3  -5   5  954.42   13.76
  -3  -5   5  938.87   14.87
  -3  -5   6   86.04    6.84
  -3  -5   6   84.84    4.39
  -3  -5   6   72.05    6.37
  -3  -5   6   80.15    4.68
  -3  -5   6   95.79    6.27
  -3  -5   7   24.74    6.07
  -3  -5   7   16.73    5.89
  -3  -5   7    2.80    5.01
  -3  -5   7   10.60    5.88
  -3  -5   8  248.84    8.38
  -3  -5   8  235.60    8.85
  -3  -5   8  250.08    8.71
  -3  -5   9   14.23    5.28
  -3  -5   9   12.69    5.66
  -3  -5   9    9.90    6.49
  -3  -5  10  279.84    9.82
  -3  -5  10  295.98    9.45
  -3  -5  11  184.42    8.98
  -3  -5  11  210.99    8.53
  -3  -5  11  207.35    9.07
  -3  -5  12 1752.82   24.15
  -3  -5  12 1740.74   23.10
  -3  -5  12 1763.10   23.52
  -3  -5  13  173.19    7.54
  -3  -5  13  151.52    7.75
  -3  -5  13  168.85    8.02
  -3  -5  14  166.62    7.04
  -3  -5  14  162.55    6.75
  -3  -5  15  887.35   11.94
  -3  -5  15  924.24   13.14
  -3  -4 -13 1399.92   18.10
  -3  -4 -10   42.19    4.61
  -3  -4  -8 1553.75   18.62
  -3  -4  -7  298.33    6.61
  -3  -4  -7  286.44    6.00
  -3  -4  -6 1157.90   14.12
  -3  -4  -6 1176.02   14.81
  -3  -4  -4  539.51    8.81
  -3  -4  -4  516.84    8.21
  -3  -4  -3  674.33   10.29
  -3  -4  -3  659.83   10.41
  -3  -4  -1  572.81    9.13
  -3  -4  -1  549.00    8.46
  -3  -4  -1  558.05    9.46
  -3  -4  -1  557.16    9.39
  -3  -4   0  110.25    4.86
  -3  -4   0  133.94    4.93
  -3  -4   1 1205.41   15.99
  -3  -4   1 1243.42   15.34
  -3  -4   2 1322.91   15.75
  -3  -4   2 1330.23   17.34
  -3  -4   2 1366.22   16.44
  -3  -4   3  410.59    8.64
  -3  -4   3  396.85    7.04
  -3  -4   3  390.95    8.66
  -3  -4   3  395.88    7.50
  -3  -4   4 1798.68   19.77
  -3  -4   4 1787.24   20.48
  -3  -4   5 3599.37   39.34
  -3  -4   5 3553.63   36.99
  -3  -4   5 3674.61   36.40
  -3  -4   5 3662.33   37.10
  -3  -4   6  185.91    7.34
  -3  -4   6  185.33    4.91
  -3  -4   6  186.70    5.48
  -3  -4   6  178.60    6.99
  -3  -4   7 1031.89   16.71
  -3  -4   7 1044.88   16.48
  -3  -4   7 1047.40   13.08
  -3  -4   7 1010.73   16.15
  -3  -4   7 1055.38   15.31
  -3  -4   8  309.63    8.83
  -3  -4   8  307.68    8.61
  -3  -4   9  410.31   10.01
  -3  -4   9  390.06   11.13
  -3  -4   9  414.26   10.08
  -3  -4   9  404.65   10.22
  -3  -4  10  854.83   14.76
  -3  -4  10  905.12   16.35
  -3  -4  10  890.86   15.38
  -3  -4  10  889.92   15.30
  -3  -4  11  550.67   12.49
  -3  -4  11  555.04   10.90
  -3  -4  11  588.39   13.50
  -3  -4  12  752.34   15.50
  -3  -4  12  751.85   12.96
  -3  -4  12  786.60   14.72
  -3  -4  12  801.74   15.70
  -3  -4  12  789.60   14.21
  -3  -4  13  120.60    7.55
  -3  -4  13  124.64    8.23
  -3  -4  13  126.04    7.17
  -3  -4  13  131.00    8.63
  -3  -4  14  329.68   10.60
  -3  -4  14  350.79   10.02
  -3  -4  14  354.74   10.36
  -3  -4  15   88.21    5.88
  -3  -4  15   99.42    6.90
  -3  -4  15   90.11    6.32
  -3  -4  16  421.03    8.07
  -3  -4  17  476.46    7.76
  -3  -4  17  418.16    6.75
  -3  -3 -18   29.59    3.77
  -3  -3 -17   70.93    4.96
  -3  -3 -16  609.84   10.78
  -3  -3 -16  603.30   10.78
  -3  -3 -15  572.96   11.05
  -3  -3 -14  634.25   11.89
  -3  -3 -13  618.55   11.71
  -3  -3 -13  555.90   10.58
  -3  -3 -12  102.78    5.83
  -3  -3 -11 1901.98   22.73
  -3  -3 -11 1993.25   23.50
  -3  -3 -10  798.22   12.14
  -3  -3 -10  838.30   12.89
  -3  -3  -8  113.34    3.95
  -3  -3  -7  110.69    3.86
  -3  -3  -7  108.23    3.55
  -3  -3  -6 2842.53   28.57
  -3  -3  -6 2859.01   29.16
  -3  -3  -5 2117.01   21.85
  -3  -3  -5 2139.52   22.47
  -3  -3  -4 4267.21   41.04
  -3  -3  -4 4379.71   41.59
  -3  -3  -2  123.98    3.85
  -3  -3  -2  129.47    3.88
  -3  -3  -2  128.65    3.67
  -3  -3  -2  119.24    3.92
  -3  -3  -1 3222.52   32.30
  -3  -3   0   20.29    2.34
  -3  -3   0   20.69    2.87
  -3  -3   0   19.99    2.58
  -3  -3   1 1573.94   17.62
  -3  -3   1 1477.93   15.16
  -3  -3   2 2250.42   24.45
  -3  -3   2 2142.99   21.99
  -3  -3   3 4791.24   45.09
  -3  -3   5 1626.32   18.52
  -3  -3   5 1604.47   17.70
  -3  -3   5 1634.06   18.76
  -3  -3   6  299.44    5.61
  -3  -3   6  279.28    6.50
  -3  -3   6  281.87    6.27
  -3  -3   7 9669.26   92.93
  -3  -3   8  219.57    7.58
  -3  -3   8  227.96    6.99
  -3  -3   8  238.32    7.24
  -3  -3   8  235.43    7.80
  -3  -3   9  258.35    8.88
  -3  -3   9  268.51    8.58
  -3  -3   9  255.11    9.07
  -3  -3   9  270.32    8.04
  -3  -3  10   90.87    6.21
  -3  -3  10   92.01    7.30
  -3  -3  10   87.01    5.93
  -3  -3  10   90.54    6.23
  -3  -3  10   83.65    6.14
  -3  -3  10   75.59    7.25
  -3  -3  11  216.89    7.37
  -3  -3  11  212.43    8.21
  -3  -3  11  209.71    8.43
  -3  -3  11  213.83    8.13
  -3  -3  12   71.72    6.63
  -3  -3  12   68.50    6.47
  -3  -3  12   66.57    6.94
  -3  -3  13   79.00    6.64
  -3  -3  13   81.29    7.50
  -3  -3  14  256.34    8.91
  -3  -3  14  283.61    9.96
  -3  -3  14  262.57    9.93
  -3  -3  14  254.06    8.98
  -3  -3  15  305.69    8.92
  -3  -3  15  300.66    9.73
  -3  -3  15  317.15    9.52
  -3  -3  16 1174.76   16.77
  -3  -3  16 1333.81   17.33
  -3  -3  17   82.32    5.17
  -3  -3  17   76.05    4.77
  -3  -3  18   58.79    3.69
  -3  -3  18   54.65    3.14
  -3  -3  18   50.75    2.96
  -3  -2 -19    6.99    3.24
  -3  -2 -18   59.54    4.73
  -3  -2 -17  569.52   10.39
  -3  -2 -16  579.73   11.38
  -3  -2 -16  589.97   11.33
  -3  -2 -15  142.80    6.56
  -3  -2 -15  142.15    7.37
  -3  -2 -14 1214.20   17.33
  -3  -2 -14 1124.32   16.04
  -3  -2 -13  307.54    8.32
  -3  -2 -13  343.74    9.53
  -3  -2 -12  152.62    6.53
  -3  -2 -12  146.04    5.85
  -3  -2 -12  147.37    6.61
  -3  -2 -11 1008.25   14.81
  -3  -2 -11  984.91   14.19
  -3  -2 -10  569.96   10.03
  -3  -2 -10  596.84   10.62
  -3  -2  -9 1140.99   14.99
  -3  -2  -9 1087.27   13.99
  -3  -2  -8 1590.53   18.55
  -3  -2  -8 1545.00   17.67
  -3  -2  -7  160.36    3.91
  -3  -2  -7  161.80    4.39
  -3  -2  -6  579.82    8.51
  -3  -2  -6  582.48    8.12
  -3  -2  -5 1934.73   20.18
  -3  -2  -5 1968.23   20.48
  -3  -2  -4 2815.90   27.88
  -3  -2  -4 2727.78   27.78
  -3  -2  -3 2293.54   23.36
  -3  -2  -3 2301.83   23.72
  -3  -2  -3 2353.86   23.84
  -3  -2  -2   86.36    3.06
  -3  -2  -2   90.44    3.20
  -3  -2  -2   80.17    3.16
  -3  -2  -2   90.21    2.93
  -3  -2  -2   92.72    3.07
  -3  -2   1  959.52   11.57
  -3  -2   2 4285.02   41.20
  -3  -2   3 2911.31   29.51
  -3  -2   4 4675.56   45.37
  -3  -2   5   49.88    2.59
  -3  -2   5   48.20    3.44
  -3  -2   5   50.08    3.29
  -3  -2   7  682.25   11.32
  -3  -2   7  691.18   10.75
  -3  -2   7  670.07   10.17
  -3  -2   7  691.78   11.03
  -3  -2   7  682.99    9.10
  -3  -2   8 2726.30   28.74
  -3  -2   8 2719.34   31.29
  -3  -2   8 2713.61   30.39
  -3  -2   8 2778.88   29.92
  -3  -2   8 2678.90   30.89
  -3  -2   9  472.88   10.88
  -3  -2   9  492.42   10.95
  -3  -2   9  505.09    9.94
  -3  -2   9  491.46   10.64
  -3  -2   9  478.82   10.22
  -3  -2   9  497.94   10.08
  -3  -2  10 1210.49   17.92
  -3  -2  10 1248.78   17.65
  -3  -2  10 1256.17   18.02
  -3  -2  10 1204.83   18.00
  -3  -2  10 1210.40   18.91
  -3  -2  11  430.46   12.11
  -3  -2  11  437.25   11.11
  -3  -2  11  440.28   10.89
  -3  -2  11  449.99   10.51
  -3  -2  11  404.86   10.60
  -3  -2  12  902.86   16.59
  -3  -2  12  928.05   16.39
  -3  -2  12  967.54   16.28
  -3  -2  12  928.59   17.93
  -3  -2  12  910.61   16.06
  -3  -2  13 2379.20   29.42
  -3  -2  13 2373.11   30.63
  -3  -2  13 2409.40   30.18
  -3  -2  13 2462.85   29.69
  -3  -2  14  262.28    9.13
  -3  -2  14  281.20    9.60
  -3  -2  14  260.47   10.09
  -3  -2  14  259.21    9.70
  -3  -2  15    4.45    5.95
  -3  -2  15    7.58    6.36
  -3  -2  16   47.07    6.21
  -3  -2  16   49.17    6.03
  -3  -2  16   47.15    6.23
  -3  -2  17  210.74    7.05
  -3  -2  17  193.28    6.29
  -3  -2  17  192.52    6.83
  -3  -2  18   92.12    4.77
  -3  -2  18   89.05    4.37
  -3  -2  18   84.43    3.82
  -3  -2  18   87.14    4.28
  -3  -1 -19   75.20    4.08
  -3  -1 -18  335.16    7.50
  -3  -1 -17  303.21    8.16
  -3  -1 -16  213.11    8.23
  -3  -1 -16  197.33    7.11
  -3  -1 -16  201.70    7.52
  -3  -1 -15  258.32    9.18
  -3  -1 -15  256.23    8.18
  -3  -1 -15  251.54    8.37
  -3  -1 -14  413.49   10.25
  -3  -1 -14  399.85    9.56
  -3  -1 -14  419.26   10.24
  -3  -1 -13  187.00    7.54
  -3  -1 -13  185.81    7.70
  -3  -1 -12   57.18    6.03
  -3  -1 -12   57.76    5.44
  -3  -1 -11 1386.81   18.59
  -3  -1 -11 1398.28   18.76
  -3  -1 -10  242.19    6.87
  -3  -1 -10  235.82    7.26
  -3  -1 -10  256.01    7.50
  -3  -1  -9 4149.63   43.04
  -3  -1  -9 4364.83   43.50
  -3  -1  -8 4102.88   41.35
  -3  -1  -8 4129.48   41.72
  -3  -1  -7  771.72   10.03
  -3  -1  -7  782.82   10.03
  -3  -1  -7  814.86   11.50
  -3  -1  -7  795.82   11.23
  -3  -1  -7  780.70   10.24
  -3  -1  -6  215.83    4.74
  -3  -1  -6  208.53    5.22
  -3  -1  -6  209.28    4.72
  -3  -1  -6  207.80    5.03
  -3  -1  -6  215.52    4.75
  -3  -1  -5 3480.73   34.19
  -3  -1  -5 3403.53   33.71
  -3  -1  -5 3426.72   34.04
  -3  -1  -4 2734.41   27.32
  -3  -1  -4 2743.14   27.60
  -3  -1  -3 3965.67   38.46
  -3  -1  -2 5303.70   49.86
  -3  -1  -1 2230.95   22.94
  -3  -1  -1 2289.55   23.52
  -3  -1   0 2646.63   26.24
  -3  -1   1  187.46    3.84
  -3  -1   3  302.24    5.43
  -3  -1   3  314.93    5.50
  -3  -1   3  309.60    5.02
  -3  -1   3  318.10    5.09
  -3  -1   5  933.85   12.31
  -3  -1   5  931.88   11.57
  -3  -1   5  944.60   12.22
  -3  -1   5  965.37   11.91
  -3  -1   6 4197.05   40.73
  -3  -1   6 4299.38   42.20
  -3  -1   6 4164.36   40.66
  -3  -1   6 4128.67   40.99
  -3  -1   6 4204.69   41.80
  -3  -1   6 4331.20   41.85
  -3  -1   7   39.04    2.97
  -3  -1   7   35.49    3.88
  -3  -1   7   38.22    2.90
  -3  -1   7   36.58    3.67
  -3  -1   7   36.27    3.01
  -3  -1   7   28.71    3.95
  -3  -1   8 1425.75   19.21
  -3  -1   8 1412.15   17.25
  -3  -1   8 1431.43   18.23
  -3  -1   8 1379.49   17.02
  -3  -1   8 1372.45   18.41
  -3  -1   9 8240.47   83.19
  -3  -1   9 8625.40   80.12
  -3  -1  10 1235.64   17.65
  -3  -1  10 1291.46   17.79
  -3  -1  10 1272.47   18.55
  -3  -1  10 1241.54   18.70
  -3  -1  11 1980.47   24.91
  -3  -1  11 1942.09   25.52
  -3  -1  11 1911.90   25.85
  -3  -1  11 1972.94   24.44
  -3  -1  12 5659.35   57.16
  -3  -1  12 5531.96   57.82
  -3  -1  13   67.92    6.98
  -3  -1  13   58.13    7.40
  -3  -1  14  347.56   10.73
  -3  -1  14  361.89   10.78
  -3  -1  14  362.10    9.85
  -3  -1  15  985.42   15.65
  -3  -1  15  955.03   16.41
  -3  -1  15 1016.01   16.98
  -3  -1  15 1041.97   14.90
  -3  -1  16  563.93   11.93
  -3  -1  16  604.30   12.22
  -3  -1  16  584.62   10.78
  -3  -1  17    0.36    5.44
  -3  -1  17    2.06    4.83
  -3  -1  17    2.93    4.30
  -3  -1  17   -3.82    4.81
  -3  -1  18  278.59    5.49
  -3  -1  18  316.02    6.43
  -3   0 -19  169.19    3.88
  -3   0 -18   39.93    4.25
  -3   0 -17   25.03    5.07
  -3   0 -17   27.94    4.31
  -3   0 -16  360.37    8.72
  -3   0 -16  351.07    8.63
  -3   0 -16  374.29    9.31
  -3   0 -15 1245.97   17.60
  -3   0 -15 1277.66   17.73
  -3   0 -14   28.88    6.13
  -3   0 -14   25.33    6.56
  -3   0 -13  489.93   11.40
  -3   0 -13  478.38   10.78
  -3   0 -12 2917.47   32.86
  -3   0 -12 2959.96   32.45
  -3   0 -11  765.13   12.99
  -3   0 -11  784.89   13.44
  -3   0 -11  797.79   13.11
  -3   0 -10   31.01    5.26
  -3   0 -10   30.13    5.57
  -3   0  -9 3213.79   34.19
  -3   0  -9 3219.09   34.40
  -3   0  -9 3144.01   34.17
  -3   0  -8 6234.05   60.59
  -3   0  -8 6409.40   61.47
  -3   0  -7  650.71   10.31
  -3   0  -7  629.16    9.89
  -3   0  -7  660.95   10.35
  -3   0  -6 1495.67   16.87
  -3   0  -6 1483.57   16.80
  -3   0  -6 1468.36   17.43
  -3   0  -4  156.82    4.31
  -3   0  -4  154.58    3.88
  -3   0  -4  155.60    4.34
  -3   0  -4  155.18    4.28
  -3   0  -2  582.16    8.35
  -3   0  -2  578.90    8.12
  -3   0  -2  568.94    8.08
  -3   0  -2  567.18    8.37
  -3   0  -2  591.20    8.58
  -3   0  -2  575.82    7.68
  -3   0  -1 1210.75   14.21
  -3   0  -1 1251.56   14.17
  -3   0  -1 1205.67   14.27
  -3   0  -1 1247.39   13.82
  -3   0  -1 1242.63   14.52
  -3   0   0  116.03    3.74
  -3   0   0  117.22    3.73
  -3   0   0  119.16    3.89
  -3   0   0  120.08    3.82
  -3   0   1 2504.18   25.80
  -3   0   1 2485.61   24.48
  -3   0   2 1076.86   12.76
  -3   0   2 1094.51   12.99
  -3   0   2 1067.54   12.81
  -3   0   3  932.53   11.70
  -3   0   3  940.40   12.02
  -3   0   3  929.69   11.77
  -3   0   4  205.21    4.97
  -3   0   4  210.55    5.05
  -3   0   5 3070.43   30.99
  -3   0   5 3034.34   31.92
  -3   0   5 3121.27   31.89
  -3   0   5 3054.19   31.06
  -3   0   6  132.51    5.00
  -3   0   6  127.56    5.20
  -3   0   7 1823.66   21.47
  -3   0   7 1837.64   21.44
  -3   0   7 1852.33   20.00
  -3   0   8 1493.21   18.83
  -3   0   8 1588.14   19.07
  -3   0   9  655.76   12.27
  -3   0   9  652.22   11.49
  -3   0   9  685.22   11.06
  -3   0   9  651.28   10.78
  -3   0  10  328.84    8.98
  -3   0  10  321.38    7.42
  -3   0  10  319.57    9.69
  -3   0  10  322.20    8.74
  -3   0  11  994.50   16.97
  -3   0  11 1024.61   15.47
  -3   0  11 1001.33   16.34
  -3   0  12  645.44   13.61
  -3   0  12  639.09   12.70
  -3   0  12  612.15   13.24
  -3   0  12  594.08   11.84
  -3   0  13  980.69   17.10
  -3   0  13  943.33   16.61
  -3   0  13 1013.36   15.78
  -3   0  13  924.14   15.26
  -3   0  14 1084.03   16.48
  -3   0  14 1089.59   18.28
  -3   0  14 1020.28   17.51
  -3   0  14 1002.42   15.82
  -3   0  15  628.61   13.02
  -3   0  15  649.73   13.78
  -3   0  15  661.00   12.97
  -3   0  15  658.81   11.89
  -3   0  16   96.08    7.14
  -3   0  16   97.13    5.67
  -3   0  16   86.55    5.47
  -3   0  16   99.25    5.69
  -3   0  16   95.84    6.66
  -3   0  17  112.64    6.39
  -3   0  17  114.51    4.74
  -3   0  17  122.61    5.71
  -3   0  18  450.02    7.12
  -3   1 -17  142.08    5.04
  -3   1 -17  152.76    5.14
  -3   1 -17  141.03    5.23
  -3   1 -16  742.05   11.72
  -3   1 -16  752.47   11.41
  -3   1 -16  763.21   11.75
  -3   1 -15  678.52   11.32
  -3   1 -15  694.65   12.07
  -3   1 -15  715.53   12.36
  -3   1 -14 1050.59   15.13
  -3   1 -14 1074.14   16.21
  -3   1 -14 1090.29   15.89
  -3   1 -13  101.73    6.41
  -3   1 -13   91.03    6.61
  -3   1 -13   93.14    7.55
  -3   1 -13  103.31    7.30
  -3   1 -12  331.53    9.37
  -3   1 -12  327.50    9.58
  -3   1 -12  348.52   10.08
  -3   1 -12  362.16    9.00
  -3   1 -11 1265.81   18.40
  -3   1 -11 1279.34   17.73
  -3   1 -11 1293.93   17.30
  -3   1 -10   50.84    6.65
  -3   1 -10   44.53    6.28
  -3   1 -10   52.76    5.46
  -3   1  -9  431.15    9.89
  -3   1  -9  420.20    9.83
  -3   1  -9  443.49    8.84
  -3   1  -8   31.45    5.05
  -3   1  -8   39.17    4.77
  -3   1  -8   35.28    5.31
  -3   1  -7  650.35    9.70
  -3   1  -7  669.67   10.94
  -3   1  -6 5019.07   49.39
  -3   1  -6 5121.30   50.66
  -3   1  -6 5056.46   50.31
  -3   1  -5  232.30    6.33
  -3   1  -5  226.67    5.63
  -3   1  -5  235.09    6.06
  -3   1  -4  464.57    8.10
  -3   1  -4  465.79    7.22
  -3   1  -4  469.17    8.40
  -3   1  -4  479.06    8.08
  -3   1  -3 4909.45   47.68
  -3   1  -3 4890.32   47.89
  -3   1  -3 4955.22   48.15
  -3   1  -3 4931.19   47.30
  -3   1  -3 4964.05   47.57
  -3   1  -2   22.36    2.98
  -3   1  -2   30.57    3.38
  -3   1  -2   20.12    2.78
  -3   1  -2   24.22    3.26
  -3   1  -1  826.84   11.20
  -3   1  -1  807.64   10.23
  -3   1   0 1677.63   19.15
  -3   1   0 1682.28   18.99
  -3   1   1 1254.32   15.46
  -3   1   1 1290.82   15.71
  -3   1   2  964.72   13.10
  -3   1   2  985.46   12.71
  -3   1   2  972.04   13.01
  -3   1   3 1060.61   14.13
  -3   1   3 1084.95   13.63
  -3   1   4   19.02    4.05
  -3   1   4   28.62    3.41
  -3   1   5  610.44   10.18
  -3   1   5  602.03    9.46
  -3   1   5  604.69   10.49
  -3   1   6 3010.59   32.08
  -3   1   6 2939.73   32.11
  -3   1   6 2967.23   30.76
  -3   1   7 1395.31   16.68
  -3   1   7 1366.71   18.12
  -3   1   8 3292.50   37.46
  -3   1   8 3342.17   36.45
  -3   1   8 3284.04   36.57
  -3   1   9  199.20    6.99
  -3   1   9  184.09    8.12
  -3   1   9  202.65    7.40
  -3   1   9  178.59    7.26
  -3   1  10  991.05   15.79
  -3   1  10  999.38   17.05
  -3   1  10 1015.52   14.98
  -3   1  10  995.09   16.17
  -3   1  10  984.09   16.01
  -3   1  11 2096.69   27.22
  -3   1  11 2011.64   25.99
  -3   1  11 2084.85   25.67
  -3   1  11 2032.64   26.13
  -3   1  12  235.56    9.78
  -3   1  12  242.98    8.17
  -3   1  12  227.60    9.28
  -3   1  12  227.68    8.71
  -3   1  13  554.95   13.47
  -3   1  13  562.41   11.25
  -3   1  13  547.02   12.53
  -3   1  13  533.22   11.92
  -3   1  14  130.88    7.29
  -3   1  14  133.00    6.69
  -3   1  14  131.70    7.57
  -3   1  14  127.20    8.73
  -3   1  14  149.63    8.45
  -3   1  15  210.98    8.80
  -3   1  15  210.67    6.70
  -3   1  15  202.19    7.53
  -3   1  15  219.11    7.80
  -3   1  16  173.72    6.50
  -3   1  16  161.18    7.42
  -3   1  16  165.83    5.05
  -3   1  16  179.95    6.57
  -3   1  16  162.93    6.22
  -3   1  17  489.66    8.23
  -3   1  17  540.84    8.39
  -3   1  18   23.94    3.21
  -3   2 -16  191.44    5.54
  -3   2 -15  218.44    5.59
  -3   2 -15  208.87    6.04
  -3   2 -15  222.63    6.83
  -3   2 -14  100.34    6.74
  -3   2 -14   99.72    5.70
  -3   2 -14  105.03    5.24
  -3   2 -14   94.82    5.53
  -3   2 -13 1548.99   19.70
  -3   2 -13 1615.37   20.62
  -3   2 -13 1592.90   19.32
  -3   2 -13 1552.43   18.59
  -3   2 -12   42.49    5.78
  -3   2 -12   42.78    5.80
  -3   2 -12   48.99    6.25
  -3   2 -11   44.38    5.79
  -3   2 -11   47.52    6.80
  -3   2 -11   43.82    6.24
  -3   2 -10  108.88    7.63
  -3   2 -10  103.69    6.24
  -3   2 -10  111.01    7.48
  -3   2 -10  101.01    7.07
  -3   2  -9  146.47    7.38
  -3   2  -9  148.43    7.38
  -3   2  -9  137.15    6.15
  -3   2  -9  150.40    7.71
  -3   2  -8 1020.85   15.88
  -3   2  -8  970.91   14.69
  -3   2  -8  986.50   15.24
  -3   2  -8  963.02   13.44
  -3   2  -8 1023.32   15.55
  -3   2  -7  564.80   11.20
  -3   2  -7  540.48   10.59
  -3   2  -7  576.92   10.87
  -3   2  -7  558.52   11.38
  -3   2  -7  523.79    8.95
  -3   2  -6 2319.73   25.57
  -3   2  -6 2274.53   27.03
  -3   2  -6 2230.06   25.90
  -3   2  -5  460.36    8.92
  -3   2  -5  438.54    9.42
  -3   2  -5  448.38    8.54
  -3   2  -5  434.99    9.86
  -3   2  -4 2873.43   31.40
  -3   2  -4 2844.48   30.66
  -3   2  -4 2772.84   30.16
  -3   2  -4 2804.05   29.61
  -3   2  -4 2822.47   30.82
  -3   2  -3 1537.90   18.56
  -3   2  -3 1666.79   19.45
  -3   2  -3 1666.96   19.59
  -3   2  -3 1595.69   18.40
  -3   2  -3 1587.09   19.73
  -3   2  -2  114.45    5.23
  -3   2  -2  111.84    5.04
  -3   2  -2  105.17    4.74
  -3   2  -2  106.78    5.45
  -3   2  -1 2925.31   31.14
  -3   2  -1 2939.52   31.44
  -3   2   0 2087.40   23.77
  -3   2   0 2142.33   24.07
  -3   2   0 2132.98   23.90
  -3   2   1  291.60    7.13
  -3   2   1  290.96    7.20
  -3   2   2 3241.12   33.80
  -3   2   2 3222.51   33.85
  -3   2   2 3232.88   34.13
  -3   2   3 1948.75   22.90
  -3   2   3 1959.99   22.54
  -3   2   4   72.02    4.77
  -3   2   4   59.15    5.33
  -3   2   4   63.49    5.12
  -3   2   5  568.58   11.23
  -3   2   5  577.39   10.03
  -3   2   5  557.66   10.81
  -3   2   5  576.17   10.64
  -3   2   6 2601.05   30.29
  -3   2   6 2638.96   29.86
  -3   2   6 2611.47   29.53
  -3   2   6 2594.50   28.76
  -3   2   6 2646.89   28.46
  -3   2   6 2566.73   29.88
  -3   2   6 2589.25   30.37
  -3   2   7 1441.63   19.18
  -3   2   7 1422.57   20.46
  -3   2   7 1463.46   18.46
  -3   2   7 1447.98   20.34
  -3   2   7 1469.64   18.25
  -3   2   7 1497.45   18.65
  -3   2   7 1522.64   19.95
  -3   2   7 1422.08   20.33
  -3   2   8  375.69   10.58
  -3   2   8  360.15   10.38
  -3   2   8  374.15    9.39
  -3   2   8  389.46   10.47
  -3   2   8  402.02    9.74
  -3   2   9  453.45   11.71
  -3   2   9  469.27   10.25
  -3   2   9  455.73   10.09
  -3   2   9  444.14   11.22
  -3   2   9  454.13   11.35
  -3   2  10 1228.24   17.37
  -3   2  10 1166.78   19.23
  -3   2  10 1186.20   17.18
  -3   2  10 1175.74   18.26
  -3   2  10 1204.57   18.93
  -3   2  11  479.10   12.37
  -3   2  11  482.83   10.48
  -3   2  11  471.25   11.52
  -3   2  11  472.59   11.98
  -3   2  12  288.29   10.31
  -3   2  12  263.99    7.78
  -3   2  12  258.74   10.09
  -3   2  12  266.93    9.54
  -3   2  12  267.24    9.22
  -3   2  13  220.98    9.28
  -3   2  13  215.63    6.83
  -3   2  13  243.28    9.48
  -3   2  13  234.02    8.54
  -3   2  13  226.01    8.71
  -3   2  14   14.80    6.58
  -3   2  14   19.98    4.09
  -3   2  14    8.66    6.37
  -3   2  14   18.65    5.85
  -3   2  14   24.84    5.21
  -3   2  14   14.98    6.49
  -3   2  15  292.73    8.35
  -3   2  15  305.49    8.18
  -3   2  15  291.83    7.84
  -3   2  16  407.46    8.48
  -3   2  16  447.38    8.02
  -3   2  17  445.20    7.39
  -3   3 -15  422.65    6.34
  -3   3 -14  819.46   10.60
  -3   3 -13   34.87    4.78
  -3   3 -13   31.43    4.29
  -3   3 -12  110.23    6.28
  -3   3 -12  100.90    5.80
  -3   3 -12  114.40    6.49
  -3   3 -11  129.39    6.92
  -3   3 -11  123.71    6.95
  -3   3 -11  113.67    6.97
  -3   3 -10  193.09    7.98
  -3   3 -10  182.08    7.74
  -3   3 -10  185.11    8.23
  -3   3  -9   64.41    7.09
  -3   3  -9   59.73    6.72
  -3   3  -9   53.13    6.79
  -3   3  -8  142.63    7.69
  -3   3  -8  133.17    8.11
  -3   3  -8  131.11    7.03
  -3   3  -8  112.88    6.75
  -3   3  -7  107.57    6.67
  -3   3  -7   98.72    6.73
  -3   3  -7  118.17    7.66
  -3   3  -7   99.46    7.55
  -3   3  -6  138.61    7.86
  -3   3  -6  143.30    6.61
  -3   3  -6  149.50    6.52
  -3   3  -6  149.92    6.75
  -3   3  -6  133.59    7.18
  -3   3  -5  236.89    8.37
  -3   3  -5  215.93    8.71
  -3   3  -5  215.94    6.96
  -3   3  -5  218.14    7.04
  -3   3  -5  210.31    7.54
  -3   3  -5  216.64    8.07
  -3   3  -4 1680.00   20.28
  -3   3  -4 1719.65   21.69
  -3   3  -4 1715.08   22.91
  -3   3  -4 1678.48   21.35
  -3   3  -3  108.94    6.03
  -3   3  -3  116.33    6.47
  -3   3  -3  118.78    7.30
  -3   3  -3  116.69    6.64
  -3   3  -2  241.14    7.54
  -3   3  -2  200.04    7.34
  -3   3  -2  209.77    6.46
  -3   3  -2  199.64    6.99
  -3   3  -2  224.10    8.08
  -3   3  -2  221.75    7.77
  -3   3  -1 2975.57   33.56
  -3   3  -1 2940.81   32.70
  -3   3  -1 2989.22   33.27
  -3   3   0  296.02    8.36
  -3   3   0  324.03    7.81
  -3   3   0  300.49    8.55
  -3   3   0  296.20    7.72
  -3   3   0  304.87    8.14
  -3   3   1  630.62   10.39
  -3   3   1  606.88   11.45
  -3   3   1  610.04   11.61
  -3   3   2 3390.60   36.84
  -3   3   2 3379.47   36.70
  -3   3   2 3449.28   36.98
  -3   3   2 3461.92   37.45
  -3   3   2 3485.39   36.75
  -3   3   3  188.74    7.17
  -3   3   3  176.40    7.29
  -3   3   3  173.88    7.72
  -3   3   3  173.36    6.98
  -3   3   3  170.12    6.70
  -3   3   3  188.98    7.39
  -3   3   3  166.23    7.13
  -3   3   4   46.78    6.08
  -3   3   4   30.49    5.99
  -3   3   4   27.04    5.14
  -3   3   4   29.59    5.67
  -3   3   4   35.06    5.14
  -3   3   4   38.96    5.60
  -3   3   4   31.60    5.85
  -3   3   5  120.84    6.47
  -3   3   5  109.78    7.37
  -3   3   5  117.20    6.77
  -3   3   5  111.88    7.39
  -3   3   5  127.41    6.46
  -3   3   5  144.73    6.33
  -3   3   5  132.34    7.05
  -3   3   6  173.74    8.10
  -3   3   6  170.14    7.75
  -3   3   6  179.57    7.30
  -3   3   6  195.14    7.68
  -3   3   6  187.16    7.56
  -3   3   6  185.64    6.86
  -3   3   6  165.57    8.33
  -3   3   7   19.54    7.13
  -3   3   7   24.74    5.81
  -3   3   7   24.43    4.84
  -3   3   7   22.19    5.72
  -3   3   7   20.96    6.46
  -3   3   7   41.49    5.89
  -3   3   7   36.55    5.64
  -3   3   7   17.68    6.49
  -3   3   8  488.30   12.00
  -3   3   8  507.84   10.39
  -3   3   8  495.02   10.25
  -3   3   8  495.37   10.09
  -3   3   8  507.25   11.81
  -3   3   8  487.28   11.82
  -3   3   9 1237.29   19.06
  -3   3   9 1231.94   16.74
  -3   3   9 1217.51   19.36
  -3   3  10   68.43    7.87
  -3   3  10   64.29    7.18
  -3   3  10   74.24    7.96
  -3   3  10   76.20    5.57
  -3   3  11  642.53   13.37
  -3   3  11  658.25   13.32
  -3   3  11  641.20   10.54
  -3   3  12 1459.79   20.50
  -3   3  12 1474.67   20.37
  -3   3  12 1455.32   17.01
  -3   3  13  181.58    7.62
  -3   3  13  182.04    7.54
  -3   3  14    3.02    4.69
  -3   3  14   17.16    5.30
  -3   3  14    5.57    4.99
  -3   3  15  582.96    9.17
  -3   3  15  543.31    9.11
  -3   3  16  259.40    5.02
  -3   4 -13   71.44    3.37
  -3   4 -12  220.82    5.33
  -3   4 -11  206.76    6.24
  -3   4 -11  189.55    5.96
  -3   4 -10   71.47    5.70
  -3   4 -10   69.99    5.44
  -3   4  -9  347.65    8.64
  -3   4  -9  327.09    8.90
  -3   4  -8  261.00    8.89
  -3   4  -8  264.99    8.32
  -3   4  -7   47.90    6.94
  -3   4  -7   43.49    5.85
  -3   4  -6  111.95    7.23
  -3   4  -6  110.61    6.42
  -3   4  -6  114.82    7.68
  -3   4  -6  103.41    7.34
  -3   4  -5  711.73   12.48
  -3   4  -5  716.21   12.95
  -3   4  -5  695.64   13.19
  -3   4  -5  714.86   13.97
  -3   4  -5  705.33   12.52
  -3   4  -4  670.94   12.64
  -3   4  -4  682.17   13.77
  -3   4  -4  683.79   12.60
  -3   4  -4  713.32   12.86
  -3   4  -4  674.30   13.33
  -3   4  -3  209.02    8.44
  -3   4  -3  205.38    8.26
  -3   4  -3  198.61    7.90
  -3   4  -2  390.66    9.59
  -3   4  -2  363.33    9.92
  -3   4  -2  391.42   10.25
  -3   4  -2  391.04   10.17
  -3   4  -1 1723.77   22.62
  -3   4  -1 1750.87   22.96
  -3   4  -1 1663.13   22.31
  -3   4  -1 1691.89   21.41
  -3   4  -1 1731.74   22.56
  -3   4   0   14.01    6.47
  -3   4   0   23.27    6.25
  -3   4   0   27.07    6.95
  -3   4   0   20.83    6.40
  -3   4   0   11.83    5.60
  -3   4   1  204.76    8.74
  -3   4   1  212.07    8.43
  -3   4   1  194.47    8.31
  -3   4   1  200.20    8.42
  -3   4   2  379.02   10.43
  -3   4   2  374.12    9.77
  -3   4   3  285.54    8.92
  -3   4   3  308.07    9.22
  -3   4   3  346.56    9.91
  -3   4   3  322.49    9.67
  -3   4   3  318.59    9.82
  -3   4   4   70.56    6.63
  -3   4   4   63.68    7.16
  -3   4   4   68.72    7.47
  -3   4   4   64.46    6.08
  -3   4   4   64.74    6.87
  -3   4   5  126.70    7.76
  -3   4   5  136.94    7.37
  -3   4   5  127.57    7.80
  -3   4   5  117.38    7.48
  -3   4   5  115.48    6.85
  -3   4   5  118.36    7.53
  -3   4   5  127.02    7.31
  -3   4   6   88.24    7.20
  -3   4   6   78.70    7.30
  -3   4   6   82.95    6.03
  -3   4   6   85.29    6.99
  -3   4   6   87.77    7.34
  -3   4   6   92.99    7.36
  -3   4   6   82.99    6.71
  -3   4   7  198.83    8.49
  -3   4   7  196.11    8.30
  -3   4   7  184.25    6.95
  -3   4   7  211.06    7.52
  -3   4   7  193.64    8.56
  -3   4   7  189.26    7.95
  -3   4   8 1068.53   16.25
  -3   4   8 1039.28   16.14
  -3   4   8 1045.55   14.67
  -3   4   8 1061.85   16.35
  -3   4   9   52.77    6.82
  -3   4   9   51.81    6.80
  -3   4   9   53.69    6.27
  -3   4   9   45.90    4.61
  -3   4  10   10.60    6.10
  -3   4  10   14.30    5.85
  -3   4  10   14.40    5.54
  -3   4  11  250.42    7.74
  -3   4  11  263.41    7.39
  -3   4  11  260.29    8.00
  -3   4  12  517.32    9.49
  -3   4  12  517.47    9.22
  -3   4  12  535.31    9.74
  -3   4  13   31.46    4.10
  -3   4  13   32.28    3.78
  -3   4  13   25.21    4.07
  -3   4  14  117.50    3.54
  -3   4  14  111.51    4.03
  -3   5 -10   33.13    2.75
  -3   5 -10   37.37    2.70
  -3   5  -9  179.00    5.04
  -3   5  -9  201.99    4.72
  -3   5  -8   83.89    4.63
  -3   5  -8   84.61    3.85
  -3   5  -7   22.65    3.96
  -3   5  -7   12.40    3.89
  -3   5  -7   13.83    4.56
  -3   5  -6   13.84    4.17
  -3   5  -6   12.61    5.07
  -3   5  -6   10.47    4.45
  -3   5  -5  164.35    5.51
  -3   5  -5  165.58    5.91
  -3   5  -5  150.09    6.63
  -3   5  -4   77.91    4.64
  -3   5  -4   74.86    6.16
  -3   5  -4   82.95    5.87
  -3   5  -3  500.71   10.58
  -3   5  -3  487.60   10.70
  -3   5  -3  485.20    9.94
  -3   5  -2  409.29    9.43
  -3   5  -2  402.83    9.95
  -3   5  -2  413.52   10.17
  -3   5  -1  338.11    9.38
  -3   5  -1  325.13    9.07
  -3   5  -1  327.21    9.08
  -3   5   0    6.82    5.93
  -3   5   0   10.43    5.83
  -3   5   0   26.33    6.22
  -3   5   1  920.39   14.14
  -3   5   1  902.09   14.50
  -3   5   1  942.99   14.60
  -3   5   2   99.46    7.02
  -3   5   2  105.43    6.41
  -3   5   3  141.49    7.21
  -3   5   3  133.12    6.19
  -3   5   3  152.58    7.12
  -3   5   4  888.22   12.96
  -3   5   4  878.13   12.98
  -3   5   4  928.89   14.38
  -3   5   4  916.42   13.97
  -3   5   5 1145.45   15.42
  -3   5   5 1114.08   14.75
  -3   5   5 1202.02   16.57
  -3   5   5 1194.29   15.92
  -3   5   6  200.38    6.99
  -3   5   6  211.22    7.60
  -3   5   6  194.57    5.58
  -3   5   6  208.69    6.71
  -3   5   6  207.34    6.20
  -3   5   7  369.08    8.30
  -3   5   7  370.44    7.63
  -3   5   7  355.02    7.60
  -3   5   7  377.26    8.72
  -3   5   8   80.77    5.36
  -3   5   8   83.16    4.76
  -3   5   8   72.56    3.98
  -3   5   8   80.37    5.55
  -3   5   9   10.04    4.34
  -3   5   9    9.58    4.34
  -3   5   9    9.36    3.77
  -3   5  10  230.61    5.88
  -3   5  10  233.29    5.90
  -3   5  11  144.93    4.37
  -3   5  11  138.94    4.29
  -3   5  12    7.30    2.24
  -3   5  12    7.41    2.04
  -3   6  -5   14.82    2.20
  -3   6  -4  752.69    9.15
  -3   6  -4  733.53    9.14
  -3   6  -3   60.29    3.30
  -3   6  -3   63.45    3.60
  -3   6  -2  116.16    4.25
  -3   6  -2  108.07    3.83
  -3   6  -2  110.85    4.36
  -3   6  -1  122.95    4.65
  -3   6  -1  112.63    3.96
  -3   6  -1  120.85    4.79
  -3   6   0  421.61    7.31
  -3   6   0  410.25    7.46
  -3   6   1  245.93    5.95
  -3   6   1  243.82    5.83
  -3   6   2   14.80    2.34
  -3   6   2   16.60    3.88
  -3   6   3  243.88    5.62
  -3   6   4   79.10    3.88
  -3   6   5   10.66    3.03
  -3   6   6   21.44    2.69
  -2  -8  -8   37.41    2.57
  -2  -8  -7  159.17    4.69
  -2  -8  -6   37.30    3.64
  -2  -8  -5   12.99    3.79
  -2  -8  -4  627.93   10.73
  -2  -8  -3  257.58    8.02
  -2  -8  -3  250.11    7.07
  -2  -8  -2   12.32    4.90
  -2  -8  -2   12.14    4.29
  -2  -8  -1  136.43    6.60
  -2  -8  -1  124.42    5.83
  -2  -8   0  411.48    9.00
  -2  -8   1   21.30    4.33
  -2  -8   2   46.50    5.03
  -2  -8   2   48.79    4.79
  -2  -8   3    9.99    4.29
  -2  -8   3   11.31    4.02
  -2  -8   4    4.73    3.80
  -2  -8   4    4.67    3.83
  -2  -8   5    7.70    3.31
  -2  -8   6    4.62    2.94
  -2  -8   7  738.67    9.69
  -2  -7  -9   -1.10    3.88
  -2  -7  -8  559.04   11.10
  -2  -7  -7  135.57    6.71
  -2  -7  -6   21.73    5.43
  -2  -7  -5  297.76    9.16
  -2  -7  -5  325.08    9.67
  -2  -7  -4  175.70    7.00
  -2  -7  -4  191.09    8.35
  -2  -7  -4  168.79    7.82
  -2  -7  -3    7.33    4.99
  -2  -7  -3    0.69    5.68
  -2  -7  -3    7.54    6.10
  -2  -7  -2 1663.81   22.24
  -2  -7  -2 1785.95   24.67
  -2  -7  -1  637.92   12.30
  -2  -7  -1  668.43   13.81
  -2  -7   0   13.28    5.05
  -2  -7   0   19.21    6.06
  -2  -7   0   14.05    6.26
  -2  -7   1  413.03   10.98
  -2  -7   1  397.81   11.40
  -2  -7   1  415.37   12.13
  -2  -7   2  578.48   12.90
  -2  -7   2  610.38   12.60
  -2  -7   3   92.63    6.68
  -2  -7   3   88.75    7.20
  -2  -7   4  181.91    8.70
  -2  -7   4  179.91    7.27
  -2  -7   4  169.09    8.15
  -2  -7   5 1097.73   16.40
  -2  -7   5 1159.99   18.01
  -2  -7   6 1716.43   22.55
  -2  -7   6 1559.58   21.62
  -2  -7   7  198.66    6.35
  -2  -7   7  220.23    7.55
  -2  -7   8   62.30    4.25
  -2  -7   8   72.25    5.45
  -2  -7   9  459.76    8.67
  -2  -7   9  441.45    8.86
  -2  -7  10  125.52    5.02
  -2  -7  10  129.17    4.60
  -2  -7  11   42.22    3.43
  -2  -6 -10   13.65    4.78
  -2  -6  -9  411.65   10.06
  -2  -6  -9  415.91    9.46
  -2  -6  -8  414.69   10.48
  -2  -6  -8  427.24    9.87
  -2  -6  -7   26.06    5.86
  -2  -6  -7   36.35    4.82
  -2  -6  -6   79.89    6.70
  -2  -6  -6   92.55    5.91
  -2  -6  -6   75.73    4.79
  -2  -6  -5  878.29   15.31
  -2  -6  -5  876.60   15.65
  -2  -6  -4  418.70   10.97
  -2  -6  -3 2020.51   26.27
  -2  -6  -3 2152.60   27.52
  -2  -6  -2  113.50    6.73
  -2  -6  -2  136.62    7.83
  -2  -6  -1  447.13   10.74
  -2  -6  -1  515.07   12.19
  -2  -6   0  242.14    9.36
  -2  -6   0  201.69    7.81
  -2  -6   1 1045.17   16.58
  -2  -6   1 1138.60   18.19
  -2  -6   2 1104.19   17.06
  -2  -6   2 1154.80   19.26
  -2  -6   3  154.61    7.88
  -2  -6   3  135.77    6.24
  -2  -6   3  150.06    8.42
  -2  -6   4 3328.27   37.36
  -2  -6   4 3413.69   37.60
  -2  -6   5   68.14    7.55
  -2  -6   5   66.17    6.77
  -2  -6   5   70.76    4.74
  -2  -6   5   73.08    6.94
  -2  -6   6  109.38    7.93
  -2  -6   6  107.33    7.66
  -2  -6   7  708.36   14.68
  -2  -6   7  661.79   13.96
  -2  -6   8   85.37    6.15
  -2  -6   8   90.66    7.11
  -2  -6   8   86.97    7.07
  -2  -6   9   58.87    5.50
  -2  -6   9   62.79    6.43
  -2  -6  10   15.09    4.55
  -2  -6  10   21.78    4.71
  -2  -6  10   27.10    5.76
  -2  -6  10   18.14    5.69
  -2  -6  11  480.33   10.53
  -2  -6  11  467.74    9.07
  -2  -6  12  216.85    6.23
  -2  -6  12  208.72    5.87
  -2  -6  13   13.37    3.31
  -2  -6  13   12.36    2.81
  -2  -6  13   14.58    3.32
  -2  -6  13   16.69    3.98
  -2  -6  14  227.48    5.34
  -2  -5 -10  717.26   12.53
  -2  -5  -9  294.70    7.94
  -2  -5  -8    2.30    3.98
  -2  -5  -8    6.97    3.99
  -2  -5  -7  772.37   12.54
  -2  -5  -7  778.03   12.99
  -2  -5  -6 3295.00   36.20
  -2  -5  -5    6.79    3.98
  -2  -5  -4   11.46    3.84
  -2  -5  -3 1291.79   18.33
  -2  -5  -3 1258.58   17.53
  -2  -5  -2   53.76    5.34
  -2  -5  -2   42.81    4.44
  -2  -5  -1  145.75    6.58
  -2  -5   0 1437.50   19.76
  -2  -5   1 3669.23   40.34
  -2  -5   2   69.25    4.77
  -2  -5   2   60.24    5.31
  -2  -5   3  322.71    8.67
  -2  -5   3  320.65    8.93
  -2  -5   3  314.36    7.73
  -2  -5   4  435.13   10.11
  -2  -5   4  441.10    8.73
  -2  -5   4  434.56   10.20
  -2  -5   5  799.25   12.21
  -2  -5   5  831.11   14.51
  -2  -5   5  839.32   12.30
  -2  -5   6  908.61   16.47
  -2  -5   6  908.21   15.58
  -2  -5   6  928.86   15.14
  -2  -5   6  938.09   13.02
  -2  -5   7 1498.65   21.33
  -2  -5   7 1538.17   20.84
  -2  -5   7 1532.39   22.42
  -2  -5   8   32.87    5.48
  -2  -5   8   35.24    6.38
  -2  -5   8   27.98    5.78
  -2  -5   9   96.21    6.38
  -2  -5   9   81.25    7.07
  -2  -5   9   90.67    6.86
  -2  -5  10  245.37    8.96
  -2  -5  10  223.30    9.08
  -2  -5  10  242.03    8.12
  -2  -5  11  214.99    7.82
  -2  -5  11  238.63    8.77
  -2  -5  11  222.31    8.69
  -2  -5  12   10.93    5.18
  -2  -5  12    2.64    6.37
  -2  -5  12   23.44    6.12
  -2  -5  12   16.37    6.19
  -2  -5  13  189.58    6.74
  -2  -5  13  190.32    7.78
  -2  -5  13  189.44    8.17
  -2  -5  14  469.29   10.21
  -2  -5  14  452.01    8.98
  -2  -5  15  135.43    5.61
  -2  -5  15  127.42    5.67
  -2  -5  16  111.28    3.98
  -2  -5  16  106.96    4.29
  -2  -4 -14 2276.86   25.77
  -2  -4 -14 2319.82   25.57
  -2  -4 -13  325.92    7.45
  -2  -4 -12   41.14    3.72
  -2  -4 -11  721.88   10.72
  -2  -4 -10  986.13   12.83
  -2  -4  -8  955.78   13.25
  -2  -4  -7  203.98    4.80
  -2  -4  -7  215.33    5.68
  -2  -4  -6 3653.56   37.18
  -2  -4  -5  512.22    8.94
  -2  -4  -5  544.97    8.73
  -2  -4  -4 5166.08   50.72
  -2  -4  -3 1317.46   16.19
  -2  -4  -2 1260.55   15.76
  -2  -4  -2 1210.12   15.25
  -2  -4  -1 2152.97   24.48
  -2  -4  -1 2367.81   25.07
  -2  -4   0 3857.04   39.29
  -2  -4   1  251.99    6.46
  -2  -4   2 1258.85   16.56
  -2  -4   4 3008.80   33.88
  -2  -4   4 2995.87   32.71
  -2  -4   5  325.30    7.88
  -2  -4   5  319.88    6.29
  -2  -4   5  305.05    5.93
  -2  -4   6 2510.71   26.71
  -2  -4   6 2635.08   26.70
  -2  -4   7   46.20    2.95
  -2  -4   7   56.03    5.73
  -2  -4   7   55.30    4.66
  -2  -4   8  700.79   13.49
  -2  -4   8  689.19   12.86
  -2  -4   8  723.01   12.19
  -2  -4   9 1407.62   19.05
  -2  -4   9 1356.20   19.72
  -2  -4  10  302.60    8.63
  -2  -4  10  287.32    9.08
  -2  -4  11   90.75    6.49
  -2  -4  11   90.41    7.80
  -2  -4  11   83.70    6.41
  -2  -4  11  101.02    6.96
  -2  -4  12 1187.25   17.91
  -2  -4  12 1169.90   19.01
  -2  -4  12 1158.77   18.44
  -2  -4  13  501.57   12.11
  -2  -4  13  532.17   11.37
  -2  -4  13  501.61   11.96
  -2  -4  13  544.33   13.33
  -2  -4  13  525.77   12.43
  -2  -4  14   65.93    5.75
  -2  -4  14   61.75    6.94
  -2  -4  14   52.04    7.67
  -2  -4  14   57.15    5.91
  -2  -4  14   63.33    6.89
  -2  -4  15  188.90    8.29
  -2  -4  15  179.05    7.72
  -2  -4  16  568.88   10.94
  -2  -4  16  571.29   10.24
  -2  -4  16  597.23   10.97
  -2  -4  17  226.87    5.86
  -2  -3 -19   19.62    2.78
  -2  -3 -17  191.40    6.44
  -2  -3 -16   -3.22    4.04
  -2  -3 -15  853.67   12.82
  -2  -3 -15  756.83   12.81
  -2  -3 -14  292.24    7.77
  -2  -3 -13   39.06    4.92
  -2  -3 -12  698.33   11.38
  -2  -3 -10   12.93    3.22
  -2  -3  -8  377.61    6.66
  -2  -3  -7 2329.93   23.44
  -2  -3  -7 2365.19   24.27
  -2  -3  -6 2649.83   26.60
  -2  -3  -6 2626.84   26.03
  -2  -3  -3 2504.09   26.08
  -2  -3  -3 2631.91   25.96
  -2  -3  -2 1400.31   15.49
  -2  -3  -2 1519.37   15.84
  -2  -3  -1  560.07    7.77
  -2  -3  -1  560.61    7.45
  -2  -3   0  181.84    4.34
  -2  -3   4 1453.68   17.29
  -2  -3   4 1473.04   16.16
  -2  -3   4 1503.70   15.80
  -2  -3   5 2060.80   23.48
  -2  -3   5 2105.72   21.84
  -2  -3   6 4912.03   47.24
  -2  -3   6 5056.86   46.68
  -2  -3   7  265.37    4.69
  -2  -3   8 3102.59   32.97
  -2  -3   9 3515.46   37.51
  -2  -3   9 3574.43   36.83
  -2  -3  10  836.37   13.40
  -2  -3  10  787.37   14.24
  -2  -3  10  803.28   14.05
  -2  -3  10  729.04   13.56
  -2  -3  10  756.56   13.33
  -2  -3  11 1111.27   17.35
  -2  -3  11 1122.50   18.18
  -2  -3  11 1090.60   17.54
  -2  -3  11 1153.42   16.96
  -2  -3  11 1092.46   17.52
  -2  -3  11 1156.92   17.75
  -2  -3  12 1062.76   16.70
  -2  -3  12 1032.35   17.07
  -2  -3  12 1020.80   18.03
  -2  -3  12 1041.78   17.25
  -2  -3  12 1039.32   17.52
  -2  -3  12  998.10   17.00
  -2  -3  13   25.41    7.77
  -2  -3  13   17.92    6.85
  -2  -3  13   19.17    5.88
  -2  -3  13   25.32    5.89
  -2  -3  13   20.08    7.51
  -2  -3  14   54.82    6.39
  -2  -3  14   49.37    7.80
  -2  -3  14   48.44    6.76
  -2  -3  14   54.72    8.05
  -2  -3  14   50.32    7.17
  -2  -3  15   80.53    7.22
  -2  -3  15   73.07    7.82
  -2  -3  15   74.36    6.76
  -2  -3  16   83.58    6.81
  -2  -3  16   83.65    7.01
  -2  -3  16   83.79    7.03
  -2  -3  17  439.83    9.43
  -2  -3  17  488.58    9.65
  -2  -3  18  658.76   10.15
  -2  -3  18  641.12   10.06
  -2  -2 -20  192.37    4.35
  -2  -2 -19  325.46    6.31
  -2  -2 -18  382.56    8.10
  -2  -2 -18  411.66    8.51
  -2  -2 -17   69.39    5.42
  -2  -2 -17   67.37    5.53
  -2  -2 -16  141.96    6.87
  -2  -2 -16  148.70    6.97
  -2  -2 -15  367.98    9.32
  -2  -2 -15  350.01    9.09
  -2  -2 -14  100.00    6.31
  -2  -2 -13  277.67    7.97
  -2  -2 -12  735.44   12.09
  -2  -2 -11 2086.14   23.70
  -2  -2 -10 1109.51   14.16
  -2  -2 -10 1167.41   14.88
  -2  -2  -9 2786.33   28.94
  -2  -2  -9 2893.05   29.79
  -2  -2  -8 1279.86   14.63
  -2  -2  -7   69.74    2.24
  -2  -2  -7   71.81    2.45
  -2  -2  -6 3150.36   30.20
  -2  -2  -5 1045.52   11.19
  -2  -2  -5 1035.17   11.25
  -2  -2  -5 1049.69   10.99
  -2  -2  -4  313.94    4.50
  -2  -2  -4  317.37    4.00
  -2  -2  -4  305.93    3.94
  -2  -2   3  872.58    9.95
  -2  -2   3  878.57    9.62
  -2  -2   6  546.63    6.96
  -2  -2   6  592.13    7.24
  -2  -2   7   26.17    1.70
  -2  -2   7   32.69    3.34
  -2  -2   8 1636.21   17.99
  -2  -2   8 1781.33   20.33
  -2  -2   9   15.70    3.57
  -2  -2   9   21.69    4.06
  -2  -2  10    7.56    4.18
  -2  -2  10    8.29    5.44
  -2  -2  10    9.03    5.55
  -2  -2  10   23.12    5.34
  -2  -2  10   11.54    4.82
  -2  -2  11 2221.45   26.70
  -2  -2  11 2162.68   27.94
  -2  -2  11 2156.29   27.25
  -2  -2  11 2272.04   27.07
  -2  -2  11 2212.30   26.60
  -2  -2  11 2194.79   27.44
  -2  -2  12  238.29    9.32
  -2  -2  12  268.88    8.33
  -2  -2  12  247.97   10.02
  -2  -2  12  237.91    9.80
  -2  -2  12  250.30    9.24
  -2  -2  12  264.95    8.70
  -2  -2  12  254.17    8.63
  -2  -2  13  280.34    7.78
  -2  -2  13  291.35   10.38
  -2  -2  13  277.84   10.84
  -2  -2  13  293.71   10.86
  -2  -2  13  286.90    9.53
  -2  -2  13  264.79    9.36
  -2  -2  13  285.79   10.24
  -2  -2  14   71.61    8.81
  -2  -2  14   58.60    7.76
  -2  -2  14   56.83    5.40
  -2  -2  14   66.21    8.91
  -2  -2  14   53.45    7.66
  -2  -2  14   54.78    6.92
  -2  -2  15 1422.19   21.66
  -2  -2  15 1505.33   21.67
  -2  -2  15 1510.51   21.43
  -2  -2  15 1537.81   21.41
  -2  -2  15 1404.06   18.96
  -2  -2  15 1487.94   22.37
  -2  -2  16  122.69    5.62
  -2  -2  16  123.90    7.96
  -2  -2  16  125.80    7.76
  -2  -2  17  349.88    9.47
  -2  -2  17  345.66    8.76
  -2  -2  18   54.39    5.10
  -2  -2  18   53.72    5.37
  -2  -2  18   42.20    3.84
  -2  -2  18   60.14    4.50
  -2  -2  19  161.71    4.80
  -2  -2  19  151.32    4.96
  -2  -1 -20  247.52    5.19
  -2  -1 -19  104.16    5.01
  -2  -1 -18   50.38    5.68
  -2  -1 -18   45.39    5.27
  -2  -1 -17   43.96    6.20
  -2  -1 -17   38.98    6.02
  -2  -1 -16  461.07   10.66
  -2  -1 -16  453.07   10.27
  -2  -1 -15   88.08    7.31
  -2  -1 -15   83.86    6.65
  -2  -1 -14   12.41    5.44
  -2  -1 -14   11.70    6.18
  -2  -1 -13  390.09    8.75
  -2  -1 -13  431.53   10.12
  -2  -1 -12  165.50    6.36
  -2  -1 -12  172.87    7.01
  -2  -1 -11 1035.60   14.31
  -2  -1 -10  759.66   11.49
  -2  -1 -10  767.47   11.04
  -2  -1 -10  783.34   11.71
  -2  -1  -9 3066.13   31.52
  -2  -1  -9 3140.70   32.26
  -2  -1  -8  440.39    7.63
  -2  -1  -8  443.97    7.05
  -2  -1  -7 2075.37   20.26
  -2  -1  -7 2042.43   20.15
  -2  -1  -7 2057.37   21.62
  -2  -1  -7 2005.99   20.95
  -2  -1  -7 2169.59   22.28
  -2  -1  -7 2163.09   21.53
  -2  -1  -7 2046.39   20.17
  -2  -1  -5  180.98    3.30
  -2  -1  -5  184.58    3.54
  -2  -1  -2  204.24    3.31
  -2  -1  -2  202.26    3.35
  -2  -1   6 2169.03   22.54
  -2  -1   6 2248.31   23.09
  -2  -1   6 2200.18   21.61
  -2  -1   6 2227.96   23.26
  -2  -1   7 1080.89   11.63
  -2  -1   7 1081.75   11.61
  -2  -1   7 1126.20   13.86
  -2  -1   7 1132.72   13.94
  -2  -1   7 1095.33   11.79
  -2  -1   7 1076.27   12.83
  -2  -1   8    1.33    2.32
  -2  -1   8    6.01    3.04
  -2  -1   8    3.74    3.05
  -2  -1   9   60.44    4.64
  -2  -1   9   55.62    4.25
  -2  -1  10 3107.76   34.14
  -2  -1  11 2718.40   31.67
  -2  -1  11 2707.16   30.03
  -2  -1  11 2734.27   32.37
  -2  -1  11 2752.55   33.26
  -2  -1  11 2803.65   31.86
  -2  -1  12  105.66    5.81
  -2  -1  12  108.75    8.08
  -2  -1  12  109.43    6.98
  -2  -1  12  110.07    7.21
  -2  -1  12   96.61    7.46
  -2  -1  13 2705.79   32.42
  -2  -1  13 2605.19   30.54
  -2  -1  13 2698.06   33.24
  -2  -1  13 2697.79   32.60
  -2  -1  13 2739.60   31.55
  -2  -1  13 2650.69   32.77
  -2  -1  14 3168.53   37.41
  -2  -1  14 3148.74   36.69
  -2  -1  14 3038.53   34.69
  -2  -1  14 3204.76   37.07
  -2  -1  14 3089.96   35.26
  -2  -1  14 3121.24   37.99
  -2  -1  15  735.13   15.00
  -2  -1  15  798.74   15.84
  -2  -1  15  782.63   13.59
  -2  -1  15  736.50   13.09
  -2  -1  16   90.43    7.46
  -2  -1  16   90.06    7.86
  -2  -1  16  112.69    9.05
  -2  -1  16   98.50    6.52
  -2  -1  16  102.69    6.10
  -2  -1  17 1077.75   16.67
  -2  -1  17 1063.22   16.67
  -2  -1  17 1046.56   14.38
  -2  -1  18  173.31    6.73
  -2  -1  18  172.60    6.97
  -2  -1  18  149.81    4.87
  -2  -1  18  165.13    5.69
  -2  -1  19   12.93    3.79
  -2  -1  19   14.84    3.87
  -2   0 -19  448.92    7.92
  -2   0 -18   51.01    5.31
  -2   0 -18   61.68    5.89
  -2   0 -17  255.06    8.32
  -2   0 -16  546.62   10.52
  -2   0 -16  607.48   12.12
  -2   0 -15    7.16    5.83
  -2   0 -15    8.82    7.32
  -2   0 -14  372.81   10.38
  -2   0 -14  358.37    9.65
  -2   0 -13  180.71    7.86
  -2   0 -13  173.13    8.21
  -2   0 -12  413.18    9.83
  -2   0 -12  387.36    9.06
  -2   0 -11  313.82    7.96
  -2   0 -10 4130.69   42.10
  -2   0 -10 4223.15   42.65
  -2   0  -9  749.10   11.29
  -2   0  -9  731.98   11.28
  -2   0  -8  304.62    6.53
  -2   0  -8  296.55    6.47
  -2   0  -6 2205.11   21.97
  -2   0  -6 2212.80   21.94
  -2   0  -6 2212.84   23.06
  -2   0  -6 2263.33   23.25
  -2   0  -5  470.47    6.44
  -2   0  -5  471.64    6.38
  -2   0  -5  455.37    5.61
  -2   0  -5  472.92    6.96
  -2   0  -2   85.79    2.45
  -2   0  -2   82.64    2.45
  -2   0  -2   86.82    2.48
  -2   0  -1  261.29    4.22
  -2   0  -1  259.33    4.23
  -2   0  -1  263.13    4.25
  -2   0  -1  253.31    4.14
  -2   0   0   88.44    2.51
  -2   0   0   88.44    2.49
  -2   0   0   90.37    2.43
  -2   0   0   83.82    2.31
  -2   0   1 3732.53   34.98
  -2   0   2  717.01    8.63
  -2   0   2  770.09    9.04
  -2   0   2  721.95    8.66
  -2   0   2  755.42    8.87
  -2   0   3  735.73    8.85
  -2   0   3  731.79    8.87
  -2   0   4  241.69    4.26
  -2   0   4  242.24    4.72
  -2   0   4  255.47    4.65
  -2   0   4  250.70    4.43
  -2   0   4  238.42    4.30
  -2   0   5 3252.09   32.22
  -2   0   6  101.24    3.03
  -2   0   6  103.16    3.06
  -2   0   6   94.14    3.56
  -2   0   6   91.81    3.79
  -2   0   8  542.19    8.41
  -2   0   8  529.98    9.43
  -2   0   9  416.62    7.21
  -2   0   9  410.61    8.77
  -2   0  10 1532.95   20.40
  -2   0  11  152.29    6.07
  -2   0  11  152.92    7.17
  -2   0  11  149.49    7.19
  -2   0  11  146.75    7.51
  -2   0  12 7294.69   71.87
  -2   0  12 7305.13   72.58
  -2   0  12 7505.78   73.42
  -2   0  12 7266.89   72.20
  -2   0  12 7287.02   70.89
  -2   0  13  544.47   12.32
  -2   0  13  532.86   11.36
  -2   0  13  543.06   12.44
  -2   0  13  521.69   12.80
  -2   0  14   27.41    5.99
  -2   0  14   38.33    7.71
  -2   0  14   28.08    8.10
  -2   0  14   27.23    7.71
  -2   0  15   79.76    6.24
  -2   0  15   84.53    8.76
  -2   0  15   81.99    8.24
  -2   0  16 1285.24   19.65
  -2   0  16 1274.06   19.52
  -2   0  16 1267.56   16.97
  -2   0  17  579.31   12.31
  -2   0  17  573.18    9.54
  -2   0  17  609.11   10.94
  -2   0  17  596.77   12.22
  -2   0  18  130.72    6.63
  -2   0  18  127.38    5.46
  -2   0  18  137.00    5.06
  -2   0  19  828.51   11.29
  -2   0  19  730.71    9.97
  -2   1 -19   81.09    3.78
  -2   1 -19   80.17    3.34
  -2   1 -18  187.65    5.99
  -2   1 -18  210.83    5.89
  -2   1 -17  317.38    7.36
  -2   1 -17  334.75    8.52
  -2   1 -16    8.42    5.63
  -2   1 -16    2.15    5.34
  -2   1 -16   13.83    6.62
  -2   1 -15  132.36    7.43
  -2   1 -15  130.12    7.11
  -2   1 -14  459.76   10.78
  -2   1 -14  444.41   10.89
  -2   1 -13   99.89    7.16
  -2   1 -13   91.63    7.46
  -2   1 -12  389.28    9.14
  -2   1 -12  421.20    9.97
  -2   1 -12  422.53   10.63
  -2   1 -12  415.86   10.49
  -2   1 -11  313.23    9.13
  -2   1 -11  285.44    8.00
  -2   1 -11  304.87    8.84
  -2   1 -11  310.97    8.30
  -2   1 -10  529.87   10.18
  -2   1 -10  549.59   10.20
  -2   1 -10  555.01   11.01
  -2   1  -9   16.43    4.35
  -2   1  -9   16.77    4.35
  -2   1  -9   14.90    4.95
  -2   1  -9   13.75    4.57
  -2   1  -8  259.92    6.81
  -2   1  -8  258.33    6.61
  -2   1  -7 1909.99   20.10
  -2   1  -7 2013.14   22.09
  -2   1  -6 1131.61   13.00
  -2   1  -6 1124.10   14.10
  -2   1  -5  814.04   10.03
  -2   1  -5  788.80    8.98
  -2   1  -5  786.01    9.87
  -2   1  -4 5573.84   52.64
  -2   1  -3 3437.42   33.15
  -2   1  -3 3506.63   33.73
  -2   1  -2 2764.18   27.44
  -2   1  -2 2833.20   27.07
  -2   1   0  676.97    8.75
  -2   1   1 2416.27   24.49
  -2   1   5 1657.45   17.87
  -2   1   5 1680.02   18.74
  -2   1   5 1619.48   17.69
  -2   1   6 6971.05   64.78
  -2   1   7 3785.61   37.47
  -2   1   7 3618.62   35.69
  -2   1   8  541.19    9.26
  -2   1   9 1701.25   20.06
  -2   1  10    3.95    4.87
  -2   1  10    6.03    5.33
  -2   1  10    7.02    3.71
  -2   1  11  468.77   10.58
  -2   1  11  465.66   10.99
  -2   1  11  462.79    9.64
  -2   1  12  243.30    9.13
  -2   1  12  243.82    9.25
  -2   1  12  242.36    7.60
  -2   1  13 1600.08   21.53
  -2   1  13 1566.84   22.93
  -2   1  13 1556.54   20.29
  -2   1  14   10.56    7.53
  -2   1  14   21.30    7.57
  -2   1  14   16.36    6.93
  -2   1  14   13.08    5.16
  -2   1  14    7.71    6.38
  -2   1  15   59.21    6.59
  -2   1  15   56.62    7.49
  -2   1  15   62.75    5.33
  -2   1  15   49.89    6.15
  -2   1  15   62.30    7.55
  -2   1  15   50.88    6.53
  -2   1  16  746.80   14.18
  -2   1  16  756.76   12.63
  -2   1  17   59.15    6.22
  -2   1  17   66.84    4.94
  -2   1  17   60.48    5.79
  -2   1  18  115.60    5.81
  -2   1  18  115.90    5.25
  -2   1  19  135.49    4.46
  -2   1  19  126.01    3.97
  -2   2 -17  241.53    4.99
  -2   2 -17  255.62    6.14
  -2   2 -16  132.15    6.28
  -2   2 -16  125.05    6.26
  -2   2 -16  136.81    5.23
  -2   2 -16  143.75    6.08
  -2   2 -15  928.94   14.31
  -2   2 -15  925.91   13.85
  -2   2 -15  921.22   14.49
  -2   2 -14  711.81   13.13
  -2   2 -14  701.20   12.81
  -2   2 -14  681.04   12.06
  -2   2 -14  707.53   12.41
  -2   2 -14  694.11   11.93
  -2   2 -13   18.27    5.54
  -2   2 -13   25.37    7.30
  -2   2 -13   17.27    6.74
  -2   2 -13   19.53    5.77
  -2   2 -13   19.39    5.60
  -2   2 -12  783.23   13.39
  -2   2 -12  782.19   14.37
  -2   2 -12  765.21   13.82
  -2   2 -12  783.44   12.96
  -2   2 -12  809.05   13.85
  -2   2 -11 1426.51   19.49
  -2   2 -11 1440.38   19.14
  -2   2 -11 1440.03   20.13
  -2   2 -11 1413.28   18.38
  -2   2 -11 1400.29   19.86
  -2   2 -10  183.25    7.26
  -2   2 -10  183.21    7.57
  -2   2 -10  198.22    8.29
  -2   2 -10  193.54    7.74
  -2   2 -10  177.92    6.44
  -2   2  -9  626.48   11.67
  -2   2  -9  614.71   10.87
  -2   2  -9  613.90   11.89
  -2   2  -9  611.37   10.20
  -2   2  -8 2355.18   25.06
  -2   2  -8 2324.93   26.77
  -2   2  -8 2374.10   27.53
  -2   2  -8 2292.79   25.67
  -2   2  -7  211.36    6.83
  -2   2  -7  193.33    5.99
  -2   2  -7  216.36    6.80
  -2   2  -7  200.26    5.83
  -2   2  -7  215.34    5.39
  -2   2  -6  279.09    6.97
  -2   2  -6  258.71    6.63
  -2   2  -6  264.38    5.88
  -2   2  -6  267.91    5.92
  -2   2  -6  269.03    6.89
  -2   2  -6  278.67    5.54
  -2   2  -5  185.24    4.99
  -2   2  -5  184.71    4.75
  -2   2  -5  191.76    5.64
  -2   2  -5  185.70    5.58
  -2   2  -5  197.15    4.17
  -2   2  -4  534.05    8.44
  -2   2  -4  515.23    7.55
  -2   2  -3  444.78    7.58
  -2   2  -3  435.18    7.08
  -2   2  -2 1550.39   17.57
  -2   2  -2 1527.50   17.23
  -2   2   0  261.09    5.71
  -2   2   0  255.05    5.72
  -2   2   1  861.91   11.55
  -2   2   2  211.24    5.51
  -2   2   3    5.42    2.98
  -2   2   3    6.05    2.85
  -2   2   5  772.69   10.84
  -2   2   6  837.71   12.41
  -2   2   6  820.33   11.30
  -2   2   7 1269.44   16.70
  -2   2   7 1204.80   15.03
  -2   2   8 2660.45   31.08
  -2   2   8 2751.68   30.09
  -2   2   8 2600.30   27.81
  -2   2   8 2824.20   31.02
  -2   2   9 1031.78   14.77
  -2   2   9 1100.07   15.48
  -2   2   9 1053.46   16.54
  -2   2   9 1048.09   15.67
  -2   2   9 1106.15   16.68
  -2   2  10 1878.10   24.73
  -2   2  10 1854.86   22.69
  -2   2  10 1949.24   23.27
  -2   2  10 1875.85   23.84
  -2   2  10 1993.03   24.92
  -2   2  11 2534.62   28.78
  -2   2  11 2507.24   30.07
  -2   2  12  331.77    8.16
  -2   2  12  346.52   10.65
  -2   2  12  335.60    9.63
  -2   2  13   35.63    7.38
  -2   2  13   25.04    7.03
  -2   2  13   21.60    6.20
  -2   2  14  202.25    9.21
  -2   2  14  222.60    8.94
  -2   2  14  196.00    7.77
  -2   2  14  199.39    8.96
  -2   2  15   42.99    6.69
  -2   2  15   35.15    6.96
  -2   2  15   46.10    5.68
  -2   2  15   38.41    6.57
  -2   2  16  221.66    8.14
  -2   2  16  235.70    6.85
  -2   2  16  219.50    8.11
  -2   2  17  245.21    7.44
  -2   2  17  248.72    7.15
  -2   2  18  400.51    7.25
  -2   2  18  374.67    7.81
  -2   2  18  386.29    7.25
  -2   2  19   21.64    2.66
  -2   3 -15    6.62    3.31
  -2   3 -15    3.89    3.63
  -2   3 -14   59.44    6.35
  -2   3 -14   60.94    4.45
  -2   3 -14   64.15    5.40
  -2   3 -13   80.20    5.97
  -2   3 -13   83.19    6.99
  -2   3 -13   81.91    6.54
  -2   3 -13   84.97    5.09
  -2   3 -12  678.50   10.82
  -2   3 -12  694.41   11.71
  -2   3 -12  730.55   13.40
  -2   3 -12  731.17   13.25
  -2   3 -12  694.19   12.53
  -2   3 -11   34.37    5.80
  -2   3 -11   40.31    6.44
  -2   3 -11   37.85    4.92
  -2   3 -11   38.83    6.98
  -2   3 -11   34.23    5.58
  -2   3 -10 1516.31   18.91
  -2   3 -10 1533.33   20.67
  -2   3 -10 1554.06   21.52
  -2   3  -9 2042.89   23.92
  -2   3  -9 2186.54   26.08
  -2   3  -9 2202.69   26.27
  -2   3  -9 2179.39   27.13
  -2   3  -9 2040.47   25.92
  -2   3  -8   33.57    6.45
  -2   3  -8   34.61    6.41
  -2   3  -8   22.50    4.57
  -2   3  -8   14.49    5.99
  -2   3  -8   23.43    5.63
  -2   3  -7 1806.55   21.96
  -2   3  -7 1752.40   22.39
  -2   3  -7 1794.97   23.25
  -2   3  -6  121.11    6.73
  -2   3  -6  119.00    7.03
  -2   3  -6  125.51    6.33
  -2   3  -6  126.67    5.39
  -2   3  -6  127.63    7.05
  -2   3  -5 2252.10   24.90
  -2   3  -5 2207.42   26.69
  -2   3  -5 2194.39   24.91
  -2   3  -5 2125.67   25.00
  -2   3  -5 2150.29   25.12
  -2   3  -4   47.69    4.60
  -2   3  -4   38.52    5.25
  -2   3  -3  939.21   13.57
  -2   3  -3  903.11   12.33
  -2   3  -3  856.45   12.08
  -2   3  -3  842.44   12.76
  -2   3  -2  763.64   10.75
  -2   3  -2  741.27   11.11
  -2   3  -2  769.35   11.82
  -2   3  -1  709.70   11.12
  -2   3  -1  680.38   10.68
  -2   3  -1  678.76   11.05
  -2   3   0  553.72    9.62
  -2   3   0  531.43    9.65
  -2   3   2  237.80    6.76
  -2   3   3  871.48   13.06
  -2   3   3  849.28   12.71
  -2   3   4 2070.67   24.68
  -2   3   4 2145.93   24.39
  -2   3   5   90.37    5.82
  -2   3   5   80.88    5.89
  -2   3   5   92.05    4.94
  -2   3   5   85.81    6.22
  -2   3   6   30.97    5.54
  -2   3   6   33.46    5.71
  -2   3   6   27.88    5.41
  -2   3   6   40.21    5.22
  -2   3   6   34.38    5.86
  -2   3   6   44.72    5.05
  -2   3   6   29.93    4.51
  -2   3   6   43.08    4.66
  -2   3   6   38.82    4.83
  -2   3   7 2191.00   27.40
  -2   3   7 2101.26   26.65
  -2   3   7 2233.99   26.32
  -2   3   7 2082.74   24.34
  -2   3   7 2219.34   27.31
  -2   3   7 2111.22   25.10
  -2   3   7 2163.96   25.25
  -2   3   7 2160.31   24.80
  -2   3   7 2133.00   26.66
  -2   3   8  957.19   15.86
  -2   3   8  965.42   15.32
  -2   3   8  963.40   13.88
  -2   3   8  938.63   16.14
  -2   3   8  988.20   16.47
  -2   3   8  989.88   16.63
  -2   3   9  187.10    6.39
  -2   3   9  180.59    9.02
  -2   3   9  197.83    8.40
  -2   3   9  210.10    7.72
  -2   3   9  191.18    8.86
  -2   3  10  341.29    9.29
  -2   3  10  344.78   10.79
  -2   3  10  350.41   10.91
  -2   3  11  217.36    9.65
  -2   3  11  221.81    9.62
  -2   3  12  181.03    9.14
  -2   3  12  213.90    9.60
  -2   3  12  199.06    9.49
  -2   3  13  121.32    7.90
  -2   3  13  131.63    8.34
  -2   3  13  126.56    8.27
  -2   3  13  106.19    8.04
  -2   3  14  384.54   10.71
  -2   3  14  400.23   10.30
  -2   3  14  402.18   10.62
  -2   3  15  153.66    6.97
  -2   3  15  156.45    6.87
  -2   3  15  154.79    7.17
  -2   3  15  132.92    7.18
  -2   3  16  192.43    5.81
  -2   3  16  182.84    6.29
  -2   3  16  196.60    6.75
  -2   3  16  187.53    6.81
  -2   3  17  356.76    7.48
  -2   3  17  384.16    6.92
  -2   3  18  301.08    5.28
  -2   4 -15  354.07    5.39
  -2   4 -15  306.14    4.92
  -2   4 -14  883.47   11.41
  -2   4 -14  952.93   11.73
  -2   4 -13  186.04    6.10
  -2   4 -12   17.59    5.48
  -2   4 -12    9.33    4.98
  -2   4 -12   20.46    4.09
  -2   4 -11   13.57    5.73
  -2   4 -11   20.06    5.91
  -2   4 -11   16.61    5.86
  -2   4 -11   15.40    5.03
  -2   4 -10  345.51    9.50
  -2   4 -10  345.07    9.34
  -2   4 -10  329.61    9.82
  -2   4  -9  108.33    7.82
  -2   4  -9  106.86    7.18
  -2   4  -9  111.28    7.91
  -2   4  -9  106.66    7.34
  -2   4  -8   48.63    6.57
  -2   4  -8   40.86    7.47
  -2   4  -8   46.28    7.00
  -2   4  -8   34.17    7.04
  -2   4  -7 1093.37   15.96
  -2   4  -7 1130.22   17.21
  -2   4  -7 1086.08   17.99
  -2   4  -6 1134.11   17.09
  -2   4  -6 1153.74   18.23
  -2   4  -6 1080.55   16.21
  -2   4  -6 1097.37   16.14
  -2   4  -6 1103.90   17.85
  -2   4  -5   89.36    6.20
  -2   4  -5   84.34    6.54
  -2   4  -5   83.77    7.37
  -2   4  -5   87.17    7.25
  -2   4  -5   77.50    5.69
  -2   4  -5   78.40    6.39
  -2   4  -4  505.13    9.75
  -2   4  -4  493.89   10.93
  -2   4  -4  489.07   11.55
  -2   4  -4  515.35   11.01
  -2   4  -4  490.19   10.84
  -2   4  -4  489.70   10.35
  -2   4  -3  910.45   15.44
  -2   4  -3  922.75   14.61
  -2   4  -3  859.56   14.90
  -2   4  -3  868.43   14.74
  -2   4  -3  854.78   14.51
  -2   4  -3  866.29   14.17
  -2   4  -2  237.63    8.23
  -2   4  -2  225.08    6.89
  -2   4  -2  253.83    8.68
  -2   4  -2  247.44    8.50
  -2   4  -2  240.71    8.43
  -2   4  -2  238.93    7.68
  -2   4  -2  247.96    8.26
  -2   4  -1   29.40    4.86
  -2   4  -1   32.27    5.83
  -2   4  -1   29.83    5.85
  -2   4  -1   33.81    6.31
  -2   4  -1   32.15    5.12
  -2   4  -1   36.73    6.25
  -2   4  -1   28.89    6.00
  -2   4   0 1344.63   19.27
  -2   4   0 1377.87   18.43
  -2   4   0 1368.67   18.92
  -2   4   0 1335.11   18.94
  -2   4   0 1288.75   18.07
  -2   4   0 1347.16   18.62
  -2   4   0 1339.66   18.95
  -2   4   1  478.27   11.03
  -2   4   1  514.10   10.03
  -2   4   1  456.83   10.11
  -2   4   1  502.37   11.07
  -2   4   1  474.65   10.32
  -2   4   1  494.27   10.98
  -2   4   2  618.97   12.29
  -2   4   2  581.38   11.62
  -2   4   2  596.29   12.36
  -2   4   2  594.11   11.54
  -2   4   2  616.47   11.68
  -2   4   2  612.84   11.55
  -2   4   3  148.76    7.61
  -2   4   3  151.38    7.39
  -2   4   3  140.82    7.54
  -2   4   3  146.83    6.82
  -2   4   3  141.84    6.73
  -2   4   3  151.40    7.71
  -2   4   3  137.89    7.21
  -2   4   3  160.72    6.80
  -2   4   4  764.36   13.68
  -2   4   4  701.48   13.22
  -2   4   4  745.55   13.78
  -2   4   4  681.03   12.79
  -2   4   4  706.43   12.41
  -2   4   4  744.36   13.49
  -2   4   4  720.71   13.81
  -2   4   4  743.28   12.89
  -2   4   4  728.87   13.28
  -2   4   5   13.07    6.18
  -2   4   5   17.27    6.24
  -2   4   5   12.55    6.21
  -2   4   5   15.39    5.20
  -2   4   5    8.52    4.78
  -2   4   5   15.36    6.26
  -2   4   5   11.70    6.02
  -2   4   5   12.22    5.78
  -2   4   6  506.56   10.58
  -2   4   6  504.24   11.95
  -2   4   6  537.07   11.39
  -2   4   6  495.43   11.87
  -2   4   6  490.28    9.85
  -2   4   6  488.81   11.77
  -2   4   6  518.94   11.36
  -2   4   7  982.88   15.07
  -2   4   7  980.20   16.88
  -2   4   7 1028.29   15.80
  -2   4   7 1003.13   16.30
  -2   4   7  957.27   14.11
  -2   4   7  969.91   16.39
  -2   4   7  963.31   16.46
  -2   4   8  535.63   12.44
  -2   4   8  533.10    9.76
  -2   4   8  561.14   11.01
  -2   4   8  537.40   12.48
  -2   4   8  522.01   12.68
  -2   4   9  586.64   13.17
  -2   4   9  608.85   13.13
  -2   4  10  514.74   12.71
  -2   4  11   13.48    6.77
  -2   4  12   10.95    5.92
  -2   4  12    8.74    6.68
  -2   4  12   22.16    6.88
  -2   4  13  417.83    9.64
  -2   4  13  394.75   10.12
  -2   4  14   48.31    5.52
  -2   4  14   45.87    5.15
  -2   4  14   36.50    5.23
  -2   4  15   76.37    4.89
  -2   4  15   86.18    4.46
  -2   4  15   83.80    4.54
  -2   4  16  292.07    5.21
  -2   4  16  293.50    5.76
  -2   5 -13   69.80    2.57
  -2   5 -12   14.06    3.14
  -2   5 -12   16.53    3.23
  -2   5 -11   93.71    4.79
  -2   5 -11   94.91    3.80
  -2   5 -11   94.79    3.14
  -2   5 -10  242.99    4.92
  -2   5 -10  253.90    7.21
  -2   5 -10  248.78    6.20
  -2   5  -9    2.10    5.16
  -2   5  -9    5.23    4.58
  -2   5  -8  947.03   14.34
  -2   5  -8 1000.27   15.40
  -2   5  -7  308.92    9.36
  -2   5  -7  349.52    9.61
  -2   5  -6  122.15    6.68
  -2   5  -6  120.80    7.98
  -2   5  -5  314.33    9.53
  -2   5  -5  283.01    8.76
  -2   5  -5  294.53    9.73
  -2   5  -4 1347.12   19.76
  -2   5  -4 1317.14   18.61
  -2   5  -4 1327.08   19.86
  -2   5  -3  438.58   11.03
  -2   5  -3  445.61   11.58
  -2   5  -3  439.14   10.74
  -2   5  -2  436.75   11.23
  -2   5  -2  460.75   11.24
  -2   5  -2  433.84   11.03
  -2   5  -2  469.90   11.85
  -2   5  -1   61.96    7.26
  -2   5  -1   42.78    7.22
  -2   5  -1   41.01    6.50
  -2   5   0  453.61   11.67
  -2   5   0  463.64   11.07
  -2   5   0  487.72   11.37
  -2   5   1   38.22    6.95
  -2   5   1   38.98    6.14
  -2   5   1   53.28    7.30
  -2   5   2  128.39    8.29
  -2   5   2  125.44    6.99
  -2   5   2  117.59    7.03
  -2   5   2  124.32    7.17
  -2   5   3 1164.05   17.83
  -2   5   3 1161.31   18.12
  -2   5   3 1122.53   16.94
  -2   5   3 1131.89   16.49
  -2   5   3 1104.61   17.08
  -2   5   4  150.90    6.82
  -2   5   4  159.60    8.43
  -2   5   4  133.63    7.87
  -2   5   4  160.27    8.24
  -2   5   4  147.98    7.73
  -2   5   5  158.28    6.50
  -2   5   5  159.71    8.12
  -2   5   5  164.11    8.48
  -2   5   5  185.51    8.34
  -2   5   5  169.98    7.93
  -2   5   6 3005.20   34.22
  -2   5   6 3066.46   33.70
  -2   5   6 3087.74   34.50
  -2   5   6 3063.07   33.95
  -2   5   7  643.33   12.61
  -2   5   7  659.03   12.86
  -2   5   7  627.22   12.64
  -2   5   7  667.47   11.96
  -2   5   8  812.90   14.33
  -2   5   8  789.67   14.06
  -2   5   8  777.01   12.71
  -2   5   8  826.26   14.07
  -2   5   9 1005.13   15.45
  -2   5   9  993.36   15.37
  -2   5  10  795.87   13.49
  -2   5  10  790.86   13.21
  -2   5  11   16.15    4.98
  -2   5  11   21.95    4.95
  -2   5  11    8.74    5.58
  -2   5  11   13.21    5.29
  -2   5  12   68.35    4.74
  -2   5  12   76.73    5.09
  -2   5  12   62.81    5.09
  -2   5  13  109.00    4.27
  -2   5  13  108.66    4.62
  -2   5  13  105.55    4.79
  -2   5  13  110.07    4.79
  -2   5  14   24.30    2.46
  -2   5  14   26.53    2.79
  -2   5  14   22.90    2.93
  -2   6  -9   89.82    2.86
  -2   6  -8   63.13    3.29
  -2   6  -8   64.15    3.37
  -2   6  -7   22.99    3.91
  -2   6  -7   23.40    3.28
  -2   6  -7   19.09    3.74
  -2   6  -6   82.98    4.85
  -2   6  -6   77.28    5.06
  -2   6  -6   83.86    3.97
  -2   6  -5  309.21    7.54
  -2   6  -5  309.93    6.00
  -2   6  -5  303.92    7.77
  -2   6  -4  126.99    5.78
  -2   6  -4  141.05    5.97
  -2   6  -4  131.71    4.45
  -2   6  -4  140.05    6.40
  -2   6  -3  173.08    6.41
  -2   6  -3  167.53    7.15
  -2   6  -3  169.85    6.68
  -2   6  -2  511.99    9.75
  -2   6  -2  524.20   10.76
  -2   6  -2  522.79   10.30
  -2   6  -1   44.71    5.19
  -2   6  -1   45.14    5.93
  -2   6  -1   50.44    6.42
  -2   6   0   45.52    5.11
  -2   6   0   45.14    6.14
  -2   6   1  719.96   12.47
  -2   6   1  736.49   12.42
  -2   6   2  151.87    6.94
  -2   6   2  141.45    5.45
  -2   6   2  164.04    7.39
  -2   6   3  223.03    6.66
  -2   6   3  243.87    7.96
  -2   6   3  219.65    5.82
  -2   6   3  235.75    7.90
  -2   6   4   20.07    4.93
  -2   6   4   24.08    5.57
  -2   6   4   17.75    5.68
  -2   6   5  510.15    9.48
  -2   6   5  536.96    9.92
  -2   6   5  530.38   10.27
  -2   6   6  332.80    7.66
  -2   6   6  343.68    7.97
  -2   6   6  329.29    7.75
  -2   6   7  184.18    6.21
  -2   6   7  187.57    5.85
  -2   6   8  423.47    7.91
  -2   6   8  414.39    7.64
  -2   6   9  205.35    5.62
  -2   6   9  201.61    5.26
  -2   6  10    9.18    3.28
  -2   6  10   11.10    2.96
  -2   6  10   13.22    2.93
  -2   6  11  213.69    4.30
  -2   6  11  206.53    3.93
  -2   7  -1  125.46    3.34
  -2   7   0   93.53    3.24
  -2   7   0   86.05    3.27
  -2   7   1  107.81    3.42
  -2   7   1  118.02    3.53
  -2   7   2   76.22    3.00
  -2   7   3   14.54    2.27
  -2   7   3   11.92    2.22
  -1  -8  -8  151.43    3.68
  -1  -8  -7   11.02    2.60
  -1  -8  -6  319.75    6.46
  -1  -8  -5  213.80    5.68
  -1  -8  -5  195.95    4.46
  -1  -8  -4   26.74    2.81
  -1  -8  -4   17.93    3.74
  -1  -8  -3  200.73    4.96
  -1  -8  -3  219.60    6.31
  -1  -8  -2  535.39    9.76
  -1  -8  -2  545.04    9.60
  -1  -8  -1   61.96    4.67
  -1  -8  -1   58.16    4.69
  -1  -8   0   32.90    4.16
  -1  -8   0   35.43    4.37
  -1  -8   1  306.17    6.96
  -1  -8   1  314.94    7.17
  -1  -8   2   13.86    3.32
  -1  -8   2   17.12    3.84
  -1  -8   3    5.99    2.85
  -1  -8   3    5.34    3.39
  -1  -8   4   72.38    3.68
  -1  -8   5   42.85    3.06
  -1  -8   6    7.92    2.18
  -1  -7 -11   51.11    3.04
  -1  -7 -10    1.38    3.19
  -1  -7  -9  525.81    9.46
  -1  -7  -8    6.78    3.93
  -1  -7  -7   83.86    5.38
  -1  -7  -7   94.34    4.46
  -1  -7  -7   80.38    5.39
  -1  -7  -6  677.19   11.28
  -1  -7  -6  688.25   12.84
  -1  -7  -5   62.77    5.75
  -1  -7  -5   68.71    6.06
  -1  -7  -5   74.26    4.73
  -1  -7  -4   71.16    5.95
  -1  -7  -3  605.14   12.16
  -1  -7  -2  505.45   11.15
  -1  -7  -2  515.82   11.84
  -1  -7  -2  478.28   11.07
  -1  -7  -1   87.66    6.64
  -1  -7  -1   91.45    6.99
  -1  -7  -1   75.14    6.13
  -1  -7   0  174.37    7.28
  -1  -7   0  185.74    8.57
  -1  -7   0  173.83    7.38
  -1  -7   0  196.50    8.17
  -1  -7   1  344.30    9.32
  -1  -7   1  356.08    9.48
  -1  -7   1  386.47   11.13
  -1  -7   1  389.40   11.16
  -1  -7   2   16.18    5.21
  -1  -7   2   12.90    4.69
  -1  -7   2   12.06    6.19
  -1  -7   2   14.18    6.56
  -1  -7   3  534.54   11.82
  -1  -7   3  499.26   11.93
  -1  -7   4  509.24   11.58
  -1  -7   4  522.30   11.37
  -1  -7   5   44.09    5.44
  -1  -7   5   43.44    5.96
  -1  -7   6  266.30    7.57
  -1  -7   6  274.52    8.08
  -1  -7   7  201.86    6.40
  -1  -7   7  215.55    7.02
  -1  -7   8  363.22    7.68
  -1  -7   8  406.58    8.32
  -1  -7   9   95.46    4.11
  -1  -6 -11  189.31    5.74
  -1  -6 -10  834.79   12.88
  -1  -6 -10  812.82   13.56
  -1  -6  -9  101.08    5.43
  -1  -6  -9  104.91    5.75
  -1  -6  -8    4.49    4.12
  -1  -6  -8    9.82    4.44
  -1  -6  -7   54.40    5.14
  -1  -6  -7   50.22    5.39
  -1  -6  -6  111.02    6.13
  -1  -6  -6  114.65    6.72
  -1  -6  -5  209.24    7.32
  -1  -6  -5  224.11    8.16
  -1  -6  -4  795.79   13.75
  -1  -6  -4  769.08   14.89
  -1  -6  -4  805.52   14.98
  -1  -6  -3   63.10    5.89
  -1  -6  -3   74.11    6.88
  -1  -6  -2  151.16    8.07
  -1  -6  -2  147.75    6.84
  -1  -6  -1  650.31   13.65
  -1  -6  -1  646.30   12.57
  -1  -6  -1  650.52   13.84
  -1  -6   0  332.01   10.27
  -1  -6   0  340.15   10.51
  -1  -6   1   44.79    6.19
  -1  -6   1   47.86    6.95
  -1  -6   2  618.72   13.17
  -1  -6   2  568.29   12.73
  -1  -6   2  547.99   12.35
  -1  -6   2  606.28   13.59
  -1  -6   3  900.25   15.68
  -1  -6   3  889.94   15.95
  -1  -6   4  190.22    9.22
  -1  -6   4  180.76    7.39
  -1  -6   4  186.81    8.81
  -1  -6   5  217.42    9.30
  -1  -6   5  226.60    7.50
  -1  -6   5  214.87    9.25
  -1  -6   6 5129.91   52.61
  -1  -6   6 4608.45   52.40
  -1  -6   7  138.61    7.59
  -1  -6   7  137.75    8.17
  -1  -6   8  489.05   11.03
  -1  -6   8  486.28   11.47
  -1  -6   9  272.74    8.41
  -1  -6  10  123.54    5.63
  -1  -6  10  100.51    5.91
  -1  -6  11   10.29    4.26
  -1  -6  11   14.77    3.73
  -1  -6  12   22.19    3.74
  -1  -6  13  618.34    9.12
  -1  -6  13  533.48    8.45
  -1  -6  14  254.42    4.77
  -1  -5 -15  300.29    6.15
  -1  -5 -14  380.00    7.39
  -1  -5 -13   78.22    4.53
  -1  -5 -12  623.53   10.54
  -1  -5 -11  205.05    6.13
  -1  -5 -10   48.26    3.96
  -1  -5 -10   48.33    4.57
  -1  -5  -9 1105.95   15.27
  -1  -5  -9 1120.76   14.67
  -1  -5  -9 1133.85   16.97
  -1  -5  -8   77.97    4.45
  -1  -5  -8   72.18    5.55
  -1  -5  -8   69.24    5.23
  -1  -5  -7  198.37    5.94
  -1  -5  -7  203.63    7.24
  -1  -5  -7  189.18    6.92
  -1  -5  -6  205.83    5.94
  -1  -5  -6  205.93    7.28
  -1  -5  -6  197.33    6.92
  -1  -5  -5  906.26   13.05
  -1  -5  -5  918.12   15.00
  -1  -5  -4 1708.05   22.34
  -1  -5  -4 1714.81   20.74
  -1  -5  -3   94.72    5.23
  -1  -5  -3   88.32    5.94
  -1  -5  -2  638.01   11.63
  -1  -5  -2  648.13   12.49
  -1  -5  -1 1249.05   17.60
  -1  -5  -1 1289.85   18.51
  -1  -5   0 1796.11   23.48
  -1  -5   0 1822.77   22.79
  -1  -5   1  238.85    7.99
  -1  -5   1  251.15    7.31
  -1  -5   1  264.33    8.25
  -1  -5   2  119.87    6.11
  -1  -5   2  124.39    6.74
  -1  -5   3 1274.69   18.75
  -1  -5   3 1304.68   19.06
  -1  -5   4  199.55    8.36
  -1  -5   4  194.73    7.34
  -1  -5   4  208.08    7.19
  -1  -5   4  192.64    8.05
  -1  -5   5 2797.77   33.68
  -1  -5   5 2702.65   33.12
  -1  -5   5 2738.17   31.34
  -1  -5   6  341.81    8.50
  -1  -5   6  349.33   10.38
  -1  -5   6  325.67   10.20
  -1  -5   7   56.43    6.43
  -1  -5   7   54.71    6.50
  -1  -5   8  347.19   10.03
  -1  -5   8  324.97    9.78
  -1  -5   9   42.51    6.65
  -1  -5  10   69.21    6.71
  -1  -5  11   53.82    6.11
  -1  -5  11   41.91    5.70
  -1  -5  12  817.62   13.01
  -1  -5  12  684.68   13.08
  -1  -5  13   27.61    4.84
  -1  -5  13   31.40    4.51
  -1  -5  13   21.13    5.65
  -1  -5  14   39.08    5.09
  -1  -5  14   25.98    4.32
  -1  -5  14   25.51    4.87
  -1  -5  15   48.01    3.71
  -1  -5  15   58.32    4.43
  -1  -5  15   57.06    4.31
  -1  -5  16   60.22    3.12
  -1  -5  16   68.52    3.20
  -1  -4 -17  274.08    5.68
  -1  -4 -16   -3.88    3.27
  -1  -4 -15   84.48    4.55
  -1  -4 -14  271.74    6.72
  -1  -4 -13   11.00    3.77
  -1  -4 -12 1289.11   16.36
  -1  -4 -11   33.97    3.63
  -1  -4 -11   23.25    4.16
  -1  -4 -10  315.64    6.52
  -1  -4 -10  287.49    7.78
  -1  -4  -9 2012.69   21.45
  -1  -4  -9 1918.12   23.84
  -1  -4  -8   77.52    3.32
  -1  -4  -8   69.57    4.60
  -1  -4  -7  157.11    5.74
  -1  -4  -6  145.39    5.44
  -1  -4  -5  404.10    8.18
  -1  -4  -4  273.83    6.77
  -1  -4  -4  270.35    5.57
  -1  -4  -4  267.88    6.60
  -1  -4  -3   28.42    2.56
  -1  -4  -3   25.82    3.43
  -1  -4  -3   29.41    3.51
  -1  -4  -2 2829.70   29.09
  -1  -4  -2 2889.15   30.86
  -1  -4  -2 2833.74   30.34
  -1  -4  -1 2864.11   30.76
  -1  -4  -1 3060.56   31.69
  -1  -4   0  127.76    4.69
  -1  -4   0  142.82    5.08
  -1  -4   1 3053.71   31.95
  -1  -4   3 5106.78   50.45
  -1  -4   4 1412.19   17.58
  -1  -4   5 3157.11   34.48
  -1  -4   5 3275.12   35.88
  -1  -4   5 3255.96   34.05
  -1  -4   6  232.47    7.56
  -1  -4   6  222.55    6.60
  -1  -4   7  300.85    8.71
  -1  -4   7  309.00    8.49
  -1  -4   8  858.16   14.85
  -1  -4   8  822.66   14.51
  -1  -4   9  750.30   13.81
  -1  -4   9  794.48   14.41
  -1  -4  10  592.50   12.37
  -1  -4  11  876.97   15.56
  -1  -4  11  876.65   15.14
  -1  -4  12   47.23    6.50
  -1  -4  12   61.40    6.84
  -1  -4  13  158.61    7.74
  -1  -4  13  137.11    7.45
  -1  -4  14  440.07   10.48
  -1  -4  14  446.85   10.49
  -1  -4  15  268.45    9.21
  -1  -4  15  273.32    7.88
  -1  -4  16   25.07    5.29
  -1  -4  16   34.86    4.86
  -1  -4  17   97.58    4.58
  -1  -4  17   94.68    4.74
  -1  -3 -18   35.50    3.76
  -1  -3 -17   12.08    4.20
  -1  -3 -16  738.88   12.06
  -1  -3 -16  746.04   12.09
  -1  -3 -15  805.07   12.88
  -1  -3 -15  809.38   12.89
  -1  -3 -14   40.55    5.06
  -1  -3 -14   37.42    4.68
  -1  -3 -13 1582.52   19.85
  -1  -3 -12 1243.36   16.26
  -1  -3  -7 2398.90   24.54
  -1  -3  -6   23.80    1.83
  -1  -3  -6   28.66    1.93
  -1  -3  -5 1501.03   16.19
  -1  -3  -5 1586.20   16.26
  -1  -3  -4 3287.97   30.60
  -1  -3  -3 2051.70   20.19
  -1  -3  -3 2150.17   22.68
  -1  -3  -2  390.63    6.54
  -1  -3  -2  392.10    6.50
  -1  -3  -1  533.95    6.78
  -1  -3  -1  509.72    7.61
  -1  -3  -1  522.86    7.56
  -1  -3   1 2072.62   21.86
  -1  -3   3 2425.43   23.96
  -1  -3   3 2201.77   24.16
  -1  -3   3 2428.93   22.83
  -1  -3   3 2165.50   22.66
  -1  -3   5  249.75    4.16
  -1  -3   5  268.09    4.45
  -1  -3   6 2040.56   21.01
  -1  -3   6 2008.65   20.63
  -1  -3   6 2008.28   22.63
  -1  -3   6 2085.33   21.28
  -1  -3   7 1947.67   20.59
  -1  -3   8  120.39    5.83
  -1  -3   8  103.01    3.79
  -1  -3   9  198.71    6.58
  -1  -3   9  172.17    5.11
  -1  -3   9  169.65    6.47
  -1  -3   9  200.02    6.90
  -1  -3  10  570.08   11.35
  -1  -3  10  585.31    9.96
  -1  -3  11 2197.00   26.47
  -1  -3  11 2138.74   27.07
  -1  -3  11 2121.41   26.32
  -1  -3  12  104.41    7.72
  -1  -3  12   96.17    7.41
  -1  -3  12   97.81    6.71
  -1  -3  12   99.53    7.90
  -1  -3  12   85.66    6.23
  -1  -3  13  663.03   13.39
  -1  -3  13  639.52   13.31
  -1  -3  13  677.01   14.23
  -1  -3  14  533.84   12.21
  -1  -3  14  520.28   12.01
  -1  -3  14  569.27   12.82
  -1  -3  14  525.51   12.11
  -1  -3  14  545.51   12.33
  -1  -3  15   48.70    7.47
  -1  -3  15   49.49    6.10
  -1  -3  15   43.03    6.34
  -1  -3  15   43.63    6.80
  -1  -3  16    2.95    4.00
  -1  -3  16    1.03    6.00
  -1  -3  16    3.07    6.33
  -1  -3  17   97.87    4.30
  -1  -3  17  103.05    6.15
  -1  -3  17  100.28    6.37
  -1  -3  17  107.66    6.31
  -1  -3  18    2.84    3.88
  -1  -3  18    0.17    4.00
  -1  -3  19    4.69    2.32
  -1  -2 -19   29.70    4.10
  -1  -2 -18   21.11    4.88
  -1  -2 -17  424.34    8.73
  -1  -2 -17  482.60    9.83
  -1  -2 -16  658.06   11.97
  -1  -2 -16  680.36   11.91
  -1  -2 -15  350.93    8.74
  -1  -2 -15  350.11    8.54
  -1  -2 -14  131.74    5.99
  -1  -2 -14  129.15    6.00
  -1  -2 -13  631.17   10.54
  -1  -2 -13  613.31   10.66
  -1  -2 -12  404.16    8.24
  -1  -2 -11  137.11    5.01
  -1  -2 -10 2782.88   28.76
  -1  -2  -9  277.17    4.90
  -1  -2  -9  239.49    4.96
  -1  -2  -8   61.72    2.77
  -1  -2  -8   62.64    2.41
  -1  -2  -4  151.11    2.65
  -1  -2  -1  343.00    4.77
  -1  -2  -1  363.23    4.84
  -1  -2   4  437.98    6.36
  -1  -2   4  434.22    5.53
  -1  -2   4  443.38    5.52
  -1  -2   7  121.98    2.35
  -1  -2   7  147.83    3.81
  -1  -2   8   73.71    3.30
  -1  -2   9  874.25   12.74
  -1  -2   9  888.79   12.88
  -1  -2  10 2525.16   28.56
  -1  -2  10 2429.96   28.81
  -1  -2  10 2478.02   27.40
  -1  -2  10 2556.77   28.60
  -1  -2  11  859.22   13.92
  -1  -2  11  867.80   13.82
  -1  -2  11  809.09   14.60
  -1  -2  11  827.79   12.66
  -1  -2  11  795.29   14.14
  -1  -2  11  826.23   13.78
  -1  -2  12  278.97    9.39
  -1  -2  12  281.64    8.87
  -1  -2  12  274.70    9.43
  -1  -2  12  270.58    9.49
  -1  -2  12  270.71    7.54
  -1  -2  12  274.58    8.61
  -1  -2  13  751.83   13.21
  -1  -2  13  831.67   16.22
  -1  -2  13  837.03   14.85
  -1  -2  13  844.80   15.19
  -1  -2  13  795.91   15.47
  -1  -2  13  754.74   14.54
  -1  -2  14  235.18    9.88
  -1  -2  14  234.87    9.03
  -1  -2  14  217.85   10.20
  -1  -2  15   45.06    5.67
  -1  -2  15   45.03    8.04
  -1  -2  15   50.17    8.53
  -1  -2  15   44.85    6.92
  -1  -2  15   37.04    7.19
  -1  -2  16  644.61   11.82
  -1  -2  16  640.83   14.05
  -1  -2  16  675.68   14.04
  -1  -2  16  630.90   13.42
  -1  -2  17  187.20    8.21
  -1  -2  17  187.77    6.39
  -1  -2  17  173.14    7.76
  -1  -2  18    0.63    5.23
  -1  -2  18    2.65    4.66
  -1  -2  18    6.44    3.47
  -1  -2  18   -0.50    4.26
  -1  -2  19   89.99    4.03
  -1  -2  19   86.60    4.71
  -1  -2  19   80.57    3.71
  -1  -1 -20  278.76    5.83
  -1  -1 -19   22.13    4.36
  -1  -1 -18  115.73    6.20
  -1  -1 -18  101.54    5.45
  -1  -1 -17   49.78    5.67
  -1  -1 -17   52.88    5.64
  -1  -1 -17   58.50    5.99
  -1  -1 -17   64.28    6.45
  -1  -1 -16    9.13    5.50
  -1  -1 -16    5.11    5.73
  -1  -1 -15  345.85    9.48
  -1  -1 -15  338.03    9.15
  -1  -1 -14 1413.75   19.07
  -1  -1 -14 1442.72   19.20
  -1  -1 -13  334.03    8.60
  -1  -1 -13  317.62    8.50
  -1  -1 -12  112.50    5.78
  -1  -1 -11 1227.38   15.78
  -1  -1 -10 3940.39   39.49
  -1  -1  -9 3662.47   36.19
  -1  -1  -7 1663.72   17.46
  -1  -1  -7 1716.49   17.14
  -1  -1  -4 1131.48   10.91
  -1  -1  -3  135.97    1.81
  -1  -1  -3  143.45    2.09
  -1  -1   5  392.36    4.46
  -1  -1   5  415.24    5.61
  -1  -1   5  421.90    5.57
  -1  -1   5  420.44    4.59
  -1  -1   5  392.79    5.10
  -1  -1   6 2071.88   18.96
  -1  -1   6 2074.49   20.77
  -1  -1   7   54.73    2.61
  -1  -1   7   47.00    1.83
  -1  -1   7   53.99    2.14
  -1  -1   8  185.87    4.56
  -1  -1   8  190.91    5.07
  -1  -1   9  449.19    7.77
  -1  -1   9  448.23    8.21
  -1  -1  10  630.13   10.55
  -1  -1  10  620.63   11.50
  -1  -1  10  627.20    9.98
  -1  -1  10  622.29   10.85
  -1  -1  10  622.30   10.62
  -1  -1  11  521.67   10.36
  -1  -1  11  526.10   10.55
  -1  -1  11  519.60   11.37
  -1  -1  11  513.41    9.55
  -1  -1  11  532.60   10.95
  -1  -1  11  518.13   10.78
  -1  -1  11  525.46   10.38
  -1  -1  12  276.14    8.73
  -1  -1  12  265.99    7.98
  -1  -1  12  249.46    9.38
  -1  -1  12  254.80    9.01
  -1  -1  12  240.55    7.17
  -1  -1  12  246.66    8.12
  -1  -1  13  487.71   11.56
  -1  -1  13  496.48   11.64
  -1  -1  13  494.73   12.35
  -1  -1  14   32.47    5.66
  -1  -1  14   26.88    8.16
  -1  -1  14   25.46    7.52
  -1  -1  15  588.97   12.03
  -1  -1  15  587.10   14.13
  -1  -1  15  571.77   13.31
  -1  -1  15  593.20   13.36
  -1  -1  15  570.78   13.56
  -1  -1  16 2716.43   31.83
  -1  -1  16 2854.73   33.76
  -1  -1  16 2681.94   33.43
  -1  -1  16 2886.58   32.92
  -1  -1  16 2682.49   31.63
  -1  -1  17  160.02    6.82
  -1  -1  17  171.36    7.87
  -1  -1  17  177.27    9.53
  -1  -1  17  157.80    8.16
  -1  -1  17  152.06    7.17
  -1  -1  18  124.30    5.66
  -1  -1  18  129.47    6.33
  -1  -1  18  126.37    7.05
  -1  -1  18  144.06    7.96
  -1  -1  18  119.07    5.26
  -1  -1  19  429.62    8.17
  -1  -1  19  411.43    8.77
  -1   0 -20   33.47    3.46
  -1   0 -20   37.01    3.67
  -1   0 -19  134.96    5.75
  -1   0 -19  151.35    6.06
  -1   0 -18   58.30    5.65
  -1   0 -18   69.52    5.29
  -1   0 -18   67.35    6.13
  -1   0 -17 1177.53   16.17
  -1   0 -17 1150.76   16.98
  -1   0 -17 1171.29   16.77
  -1   0 -16   22.18    6.72
  -1   0 -16   24.27    6.03
  -1   0 -15  973.07   15.90
  -1   0 -15  963.25   15.68
  -1   0 -14  252.80    8.92
  -1   0 -14  261.58    8.88
  -1   0 -13  164.71    6.54
  -1   0 -13  175.44    7.79
  -1   0 -13  181.88    7.65
  -1   0 -12  278.68    7.52
  -1   0 -12  283.30    8.24
  -1   0 -11 3389.95   35.28
  -1   0 -11 3278.90   34.74
  -1   0 -10  964.84   12.96
  -1   0 -10 1017.71   13.69
  -1   0  -9 1478.37   17.29
  -1   0  -9 1545.85   17.81
  -1   0  -8  157.31    4.27
  -1   0  -8  153.44    4.07
  -1   0  -7  239.88    4.64
  -1   0  -7  247.83    5.02
  -1   0  -7  253.42    4.66
  -1   0  -6 1534.89   14.45
  -1   0  -6 1531.84   16.06
  -1   0  -6 1494.02   14.39
  -1   0  -6 1615.12   16.55
  -1   0  -6 1615.54   16.17
  -1   0  -3  120.25    2.10
  -1   0  -3  121.96    2.10
  -1   0  -3  120.99    2.15
  -1   0   0   86.15    1.60
  -1   0   4   99.92    1.94
  -1   0   4  100.36    1.94
  -1   0   4   96.01    2.39
  -1   0   4  110.38    2.45
  -1   0   4  109.17    2.51
  -1   0   4  100.96    2.04
  -1   0   4  110.43    2.57
  -1   0   5  265.26    4.23
  -1   0   5  232.78    3.98
  -1   0   5  260.16    4.44
  -1   0   5  244.37    4.38
  -1   0   6 1028.81    9.85
  -1   0   6 1085.26   11.82
  -1   0   6 1031.50   11.34
  -1   0   6 1072.58   12.20
  -1   0   6  995.16    9.81
  -1   0   6 1049.95   12.11
  -1   0   7 1564.34   16.73
  -1   0   7 1541.12   15.84
  -1   0   8 2153.01   21.11
  -1   0   8 2115.80   23.40
  -1   0   8 2148.69   22.75
  -1   0   9 1081.65   14.51
  -1   0   9 1044.44   14.43
  -1   0  10  422.19    8.01
  -1   0  10  425.94    8.77
  -1   0  11 2828.09   31.14
  -1   0  11 2914.18   32.59
  -1   0  12 1089.55   15.81
  -1   0  12 1063.22   16.61
  -1   0  12 1067.68   15.72
  -1   0  13   30.43    5.39
  -1   0  13   34.11    7.08
  -1   0  13   32.98    6.77
  -1   0  14 1011.14   17.58
  -1   0  14 1019.14   16.46
  -1   0  14 1015.75   16.26
  -1   0  15  493.64   11.42
  -1   0  15  493.67   12.01
  -1   0  15  479.36   12.25
  -1   0  15  453.26   10.23
  -1   0  16   49.15    7.91
  -1   0  16   52.05    6.85
  -1   0  16   45.28    7.84
  -1   0  16   56.38    6.16
  -1   0  17  147.38    8.02
  -1   0  17  152.86    8.58
  -1   0  17  146.32    6.99
  -1   0  17  157.23    8.45
  -1   0  18 1015.16   15.35
  -1   0  18  990.81   16.07
  -1   0  19  141.89    5.71
  -1   0  20   19.74    2.84
  -1   1 -20   39.20    2.77
  -1   1 -19  593.02    9.12
  -1   1 -19  572.14    9.24
  -1   1 -18  454.41    9.38
  -1   1 -18  459.98    9.51
  -1   1 -17  123.38    7.45
  -1   1 -17  111.52    7.05
  -1   1 -17  118.77    5.86
  -1   1 -16  294.72    9.67
  -1   1 -16  268.90    9.64
  -1   1 -16  280.70    7.96
  -1   1 -15  114.66    6.68
  -1   1 -15  115.94    8.09
  -1   1 -14  372.60    9.60
  -1   1 -14  400.39   10.99
  -1   1 -13 1268.60   18.22
  -1   1 -13 1366.80   19.25
  -1   1 -12 1771.27   22.54
  -1   1 -12 1799.29   22.37
  -1   1 -11  115.60    6.43
  -1   1 -11  108.13    6.24
  -1   1 -11  107.67    5.81
  -1   1 -10 1039.72   15.01
  -1   1 -10 1119.64   15.12
  -1   1  -9 5873.49   58.06
  -1   1  -9 6091.00   57.92
  -1   1  -8  464.27    8.10
  -1   1  -8  479.73    8.01
  -1   1  -7  496.64    8.07
  -1   1  -7  531.63    7.98
  -1   1  -6 2942.38   26.61
  -1   1  -6 2695.04   26.41
  -1   1  -5 3708.96   34.55
  -1   1  -4 1014.46   10.74
  -1   1  -4 1010.15    9.89
  -1   1  -1  292.04    4.22
  -1   1  -1  316.72    4.46
  -1   1   0  617.60    7.11
  -1   1   0  562.82    7.01
  -1   1   6  417.09    5.42
  -1   1   6  411.36    5.35
  -1   1   7  184.40    4.40
  -1   1   7  182.55    3.05
  -1   1   8 1214.46   14.14
  -1   1   9  553.49    8.01
  -1   1  10  662.59    8.88
  -1   1  11  969.07   14.59
  -1   1  11  939.10   14.55
  -1   1  11  937.28   15.06
  -1   1  12  118.53    6.73
  -1   1  12  124.26    6.62
  -1   1  12  128.14    6.57
  -1   1  12  115.92    7.33
  -1   1  12  112.33    7.20
  -1   1  13  882.65   15.24
  -1   1  13  915.46   14.51
  -1   1  13  902.81   15.28
  -1   1  13  896.88   15.27
  -1   1  14 1055.32   16.59
  -1   1  14 1037.56   17.45
  -1   1  14 1092.80   17.36
  -1   1  14 1031.28   18.19
  -1   1  14 1073.48   17.26
  -1   1  15 3071.30   34.88
  -1   1  15 3147.80   36.20
  -1   1  15 3101.33   36.53
  -1   1  15 3122.04   37.29
  -1   1  15 3159.32   35.84
  -1   1  15 3139.98   34.62
  -1   1  16   77.66    8.26
  -1   1  16   85.19    7.56
  -1   1  16   70.65    8.11
  -1   1  16   72.61    5.86
  -1   1  16   77.03    7.35
  -1   1  17  487.40   11.54
  -1   1  17  503.20   11.45
  -1   1  17  486.81   11.93
  -1   1  18  721.06   12.46
  -1   1  18  717.05   12.42
  -1   1  19    9.57    3.77
  -1   1  19    2.32    3.92
  -1   1  20  363.28    6.19
  -1   2 -18   22.80    3.76
  -1   2 -18   22.03    4.53
  -1   2 -17  342.58    8.49
  -1   2 -17  351.80    7.97
  -1   2 -16  440.20    9.68
  -1   2 -16  515.35   10.75
  -1   2 -15   33.56    6.45
  -1   2 -15   31.61    5.55
  -1   2 -15   45.34    7.14
  -1   2 -14  519.51   11.10
  -1   2 -14  531.64   11.86
  -1   2 -14  541.16   11.49
  -1   2 -14  561.72   12.24
  -1   2 -13  226.15    8.79
  -1   2 -13  230.71    8.13
  -1   2 -13  221.62    9.16
  -1   2 -13  223.05    8.62
  -1   2 -12 1287.63   18.70
  -1   2 -12 1271.08   18.30
  -1   2 -12 1275.08   18.09
  -1   2 -11   71.75    6.62
  -1   2 -11   73.10    5.43
  -1   2 -11   75.40    7.01
  -1   2 -11   85.44    6.19
  -1   2 -11   74.01    6.35
  -1   2 -10 2543.30   29.04
  -1   2 -10 2622.58   29.92
  -1   2 -10 2615.45   29.93
  -1   2 -10 2684.18   29.19
  -1   2 -10 2568.22   29.38
  -1   2 -10 2723.37   29.76
  -1   2  -9 4175.87   43.31
  -1   2  -9 4289.38   42.22
  -1   2  -9 4227.54   42.64
  -1   2  -8  767.77   11.98
  -1   2  -8  743.08   10.86
  -1   2  -7   84.30    4.66
  -1   2  -7   86.79    4.55
  -1   2  -7   90.64    4.08
  -1   2  -6  472.43    7.70
  -1   2  -6  459.74    7.27
  -1   2  -6  471.66    6.86
  -1   2  -5  467.40    7.02
  -1   2  -5  481.36    6.89
  -1   2  -4  572.48    7.15
  -1   2  -4  578.04    7.30
  -1   2  -3  192.80    4.18
  -1   2  -3  202.79    3.91
  -1   2  -2 3457.46   33.46
  -1   2  -1  227.25    4.51
  -1   2  -1  231.97    4.44
  -1   2   1 1897.75   19.96
  -1   2   2 2135.99   21.83
  -1   2   4 1772.97   18.58
  -1   2   4 1714.54   18.46
  -1   2   5 2020.35   22.15
  -1   2   5 2068.27   21.31
  -1   2   7 1265.97   15.54
  -1   2   7 1234.88   14.03
  -1   2   8   52.90    2.59
  -1   2   8   56.36    3.84
  -1   2   9 1613.27   19.13
  -1   2  10 3513.84   37.74
  -1   2  10 3508.24   38.29
  -1   2  11  140.35    7.28
  -1   2  11  147.81    6.66
  -1   2  11  145.60    7.58
  -1   2  11  143.95    6.13
  -1   2  11  148.13    7.65
  -1   2  12 1502.07   21.34
  -1   2  12 1526.57   20.10
  -1   2  12 1512.30   22.09
  -1   2  12 1510.30   19.81
  -1   2  12 1558.44   21.61
  -1   2  13 2164.89   25.43
  -1   2  13 2234.46   28.15
  -1   2  13 2180.42   26.37
  -1   2  13 2218.49   28.62
  -1   2  13 2171.89   26.04
  -1   2  13 2239.36   27.65
  -1   2  14 3816.49   42.83
  -1   2  14 3885.11   40.61
  -1   2  14 3864.17   41.66
  -1   2  15  274.90    9.34
  -1   2  15  263.30    9.35
  -1   2  15  270.41    8.18
  -1   2  16  677.29   13.05
  -1   2  16  692.24   13.15
  -1   2  17 1234.53   17.22
  -1   2  17 1189.11   17.42
  -1   2  18    8.83    4.40
  -1   2  18   -0.51    4.58
  -1   2  19   38.76    3.02
  -1   2  19   44.07    4.00
  -1   3 -18  348.69    5.44
  -1   3 -17  520.17    7.86
  -1   3 -16  265.97    6.81
  -1   3 -16  255.39    6.28
  -1   3 -15  167.53    5.45
  -1   3 -15  159.59    6.55
  -1   3 -15  177.83    5.98
  -1   3 -15  175.29    6.86
  -1   3 -14  329.98    8.85
  -1   3 -14  323.80    9.52
  -1   3 -14  318.92    9.22
  -1   3 -14  313.92    7.55
  -1   3 -13  186.83    8.30
  -1   3 -13  188.55    6.66
  -1   3 -13  190.46    8.91
  -1   3 -13  195.72    8.46
  -1   3 -13  196.51    8.00
  -1   3 -12   90.73    7.39
  -1   3 -12   98.62    7.05
  -1   3 -12   89.20    6.88
  -1   3 -12   89.55    6.36
  -1   3 -12   96.66    8.00
  -1   3 -12   85.02    6.80
  -1   3 -11 1978.74   23.77
  -1   3 -11 2048.37   25.69
  -1   3 -11 1930.23   24.41
  -1   3 -11 1999.40   25.65
  -1   3 -11 1964.38   24.97
  -1   3 -11 2045.41   24.55
  -1   3 -10 1882.77   22.62
  -1   3 -10 1954.58   24.50
  -1   3 -10 1922.04   24.79
  -1   3 -10 1903.88   23.32
  -1   3 -10 1863.97   23.63
  -1   3 -10 1908.03   24.10
  -1   3 -10 1863.88   22.16
  -1   3  -9  108.76    5.27
  -1   3  -9  121.54    5.87
  -1   3  -9  117.11    7.51
  -1   3  -9  107.72    6.91
  -1   3  -9  116.12    6.62
  -1   3  -9  100.55    6.36
  -1   3  -9  109.23    6.42
  -1   3  -8 3347.14   36.43
  -1   3  -8 3376.57   34.57
  -1   3  -8 3467.56   37.45
  -1   3  -8 3368.47   34.23
  -1   3  -8 3349.67   35.27
  -1   3  -8 3347.40   36.92
  -1   3  -7 2532.03   28.95
  -1   3  -7 2607.90   29.00
  -1   3  -7 2529.96   27.52
  -1   3  -7 2519.63   26.50
  -1   3  -6   91.82    4.34
  -1   3  -6   88.25    5.33
  -1   3  -6   89.20    4.52
  -1   3  -6   94.49    5.56
  -1   3  -5 3179.82   34.22
  -1   3  -5 3299.07   33.97
  -1   3  -5 3223.49   33.26
  -1   3  -5 3263.71   32.45
  -1   3  -4 1416.53   17.10
  -1   3  -4 1402.04   15.93
  -1   3  -4 1419.03   17.00
  -1   3  -3 3144.88   31.81
  -1   3  -3 3169.45   32.55
  -1   3  -2  156.45    4.54
  -1   3  -2  153.08    4.80
  -1   3  -1  252.43    5.78
  -1   3  -1  239.99    5.88
  -1   3   0 5461.60   51.22
  -1   3   1  114.76    4.44
  -1   3   1  129.49    3.17
  -1   3   2  451.57    8.13
  -1   3   4   42.41    3.74
  -1   3   5 6835.61   65.34
  -1   3   6 7363.36   72.25
  -1   3   6 7611.41   71.38
  -1   3   7  272.31    6.47
  -1   3   7  269.22    7.30
  -1   3   8 1256.80   18.13
  -1   3   8 1210.79   15.34
  -1   3   8 1220.61   17.03
  -1   3   9   31.46    5.59
  -1   3   9   28.15    4.75
  -1   3   9   36.23    4.87
  -1   3   9   39.81    6.28
  -1   3   9   30.27    5.85
  -1   3  10   64.49    6.21
  -1   3  10   48.44    5.22
  -1   3  10   69.31    5.55
  -1   3  10   68.17    7.22
  -1   3  10   71.05    6.78
  -1   3  11 1014.36   16.54
  -1   3  11 1031.66   15.26
  -1   3  11 1066.34   17.38
  -1   3  11 1040.55   17.19
  -1   3  12 3099.25   36.39
  -1   3  12 3243.28   37.06
  -1   3  12 3137.82   34.41
  -1   3  12 3207.49   37.15
  -1   3  13  121.82    7.39
  -1   3  13  129.86    8.43
  -1   3  13  121.25    8.34
  -1   3  14   55.08    6.94
  -1   3  14   66.70    7.15
  -1   3  14   53.44    7.24
  -1   3  15  594.50   11.99
  -1   3  15  613.81   11.53
  -1   3  15  584.18   12.76
  -1   3  16  496.00   10.25
  -1   3  16  477.87   10.47
  -1   3  17   40.61    4.58
  -1   3  17   48.93    5.32
  -1   3  18  136.77    4.13
  -1   3  18  155.70    5.39
  -1   4 -16    9.04    2.30
  -1   4 -15  146.39    5.06
  -1   4 -15  147.57    4.73
  -1   4 -14   46.27    5.10
  -1   4 -14   35.88    4.96
  -1   4 -13   43.26    5.93
  -1   4 -12  725.59   13.52
  -1   4 -12  728.82   13.09
  -1   4 -12  713.29   12.51
  -1   4 -11  153.49    8.13
  -1   4 -11  147.97    7.71
  -1   4 -11  166.67    8.14
  -1   4 -11  161.95    7.53
  -1   4 -10  108.85    7.67
  -1   4 -10  104.13    7.88
  -1   4 -10   96.82    7.20
  -1   4  -9 2593.00   30.90
  -1   4  -9 2666.03   31.93
  -1   4  -9 2576.13   31.17
  -1   4  -8  553.33   11.92
  -1   4  -8  543.76   11.87
  -1   4  -8  568.68   12.87
  -1   4  -8  527.23   12.29
  -1   4  -7  110.60    7.54
  -1   4  -7  112.90    7.23
  -1   4  -7  116.39    7.56
  -1   4  -7  107.23    7.59
  -1   4  -6   12.63    5.95
  -1   4  -6   10.48    5.73
  -1   4  -6   12.62    6.01
  -1   4  -6    8.44    4.27
  -1   4  -5 1120.02   16.01
  -1   4  -5 1156.78   17.10
  -1   4  -5 1152.55   17.71
  -1   4  -5 1122.24   16.23
  -1   4  -4  251.29    7.86
  -1   4  -4  262.38    7.44
  -1   4  -4  270.19    8.30
  -1   4  -4  257.07    7.69
  -1   4  -4  273.14    8.73
  -1   4  -4  274.04    8.68
  -1   4  -4  248.30    7.70
  -1   4  -3  955.10   13.50
  -1   4  -3  908.88   14.22
  -1   4  -3  945.57   15.36
  -1   4  -3  990.84   15.43
  -1   4  -3 1022.78   14.00
  -1   4  -3  925.54   14.62
  -1   4  -3 1013.00   13.76
  -1   4  -3  919.22   14.50
  -1   4  -2 2662.68   29.94
  -1   4  -2 2437.49   29.24
  -1   4  -2 2542.08   28.42
  -1   4  -2 2719.95   30.03
  -1   4  -2 2691.79   27.86
  -1   4  -2 2473.40   29.22
  -1   4  -2 2592.98   29.38
  -1   4  -2 2509.55   29.07
  -1   4  -1  790.16   13.30
  -1   4  -1  846.47   13.18
  -1   4  -1  848.59   13.67
  -1   4  -1  805.56   12.60
  -1   4  -1  852.83   11.40
  -1   4  -1  807.09   13.32
  -1   4  -1  807.34   13.06
  -1   4   0   24.85    4.88
  -1   4   0   20.22    4.34
  -1   4   0   32.43    4.55
  -1   4   1  729.17   11.82
  -1   4   1  756.45   12.19
  -1   4   2 3700.14   38.42
  -1   4   2 3645.90   38.56
  -1   4   3  255.71    7.96
  -1   4   3  239.57    7.75
  -1   4   3  226.54    7.72
  -1   4   3  235.26    7.40
  -1   4   3  226.05    7.66
  -1   4   3  231.07    7.28
  -1   4   4  198.88    7.16
  -1   4   4  214.33    7.77
  -1   4   4  197.72    7.52
  -1   4   4  203.81    6.86
  -1   4   4  192.70    7.25
  -1   4   4  196.00    7.44
  -1   4   5 3898.64   41.34
  -1   4   5 3876.65   42.33
  -1   4   5 3861.59   41.70
  -1   4   5 3871.32   41.74
  -1   4   6 1865.42   22.98
  -1   4   6 1821.22   24.03
  -1   4   6 1881.90   24.81
  -1   4   6 1816.75   23.25
  -1   4   6 1814.19   23.72
  -1   4   7   53.86    6.00
  -1   4   7   42.95    5.01
  -1   4   7   43.38    5.64
  -1   4   7   58.90    6.69
  -1   4   7   49.31    6.59
  -1   4   7   53.63    6.50
  -1   4   8   53.58    6.77
  -1   4   8   57.44    7.05
  -1   4   8   52.35    6.07
  -1   4   9 2792.29   33.15
  -1   4   9 2858.96   34.05
  -1   4   9 2764.11   32.90
  -1   4  10 2275.97   28.07
  -1   4  10 2247.87   29.38
  -1   4  11  322.21    9.86
  -1   4  11  332.95   10.63
  -1   4  11  349.56   10.92
  -1   4  12   63.95    7.05
  -1   4  12   65.44    7.53
  -1   4  12   76.96    7.83
  -1   4  13   76.90    7.49
  -1   4  13   62.84    6.18
  -1   4  13   69.37    7.40
  -1   4  14  135.06    7.39
  -1   4  14  119.36    6.46
  -1   4  14  126.27    7.53
  -1   4  15  622.00   10.77
  -1   4  15  615.44   11.86
  -1   4  15  639.99   10.84
  -1   4  16  441.68    7.83
  -1   4  16  421.65    7.15
  -1   4  17   86.56    4.15
  -1   5 -14  120.74    3.52
  -1   5 -14  116.25    3.71
  -1   5 -14  114.90    3.57
  -1   5 -13  101.74    4.35
  -1   5 -13   97.66    4.62
  -1   5 -13   90.47    4.81
  -1   5 -12  253.15    7.34
  -1   5 -12  249.98    6.42
  -1   5 -12  271.30    7.22
  -1   5 -11   25.88    5.72
  -1   5 -11   27.40    5.25
  -1   5 -11   32.09    5.72
  -1   5 -10  459.18   10.69
  -1   5 -10  448.22   10.21
  -1   5 -10  485.08   10.50
  -1   5  -9  586.55   12.28
  -1   5  -9  556.75   11.94
  -1   5  -8   28.64    5.28
  -1   5  -8   29.66    7.15
  -1   5  -7   73.91    5.65
  -1   5  -7   81.06    8.05
  -1   5  -6 1357.99   19.67
  -1   5  -6 1319.14   17.79
  -1   5  -6 1302.72   20.35
  -1   5  -6 1333.01   18.40
  -1   5  -5  922.73   15.92
  -1   5  -5  954.73   15.45
  -1   5  -5  983.54   16.61
  -1   5  -5  936.84   13.89
  -1   5  -5  987.56   16.97
  -1   5  -4   26.59    5.46
  -1   5  -4   24.85    6.56
  -1   5  -4   29.28    7.43
  -1   5  -4   24.60    7.58
  -1   5  -3  952.44   16.12
  -1   5  -3  945.85   15.73
  -1   5  -3  992.43   16.52
  -1   5  -3  994.60   17.20
  -1   5  -2 1069.90   17.03
  -1   5  -2 1130.01   17.96
  -1   5  -2 1079.16   17.38
  -1   5  -2 1117.79   17.50
  -1   5  -1 1195.47   18.58
  -1   5  -1 1264.06   18.37
  -1   5  -1 1271.63   19.11
  -1   5  -1 1215.51   18.21
  -1   5  -1 1172.94   17.37
  -1   5   0 1143.38   17.99
  -1   5   0 1116.64   17.06
  -1   5   0 1116.56   16.98
  -1   5   0 1112.52   17.46
  -1   5   0 1226.76   18.41
  -1   5   0 1204.51   17.62
  -1   5   0 1192.55   17.58
  -1   5   1  175.58    7.66
  -1   5   1  193.45    8.59
  -1   5   1  194.16    8.02
  -1   5   1  194.94    8.57
  -1   5   1  192.53    7.74
  -1   5   1  197.74    7.62
  -1   5   1  183.20    8.24
  -1   5   2  137.95    7.79
  -1   5   2  150.82    6.91
  -1   5   2  147.40    8.13
  -1   5   2  142.13    7.17
  -1   5   2  146.84    7.93
  -1   5   3  101.46    7.66
  -1   5   3   70.95    6.68
  -1   5   3  104.19    7.41
  -1   5   3  104.69    7.06
  -1   5   3  103.51    6.12
  -1   5   3   84.89    7.41
  -1   5   3   88.26    7.28
  -1   5   4  139.78    7.51
  -1   5   4  129.98    7.99
  -1   5   4  109.33    6.96
  -1   5   4  126.27    8.10
  -1   5   4  128.79    8.04
  -1   5   4  125.33    7.88
  -1   5   5 1293.23   19.70
  -1   5   5 1367.08   20.20
  -1   5   5 1314.56   19.91
  -1   5   5 1325.73   19.77
  -1   5   5 1313.53   19.26
  -1   5   5 1397.55   20.27
  -1   5   6   42.49    6.88
  -1   5   6   32.80    7.17
  -1   5   6   40.49    7.46
  -1   5   6   39.76    5.77
  -1   5   6   50.08    6.80
  -1   5   6   41.63    7.16
  -1   5   7 3088.64   35.69
  -1   5   7 3001.60   34.80
  -1   5   7 2986.53   35.94
  -1   5   7 3094.92   35.49
  -1   5   7 3165.25   35.98
  -1   5   8 2024.16   25.10
  -1   5   8 2107.66   26.06
  -1   5   8 2034.31   26.89
  -1   5   8 2110.37   26.78
  -1   5   8 1958.35   26.39
  -1   5   9  138.35    8.03
  -1   5   9  124.58    8.19
  -1   5   9  132.36    8.43
  -1   5   9  136.33    8.48
  -1   5  10   30.52    6.32
  -1   5  10   24.49    6.63
  -1   5  10   22.09    6.95
  -1   5  11  768.61   14.15
  -1   5  11  782.41   13.43
  -1   5  11  820.37   14.45
  -1   5  11  803.19   14.43
  -1   5  12  264.27    8.71
  -1   5  12  250.64    8.47
  -1   5  12  261.81    7.78
  -1   5  12  251.47    8.69
  -1   5  13   22.55    4.72
  -1   5  13   18.40    5.37
  -1   5  13   15.22    5.59
  -1   5  14  362.40    7.67
  -1   5  14  344.73    6.86
  -1   5  14  347.38    7.83
  -1   5  15  198.64    4.72
  -1   5  15  205.31    5.47
  -1   6 -11    0.63    2.86
  -1   6 -10  229.79    5.55
  -1   6  -9  728.74   10.89
  -1   6  -9  748.38   10.84
  -1   6  -8  145.33    6.53
  -1   6  -8  139.40    6.46
  -1   6  -8  156.19    6.05
  -1   6  -7  574.59   10.18
  -1   6  -7  585.12   11.08
  -1   6  -7  553.80   11.01
  -1   6  -6  340.57    9.10
  -1   6  -6  338.92    9.41
  -1   6  -6  356.55    8.35
  -1   6  -5   93.79    6.92
  -1   6  -5   85.67    7.54
  -1   6  -5   93.50    6.06
  -1   6  -4  163.47    7.74
  -1   6  -4  172.64    7.82
  -1   6  -4  165.81    8.63
  -1   6  -4  175.50    7.05
  -1   6  -3  328.79    9.42
  -1   6  -3  324.31    9.65
  -1   6  -3  339.09    8.21
  -1   6  -2   25.45    6.91
  -1   6  -2   23.12    5.87
  -1   6  -2   30.21    4.91
  -1   6  -1  476.47   11.58
  -1   6  -1  477.62   10.51
  -1   6   0   15.62    6.99
  -1   6   0   20.58    5.55
  -1   6   0   23.26    7.22
  -1   6   0   28.33    7.02
  -1   6   1  353.35    9.38
  -1   6   1  366.96   10.72
  -1   6   1  374.29   10.38
  -1   6   1  358.53    8.74
  -1   6   1  384.57   10.95
  -1   6   2  345.84    9.31
  -1   6   2  321.81    7.94
  -1   6   3  991.30   16.48
  -1   6   3  995.49   15.59
  -1   6   3  946.88   15.84
  -1   6   4  496.34   11.24
  -1   6   4  504.11   11.84
  -1   6   4  470.94   11.27
  -1   6   5   44.25    6.51
  -1   6   5   55.64    7.09
  -1   6   5   36.54    6.95
  -1   6   5   48.17    6.92
  -1   6   6 3423.46   37.01
  -1   6   6 3367.39   37.12
  -1   6   6 3369.68   37.19
  -1   6   6 3409.52   37.39
  -1   6   7  301.61    8.78
  -1   6   7  305.57    9.15
  -1   6   7  279.99    9.01
  -1   6   8  399.25    8.04
  -1   6   8  403.65    9.81
  -1   6   8  380.10    9.30
  -1   6   8  367.87    9.55
  -1   6   9   82.00    5.79
  -1   6   9   96.36    6.54
  -1   6   9   90.26    6.19
  -1   6  10  466.99    8.75
  -1   6  10  457.71    9.36
  -1   6  11  550.01    8.83
  -1   6  11  560.06    9.64
  -1   6  12   76.36    4.53
  -1   6  12   74.13    3.58
  -1   6  12   82.92    4.50
  -1   6  13  241.89    4.92
  -1   6  13  241.67    5.09
  -1   7  -7  114.67    3.31
  -1   7  -6   35.59    2.53
  -1   7  -6   40.53    3.29
  -1   7  -5  142.81    4.78
  -1   7  -5  127.14    3.70
  -1   7  -4  536.57    7.80
  -1   7  -4  494.49    7.29
  -1   7  -3   71.91    4.39
  -1   7  -3   57.39    3.35
  -1   7  -2   38.41    3.10
  -1   7  -2   52.24    4.49
  -1   7  -2   47.34    4.90
  -1   7  -1  443.49    8.49
  -1   7  -1  419.61    8.50
  -1   7   0  288.93    7.35
  -1   7   1   46.67    4.94
  -1   7   2  223.20    6.37
  -1   7   3  159.90    5.10
  -1   7   3  166.08    5.65
  -1   7   4   20.74    4.03
  -1   7   4   28.17    4.40
  -1   7   4   20.77    3.99
  -1   7   5   70.31    4.39
  -1   7   5   59.53    4.35
  -1   7   5   57.59    3.84
  -1   7   6  100.22    4.64
  -1   7   6  102.47    4.60
  -1   7   6   90.81    3.51
  -1   7   7   35.70    3.74
  -1   7   7   33.08    3.52
  -1   7   7   30.09    2.46
  -1   7   8   31.84    3.29
  -1   7   9   93.61    3.33
   0  -8  -6   85.86    2.72
   0  -8  -5   96.11    3.16
   0  -8  -4  213.81    4.64
   0  -8  -3   79.50    3.44
   0  -8  -2    4.02    2.66
   0  -8   3  191.25    3.75
   0  -7 -10   17.74    2.90
   0  -7  -9  326.74    6.81
   0  -7  -8  329.73    7.26
   0  -7  -8  312.15    6.39
   0  -7  -7  241.80    6.66
   0  -7  -7  241.14    6.00
   0  -7  -6  266.32    7.43
   0  -7  -6  269.80    6.73
   0  -7  -5  501.76   10.08
   0  -7  -4  633.47   11.63
   0  -7  -3  109.75    6.33
   0  -7  -3  112.22    5.97
   0  -7  -2   91.43    6.31
   0  -7  -2   80.09    5.16
   0  -7  -2   81.18    5.57
   0  -7  -1  158.49    6.46
   0  -7  -1  151.46    5.92
   0  -7   0   17.92    4.97
   0  -7   0   20.02    4.09
   0  -7   1   40.03    5.40
   0  -7   1   44.99    5.52
   0  -7   2  252.35    7.46
   0  -7   3   83.90    5.08
   0  -7   4    7.79    3.75
   0  -7   4    5.43    4.72
   0  -7   5  274.47    6.00
   0  -7   5  328.58    7.85
   0  -7   6   65.07    4.71
   0  -7   7    3.99    3.47
   0  -7   7    5.13    3.30
   0  -7   8  289.29    5.92
   0  -7   8  293.54    5.85
   0  -7   9  108.18    3.33
   0  -6 -13  157.81    4.01
   0  -6 -12  485.56    8.33
   0  -6 -11    7.84    3.23
   0  -6 -10  141.60    5.52
   0  -6  -9   44.43    4.86
   0  -6  -9   50.65    4.80
   0  -6  -8 2143.09   25.79
   0  -6  -8 2123.61   26.44
   0  -6  -7    6.07    4.73
   0  -6  -7    9.16    4.63
   0  -6  -6  180.58    7.27
   0  -6  -6  183.55    7.54
   0  -6  -5 1382.81   19.65
   0  -6  -5 1375.76   20.16
   0  -6  -4  582.52   12.18
   0  -6  -4  573.32   12.33
   0  -6  -4  595.85   12.53
   0  -6  -3   99.17    7.12
   0  -6  -3  107.53    6.90
   0  -6  -3  106.70    7.04
   0  -6  -2    3.25    6.35
   0  -6  -2   12.65    5.46
   0  -6  -2   16.00    5.85
   0  -6  -1  595.39   12.94
   0  -6  -1  587.10   12.44
   0  -6  -1  593.28   12.54
   0  -6   0  275.75    9.55
   0  -6   0  279.55    9.11
   0  -6   1  420.49   11.09
   0  -6   1  431.46   10.66
   0  -6   2  252.24    8.34
   0  -6   2  240.28    7.66
   0  -6   2  253.73    9.31
   0  -6   3   21.55    6.34
   0  -6   3   29.87    6.46
   0  -6   3   20.42    4.66
   0  -6   4  778.44   14.62
   0  -6   4  814.44   14.59
   0  -6   5 1044.68   16.71
   0  -6   5 1099.24   17.62
   0  -6   6   19.32    5.02
   0  -6   6   19.91    6.05
   0  -6   7  847.88   13.21
   0  -6   7  884.50   14.80
   0  -6   8  513.65   10.87
   0  -6   9  203.55    7.09
   0  -6   9  215.66    7.01
   0  -6  10   16.68    4.42
   0  -6  10   16.77    4.21
   0  -6  11  415.63    8.13
   0  -6  11  425.03    8.01
   0  -6  12   81.14    3.65
   0  -6  12   70.70    3.70
   0  -5 -15  184.88    4.63
   0  -5 -14    5.77    3.01
   0  -5 -14    8.27    2.54
   0  -5 -13  825.62   12.14
   0  -5 -13  794.84   12.20
   0  -5 -12  158.57    5.67
   0  -5 -12  160.42    5.76
   0  -5 -11 1381.67   17.86
   0  -5 -11 1378.63   18.20
   0  -5 -11 1327.18   19.10
   0  -5 -10 2014.17   23.70
   0  -5 -10 2018.22   24.10
   0  -5 -10 1948.43   25.28
   0  -5  -9  127.56    5.53
   0  -5  -9  125.37    5.49
   0  -5  -9  128.98    6.46
   0  -5  -8   67.39    4.70
   0  -5  -8   65.95    4.84
   0  -5  -8   66.78    5.59
   0  -5  -8   71.85    5.48
   0  -5  -7   77.52    4.81
   0  -5  -7   75.63    4.89
   0  -5  -7   90.14    6.00
   0  -5  -7   78.15    5.81
   0  -5  -6  193.44    6.14
   0  -5  -6  194.73    6.35
   0  -5  -6  201.99    7.39
   0  -5  -6  199.43    7.28
   0  -5  -5  120.75    5.18
   0  -5  -5  119.67    5.50
   0  -5  -5  117.01    6.42
   0  -5  -5  119.34    6.21
   0  -5  -4   78.91    4.61
   0  -5  -4   78.55    5.67
   0  -5  -4   75.14    4.79
   0  -5  -4   79.56    5.84
   0  -5  -4   89.97    5.86
   0  -5  -3  706.04   12.62
   0  -5  -3  742.44   13.26
   0  -5  -3  713.03   12.84
   0  -5  -2 1131.52   17.07
   0  -5  -2 1189.85   17.78
   0  -5  -1  126.46    6.56
   0  -5  -1  143.98    6.88
   0  -5   0  333.34    9.57
   0  -5   0  304.39    8.93
   0  -5   0  320.61    9.02
   0  -5   1 1123.95   17.69
   0  -5   1 1089.84   17.16
   0  -5   1 1123.26   16.85
   0  -5   2   46.96    5.58
   0  -5   2   57.79    6.26
   0  -5   3   22.49    4.69
   0  -5   3   27.22    5.34
   0  -5   3   28.77    6.17
   0  -5   4 1040.50   16.97
   0  -5   4  986.94   14.70
   0  -5   5   51.49    6.14
   0  -5   5   58.33    6.34
   0  -5   5   49.41    4.79
   0  -5   5   57.72    6.54
   0  -5   6   17.83    5.53
   0  -5   6   20.65    6.52
   0  -5   7  265.30    8.55
   0  -5   7  253.52    9.25
   0  -5   8   17.32    4.81
   0  -5   8   18.88    6.12
   0  -5   9    7.86    5.93
   0  -5  10  544.17   11.77
   0  -5  10  530.44   11.67
   0  -5  11  267.23    8.67
   0  -5  11  291.51    8.55
   0  -5  12    2.55    4.54
   0  -5  12   -1.21    4.81
   0  -5  13   32.33    4.37
   0  -5  13   36.37    4.84
   0  -5  14  183.30    5.80
   0  -5  14  195.99    5.56
   0  -5  14  178.40    5.65
   0  -5  15   51.10    3.27
   0  -5  15   58.57    3.37
   0  -5  15   55.84    2.97
   0  -4 -15  243.51    6.09
   0  -4 -14    4.41    3.83
   0  -4 -14    6.13    3.60
   0  -4 -13  539.20    9.46
   0  -4 -13  545.42    9.47
   0  -4 -12  222.73    6.46
   0  -4 -12  230.19    6.36
   0  -4 -11 1044.72   13.58
   0  -4 -11 1038.41   13.79
   0  -4 -10   19.20    3.56
   0  -4 -10    6.51    4.10
   0  -4  -9   14.93    3.04
   0  -4  -9    9.50    4.21
   0  -4  -8  420.75    7.37
   0  -4  -8  451.49    9.74
   0  -4  -7  783.47   10.40
   0  -4  -7  840.77   13.41
   0  -4  -6  325.64    8.09
   0  -4  -5  829.73   11.57
   0  -4  -5  862.55   12.11
   0  -4  -5  858.07   13.39
   0  -4  -4 4483.73   45.10
   0  -4  -4 4626.71   47.28
   0  -4  -3 1753.10   20.36
   0  -4  -3 1790.64   21.41
   0  -4  -2 3380.86   35.01
   0  -4  -2 3441.46   35.64
   0  -4  -2 3491.54   36.57
   0  -4  -1   63.29    4.21
   0  -4  -1   59.14    3.63
   0  -4  -1   62.99    3.71
   0  -4  -1   66.98    4.46
   0  -4   0 2060.42   23.95
   0  -4   0 2056.09   24.47
   0  -4   1 1969.43   23.30
   0  -4   1 1971.45   23.06
   0  -4   2  443.78    9.44
   0  -4   2  432.28    8.87
   0  -4   2  448.06    8.95
   0  -4   3 2091.41   25.39
   0  -4   3 2138.99   24.40
   0  -4   4 2072.94   25.42
   0  -4   4 2111.30   23.66
   0  -4   4 2113.63   24.40
   0  -4   5  579.54   11.29
   0  -4   5  611.62   11.66
   0  -4   5  574.53    9.73
   0  -4   5  586.84   11.69
   0  -4   6  393.51    9.45
   0  -4   6  370.40    9.64
   0  -4   7  747.28   12.80
   0  -4   7  695.98   13.22
   0  -4   8  529.37   10.80
   0  -4   8  575.92   12.11
   0  -4   9   77.14    6.45
   0  -4   9   83.36    6.14
   0  -4  10 2044.22   26.60
   0  -4  10 2101.84   26.58
   0  -4  11  934.57   16.69
   0  -4  11  918.48   15.70
   0  -4  12  194.32    8.31
   0  -4  12  190.21    8.04
   0  -4  13  488.44   11.27
   0  -4  13  526.88   11.78
   0  -4  14   18.60    4.99
   0  -4  14   24.33    5.48
   0  -4  15    2.65    4.69
   0  -4  15   -0.16    4.18
   0  -4  16   75.36    3.48
   0  -4  16   80.14    4.73
   0  -4  16   86.29    4.63
   0  -4  16   78.07    5.25
   0  -4  17   24.12    3.00
   0  -4  17   14.34    3.21
   0  -3 -18   81.09    4.12
   0  -3 -18   79.68    4.38
   0  -3 -17 1060.51   14.22
   0  -3 -17 1060.38   13.83
   0  -3 -16  130.55    5.76
   0  -3 -16  135.14    5.60
   0  -3 -15  251.75    7.33
   0  -3 -15  271.17    7.40
   0  -3 -14 2314.56   26.76
   0  -3 -14 2500.79   27.41
   0  -3 -13  196.70    6.44
   0  -3 -13  217.76    6.56
   0  -3 -12   62.88    4.76
   0  -3 -12   78.00    5.02
   0  -3 -11 2336.42   25.25
   0  -3 -11 2352.24   25.87
   0  -3 -10 1408.89   16.63
   0  -3 -10 1454.44   17.21
   0  -3  -9 1434.30   16.23
   0  -3  -9 1461.74   16.88
   0  -3  -8 1436.89   15.88
   0  -3  -8 1508.63   16.57
   0  -3  -7 2933.96   29.07
   0  -3  -6  349.93    5.63
   0  -3  -5 2094.73   20.94
   0  -3  -3  151.42    3.07
   0  -3  -3  156.57    4.70
   0  -3  -2  177.40    4.20
   0  -3  -2  170.73    3.21
   0  -3  -1 2237.21   23.52
   0  -3  -1 2323.87   24.32
   0  -3  -1 2292.61   24.10
   0  -3   1  480.16    7.82
   0  -3   1  469.53    7.98
   0  -3   2 2377.05   25.54
   0  -3   2 2466.06   25.21
   0  -3   3 1459.47   14.34
   0  -3   3 1402.92   16.37
   0  -3   4  986.87   10.63
   0  -3   4  984.53   11.92
   0  -3   5   53.06    2.31
   0  -3   5   68.79    3.20
   0  -3   6 3112.08   30.27
   0  -3   6 3003.75   30.84
   0  -3   7   79.16    3.18
   0  -3   8   26.54    4.07
   0  -3   8   34.73    2.92
   0  -3   9 1140.29   14.80
   0  -3   9 1130.54   16.90
   0  -3  10  678.48   11.07
   0  -3  10  722.89   13.50
   0  -3  10  710.17   13.06
   0  -3  11 2415.72   30.16
   0  -3  11 2632.34   29.62
   0  -3  11 2394.13   29.14
   0  -3  11 2548.40   29.82
   0  -3  11 2334.34   29.91
   0  -3  12  488.33   11.34
   0  -3  12  504.96   11.78
   0  -3  12  517.23   10.82
   0  -3  12  492.54   11.69
   0  -3  13  800.83   14.21
   0  -3  13  778.99   14.60
   0  -3  13  823.88   15.02
   0  -3  13  782.23   15.23
   0  -3  14    9.77    6.70
   0  -3  14    9.23    5.97
   0  -3  14    9.97    5.75
   0  -3  14   13.75    6.03
   0  -3  15  585.67   11.86
   0  -3  15  562.90   11.79
   0  -3  15  575.24   12.19
   0  -3  16  245.32    7.73
   0  -3  16  243.47    8.24
   0  -3  17   30.93    3.68
   0  -3  17   42.58    4.74
   0  -3  17   35.03    5.02
   0  -3  17   30.48    4.81
   0  -3  18   60.75    2.88
   0  -3  18   67.53    4.09
   0  -2 -19  287.37    6.53
   0  -2 -18  501.16    9.13
   0  -2 -18  497.86    9.07
   0  -2 -17    6.22    4.48
   0  -2 -17    7.51    4.99
   0  -2 -16 1196.31   16.75
   0  -2 -16 1223.95   16.77
   0  -2 -15 1929.32   23.24
   0  -2 -15 1912.05   23.33
   0  -2 -14  183.69    6.99
   0  -2 -14  197.34    6.88
   0  -2 -13  636.68   10.95
   0  -2 -13  663.87   10.99
   0  -2 -12  384.76    7.48
   0  -2 -12  428.69    8.34
   0  -2 -11 1440.82   16.91
   0  -2 -11 1577.42   18.06
   0  -2 -10   17.25    2.78
   0  -2  -9  610.90    8.18
   0  -2  -8 2011.44   20.44
   0  -2  -8 1834.82   19.28
   0  -2  -7 2315.43   23.26
   0  -2  -7 2566.39   24.60
   0  -2  -6 2121.25   21.14
   0  -2  -6 2397.25   22.56
   0  -2  -4  793.14    8.62
   0  -2   0  455.13    4.96
   0  -2   0  468.69    6.36
   0  -2   0  450.14    6.24
   0  -2   4 2684.77   26.40
   0  -2   5 2871.33   28.13
   0  -2   6  138.25    3.39
   0  -2   7 1947.50   20.50
   0  -2   9  333.35    7.82
   0  -2   9  301.08    6.38
   0  -2  10   23.43    4.66
   0  -2  10   29.33    4.64
   0  -2  10   19.91    3.34
   0  -2  10   19.02    3.81
   0  -2  10   28.08    4.79
   0  -2  11 1107.67   17.18
   0  -2  11 1167.73   16.93
   0  -2  11 1198.78   15.79
   0  -2  11 1063.80   16.52
   0  -2  11 1156.67   17.67
   0  -2  11 1176.29   17.19
   0  -2  11 1104.12   16.12
   0  -2  12 3253.70   36.66
   0  -2  12 3414.21   37.06
   0  -2  12 3135.98   34.94
   0  -2  12 2948.36   35.77
   0  -2  12 3443.63   37.04
   0  -2  12 3135.87   35.67
   0  -2  12 3139.89   36.86
   0  -2  13  176.63    7.82
   0  -2  13  191.37    8.53
   0  -2  13  167.70    6.67
   0  -2  13  169.93    8.78
   0  -2  13  172.62    8.38
   0  -2  13  173.69    7.80
   0  -2  13  166.85    6.99
   0  -2  13  174.07    8.55
   0  -2  14   21.99    7.55
   0  -2  14   22.73    6.29
   0  -2  14   24.87    7.22
   0  -2  14   20.26    5.91
   0  -2  14   28.37    6.58
   0  -2  14   18.99    6.57
   0  -2  15  871.42   15.90
   0  -2  15  866.53   15.81
   0  -2  15  876.72   15.96
   0  -2  15  864.07   15.83
   0  -2  15  864.35   16.33
   0  -2  16  393.39   10.96
   0  -2  16  406.99   10.89
   0  -2  16  383.99   10.12
   0  -2  16  387.53   11.15
   0  -2  17   24.99    6.66
   0  -2  17   26.48    5.90
   0  -2  17   19.84    6.21
   0  -2  17   18.52    4.75
   0  -2  18  444.71    9.31
   0  -2  18  417.84    8.11
   0  -2  18  465.75    8.33
   0  -2  18  451.49    9.21
   0  -2  18  392.69    8.86
   0  -2  19   42.83    3.05
   0  -2  19   40.68    3.53
   0  -1 -20  235.95    5.05
   0  -1 -19   91.87    5.16
   0  -1 -18  288.62    7.65
   0  -1 -18  279.04    7.73
   0  -1 -17   99.50    6.10
   0  -1 -17  107.79    6.51
   0  -1 -17   99.91    5.77
   0  -1 -16  692.99   12.24
   0  -1 -16  724.08   12.33
   0  -1 -15  915.58   13.93
   0  -1 -15  891.18   13.96
   0  -1 -15  873.50   13.18
   0  -1 -14  222.69    7.14
   0  -1 -14  213.53    6.72
   0  -1 -13  328.10    7.52
   0  -1 -13  334.70    7.89
   0  -1 -12 1560.33   18.53
   0  -1 -12 1585.12   18.97
   0  -1 -11   78.90    4.39
   0  -1 -11   88.77    4.29
   0  -1 -10  773.55   10.60
   0  -1  -9 3700.70   36.13
   0  -1  -8  968.16   11.17
   0  -1  -8  908.44   11.04
   0  -1  -7 2705.10   26.35
   0  -1  -6 2322.72   22.84
   0  -1  -6 2394.39   22.50
   0  -1  -4  260.35    3.62
   0  -1  -1  277.27    3.26
   0  -1   0  586.83    6.25
   0  -1   4  273.95    3.71
   0  -1   4  231.57    3.60
   0  -1   5  679.62    8.15
   0  -1   5  740.75    8.18
   0  -1   6  108.17    2.77
   0  -1   6  116.56    2.83
   0  -1   7 1344.00   14.76
   0  -1   8 1152.47   13.41
   0  -1   8 1114.41   13.73
   0  -1  10 2474.29   27.72
   0  -1  10 2524.32   26.81
   0  -1  10 2428.46   27.29
   0  -1  11  835.79   13.40
   0  -1  11  813.83   13.74
   0  -1  11  812.20   12.28
   0  -1  11  799.12   13.35
   0  -1  11  799.93   12.87
   0  -1  12    7.44    4.98
   0  -1  12   -0.41    5.26
   0  -1  12   10.39    3.88
   0  -1  12    7.48    6.09
   0  -1  12    5.79    4.92
   0  -1  12    4.37    4.65
   0  -1  12    4.45    4.33
   0  -1  12   12.70    5.01
   0  -1  12    8.81    5.42
   0  -1  13  325.13    9.48
   0  -1  13  308.85    8.15
   0  -1  13  285.36    8.86
   0  -1  13  314.82    9.55
   0  -1  13  298.43    9.90
   0  -1  13  313.83    9.86
   0  -1  14  778.30   14.73
   0  -1  14  733.55   13.32
   0  -1  14  788.49   15.46
   0  -1  14  736.01   13.72
   0  -1  14  760.84   15.46
   0  -1  14  774.46   14.93
   0  -1  15 1094.64   17.82
   0  -1  15 1061.62   18.24
   0  -1  15 1055.34   18.18
   0  -1  15 1038.07   18.47
   0  -1  16  267.42    8.72
   0  -1  16  273.14   10.27
   0  -1  16  267.55   10.75
   0  -1  16  274.95   10.22
   0  -1  16  257.95    9.93
   0  -1  16  261.02    9.61
   0  -1  17  769.54   14.20
   0  -1  17  765.25   13.35
   0  -1  17  737.89   14.48
   0  -1  17  750.77   14.56
   0  -1  18   94.20    7.11
   0  -1  18   91.07    5.43
   0  -1  18   83.05    7.21
   0  -1  18   87.15    6.40
   0  -1  18   73.65    5.44
   0  -1  18   88.56    5.41
   0  -1  19   34.32    3.98
   0  -1  19   35.44    3.43
   0  -1  19   33.52    5.29
   0  -1  19   34.18    4.80
   0  -1  19   27.09    3.45
   0  -1  19   37.86    5.30
   0  -1  20  231.48    5.29
   0   0 -20  179.91    5.04
   0   0 -19  286.69    6.89
   0   0 -19  319.68    7.64
   0   0 -18    3.14    5.67
   0   0 -18    4.53    5.02
   0   0 -18    3.35    5.38
   0   0 -17  576.45   11.23
   0   0 -17  567.97   10.43
   0   0 -16  277.85    8.68
   0   0 -16  282.64    8.53
   0   0 -16  303.77    8.78
   0   0 -16  301.09    7.93
   0   0 -16  285.06    9.15
   0   0 -15  149.96    7.26
   0   0 -15  143.02    7.33
   0   0 -15  147.79    7.33
   0   0 -15  147.32    6.23
   0   0 -15  145.65    7.64
   0   0 -14 1603.69   20.78
   0   0 -14 1623.10   21.25
   0   0 -13  903.18   14.00
   0   0 -13  924.28   14.36
   0   0 -12 1063.15   14.90
   0   0 -12 1054.27   14.98
   0   0 -11 1149.75   15.12
   0   0 -11 1131.85   15.00
   0   0 -10 2452.27   26.42
   0   0 -10 2501.51   26.46
   0   0  -9  276.36    5.92
   0   0  -8 1727.78   18.63
   0   0  -6 1092.04   12.22
   0   0  -6 1156.48   12.02
   0   0  -5   48.80    1.88
   0   0   5   63.94    1.91
   0   0   5   63.91    1.77
   0   0   6 1614.34   14.51
   0   0   6 1623.89   16.62
   0   0   8 1842.35   20.20
   0   0   8 1815.59   20.07
   0   0   9  285.83    5.67
   0   0   9  280.89    6.19
   0   0  10 2791.15   30.41
   0   0  10 2754.54   30.29
   0   0  11 1408.72   17.47
   0   0  11 1361.67   18.41
   0   0  12 1243.25   18.56
   0   0  12 1281.35   17.00
   0   0  12 1275.92   17.98
   0   0  12 1253.39   18.25
   0   0  13 1059.73   15.78
   0   0  13 1064.08   17.08
   0   0  13 1063.94   17.18
   0   0  13 1059.57   17.83
   0   0  14 1893.13   23.81
   0   0  14 1734.74   22.91
   0   0  14 1814.55   24.52
   0   0  14 1826.67   24.69
   0   0  14 1786.72   25.54
   0   0  14 1817.08   25.08
   0   0  15  153.38    8.89
   0   0  15  148.83    7.40
   0   0  15  145.76    8.41
   0   0  15  143.86    6.76
   0   0  15  153.42    9.48
   0   0  16  307.37   10.37
   0   0  16  314.96    9.29
   0   0  16  287.89    9.66
   0   0  16  297.22   11.02
   0   0  16  300.29   10.50
   0   0  17  723.89   13.54
   0   0  17  703.46   13.16
   0   0  17  684.76   12.95
   0   0  17  688.72   14.22
   0   0  17  701.05   14.43
   0   0  18    6.42    4.73
   0   0  18    3.04    4.77
   0   0  18    3.75    6.00
   0   0  18    4.96    6.95
   0   0  18    6.47    6.38
   0   0  19  302.44    7.88
   0   0  19  291.05    7.35
   0   0  19  294.73    6.42
   0   0  19  291.40    8.36
   0   0  19  299.51    7.99
   0   1 -20  218.10    4.47
   0   1 -19   29.61    4.76
   0   1 -18  168.32    7.14
   0   1 -17  815.71   12.87
   0   1 -17  803.16   13.82
   0   1 -16  316.95    9.79
   0   1 -16  297.56    9.52
   0   1 -16  313.83    8.63
   0   1 -16  289.96    7.69
   0   1 -15 1102.13   17.14
   0   1 -15 1076.90   17.12
   0   1 -15 1105.09   16.23
   0   1 -15 1092.69   17.24
   0   1 -14  810.66   14.53
   0   1 -14  871.67   14.98
   0   1 -14  805.07   13.36
   0   1 -14  850.36   15.01
   0   1 -13  270.93    8.97
   0   1 -13  259.68    7.79
   0   1 -13  259.19    8.86
   0   1 -12   33.40    4.60
   0   1 -12   38.45    6.07
   0   1 -12   30.47    4.59
   0   1 -12   28.59    5.36
   0   1 -11  918.92   13.69
   0   1 -11  919.11   13.75
   0   1 -10 2518.45   27.16
   0   1 -10 2512.65   27.90
   0   1  -9 8655.79   81.25
   0   1  -8 1341.09   15.93
   0   1  -7 1086.81   12.44
   0   1  -6  143.81    1.97
   0   1  -6  145.88    3.21
   0   1  -5  583.49    6.00
   0   1  -4  827.90    8.33
   0   1  -4 1004.98    8.81
   0   1   1  251.09    3.22
   0   1   4  362.20    4.56
   0   1   4  375.56    4.57
   0   1   8 1160.58   12.06
   0   1   8 1157.64   14.51
   0   1   9 4249.23   39.32
   0   1   9 4328.27   43.02
   0   1  10  990.00   13.10
   0   1  11   60.48    4.20
   0   1  12 2032.09   24.27
   0   1  12 2012.63   23.55
   0   1  12 1925.27   23.91
   0   1  12 1948.03   24.64
   0   1  13  247.47    8.33
   0   1  13  256.92    8.95
   0   1  13  246.59    8.92
   0   1  13  257.87    7.50
   0   1  13  267.31    8.04
   0   1  14  251.26    9.09
   0   1  14  265.20    8.84
   0   1  14  255.13    8.82
   0   1  14  257.85    9.67
   0   1  14  262.84    9.42
   0   1  15 1083.03   17.91
   0   1  15 1070.75   17.45
   0   1  15 1102.86   18.49
   0   1  15 1122.35   16.97
   0   1  15 1108.85   17.59
   0   1  16  968.66   15.95
   0   1  16  921.77   15.87
   0   1  16  913.67   16.43
   0   1  16  929.91   17.12
   0   1  16  963.98   15.53
   0   1  17  117.69    7.07
   0   1  17  108.89    7.78
   0   1  17  114.84    6.86
   0   1  17  113.40    8.42
   0   1  17  119.50    8.27
   0   1  18  296.60    8.65
   0   1  18  314.94    8.39
   0   1  18  299.89    8.07
   0   1  18  307.19    9.42
   0   1  18  307.02    9.59
   0   1  19   42.95    5.81
   0   1  20  216.64    5.61
   0   2 -19   60.51    4.28
   0   2 -19   68.43    3.99
   0   2 -18  430.06    7.59
   0   2 -18  489.24    9.01
   0   2 -17    8.44    5.99
   0   2 -17    2.20    4.08
   0   2 -16  388.96    8.30
   0   2 -16  388.12    8.96
   0   2 -15  926.15   15.94
   0   2 -15  930.51   13.54
   0   2 -15  926.08   14.73
   0   2 -14   19.61    6.16
   0   2 -14   21.00    7.37
   0   2 -14   28.82    5.53
   0   2 -14   17.51    5.67
   0   2 -13  186.48    7.99
   0   2 -13  209.33    9.18
   0   2 -13  218.22    7.10
   0   2 -13  202.69    8.15
   0   2 -13  205.63    8.81
   0   2 -12 3461.56   37.16
   0   2 -12 3202.77   36.21
   0   2 -12 3422.18   37.45
   0   2 -12 3276.36   37.05
   0   2 -12 3387.39   37.08
   0   2 -11 1236.77   17.15
   0   2 -11 1193.90   17.23
   0   2 -11 1133.99   16.40
   0   2 -11 1162.40   16.79
   0   2 -11 1114.17   16.21
   0   2 -10   33.80    4.98
   0   2 -10   47.90    5.55
   0   2  -9  417.58    8.68
   0   2  -9  452.40    8.87
   0   2  -8 4009.69   40.96
   0   2  -8 4115.38   40.70
   0   2  -7 1863.98   20.97
   0   2  -7 1902.21   20.69
   0   2  -6   77.99    2.33
   0   2  -6   76.43    3.49
   0   2  -5 2821.40   26.15
   0   2  -5 2775.40   27.74
   0   2  -4 3019.23   29.06
   0   2   0  523.57    6.66
   0   2   0  536.36    6.67
   0   2   4 1023.31   11.61
   0   2   4 1006.43   11.04
   0   2   6 2874.00   27.82
   0   2   6 2976.67   28.95
   0   2   7 3413.55   32.19
   0   2   7 3161.02   30.58
   0   2   8 2867.08   26.87
   0   2   8 2520.24   24.75
   0   2   9  851.26   10.79
   0   2  10   23.10    2.58
   0   2  11 1966.46   24.57
   0   2  12  664.27   11.17
   0   2  12  631.50   12.20
   0   2  12  658.06   11.80
   0   2  12  652.64   13.19
   0   2  13  770.23   14.19
   0   2  13  812.86   13.72
   0   2  13  797.84   12.89
   0   2  13  783.08   14.71
   0   2  14  260.69    8.52
   0   2  14  256.87    9.09
   0   2  14  247.95    8.52
   0   2  14  257.08    9.35
   0   2  14  253.28    9.48
   0   2  15 2305.26   28.70
   0   2  15 2263.13   26.48
   0   2  15 2275.92   28.46
   0   2  15 2335.37   27.85
   0   2  15 2302.54   29.75
   0   2  16 1468.67   20.55
   0   2  16 1508.77   20.18
   0   2  17    6.25    5.31
   0   2  17    6.76    5.28
   0   2  17    6.01    6.60
   0   2  18  566.85    9.53
   0   2  18  556.45   10.60
   0   2  18  566.23   10.94
   0   2  19  283.35    6.60
   0   2  19  289.85    7.15
   0   2  20   20.10    3.13
   0   2  20   29.68    3.20
   0   3 -18   37.95    3.39
   0   3 -18   31.16    2.69
   0   3 -17   53.22    4.41
   0   3 -17   49.57    5.31
   0   3 -17   44.16    3.98
   0   3 -16  342.03    7.85
   0   3 -16  339.21    8.85
   0   3 -16  314.92    7.84
   0   3 -15  769.41   13.42
   0   3 -15  751.37   12.33
   0   3 -14   23.07    6.39
   0   3 -14   22.94    7.29
   0   3 -14   17.01    5.91
   0   3 -13  975.83   15.27
   0   3 -13  925.71   15.93
   0   3 -13  962.03   16.22
   0   3 -12  593.13   12.37
   0   3 -12  564.19   12.50
   0   3 -12  595.78   12.81
   0   3 -12  615.13   11.71
   0   3 -12  590.66   12.55
   0   3 -12  571.33   12.24
   0   3 -11 2859.37   32.47
   0   3 -11 2859.14   33.24
   0   3 -11 2882.02   32.95
   0   3 -11 2909.18   33.30
   0   3 -11 2841.84   32.83
   0   3 -10  748.25   12.53
   0   3 -10  863.98   13.75
   0   3 -10  829.74   14.42
   0   3 -10  834.15   13.99
   0   3 -10  823.29   13.85
   0   3 -10  778.44   13.98
   0   3  -9 1623.10   21.19
   0   3  -9 1636.19   21.46
   0   3  -9 1686.94   21.05
   0   3  -9 1581.38   20.22
   0   3  -9 1638.52   21.18
   0   3  -9 1721.33   20.56
   0   3  -8   32.75    5.36
   0   3  -8   38.84    4.70
   0   3  -8   30.58    4.59
   0   3  -8   26.90    4.37
   0   3  -8   37.24    5.17
   0   3  -7   72.77    4.66
   0   3  -7   71.41    5.14
   0   3  -7   71.01    4.24
   0   3  -6 3508.37   35.61
   0   3  -6 3514.06   34.66
   0   3  -5  325.41    6.01
   0   3  -5  279.99    6.30
   0   3  -4 1122.42   13.43
   0   3  -4 1127.84   12.68
   0   3  -3 1663.19   18.45
   0   3  -3 1708.30   18.00
   0   3  -2 3226.38   31.83
   0   3  -1  701.91    9.32
   0   3  -1  683.62    9.45
   0   3   1 2823.65   28.66
   0   3   1 2869.57   27.50
   0   3   2  295.71    5.89
   0   3   2  308.98    4.74
   0   3   3  203.23    4.85
   0   3   3  201.28    5.18
   0   3   3  202.49    3.52
   0   3   4 3095.61   31.16
   0   3   5 2809.75   28.62
   0   3   5 2797.31   29.41
   0   3   6  423.79    7.04
   0   3   6  408.85    7.81
   0   3   7 3698.18   37.86
   0   3   7 3696.55   36.48
   0   3   8 1678.88   18.37
   0   3   8 1702.72   20.24
   0   3   9 1964.33   22.80
   0   3  10 1642.79   21.47
   0   3  10 1670.75   19.89
   0   3  11 2889.01   32.88
   0   3  11 2804.05   32.95
   0   3  12   80.72    6.82
   0   3  12   90.05    6.83
   0   3  13  261.80    8.69
   0   3  13  272.23    8.73
   0   3  13  258.96    8.38
   0   3  14 2991.79   33.92
   0   3  14 2864.36   31.94
   0   3  15  278.77    8.81
   0   3  15  258.79    8.34
   0   3  16  172.93    7.00
   0   3  16  146.84    6.69
   0   3  17 1318.98   16.08
   0   3  17 1179.79   15.22
   0   3  18   94.79    5.92
   0   3  19  185.53    5.38
   0   4 -17    7.31    3.04
   0   4 -17    2.04    2.09
   0   4 -16  110.87    5.26
   0   4 -16   90.45    4.39
   0   4 -15   13.39    4.59
   0   4 -15   11.83    3.82
   0   4 -14   22.55    5.51
   0   4 -14   20.74    5.99
   0   4 -14   24.62    5.08
   0   4 -13  517.16   10.35
   0   4 -13  516.08   11.59
   0   4 -13  532.30   11.50
   0   4 -13  509.50   10.61
   0   4 -12  203.88    7.87
   0   4 -12  217.30    9.03
   0   4 -12  216.38    8.60
   0   4 -12  207.95    8.57
   0   4 -11 1135.60   15.96
   0   4 -11 1132.79   18.24
   0   4 -11 1123.64   17.56
   0   4 -10 2406.24   27.29
   0   4 -10 2300.96   28.38
   0   4 -10 2455.58   29.68
   0   4 -10 2534.35   30.04
   0   4 -10 2405.37   29.57
   0   4  -9   62.24    5.71
   0   4  -9   54.57    6.56
   0   4  -9   51.93    7.59
   0   4  -9   53.58    7.00
   0   4  -9   52.70    7.07
   0   4  -8  689.26   11.23
   0   4  -8  688.48   13.00
   0   4  -8  708.67   13.65
   0   4  -7  825.36   14.06
   0   4  -7  843.58   14.69
   0   4  -6  173.45    7.53
   0   4  -6  180.20    7.20
   0   4  -6  166.86    7.15
   0   4  -6  175.84    5.93
   0   4  -6  177.12    7.49
   0   4  -5  695.25   12.20
   0   4  -5  719.12   11.33
   0   4  -5  727.25   12.74
   0   4  -4 2436.71   28.17
   0   4  -4 2531.50   27.94
   0   4  -4 2586.06   27.66
   0   4  -4 2372.55   26.00
   0   4  -3 2491.27   27.43
   0   4  -3 2429.38   26.34
   0   4  -2  403.15    8.28
   0   4  -2  393.02    7.83
   0   4  -2  421.07    8.08
   0   4  -1 2261.74   26.20
   0   4  -1 2346.37   26.07
   0   4   0 2561.57   28.01
   0   4   0 2683.00   26.87
   0   4   1   82.71    4.75
   0   4   1   83.85    3.59
   0   4   1   77.37    4.61
   0   4   2 3802.59   41.33
   0   4   2 4155.45   38.87
   0   4   3 2138.76   24.59
   0   4   3 2131.60   24.96
   0   4   4 4929.99   50.09
   0   4   4 5075.08   50.84
   0   4   5  996.86   14.33
   0   4   6  412.32    9.37
   0   4   6  416.60    8.67
   0   4   7 1202.54   17.00
   0   4   7 1098.99   17.34
   0   4   7 1237.21   18.12
   0   4   7 1171.28   17.20
   0   4   7 1235.52   17.23
   0   4   7 1147.02   15.89
   0   4   8  473.43   10.50
   0   4   8  447.57    8.79
   0   4   8  479.00   11.16
   0   4   8  465.55   10.26
   0   4   8  427.09   10.82
   0   4   8  495.27   10.63
   0   4   9   13.25    5.28
   0   4   9   11.04    5.73
   0   4   9   12.77    6.08
   0   4   9   19.70    5.07
   0   4   9   11.35    5.37
   0   4  10   87.26    6.63
   0   4  10   83.93    7.21
   0   4  10   69.56    5.62
   0   4  10   77.36    7.36
   0   4  10   80.44    6.47
   0   4  11 1438.58   21.24
   0   4  11 1440.47   20.38
   0   4  11 1457.66   21.88
   0   4  11 1473.38   20.97
   0   4  12  337.48    9.65
   0   4  12  326.66   10.53
   0   4  12  315.16   10.25
   0   4  12  322.10    9.93
   0   4  13  738.68   13.52
   0   4  13  741.40   14.13
   0   4  13  745.16   15.10
   0   4  13  758.78   14.51
   0   4  14   38.50    5.87
   0   4  14   30.81    6.90
   0   4  14   46.37    6.38
   0   4  14   40.18    6.65
   0   4  15  333.11    8.15
   0   4  15  349.15    8.42
   0   4  15  346.53   10.12
   0   4  15  360.57    9.68
   0   4  16  732.20   10.88
   0   4  16  771.07   13.08
   0   4  16  772.10   12.66
   0   4  17   61.96    5.31
   0   4  17   65.66    4.50
   0   4  17   77.15    5.02
   0   4  18    3.05    3.15
   0   5 -15   75.41    3.49
   0   5 -14  285.02    6.80
   0   5 -14  280.23    6.13
   0   5 -13   87.70    5.81
   0   5 -13   72.30    5.92
   0   5 -13   75.74    5.40
   0   5 -12    1.46    5.67
   0   5 -12    3.44    5.56
   0   5 -12    7.31    5.75
   0   5 -11  273.25    9.33
   0   5 -11  285.40    9.08
   0   5 -11  259.15    8.85
   0   5 -10  681.58   12.97
   0   5 -10  719.69   13.68
   0   5  -9   14.65    7.28
   0   5  -9    3.25    5.74
   0   5  -9    4.04    6.72
   0   5  -8   33.08    7.53
   0   5  -8   37.02    7.39
   0   5  -8   36.71    6.27
   0   5  -7  288.94   10.01
   0   5  -7  282.02    8.80
   0   5  -7  267.44   10.34
   0   5  -6   77.48    7.26
   0   5  -6   79.99    6.26
   0   5  -6   75.48    7.73
   0   5  -5   24.39    6.75
   0   5  -5    3.46    5.86
   0   5  -5   14.67    5.26
   0   5  -5    5.69    4.88
   0   5  -5   15.42    7.15
   0   5  -4 1311.44   19.23
   0   5  -4 1396.28   19.83
   0   5  -4 1390.48   18.47
   0   5  -4 1323.73   18.90
   0   5  -3   87.17    6.81
   0   5  -3   81.02    6.50
   0   5  -3   87.86    5.53
   0   5  -3  102.45    6.25
   0   5  -2   76.60    6.73
   0   5  -2   70.93    5.96
   0   5  -2   65.67    5.16
   0   5  -2   73.44    5.80
   0   5  -2   70.30    5.21
   0   5  -2   74.16    7.04
   0   5  -2   80.37    6.22
   0   5  -1 1082.54   17.17
   0   5  -1 1103.99   16.67
   0   5  -1 1073.72   16.06
   0   5  -1 1096.72   16.95
   0   5  -1 1120.68   16.67
   0   5   0  519.87   11.35
   0   5   0  497.56   10.31
   0   5   0  472.10   10.27
   0   5   0  488.98   10.83
   0   5   0  495.45   10.06
   0   5   0  485.12   10.84
   0   5   0  484.33   11.22
   0   5   0  487.10   11.15
   0   5   1  160.55    7.81
   0   5   1  180.49    7.79
   0   5   1  162.89    7.10
   0   5   1  158.29    7.14
   0   5   1  169.76    7.68
   0   5   1  168.38    7.93
   0   5   2 1306.72   19.32
   0   5   2 1325.96   19.63
   0   5   3  624.89   12.82
   0   5   3  642.55   13.10
   0   5   3  623.06   12.37
   0   5   3  688.91   13.01
   0   5   3  680.54   13.57
   0   5   3  650.55   12.64
   0   5   4  130.64    7.67
   0   5   4  151.53    7.59
   0   5   4  137.74    7.03
   0   5   4  140.25    6.94
   0   5   4  136.64    7.88
   0   5   4  138.47    7.93
   0   5   5   75.54    7.34
   0   5   5   83.21    7.24
   0   5   5   94.67    6.75
   0   5   5   82.68    6.24
   0   5   5   92.50    7.66
   0   5   6  213.87    8.38
   0   5   6  180.62    8.82
   0   5   6  195.75    7.63
   0   5   6  186.13    7.77
   0   5   6  198.67    8.31
   0   5   6  217.45    9.16
   0   5   7  105.34    7.34
   0   5   7  113.74    7.29
   0   5   7  104.15    6.14
   0   5   7  108.00    7.90
   0   5   7   96.54    6.87
   0   5   7  113.50    8.25
   0   5   8   85.50    6.46
   0   5   8  100.83    7.04
   0   5   8   88.84    7.52
   0   5   8   82.17    6.57
   0   5   9   41.88    7.67
   0   5   9   46.90    7.48
   0   5   9   52.22    6.65
   0   5  10 2478.11   31.15
   0   5  10 2512.44   31.33
   0   5  10 2534.87   29.68
   0   5  11 1862.36   25.10
   0   5  11 1839.02   23.42
   0   5  11 1845.97   24.92
   0   5  12  235.00    9.26
   0   5  12  244.27    7.89
   0   5  12  239.84    9.29
   0   5  13 1063.85   15.05
   0   5  13 1060.04   16.80
   0   5  13 1099.45   16.48
   0   5  13 1110.90   16.88
   0   5  14   15.90    5.17
   0   5  14   11.32    4.16
   0   5  14    2.02    5.37
   0   5  14    7.86    5.51
   0   5  15  321.41    7.78
   0   5  15  322.07    7.79
   0   5  16  266.74    6.29
   0   5  16  260.10    5.93
   0   6 -13   20.65    2.47
   0   6 -12   63.84    3.17
   0   6 -12   62.16    3.95
   0   6 -11  461.10    7.23
   0   6 -11  473.18    8.50
   0   6 -11  473.73    8.57
   0   6 -10   17.10    3.91
   0   6 -10   18.53    5.43
   0   6 -10   16.97    5.27
   0   6 -10   19.09    5.28
   0   6  -9  231.38    7.91
   0   6  -9  229.66    7.80
   0   6  -9  223.05    6.20
   0   6  -9  244.87    8.09
   0   6  -8  582.33   11.61
   0   6  -8  575.33   11.77
   0   6  -7 1014.26   16.01
   0   6  -7  972.15   16.22
   0   6  -7  984.04   15.36
   0   6  -6    6.86    5.31
   0   6  -6    3.91    6.30
   0   6  -6    9.56    4.45
   0   6  -6    9.70    7.27
   0   6  -6    9.86    6.56
   0   6  -5 1261.93   18.01
   0   6  -5 1229.47   18.26
   0   6  -4  946.14   15.65
   0   6  -4  936.64   15.31
   0   6  -3   32.01    6.50
   0   6  -3   25.17    6.60
   0   6  -3   18.70    7.27
   0   6  -3   31.76    7.64
   0   6  -2  328.66    9.46
   0   6  -2  309.02   10.35
   0   6  -2  326.92   11.24
   0   6  -2  329.21    9.31
   0   6  -1  402.29   10.41
   0   6  -1  442.06   10.25
   0   6  -1  462.78   12.17
   0   6  -1  415.51   11.78
   0   6  -1  473.66   10.06
   0   6   0  304.19   10.62
   0   6   0  305.30    9.61
   0   6   0  329.47   10.49
   0   6   0  311.72    8.62
   0   6   0  336.52   10.90
   0   6   0  312.19    8.56
   0   6   1  647.65   14.30
   0   6   1  675.86   13.70
   0   6   1  729.83   14.24
   0   6   1  717.84   14.23
   0   6   2  105.91    7.99
   0   6   2  104.01    7.87
   0   6   2   99.30    8.12
   0   6   3   75.06    8.24
   0   6   3   77.83    7.44
   0   6   3   70.71    7.79
   0   6   3   82.76    8.04
   0   6   4  724.34   14.45
   0   6   4  753.46   14.41
   0   6   4  722.39   14.75
   0   6   5 1712.42   24.00
   0   6   5 1725.51   24.23
   0   6   5 1822.95   23.75
   0   6   5 1844.46   24.63
   0   6   6  356.69   10.18
   0   6   6  344.89   10.79
   0   6   6  341.71   11.08
   0   6   7   24.68    7.56
   0   6   7   25.71    6.05
   0   6   7   22.53    6.63
   0   6   7   30.91    7.12
   0   6   8 2893.16   32.15
   0   6   8 2950.60   34.13
   0   6   8 2889.86   32.71
   0   6   8 2936.35   33.79
   0   6   8 2818.28   33.91
   0   6   9  118.44    6.56
   0   6   9  125.67    7.43
   0   6  10  195.46    6.93
   0   6  10  204.86    7.64
   0   6  10  199.45    8.42
   0   6  11   30.87    6.01
   0   6  11   25.74    4.71
   0   6  11   32.47    5.21
   0   6  12  779.60   12.27
   0   6  12  811.20   12.63
   0   6  12  794.05   12.60
   0   6  13  285.32    6.87
   0   6  13  294.25    6.72
   0   6  13  286.28    6.99
   0   6  14   10.01    2.90
   0   6  14   17.83    3.18
   0   6  14   11.85    3.36
   0   7  -9  140.86    3.53
   0   7  -9  163.71    4.19
   0   7  -8  288.78    5.24
   0   7  -8  316.47    5.79
   0   7  -7    0.91    3.42
   0   7  -7   -1.30    3.73
   0   7  -6   22.29    3.98
   0   7  -6   25.42    4.33
   0   7  -5  378.27    7.46
   0   7  -5  380.46    7.55
   0   7  -5  401.09    7.82
   0   7  -4   19.16    4.70
   0   7  -4   15.73    4.22
   0   7  -4   14.99    4.33
   0   7  -4   14.13    5.84
   0   7  -3  115.85    6.32
   0   7  -3  101.64    5.04
   0   7  -3  114.11    6.77
   0   7  -2  266.07    8.21
   0   7  -2  263.39    8.36
   0   7  -1   80.40    6.47
   0   7  -1   75.48    6.82
   0   7   0    1.37    5.11
   0   7   0    4.33    5.72
   0   7   0    3.05    5.79
   0   7   1  217.55    7.45
   0   7   1  231.50    7.79
   0   7   2  118.42    6.58
   0   7   2  110.70    6.66
   0   7   3  126.53    6.95
   0   7   3  124.63    6.44
   0   7   4  765.01   12.96
   0   7   4  780.07   12.94
   0   7   4  733.57   11.90
   0   7   5  612.36   11.56
   0   7   5  624.32    9.91
   0   7   5  633.12   11.12
   0   7   6  376.39    9.09
   0   7   6  401.23    8.60
   0   7   6  376.60    8.37
   0   7   7  377.69    8.88
   0   7   7  377.76    8.06
   0   7   8  446.13    9.00
   0   7   8  430.74    7.07
   0   7   8  438.00    7.91
   0   7   9  438.74    8.38
   0   7   9  406.17    6.94
   0   7  11   65.59    3.68
   0   8  -3  265.11    4.57
   0   8  -2   77.50    2.77
   0   8  -1  166.11    4.11
   0   8  -1  159.88    3.98
   0   8   0  737.98    9.40
   0   8   0  736.12    9.23
   0   8   1  376.63    5.95
   0   8   1  401.98    6.44
   0   8   2    6.72    2.18
   0   8   3  110.95    3.64
   0   8   4  328.31    5.26
   1  -7  -8   17.43    2.65
   1  -7  -7   -0.66    2.82
   1  -7  -6   71.59    3.89
   1  -7  -5   48.26    4.01
   1  -7  -4    2.13    3.48
   1  -7  -3  109.75    4.94
   1  -7  -2  184.59    5.91
   1  -7  -2  183.56    5.96
   1  -7  -1   43.59    4.34
   1  -7  -1   41.90    4.46
   1  -7   0  219.27    6.03
   1  -7   0  214.13    6.23
   1  -7   1  365.11    7.55
   1  -7   2   32.40    3.94
   1  -7   3   38.05    3.61
   1  -7   4  388.11    6.71
   1  -7   5  127.85    3.77
   1  -7   6   41.20    2.95
   1  -7   6   33.85    2.25
   1  -6 -12   50.02    2.66
   1  -6 -11  391.72    6.75
   1  -6 -10  369.41    7.53
   1  -6 -10  348.39    6.94
   1  -6  -9   61.77    4.56
   1  -6  -9   55.53    4.17
   1  -6  -8  320.82    7.75
   1  -6  -8  299.71    7.14
   1  -6  -7  170.42    6.54
   1  -6  -7  160.21    5.86
   1  -6  -6 2625.62   29.19
   1  -6  -6 2438.82   27.87
   1  -6  -5   27.59    5.09
   1  -6  -5   26.77    4.56
   1  -6  -5   29.17    5.05
   1  -6  -4  467.07   10.94
   1  -6  -4  479.62   10.40
   1  -6  -4  438.93    9.13
   1  -6  -4  462.19    9.97
   1  -6  -3  778.45   14.35
   1  -6  -3  810.72   13.70
   1  -6  -3  730.96   12.96
   1  -6  -3  758.50   12.21
   1  -6  -2  273.00    9.35
   1  -6  -2  285.64    8.58
   1  -6  -2  280.35    7.92
   1  -6  -2  270.67    7.42
   1  -6  -1  316.19    9.58
   1  -6  -1  301.27    8.12
   1  -6   0   88.71    7.19
   1  -6   0   84.73    5.64
   1  -6   1  405.99   10.29
   1  -6   1  346.44    8.31
   1  -6   2   31.17    6.05
   1  -6   2   26.20    4.99
   1  -6   2   30.72    5.82
   1  -6   3  300.21    9.05
   1  -6   3  270.02    7.47
   1  -6   3  295.83    9.11
   1  -6   4  176.52    7.33
   1  -6   5   71.55    5.70
   1  -6   6  309.49    8.16
   1  -6   7  536.03    9.55
   1  -6   8  140.60    5.12
   1  -6   9  616.70    9.96
   1  -6   9  584.75    8.91
   1  -6  10  209.03    4.52
   1  -5 -14  247.23    5.27
   1  -5 -13    5.14    3.15
   1  -5 -13   12.94    3.23
   1  -5 -12  182.84    5.87
   1  -5 -12  187.58    5.63
   1  -5 -11  632.48   10.66
   1  -5 -11  627.05   10.82
   1  -5 -11  590.59   11.23
   1  -5 -11  604.41   10.30
   1  -5 -10   83.79    5.25
   1  -5 -10   85.67    5.11
   1  -5 -10   74.32    5.05
   1  -5 -10   79.39    5.58
   1  -5  -9   86.47    5.15
   1  -5  -9   95.33    5.38
   1  -5  -9   92.39    5.42
   1  -5  -9   90.68    5.82
   1  -5  -8 1507.93   19.31
   1  -5  -8 1554.60   20.04
   1  -5  -8 1563.02   20.29
   1  -5  -8 1567.31   21.07
   1  -5  -7 2447.70   27.93
   1  -5  -7 2453.24   28.32
   1  -5  -6   34.87    4.80
   1  -5  -6   34.01    4.85
   1  -5  -6   31.05    4.43
   1  -5  -5 1021.08   15.50
   1  -5  -5 1070.96   15.84
   1  -5  -4  113.80    5.66
   1  -5  -4  123.01    6.41
   1  -5  -4  118.27    6.44
   1  -5  -4  109.18    6.16
   1  -5  -3   79.35    5.99
   1  -5  -3   74.40    5.75
   1  -5  -3   79.39    5.93
   1  -5  -2   98.43    6.56
   1  -5  -2   94.30    6.05
   1  -5  -2  101.72    6.29
   1  -5  -1   11.59    4.81
   1  -5  -1    7.70    6.04
   1  -5  -1    8.49    5.48
   1  -5  -1    7.71    5.02
   1  -5   0 1101.88   17.77
   1  -5   0 1095.09   17.31
   1  -5   0 1094.12   16.09
   1  -5   1 1119.81   17.63
   1  -5   1 1038.66   15.94
   1  -5   1 1094.47   17.15
   1  -5   1 1065.77   15.96
   1  -5   2  920.20   14.57
   1  -5   2  930.58   14.33
   1  -5   3  682.31   12.19
   1  -5   3  738.00   14.11
   1  -5   4   20.25    6.00
   1  -5   4   21.46    5.04
   1  -5   4   20.73    4.71
   1  -5   4   24.62    5.95
   1  -5   5  806.48   14.51
   1  -5   5  786.67   13.06
   1  -5   5  817.21   14.86
   1  -5   6 1209.99   18.49
   1  -5   7   46.69    6.25
   1  -5   8   36.99    5.62
   1  -5   9  451.46    9.86
   1  -5  10  421.53    9.05
   1  -5  11   15.13    4.32
   1  -5  12  235.38    5.94
   1  -5  13   65.68    3.22
   1  -4 -17   56.27    3.01
   1  -4 -16  342.88    6.80
   1  -4 -15  487.53    8.91
   1  -4 -15  470.20    8.75
   1  -4 -14   66.77    4.73
   1  -4 -14   63.19    4.53
   1  -4 -13   66.15    4.75
   1  -4 -13   63.55    4.40
   1  -4 -12   12.30    4.33
   1  -4 -12   15.63    4.00
   1  -4 -12   19.40    3.86
   1  -4 -11  230.86    6.96
   1  -4 -11  222.94    6.29
   1  -4 -10 1662.32   19.99
   1  -4 -10 1627.00   22.30
   1  -4  -9 2279.82   25.45
   1  -4  -9 2316.60   28.24
   1  -4  -8   34.76    4.49
   1  -4  -8   39.51    4.23
   1  -4  -8   42.17    4.00
   1  -4  -8   42.40    5.14
   1  -4  -7   21.50    4.19
   1  -4  -7   22.09    3.69
   1  -4  -6 1568.94   19.42
   1  -4  -6 1597.23   20.06
   1  -4  -6 1596.73   20.96
   1  -4  -5 3626.14   37.98
   1  -4  -5 3585.28   37.88
   1  -4  -4  145.24    5.27
   1  -4  -4  141.02    5.21
   1  -4  -4  145.66    5.35
   1  -4  -3  257.09    6.55
   1  -4  -3  266.75    6.79
   1  -4  -3  261.67    6.71
   1  -4  -3  267.62    7.44
   1  -4  -2 3264.36   34.83
   1  -4  -2 3107.09   33.85
   1  -4  -2 3184.39   34.37
   1  -4  -2 3365.92   35.15
   1  -4  -2 3056.61   33.48
   1  -4  -2 3309.27   34.85
   1  -4  -1  642.46   11.37
   1  -4  -1  672.14   11.52
   1  -4  -1  680.75   11.37
   1  -4   0   18.22    4.22
   1  -4   0   21.37    4.16
   1  -4   1  793.43   12.98
   1  -4   1  779.89   12.13
   1  -4   2 2358.17   27.95
   1  -4   2 2353.66   26.38
   1  -4   3  774.02   12.68
   1  -4   3  826.02   12.28
   1  -4   4  152.50    6.00
   1  -4   4  153.70    5.53
   1  -4   5 1167.06   16.43
   1  -4   5 1170.60   17.53
   1  -4   6   59.49    5.12
   1  -4   6   76.59    6.49
   1  -4   7  119.10    5.66
   1  -4   7  121.80    6.16
   1  -4   7  136.25    7.26
   1  -4   8  430.76    9.85
   1  -4   8  434.85    9.58
   1  -4   8  461.23   10.86
   1  -4   9 2138.38   26.48
   1  -4   9 2112.17   26.34
   1  -4  10   58.90    5.39
   1  -4  10   67.65    6.13
   1  -4  11  146.53    7.16
   1  -4  11  129.03    7.18
   1  -4  12  572.65   11.68
   1  -4  12  637.05   11.88
   1  -4  13   50.35    5.14
   1  -4  14    3.34    3.90
   1  -4  15  153.07    5.40
   1  -4  15  147.74    4.39
   1  -3 -18  104.70    3.79
   1  -3 -17   25.19    3.65
   1  -3 -17   23.52    3.66
   1  -3 -16  376.72    7.93
   1  -3 -16  382.83    7.97
   1  -3 -15  521.18    9.61
   1  -3 -15  496.72    9.65
   1  -3 -14   43.13    5.18
   1  -3 -14   42.14    5.06
   1  -3 -14   45.92    4.74
   1  -3 -14   46.79    4.64
   1  -3 -13   58.85    5.10
   1  -3 -13   65.73    5.21
   1  -3 -13   63.22    4.96
   1  -3 -13   62.49    5.05
   1  -3 -12 2330.44   26.62
   1  -3 -12 2374.19   25.91
   1  -3 -12 2381.44   26.61
   1  -3 -11  837.03   12.35
   1  -3 -11  813.90   11.70
   1  -3 -11  818.12   12.39
   1  -3 -10   43.39    4.17
   1  -3 -10   47.90    3.95
   1  -3 -10   44.61    4.36
   1  -3  -9   74.03    4.45
   1  -3  -9   73.98    4.01
   1  -3  -9   80.26    4.17
   1  -3  -8 1047.79   13.33
   1  -3  -8 1068.74   13.38
   1  -3  -7  132.43    4.33
   1  -3  -7  145.92    4.37
   1  -3  -6 6139.88   57.67
   1  -3  -5 5867.10   54.97
   1  -3  -4   27.68    2.86
   1  -3  -4   28.51    2.63
   1  -3  -2  148.92    4.22
   1  -3  -2  141.46    4.39
   1  -3  -2  155.55    4.79
   1  -3  -2  148.80    3.88
   1  -3  -2  154.64    4.84
   1  -3  -2  138.38    3.33
   1  -3  -1  148.76    4.73
   1  -3  -1  134.61    4.44
   1  -3  -1  146.25    4.67
   1  -3  -1  138.95    3.90
   1  -3  -1  137.28    4.80
   1  -3   0 4308.62   42.51
   1  -3   1  117.72    3.11
   1  -3   1  160.37    5.00
   1  -3   2   83.78    2.72
   1  -3   3 2726.32   27.79
   1  -3   3 2653.84   26.71
   1  -3   4  966.77   11.71
   1  -3   4  976.28   12.62
   1  -3   5 2693.93   27.48
   1  -3   6   86.93    4.26
   1  -3   6   81.29    3.46
   1  -3   7 2323.57   27.08
   1  -3   7 2267.72   25.37
   1  -3   8 2536.15   28.40
   1  -3   8 2673.99   30.22
   1  -3   8 2918.38   31.88
   1  -3   8 2575.40   30.03
   1  -3   8 2696.33   29.65
   1  -3   8 2781.42   31.03
   1  -3   9   79.74    4.14
   1  -3   9   79.29    6.65
   1  -3   9   89.37    5.65
   1  -3   9   79.83    6.05
   1  -3  10 1728.02   23.60
   1  -3  10 1606.56   21.93
   1  -3  10 1621.60   21.55
   1  -3  10 1692.80   22.33
   1  -3  11 1769.60   24.00
   1  -3  11 1827.44   24.11
   1  -3  12   80.81    6.76
   1  -3  12   78.19    7.24
   1  -3  12   81.95    6.75
   1  -3  13  167.28    8.03
   1  -3  13  160.77    8.14
   1  -3  14  257.90    8.24
   1  -3  14  226.10    8.17
   1  -3  14  248.04    7.87
   1  -3  14  212.15    8.52
   1  -3  14  253.24    8.35
   1  -3  15  142.86    6.79
   1  -3  15  158.40    6.52
   1  -3  15  157.57    6.69
   1  -3  16  252.15    7.35
   1  -3  16  264.68    6.72
   1  -3  17  544.08    7.98
   1  -3  17  512.11    8.46
   1  -3  18  281.99    4.71
   1  -2 -19   19.00    3.31
   1  -2 -18   12.92    4.17
   1  -2 -18    9.31    3.82
   1  -2 -17  943.88   13.74
   1  -2 -17  934.87   13.55
   1  -2 -17  961.32   13.38
   1  -2 -16  533.70   10.07
   1  -2 -16  528.43    9.99
   1  -2 -16  511.01    9.85
   1  -2 -15  217.82    7.31
   1  -2 -15  226.61    7.46
   1  -2 -15  222.66    7.00
   1  -2 -14 3024.70   33.00
   1  -2 -14 3081.45   33.26
   1  -2 -13 1634.77   20.25
   1  -2 -13 1661.48   20.47
   1  -2 -12 1112.83   15.36
   1  -2 -12 1183.60   15.63
   1  -2 -11  117.78    5.16
   1  -2 -11  124.73    5.11
   1  -2 -10 2852.24   29.85
   1  -2 -10 2922.84   30.24
   1  -2  -9 1314.59   15.46
   1  -2  -9 1336.09   15.71
   1  -2  -8   97.46    3.73
   1  -2  -8   98.82    3.78
   1  -2  -7 1051.35   12.33
   1  -2  -7 1120.62   12.80
   1  -2  -5 1799.33   18.28
   1  -2  -5 1846.55   18.70
   1  -2  -4 1806.86   18.29
   1  -2  -1 1931.12   19.48
   1  -2  -1 1990.34   20.13
   1  -2   1  409.99    5.51
   1  -2   1  397.01    6.29
   1  -2   1  393.11    5.70
   1  -2   1  401.63    6.00
   1  -2   3  142.58    3.15
   1  -2   3  128.44    3.16
   1  -2   4  714.58    8.55
   1  -2   4  608.51    8.26
   1  -2   5  441.50    6.66
   1  -2   6  538.71    7.93
   1  -2   7  159.14    4.50
   1  -2   8  655.22    9.88
   1  -2   9 3675.02   37.74
   1  -2  10 2382.49   29.06
   1  -2  10 2387.65   27.12
   1  -2  10 2524.22   28.31
   1  -2  10 2523.05   27.43
   1  -2  10 2451.70   28.43
   1  -2  10 2352.74   28.47
   1  -2  11  165.46    5.84
   1  -2  11  170.91    7.21
   1  -2  11  162.68    8.31
   1  -2  11  171.84    7.53
   1  -2  11  179.65    7.26
   1  -2  12 1011.84   16.99
   1  -2  12 1022.85   15.37
   1  -2  12 1081.61   16.45
   1  -2  12 1131.73   18.78
   1  -2  12 1135.45   17.25
   1  -2  12 1048.59   17.24
   1  -2  13  113.94    5.89
   1  -2  13  123.52    7.41
   1  -2  13  123.18    7.62
   1  -2  13  148.66    8.69
   1  -2  13  139.69    7.15
   1  -2  13  138.76    7.63
   1  -2  14  406.73   11.11
   1  -2  14  462.73   10.77
   1  -2  14  408.22   11.74
   1  -2  14  448.00   10.69
   1  -2  14  442.95   11.25
   1  -2  15   16.35    6.09
   1  -2  15   24.83    6.50
   1  -2  15   17.50    5.95
   1  -2  15   20.81    5.14
   1  -2  16  454.04   10.75
   1  -2  16  469.22   10.07
   1  -2  16  472.17   10.61
   1  -2  17  320.86    8.44
   1  -2  17  338.32    8.58
   1  -2  18   11.49    3.54
   1  -2  18   19.96    3.93
   1  -2  18   16.20    4.46
   1  -2  19   57.60    3.36
   1  -2  19   58.81    2.92
   1  -1 -19    8.24    3.27
   1  -1 -18  599.64   10.26
   1  -1 -18  585.60    9.69
   1  -1 -17  378.30    8.46
   1  -1 -17  394.88    8.99
   1  -1 -16   72.41    5.98
   1  -1 -16   79.62    6.27
   1  -1 -16   81.45    5.55
   1  -1 -15 2477.55   28.39
   1  -1 -15 2563.50   28.84
   1  -1 -14  909.44   14.21
   1  -1 -13  685.40   11.63
   1  -1 -12   51.37    4.97
   1  -1 -12   40.21    4.03
   1  -1 -12   38.75    4.27
   1  -1 -11  607.94    9.75
   1  -1 -11  592.07    9.57
   1  -1 -10  589.76    9.31
   1  -1 -10  604.70    8.82
   1  -1 -10  616.28    9.20
   1  -1  -9  429.12    7.28
   1  -1  -9  444.00    7.28
   1  -1  -8 1100.64   12.85
   1  -1  -8  980.07   12.11
   1  -1  -8 1025.14   11.73
   1  -1  -8 1002.10   12.11
   1  -1  -8 1074.05   12.50
   1  -1  -7   34.63    2.38
   1  -1  -7   31.03    2.39
   1  -1  -7   36.53    2.18
   1  -1  -7   33.85    2.29
   1  -1  -7   35.75    1.61
   1  -1  -6  423.91    6.01
   1  -1  -6  424.54    5.60
   1  -1   0  656.31    7.51
   1  -1   1  286.31    4.05
   1  -1   1  293.84    4.13
   1  -1   1  281.74    3.91
   1  -1   4 1045.17   11.02
   1  -1   4  940.42   11.11
   1  -1   7  333.67    5.67
   1  -1   7  268.61    3.95
   1  -1   8  484.91    7.70
   1  -1   8  449.85    7.34
   1  -1   9 5298.91   51.20
   1  -1  10  957.36   14.18
   1  -1  10  938.60   13.11
   1  -1  11  126.81    6.23
   1  -1  11  135.63    5.25
   1  -1  11  118.27    6.28
   1  -1  11  131.48    7.19
   1  -1  11  124.81    5.18
   1  -1  11  144.21    6.26
   1  -1  12 1784.30   21.92
   1  -1  12 1771.91   23.42
   1  -1  12 1685.71   22.77
   1  -1  12 1766.84   24.25
   1  -1  12 1764.92   23.14
   1  -1  12 1732.84   23.45
   1  -1  13 1216.39   18.80
   1  -1  13 1217.31   17.57
   1  -1  13 1198.76   18.66
   1  -1  13 1306.83   19.84
   1  -1  13 1245.18   18.86
   1  -1  13 1261.41   19.44
   1  -1  13 1345.00   18.47
   1  -1  14  352.16   10.56
   1  -1  14  322.52    8.89
   1  -1  14  349.33   10.78
   1  -1  14  347.23   10.92
   1  -1  14  370.53   10.26
   1  -1  14  394.63   10.02
   1  -1  14  367.53   10.94
   1  -1  15   86.25    7.45
   1  -1  15   76.10    8.33
   1  -1  15   74.39    7.21
   1  -1  15   89.29    6.75
   1  -1  15   90.19    7.09
   1  -1  15   84.21    7.60
   1  -1  16  247.59    9.77
   1  -1  16  265.42    9.65
   1  -1  16  263.37    8.44
   1  -1  17   85.32    7.45
   1  -1  17   88.48    5.87
   1  -1  17   94.85    7.65
   1  -1  17  103.10    6.69
   1  -1  18  461.60    9.93
   1  -1  18  463.85    9.80
   1  -1  19  496.38    8.61
   1  -1  19  535.67    8.74
   1  -1  19  594.63    8.96
   1  -1  19  556.91    9.12
   1  -1  20   44.88    2.56
   1  -1  20   45.20    3.16
   1   0 -20   29.28    3.09
   1   0 -19  143.53    5.59
   1   0 -19  144.35    5.29
   1   0 -18  828.33   12.08
   1   0 -18  846.48   12.64
   1   0 -18  858.62   12.84
   1   0 -17  118.71    6.99
   1   0 -17  120.60    6.38
   1   0 -17  124.89    6.69
   1   0 -16   46.53    6.67
   1   0 -16   47.64    6.10
   1   0 -16   42.66    5.20
   1   0 -15  377.20    9.43
   1   0 -15  407.30    8.89
   1   0 -14  776.15   12.25
   1   0 -14  804.60   13.13
   1   0 -14  822.96   12.61
   1   0 -13   40.76    4.92
   1   0 -13   33.75    5.39
   1   0 -13   45.74    5.04
   1   0 -13   35.79    4.49
   1   0 -12  832.15   12.17
   1   0 -12  821.89   12.66
   1   0 -12  836.87   12.68
   1   0 -12  829.34   12.17
   1   0 -11 2300.74   24.74
   1   0 -11 2275.95   25.11
   1   0 -11 2265.18   24.75
   1   0 -10  356.05    6.68
   1   0 -10  353.58    7.03
   1   0  -9 1179.58   13.73
   1   0  -9 1180.43   14.11
   1   0  -8 1749.27   18.69
   1   0  -7 1123.66   12.89
   1   0  -7 1204.07   13.19
   1   0  -6  844.51    9.86
   1   0  -6  843.33    8.37
   1   0  -5  621.89    7.45
   1   0  -5  628.08    7.28
   1   0  -4  256.75    3.74
   1   0  -4  255.10    3.20
   1   0  -4  259.86    3.56
   1   0   0  126.43    2.06
   1   0   3  171.45    2.64
   1   0   3  135.54    2.22
   1   0   6 1747.63   17.65
   1   0   6 1857.69   17.95
   1   0   7  258.31    4.27
   1   0   7  284.77    4.77
   1   0   8   59.61    2.82
   1   0   8   56.92    2.79
   1   0   9 1436.29   17.35
   1   0   9 1407.67   16.67
   1   0  10 1028.51   13.37
   1   0  10  994.61   14.04
   1   0  11 3547.73   38.41
   1   0  11 3518.53   38.28
   1   0  12  391.99    9.49
   1   0  12  383.01    8.38
   1   0  12  355.09    9.38
   1   0  12  352.40    9.65
   1   0  12  371.54    9.06
   1   0  12  414.44    8.62
   1   0  12  372.91    9.61
   1   0  13  175.11    7.78
   1   0  13  171.39    6.45
   1   0  13  165.34    8.08
   1   0  13  164.36    7.96
   1   0  13  168.09    7.22
   1   0  13  186.05    6.98
   1   0  13  162.36    7.87
   1   0  14  127.38    6.24
   1   0  14  124.81    8.44
   1   0  14  116.73    7.71
   1   0  14  130.05    7.54
   1   0  14  138.19    6.82
   1   0  14  122.25    7.80
   1   0  15  908.95   16.43
   1   0  15  882.91   16.18
   1   0  15  850.02   14.82
   1   0  16   34.19    6.15
   1   0  16   40.21    5.60
   1   0  16   45.48    8.30
   1   0  16   40.55    7.33
   1   0  16   37.67    5.50
   1   0  17 1138.87   17.06
   1   0  17 1120.83   18.06
   1   0  17 1152.65   18.09
   1   0  18   21.26    4.80
   1   0  18   22.77    5.71
   1   0  18   22.30    6.67
   1   0  19  109.18    5.03
   1   0  19  106.13    6.35
   1   0  19  110.09    5.66
   1   0  20   32.83    3.88
   1   0  20   29.46    3.14
   1   0  20   31.77    4.00
   1   1 -20   11.06    3.08
   1   1 -19  470.50    7.59
   1   1 -19  492.67    8.02
   1   1 -18  136.10    6.96
   1   1 -18  118.20    6.16
   1   1 -18  120.26    4.93
   1   1 -18  122.65    5.78
   1   1 -17  138.51    7.62
   1   1 -17  140.77    7.30
   1   1 -17  142.47    6.92
   1   1 -16 2590.58   30.36
   1   1 -16 2551.72   29.68
   1   1 -16 2633.20   29.16
   1   1 -15  634.27   12.82
   1   1 -15  637.13   12.18
   1   1 -15  641.08   11.98
   1   1 -15  614.73   10.83
   1   1 -14   14.84    6.08
   1   1 -14   19.27    6.45
   1   1 -14   15.78    5.86
   1   1 -14   18.90    5.29
   1   1 -14   18.67    4.42
   1   1 -13  436.90   10.45
   1   1 -13  420.41    9.92
   1   1 -13  441.48    9.64
   1   1 -13  457.85    9.74
   1   1 -13  420.11    8.52
   1   1 -12  229.59    7.71
   1   1 -12  242.07    7.62
   1   1 -12  234.06    7.14
   1   1 -12  241.46    7.24
   1   1 -12  251.39    7.90
   1   1 -11  565.38   10.22
   1   1 -11  575.87   10.57
   1   1 -11  580.65    9.72
   1   1 -11  585.24   10.65
   1   1 -10  442.26    8.56
   1   1 -10  437.62    8.43
   1   1 -10  456.03    8.77
   1   1  -9  352.85    7.09
   1   1  -9  347.23    7.08
   1   1  -8   31.86    3.36
   1   1  -8   28.34    2.21
   1   1  -7   66.81    3.36
   1   1  -7   61.48    2.38
   1   1  -6 1651.85   17.44
   1   1  -6 1637.40   16.65
   1   1  -5  722.79    8.88
   1   1  -5  761.89    8.28
   1   1   3  190.68    2.59
   1   1   3  180.87    2.52
   1   1   4  768.83    7.40
   1   1   4  657.96    7.57
   1   1   5 2539.50   24.63
   1   1   7 1907.53   18.13
   1   1   7 2069.66   20.66
   1   1   9 4076.94   40.81
   1   1  10 4536.81   43.17
   1   1  10 4170.04   44.21
   1   1  11 1494.19   18.16
   1   1  12   68.11    4.72
   1   1  12   79.72    5.98
   1   1  13  426.04    9.13
   1   1  13  428.72   10.57
   1   1  14 1553.55   20.54
   1   1  14 1562.26   22.22
   1   1  15  411.37   11.66
   1   1  16    8.97    7.08
   1   1  17  109.63    7.63
   1   1  17  111.97    7.95
   1   1  18   83.16    6.79
   1   1  18   86.60    6.78
   1   1  19   21.82    5.07
   1   1  20  263.65    5.55
   1   2 -19   96.38    4.29
   1   2 -18    1.21    5.16
   1   2 -17  161.28    5.75
   1   2 -17  175.33    5.66
   1   2 -17  181.60    7.93
   1   2 -17  157.12    6.35
   1   2 -16  651.52   13.16
   1   2 -16  640.08   11.20
   1   2 -16  624.25   11.59
   1   2 -15   49.03    7.92
   1   2 -15   37.39    7.54
   1   2 -15   40.51    6.03
   1   2 -15   31.18    5.98
   1   2 -14  329.22   10.69
   1   2 -14  297.29    9.99
   1   2 -14  307.27    8.58
   1   2 -14  288.78    8.85
   1   2 -14  263.78    7.77
   1   2 -14  276.24    6.99
   1   2 -13  768.14   14.43
   1   2 -13  720.06   13.82
   1   2 -13  770.24   12.75
   1   2 -13  755.53   13.54
   1   2 -13  720.07   11.26
   1   2 -12  197.52    6.58
   1   2 -12  202.05    8.18
   1   2 -12  222.43    8.44
   1   2 -12  211.72    7.06
   1   2 -12  220.19    7.37
   1   2 -12  198.22    5.80
   1   2 -11  832.00   12.62
   1   2 -11  845.68   14.02
   1   2 -11  868.16   14.16
   1   2 -11  886.71   12.73
   1   2 -11  903.88   13.71
   1   2 -10 2799.58   30.92
   1   2 -10 2853.12   29.26
   1   2  -9  745.48   11.00
   1   2  -9  744.30   11.85
   1   2  -9  756.67   10.56
   1   2  -8   73.64    4.75
   1   2  -7  274.82    6.29
   1   2  -7  274.76    5.97
   1   2  -6 5528.68   52.58
   1   2  -4  700.42    7.94
   1   2  -4  721.27    8.06
   1   2   1  780.14    8.59
   1   2   4  445.97    5.14
   1   2   4  430.35    5.73
   1   2   4  445.51    5.48
   1   2   8   85.28    3.16
   1   2   8   84.99    2.68
   1   2   9  160.75    4.30
   1   2   9  141.54    3.19
   1   2  10 3663.35   36.85
   1   2  11  283.45    6.70
   1   2  12  490.01   10.11
   1   2  12  460.21    9.11
   1   2  12  460.87    9.80
   1   2  12  459.76   10.53
   1   2  13  762.30   12.31
   1   2  13  738.27   13.12
   1   2  13  746.55   14.06
   1   2  14  124.61    6.00
   1   2  14  140.00    8.12
   1   2  14  147.76    8.03
   1   2  14  145.62    6.97
   1   2  15  429.60   10.82
   1   2  15  415.02   10.29
   1   2  15  434.70   11.12
   1   2  15  412.34   11.42
   1   2  16  725.72   12.51
   1   2  16  731.96   13.65
   1   2  16  727.87   13.98
   1   2  16  716.62   14.35
   1   2  17  492.31   11.10
   1   2  17  472.36   11.34
   1   2  17  476.20    9.93
   1   2  18    2.29    5.92
   1   2  18    2.98    4.78
   1   2  19   18.59    4.97
   1   2  20  321.75    6.07
   1   2  20  326.28    6.41
   1   3 -18   24.14    3.89
   1   3 -18   21.74    3.11
   1   3 -17  131.84    5.56
   1   3 -17  124.71    5.28
   1   3 -16   52.92    6.61
   1   3 -16   51.19    5.85
   1   3 -16   44.28    5.71
   1   3 -15   39.99    7.09
   1   3 -15   26.83    5.79
   1   3 -14  644.23   13.03
   1   3 -14  637.28   13.58
   1   3 -14  591.74   12.36
   1   3 -14  561.91   11.72
   1   3 -13  725.23   13.92
   1   3 -13  736.18   14.43
   1   3 -13  716.77   13.56
   1   3 -13  683.32   13.08
   1   3 -12  115.82    7.42
   1   3 -12  108.66    7.87
   1   3 -12  111.20    8.31
   1   3 -11 2380.38   27.72
   1   3 -11 2396.36   28.26
   1   3 -11 2223.25   27.12
   1   3 -11 2322.95   27.99
   1   3 -11 2288.00   27.82
   1   3 -11 2251.58   26.17
   1   3 -10  917.98   14.47
   1   3 -10  920.79   14.83
   1   3 -10  865.51   14.25
   1   3 -10  893.11   14.53
   1   3 -10  917.01   14.40
   1   3  -9  227.78    7.82
   1   3  -9  209.61    7.15
   1   3  -9  235.98    7.33
   1   3  -9  233.58    7.23
   1   3  -8   67.97    5.06
   1   3  -8   76.85    5.51
   1   3  -7 1718.94   20.48
   1   3  -6 2447.93   24.59
   1   3  -5  263.09    4.94
   1   3  -5  241.25    4.35
   1   3  -3 2661.38   26.48
   1   3  -1 2151.20   22.34
   1   3   1  637.30    8.33
   1   3   1  627.02    8.25
   1   3   2  699.59    8.97
   1   3   2  643.55    8.28
   1   3   3 2123.46   21.94
   1   3   3 2266.45   22.43
   1   3   5 1874.70   20.34
   1   3   5 1920.58   19.80
   1   3   6  193.19    4.82
   1   3   6  163.47    4.12
   1   3   7 3042.34   30.22
   1   3   7 2910.45   29.09
   1   3   8  660.40    9.52
   1   3   9 3177.91   32.12
   1   3  10 2028.85   21.85
   1   3  11  687.98   11.25
   1   3  11  727.25   12.44
   1   3  12 1705.03   22.08
   1   3  12 1651.15   20.68
   1   3  13 1964.45   24.97
   1   3  13 1923.61   23.53
   1   3  14   38.79    6.90
   1   3  15 1029.43   15.72
   1   3  16  941.04   14.73
   1   3  17   11.34    5.70
   1   3  17   10.27    5.63
   1   3  18   60.07    4.97
   1   3  18   53.36    5.34
   1   3  19  127.34    4.10
   1   3  19  135.94    4.70
   1   4 -17  121.17    4.39
   1   4 -17  119.07    4.30
   1   4 -16   33.51    4.90
   1   4 -16   28.11    4.50
   1   4 -16   30.50    3.62
   1   4 -15  377.23    7.76
   1   4 -15  372.72    9.02
   1   4 -14  546.64   11.26
   1   4 -14  529.57   11.05
   1   4 -14  506.48    9.90
   1   4 -13  160.24    8.52
   1   4 -13  169.42    7.13
   1   4 -13  161.06    8.08
   1   4 -13  159.97    7.82
   1   4 -13  148.13    6.88
   1   4 -12   43.58    7.47
   1   4 -12   53.63    6.24
   1   4 -12   43.15    7.21
   1   4 -12   55.32    6.88
   1   4 -12   45.61    6.23
   1   4 -11 1144.31   17.31
   1   4 -11 1093.80   15.81
   1   4 -11 1102.07   17.71
   1   4 -11 1093.39   17.97
   1   4 -11 1113.28   17.46
   1   4 -11 1056.42   16.58
   1   4 -10  676.83   12.86
   1   4 -10  696.07   13.45
   1   4 -10  676.56   13.59
   1   4 -10  645.30   11.57
   1   4 -10  653.07   13.24
   1   4 -10  668.72   12.94
   1   4  -9 1028.17   15.43
   1   4  -9 1014.76   16.51
   1   4  -8 1116.06   15.87
   1   4  -8 1091.27   17.11
   1   4  -8 1108.71   16.76
   1   4  -7  257.46    7.42
   1   4  -7  261.37    7.78
   1   4  -7  246.22    8.12
   1   4  -7  266.15    8.31
   1   4  -6  252.92    6.11
   1   4  -6  262.89    6.81
   1   4  -5 4438.02   43.95
   1   4  -4 1947.34   21.13
   1   4  -4 1857.91   23.12
   1   4  -3 5947.40   58.28
   1   4  -2 5939.05   57.82
   1   4  -1 4400.50   42.12
   1   4  -1 4099.50   42.32
   1   4   0  254.82    5.95
   1   4   0  259.90    5.93
   1   4   0  247.78    6.12
   1   4   1 3984.59   38.84
   1   4   1 3936.85   39.55
   1   4   2 3765.66   38.14
   1   4   2 3728.23   36.99
   1   4   3  101.08    4.43
   1   4   3  106.37    3.80
   1   4   4  327.94    7.02
   1   4   5  525.88    9.05
   1   4   5  535.26    9.53
   1   4   6  423.95    8.02
   1   4   6  431.31    8.73
   1   4   7  242.41    6.01
   1   4   7  239.81    6.81
   1   4   8   99.52    6.33
   1   4   8  112.61    6.23
   1   4   8  114.09    5.42
   1   4   9 2413.28   28.96
   1   4   9 2524.69   30.37
   1   4   9 2730.41   29.12
   1   4   9 2600.78   29.37
   1   4  10  438.72   10.58
   1   4  10  406.13    9.35
   1   4  10  442.43    9.03
   1   4  10  426.77    9.73
   1   4  11    8.74    5.88
   1   4  11    9.41    4.87
   1   4  11   11.70    5.52
   1   4  12 1643.48   22.00
   1   4  12 1657.22   22.16
   1   4  13    4.63    5.38
   1   4  13    4.10    5.97
   1   4  14  327.56   10.36
   1   4  14  329.01    9.53
   1   4  15  113.63    7.50
   1   4  15  116.94    6.78
   1   4  16   56.08    6.03
   1   4  16   61.69    5.96
   1   4  17  467.90    9.49
   1   4  17  465.92    9.16
   1   4  18   12.18    3.43
   1   4  18   23.37    3.74
   1   5 -16   66.65    3.29
   1   5 -16   56.24    2.86
   1   5 -15  143.68    5.28
   1   5 -15  124.91    4.82
   1   5 -14   58.40    5.17
   1   5 -14   68.08    5.73
   1   5 -14   55.69    4.39
   1   5 -14   59.50    3.94
   1   5 -13   20.13    5.73
   1   5 -13   22.37    5.23
   1   5 -13   25.40    4.43
   1   5 -12  821.30   14.19
   1   5 -12  819.05   13.59
   1   5 -11   66.78    6.78
   1   5 -11   75.18    7.35
   1   5 -11   75.77    7.12
   1   5 -10   88.70    7.68
   1   5 -10  102.67    7.77
   1   5  -9   64.36    7.27
   1   5  -9   61.20    7.67
   1   5  -9   64.39    7.49
   1   5  -8  366.93   10.60
   1   5  -8  370.74   10.55
   1   5  -8  360.47   10.91
   1   5  -7   57.82    6.75
   1   5  -7   55.90    6.82
   1   5  -7   63.34    7.55
   1   5  -6  279.59    9.20
   1   5  -6  253.53    8.69
   1   5  -6  254.73    9.23
   1   5  -5 3346.83   36.65
   1   5  -5 3215.11   36.66
   1   5  -5 3272.77   37.23
   1   5  -5 3273.27   35.58
   1   5  -4  282.52    8.40
   1   5  -4  296.91    8.07
   1   5  -4  258.23    8.25
   1   5  -4  278.52    9.18
   1   5  -4  268.74    7.88
   1   5  -4  261.22    8.88
   1   5  -3 1697.09   21.75
   1   5  -3 1744.83   21.68
   1   5  -3 1594.98   21.09
   1   5  -3 1704.08   21.37
   1   5  -3 1585.18   20.13
   1   5  -3 1703.54   21.64
   1   5  -3 1731.21   22.38
   1   5  -3 1650.31   21.82
   1   5  -2   65.07    5.71
   1   5  -2   62.81    5.30
   1   5  -2   43.91    4.44
   1   5  -2   39.22    5.13
   1   5  -2   51.74    5.82
   1   5  -2   48.05    5.85
   1   5  -2   44.55    5.67
   1   5  -1  310.44    8.57
   1   5  -1  294.49    8.25
   1   5  -1  297.88    8.69
   1   5  -1  288.40    8.53
   1   5  -1  273.53    7.40
   1   5  -1  299.90    7.55
   1   5  -1  292.59    8.31
   1   5  -1  277.22    7.93
   1   5   0 2273.00   27.75
   1   5   0 2352.09   27.72
   1   5   0 2350.71   27.75
   1   5   0 2311.19   27.19
   1   5   0 2288.96   27.92
   1   5   0 2387.06   28.57
   1   5   1 1675.37   22.23
   1   5   1 1732.56   21.96
   1   5   1 1639.71   21.43
   1   5   1 1673.22   22.10
   1   5   1 1667.48   22.52
   1   5   2  633.96   11.95
   1   5   2  582.23   12.06
   1   5   2  618.27   11.43
   1   5   2  640.19    9.92
   1   5   2  590.29   12.22
   1   5   3  107.86    6.63
   1   5   3  121.32    6.15
   1   5   3  112.91    6.14
   1   5   3  114.05    6.60
   1   5   3  107.03    7.10
   1   5   3  108.29    5.85
   1   5   4 2048.05   24.92
   1   5   4 2053.12   25.04
   1   5   4 2065.04   25.95
   1   5   4 2074.43   25.40
   1   5   4 1997.66   25.21
   1   5   5 1121.01   16.90
   1   5   5 1125.59   16.58
   1   5   5 1152.10   17.55
   1   5   5 1115.61   16.65
   1   5   5 1100.34   17.89
   1   5   6  239.03    8.51
   1   5   6  245.42    7.80
   1   5   6  246.52    8.32
   1   5   6  239.56    7.73
   1   5   6  226.20    8.93
   1   5   7  284.07    8.47
   1   5   7  290.40   10.09
   1   5   7  308.97    8.60
   1   5   7  303.66    8.13
   1   5   7  303.33    9.58
   1   5   7  294.98    8.81
   1   5   7  286.72    9.75
   1   5   8    9.51    4.96
   1   5   8    8.73    5.01
   1   5   8   11.73    6.27
   1   5   8    5.14    6.74
   1   5   8    9.62    5.37
   1   5   8    4.51    6.34
   1   5   8   13.03    5.26
   1   5   9 1315.77   20.54
   1   5   9 1355.22   18.72
   1   5   9 1412.34   20.75
   1   5   9 1300.17   19.22
   1   5   9 1384.23   19.20
   1   5  10   61.55    7.75
   1   5  10   65.27    7.32
   1   5  10   54.71    5.50
   1   5  10   66.27    5.84
   1   5  10   70.96    6.47
   1   5  11  336.87   10.49
   1   5  11  358.24   10.43
   1   5  11  350.61    8.80
   1   5  11  356.54    9.54
   1   5  12  888.74   15.61
   1   5  12  845.09   15.20
   1   5  12  870.94   15.77
   1   5  12  869.82   14.44
   1   5  13  225.69    8.59
   1   5  13  223.78    8.02
   1   5  13  239.41    8.84
   1   5  13  235.19    7.95
   1   5  14  587.51   11.78
   1   5  14  578.29   11.40
   1   5  14  566.42   10.79
   1   5  15  559.50   10.72
   1   5  15  541.90   10.12
   1   5  15  574.11   10.11
   1   5  16  126.52    5.22
   1   5  16  114.83    4.41
   1   5  17   79.97    3.31
   1   6 -13  754.48    9.90
   1   6 -12   33.18    4.56
   1   6 -12   25.90    4.55
   1   6 -11   25.08    5.03
   1   6 -11   19.11    5.36
   1   6 -11   16.34    5.43
   1   6 -10  175.58    6.82
   1   6 -10  166.64    7.63
   1   6 -10  161.38    7.74
   1   6 -10  165.48    7.47
   1   6  -9  402.97    9.35
   1   6  -9  405.95   10.37
   1   6  -9  405.81   10.40
   1   6  -9  397.47   10.51
   1   6  -8  569.07   10.96
   1   6  -8  556.00   12.05
   1   6  -8  540.65   11.35
   1   6  -8  554.55   12.18
   1   6  -7  129.26    6.94
   1   6  -7  124.85    7.77
   1   6  -7  107.26    6.93
   1   6  -6 5807.90   56.76
   1   6  -6 5775.39   58.70
   1   6  -6 5705.23   58.13
   1   6  -6 5889.23   59.56
   1   6  -5  345.82    9.51
   1   6  -5  344.90    9.93
   1   6  -5  333.71    9.18
   1   6  -5  351.81   11.22
   1   6  -5  326.60    8.75
   1   6  -5  325.61   10.42
   1   6  -4  294.63    9.57
   1   6  -4  294.35    9.28
   1   6  -4  324.22    8.83
   1   6  -4  295.81   10.41
   1   6  -4  294.30    9.89
   1   6  -3 1176.41   18.34
   1   6  -3 1186.79   17.54
   1   6  -3 1193.57   17.67
   1   6  -3 1236.89   17.45
   1   6  -3 1205.25   18.40
   1   6  -2  776.42   14.01
   1   6  -2  740.80   13.15
   1   6  -2  809.39   13.08
   1   6  -2  798.74   14.96
   1   6  -2  770.49   14.47
   1   6  -2  748.31   14.09
   1   6  -1    8.40    6.63
   1   6  -1    0.29    5.65
   1   6  -1   -0.54    4.91
   1   6  -1    9.99    4.59
   1   6  -1    5.28    6.59
   1   6  -1   -0.73    6.09
   1   6   0  436.31   11.41
   1   6   0  454.22   11.60
   1   6   0  437.11   11.75
   1   6   0  411.98   10.33
   1   6   0  434.25   11.16
   1   6   0  461.22   11.62
   1   6   0  466.21   10.46
   1   6   1  916.93   16.41
   1   6   1  964.54   16.24
   1   6   1  835.05   15.14
   1   6   1  894.13   15.88
   1   6   1  935.78   15.65
   1   6   1  886.07   16.40
   1   6   1  939.37   14.44
   1   6   2  208.08    9.54
   1   6   2  218.29    8.62
   1   6   2  165.99    7.67
   1   6   2  191.78    8.26
   1   6   2  183.94    9.21
   1   6   3   95.71    8.27
   1   6   3   96.34    7.02
   1   6   3   83.23    6.55
   1   6   3   95.94    6.82
   1   6   3   90.02    7.06
   1   6   3   99.39    8.14
   1   6   4  904.30   16.12
   1   6   4  989.64   16.15
   1   6   4  949.62   14.97
   1   6   4  933.73   16.84
   1   6   4  958.44   17.18
   1   6   5  306.60   10.88
   1   6   5  303.37    9.58
   1   6   5  329.10    9.56
   1   6   5  339.97   10.09
   1   6   6  170.28    7.73
   1   6   6  181.14    8.59
   1   6   7   38.54    6.33
   1   6   7   47.74    6.24
   1   6   7   48.50    6.98
   1   6   7   51.07    7.62
   1   6   8   17.58    7.51
   1   6   8   24.98    5.79
   1   6   8   18.67    5.53
   1   6   8   24.22    6.12
   1   6   8   19.91    7.14
   1   6   9  121.99    6.61
   1   6   9  133.39    7.34
   1   6   9  120.12    8.60
   1   6   9  138.47    8.62
   1   6  10 1141.23   16.05
   1   6  10 1236.93   18.16
   1   6  10 1153.36   18.46
   1   6  10 1253.78   18.76
   1   6  11  314.54    9.84
   1   6  11  334.70    9.14
   1   6  11  321.85    9.68
   1   6  12   29.93    5.86
   1   6  12   41.15    5.42
   1   6  12   37.73    6.01
   1   6  13  534.75    9.78
   1   6  13  559.87    9.88
   1   6  13  559.78   10.39
   1   6  14  381.26    7.27
   1   6  14  370.95    7.33
   1   7 -10   76.51    3.40
   1   7  -9  120.83    4.54
   1   7  -8  418.57    7.58
   1   7  -8  439.45    7.99
   1   7  -7  287.92    7.35
   1   7  -7  273.30    7.00
   1   7  -7  293.93    7.90
   1   7  -7  285.19    7.78
   1   7  -6  304.30    7.56
   1   7  -6  322.04    8.48
   1   7  -5   18.94    4.86
   1   7  -5   18.81    4.88
   1   7  -5   20.29    6.54
   1   7  -5   18.07    5.89
   1   7  -4  575.37   11.25
   1   7  -4  596.64   11.83
   1   7  -4  595.95   11.24
   1   7  -3  529.77   11.54
   1   7  -3  557.86   11.66
   1   7  -3  552.30   10.82
   1   7  -2   19.17    5.48
   1   7  -2   21.36    6.36
   1   7  -2   20.67    6.59
   1   7  -1  350.72   10.29
   1   7  -1  336.06    9.34
   1   7  -1  355.13    9.92
   1   7   0  228.92    8.77
   1   7   0  236.84    9.20
   1   7   0  238.46    8.73
   1   7   1  107.55    7.55
   1   7   1  111.67    8.13
   1   7   1  104.00    6.95
   1   7   2  649.92   13.20
   1   7   2  617.62   11.79
   1   7   3  765.11   14.46
   1   7   3  752.65   14.25
   1   7   3  730.71   12.38
   1   7   4   56.44    7.44
   1   7   4   60.04    6.96
   1   7   4   60.18    6.62
   1   7   5   94.96    7.78
   1   7   5   95.81    6.44
   1   7   5   87.46    7.17
   1   7   5   94.04    6.34
   1   7   6  992.92   16.42
   1   7   6 1003.34   14.77
   1   7   6 1008.71   13.99
   1   7   7  110.26    7.75
   1   7   7  111.49    6.52
   1   7   7  110.06    5.75
   1   7   8   30.83    4.65
   1   7   8   29.63    4.39
   1   7   8   29.29    6.12
   1   7   9  762.12   12.94
   1   7   9  782.40   12.85
   1   7  10   28.84    5.29
   1   7  10   36.44    5.07
   1   7  11  117.38    5.38
   1   7  12  130.91    4.48
   1   8  -5   76.51    3.44
   1   8  -5   72.76    3.11
   1   8  -4  100.26    4.27
   1   8  -4   97.19    3.68
   1   8  -3    5.83    3.62
   1   8  -3    3.17    3.18
   1   8  -3    5.17    3.11
   1   8  -2   45.51    4.39
   1   8  -2   41.45    4.02
   1   8  -2   34.79    3.47
   1   8  -1  373.65    7.34
   1   8  -1  321.71    6.09
   1   8   0   69.17    3.98
   1   8   0   80.89    4.88
   1   8   0   85.47    4.95
   1   8   0   67.06    3.55
   1   8   1   65.52    4.41
   1   8   1   66.55    4.96
   1   8   1   74.40    4.76
   1   8   2  772.49   10.85
   1   8   2  719.88   10.51
   1   8   3  298.77    6.22
   1   8   3  285.24    6.75
   1   8   4   19.03    4.25
   1   8   4   20.84    3.91
   1   8   4   15.45    3.02
   1   8   5  325.00    6.94
   1   8   5  344.02    6.61
   1   8   6  488.01    8.17
   1   8   6  491.60    7.35
   1   8   7   36.42    3.65
   1   8   8  275.89    5.33
   2  -6 -10   11.62    1.91
   2  -6  -9  162.57    4.04
   2  -6  -8  335.11    6.64
   2  -6  -8  335.75    6.16
   2  -6  -7  139.19    4.53
   2  -6  -7  147.20    5.00
   2  -6  -6  255.63    6.01
   2  -6  -6  259.87    6.56
   2  -6  -5  463.61    8.73
   2  -6  -5  448.11    8.11
   2  -6  -4   37.81    4.25
   2  -6  -4   34.97    4.01
   2  -6  -3  193.42    5.81
   2  -6  -3  194.18    6.72
   2  -6  -2   64.03    4.45
   2  -6  -2   66.24    5.29
   2  -6  -1  589.92    9.74
   2  -6  -1  606.81   10.77
   2  -6   0   36.70    5.08
   2  -6   0   35.83    4.04
   2  -6   0   39.99    4.76
   2  -6   1   46.27    4.84
   2  -6   1   44.56    4.01
   2  -6   1   41.24    4.49
   2  -6   2  405.26    7.60
   2  -6   2  415.55    8.67
   2  -6   2  389.32    8.04
   2  -6   3  136.65    4.67
   2  -6   3  135.57    5.09
   2  -6   4   77.72    4.05
   2  -6   5  252.35    5.34
   2  -6   6   72.65    3.09
   2  -6   7   18.05    3.03
   2  -6   8   26.53    2.71
   2  -5 -14   21.00    2.26
   2  -5 -13   66.64    3.58
   2  -5 -13   66.10    2.80
   2  -5 -12   25.72    2.94
   2  -5 -12   16.44    3.67
   2  -5 -12   16.46    3.30
   2  -5 -12   19.91    2.89
   2  -5 -11   19.70    4.29
   2  -5 -11   20.61    3.43
   2  -5 -11   27.30    3.37
   2  -5 -11   19.16    3.83
   2  -5 -11   28.78    3.15
   2  -5 -10  594.71    9.76
   2  -5 -10  608.27   10.20
   2  -5 -10  632.41   10.67
   2  -5 -10  609.52   10.18
   2  -5 -10  628.45   10.86
   2  -5  -9  712.72   11.52
   2  -5  -9  741.84   12.07
   2  -5  -9  730.54   11.54
   2  -5  -9  732.03   12.16
   2  -5  -8  567.16   10.05
   2  -5  -8  567.86   10.33
   2  -5  -8  588.64   11.08
   2  -5  -8  584.76   10.36
   2  -5  -8  562.83   10.67
   2  -5  -8  583.20   11.05
   2  -5  -7  485.59   10.20
   2  -5  -7  482.31    9.42
   2  -5  -7  516.70   10.31
   2  -5  -7  484.77    9.92
   2  -5  -6 2268.68   26.18
   2  -5  -6 2297.21   27.13
   2  -5  -6 2318.66   27.23
   2  -5  -5  142.76    6.68
   2  -5  -5  137.10    5.94
   2  -5  -5  147.29    6.36
   2  -5  -4  119.54    6.43
   2  -5  -4  127.22    5.81
   2  -5  -4  122.10    6.33
   2  -5  -3  929.45   14.84
   2  -5  -3  954.81   14.98
   2  -5  -2   35.58    6.11
   2  -5  -2   41.52    4.65
   2  -5  -2   47.91    5.79
   2  -5  -1   27.28    5.44
   2  -5  -1   24.33    4.59
   2  -5  -1   26.08    6.21
   2  -5   0  428.37   10.85
   2  -5   0  434.15   10.08
   2  -5   1   49.12    5.82
   2  -5   1   51.25    6.58
   2  -5   2  350.56    9.10
   2  -5   2  367.89   10.07
   2  -5   2  363.95    9.41
   2  -5   3  353.23    9.01
   2  -5   3  362.70    9.62
   2  -5   3  356.86    9.13
   2  -5   4 1139.33   16.57
   2  -5   4 1164.23   17.41
   2  -5   4 1143.88   16.65
   2  -5   5  298.76    8.12
   2  -5   5  308.12    8.12
   2  -5   6  129.21    5.99
   2  -5   6  115.91    5.77
   2  -5   7  292.72    7.54
   2  -5   7  301.57    7.24
   2  -5   8  829.86   12.33
   2  -5   8  825.59   11.66
   2  -5   9   10.89    4.12
   2  -5   9    4.45    3.17
   2  -5  10  258.03    6.46
   2  -5  11  121.66    4.37
   2  -5  12   11.38    2.48
   2  -4 -15   58.50    3.57
   2  -4 -14   70.31    4.05
   2  -4 -14   67.98    4.14
   2  -4 -13  345.27    7.73
   2  -4 -13  346.53    7.49
   2  -4 -13  332.41    7.78
   2  -4 -12   22.46    4.38
   2  -4 -12   22.26    4.73
   2  -4 -12   24.34    3.88
   2  -4 -11   -0.06    4.42
   2  -4 -11    3.73    4.02
   2  -4 -11    2.69    3.89
   2  -4 -10  440.46    9.61
   2  -4 -10  447.18    9.45
   2  -4 -10  447.86    9.36
   2  -4 -10  413.22    8.56
   2  -4  -9  454.79    9.73
   2  -4  -9  461.08    9.76
   2  -4  -9  438.63    8.85
   2  -4  -9  462.75    9.68
   2  -4  -8  434.60    9.53
   2  -4  -8  430.60    9.31
   2  -4  -8  427.61    9.29
   2  -4  -7  723.11   12.34
   2  -4  -7  724.21   12.48
   2  -4  -7  728.94   12.59
   2  -4  -7  741.02   12.74
   2  -4  -7  747.44   12.97
   2  -4  -6  513.62   10.36
   2  -4  -6  510.63   10.24
   2  -4  -6  520.66   10.42
   2  -4  -6  526.99   10.60
   2  -4  -6  516.06   10.64
   2  -4  -5   16.97    4.74
   2  -4  -5   19.14    4.44
   2  -4  -5   13.96    4.34
   2  -4  -5   14.23    4.43
   2  -4  -5   17.64    3.63
   2  -4  -5   16.81    4.60
   2  -4  -4  709.14   12.15
   2  -4  -4  688.50   12.41
   2  -4  -4  712.03   12.29
   2  -4  -4  740.96   12.46
   2  -4  -4  733.49   12.41
   2  -4  -3  153.09    6.11
   2  -4  -3  150.35    6.17
   2  -4  -3  147.18    6.93
   2  -4  -3  146.80    6.34
   2  -4  -3  150.69    6.22
   2  -4  -3  156.75    6.24
   2  -4  -2  549.18   10.63
   2  -4  -2  553.37   10.61
   2  -4  -2  563.09   10.41
   2  -4  -2  529.41   11.11
   2  -4  -1  351.67    8.38
   2  -4  -1  363.20    9.01
   2  -4  -1  353.62    8.88
   2  -4  -1  341.28    9.19
   2  -4   0 1192.08   17.79
   2  -4   0 1159.38   17.15
   2  -4   0 1175.63   17.35
   2  -4   1   66.04    6.15
   2  -4   1   57.64    5.58
   2  -4   1   56.29    4.27
   2  -4   1   58.27    5.54
   2  -4   2  212.46    7.91
   2  -4   2  221.39    7.73
   2  -4   2  202.40    7.53
   2  -4   3  655.36   11.90
   2  -4   3  645.24   12.39
   2  -4   3  672.51   12.92
   2  -4   4  416.98    9.43
   2  -4   4  408.49   10.01
   2  -4   4  441.28   10.17
   2  -4   5   65.42    6.07
   2  -4   5   70.34    6.66
   2  -4   5   70.37    5.24
   2  -4   5   74.35    6.15
   2  -4   6  943.02   14.83
   2  -4   6  968.55   15.70
   2  -4   7  936.80   15.28
   2  -4   7  971.92   14.88
   2  -4   8   24.98    5.32
   2  -4   8   21.32    4.63
   2  -4   8   31.42    5.10
   2  -4   9   10.70    5.03
   2  -4   9   12.59    5.05
   2  -4   9   27.17    4.77
   2  -4  10  268.55    8.01
   2  -4  10  271.40    7.82
   2  -4  10  285.95    7.41
   2  -4  11    1.90    4.71
   2  -4  11   -4.74    4.69
   2  -4  11   -0.78    3.87
   2  -4  12   21.26    4.44
   2  -4  12    9.71    4.53
   2  -4  13  152.97    5.45
   2  -4  14  886.33   11.67
   2  -3 -17  308.88    6.12
   2  -3 -16  140.61    4.81
   2  -3 -16  152.80    4.73
   2  -3 -15   94.35    4.83
   2  -3 -15  105.92    4.85
   2  -3 -14  268.08    7.00
   2  -3 -14  283.37    7.29
   2  -3 -14  279.67    7.11
   2  -3 -13   56.05    5.12
   2  -3 -13   52.79    4.96
   2  -3 -13   65.47    4.75
   2  -3 -13   52.29    5.04
   2  -3 -12  123.49    6.07
   2  -3 -12  117.32    5.86
   2  -3 -12  113.07    5.88
   2  -3 -12  129.70    5.67
   2  -3 -11  131.33    5.84
   2  -3 -11  135.59    6.05
   2  -3 -11  141.89    5.91
   2  -3 -11  127.60    5.68
   2  -3 -10  279.71    7.67
   2  -3 -10  278.73    7.25
   2  -3 -10  280.69    7.22
   2  -3  -9  156.82    5.93
   2  -3  -9  159.70    5.80
   2  -3  -9  147.44    5.80
   2  -3  -8  631.40   10.42
   2  -3  -8  685.61   11.23
   2  -3  -8  647.11   10.50
   2  -3  -8  690.44   10.71
   2  -3  -7 1550.99   18.97
   2  -3  -7 1538.20   18.26
   2  -3  -6   16.32    3.86
   2  -3  -6   12.76    3.45
   2  -3  -6   15.21    3.46
   2  -3  -5   82.46    4.72
   2  -3  -5   78.33    4.47
   2  -3  -4 1926.78   22.50
   2  -3  -4 1941.24   22.46
   2  -3  -4 1952.86   22.57
   2  -3  -4 1956.99   22.04
   2  -3  -4 1896.28   21.15
   2  -3  -3  645.46   10.47
   2  -3  -3  656.31   10.56
   2  -3  -3  669.51   10.48
   2  -3  -3  630.81    9.97
   2  -3  -3  666.95   10.80
   2  -3  -3  644.67   10.41
   2  -3  -3  641.49    9.17
   2  -3  -2  219.77    6.52
   2  -3  -2  215.23    6.15
   2  -3  -2  228.16    6.06
   2  -3  -2  216.54    5.57
   2  -3  -2  216.70    6.23
   2  -3  -2  212.82    6.14
   2  -3  -1 9380.82   88.39
   2  -3   0  544.48    8.34
   2  -3   0  575.02    9.96
   2  -3   0  558.91    9.69
   2  -3   0  543.11    9.82
   2  -3   0  589.29    9.37
   2  -3   1  642.74    9.27
   2  -3   1  671.55   10.84
   2  -3   1  652.18   10.58
   2  -3   2  691.51    9.98
   2  -3   2  737.02   12.17
   2  -3   2  728.59   11.61
   2  -3   2  681.79    9.95
   2  -3   3  696.30   10.17
   2  -3   3  728.46   11.97
   2  -3   4    9.36    4.28
   2  -3   4   21.08    4.84
   2  -3   4   16.86    2.81
   2  -3   5 1867.61   21.59
   2  -3   5 2104.81   24.44
   2  -3   5 2002.37   23.62
   2  -3   5 1763.18   22.83
   2  -3   5 1969.95   23.94
   2  -3   6  158.67    6.36
   2  -3   6  157.02    4.98
   2  -3   6  155.93    6.73
   2  -3   6  145.78    6.32
   2  -3   6  160.20    5.93
   2  -3   6  172.61    6.50
   2  -3   7 1455.24   20.15
   2  -3   7 1473.46   19.87
   2  -3   7 1466.67   20.39
   2  -3   7 1491.01   19.46
   2  -3   8   52.98    5.23
   2  -3   8   40.07    5.36
   2  -3   8   46.02    6.02
   2  -3   8   63.42    5.70
   2  -3   8   34.72    5.15
   2  -3   9 1896.30   25.11
   2  -3   9 1880.74   23.69
   2  -3   9 1947.25   23.52
   2  -3  10 1559.08   21.68
   2  -3  10 1419.24   20.54
   2  -3  10 1482.56   21.55
   2  -3  10 1471.21   20.55
   2  -3  10 1536.98   20.09
   2  -3  11   26.51    5.36
   2  -3  11   34.32    6.03
   2  -3  11   19.67    6.79
   2  -3  11   41.57    6.29
   2  -3  11   29.30    5.18
   2  -3  12  756.38   13.76
   2  -3  12  741.08   14.09
   2  -3  12  742.66   13.55
   2  -3  12  780.29   12.45
   2  -3  13   23.86    5.44
   2  -3  13   15.92    5.93
   2  -3  14   61.62    5.49
   2  -3  14   50.51    5.72
   2  -3  15   17.70    4.10
   2  -3  16  582.83    7.70
   2  -3  17  182.17    3.94
   2  -2 -18  285.57    5.94
   2  -2 -17  198.36    5.88
   2  -2 -17  201.88    5.39
   2  -2 -17  196.46    5.70
   2  -2 -16  174.96    6.45
   2  -2 -16  173.04    6.20
   2  -2 -15   65.11    5.75
   2  -2 -15   68.95    5.48
   2  -2 -15   66.51    4.93
   2  -2 -14  121.50    6.58
   2  -2 -14  118.77    6.37
   2  -2 -14  124.17    5.87
   2  -2 -13   24.63    5.24
   2  -2 -13   24.40    5.12
   2  -2 -13   21.18    4.84
   2  -2 -12  279.62    7.95
   2  -2 -12  290.74    7.80
   2  -2 -12  278.69    7.44
   2  -2 -12  279.40    7.53
   2  -2 -11 2162.35   24.38
   2  -2 -11 2054.59   24.10
   2  -2 -11 2015.05   23.62
   2  -2 -11 2136.59   24.12
   2  -2 -10 1511.79   18.60
   2  -2 -10 1494.67   18.43
   2  -2 -10 1448.22   17.93
   2  -2 -10 1514.38   18.41
   2  -2  -9  894.53   12.73
   2  -2  -9  911.51   12.28
   2  -2  -9  881.92   12.77
   2  -2  -8 2095.23   23.50
   2  -2  -8 2166.67   23.49
   2  -2  -8 2151.04   22.97
   2  -2  -8 2176.23   23.46
   2  -2  -7 1050.65   13.18
   2  -2  -7 1048.03   13.11
   2  -2  -6  590.10    8.96
   2  -2  -6  614.01    8.93
   2  -2  -6  614.18    8.97
   2  -2  -5  657.02    9.49
   2  -2  -5  697.52    9.57
   2  -2  -3    4.25    2.46
   2  -2  -3   10.46    2.49
   2  -2  -2   77.37    3.49
   2  -2  -2   89.84    3.57
   2  -2  -1  949.41   12.37
   2  -2  -1  963.28   11.75
   2  -2  -1  934.50   11.77
   2  -2  -1  955.14   11.93
   2  -2  -1  923.65   11.46
   2  -2   0  285.63    5.24
   2  -2   0  274.05    5.99
   2  -2   0  289.64    5.53
   2  -2   0  268.37    5.57
   2  -2   0  279.78    5.46
   2  -2   1 4900.43   47.60
   2  -2   2 1398.49   15.88
   2  -2   2 1362.73   16.61
   2  -2   2 1397.74   16.12
   2  -2   3  397.80    6.69
   2  -2   3  383.56    7.47
   2  -2   3  399.35    6.92
   2  -2   4  342.15    6.30
   2  -2   4  320.62    6.35
   2  -2   5  166.10    4.60
   2  -2   6  238.57    5.64
   2  -2   6  219.18    6.16
   2  -2   7  185.85    6.16
   2  -2   7  182.93    5.35
   2  -2   8 1913.71   24.07
   2  -2   8 1919.54   23.63
   2  -2   8 1949.33   22.75
   2  -2   8 1948.96   23.67
   2  -2   9  548.63   11.04
   2  -2   9  541.97   10.66
   2  -2   9  564.18   11.09
   2  -2  10  181.46    7.34
   2  -2  10  151.84    5.87
   2  -2  10  163.00    7.39
   2  -2  10  172.55    8.37
   2  -2  10  175.05    7.55
   2  -2  11 1166.97   17.86
   2  -2  11 1224.18   18.48
   2  -2  11 1090.18   16.42
   2  -2  11 1354.79   20.01
   2  -2  11 1281.29   18.50
   2  -2  12  582.55   11.13
   2  -2  12  637.56   13.15
   2  -2  12  719.21   14.33
   2  -2  12  666.07   13.18
   2  -2  13    9.48    5.67
   2  -2  13    0.99    6.23
   2  -2  14  642.02   12.83
   2  -2  14  626.74   12.84
   2  -2  15  823.63   13.78
   2  -2  15  762.16   14.12
   2  -2  16  156.66    6.54
   2  -2  16  162.18    5.94
   2  -2  17  288.49    6.73
   2  -2  17  278.77    5.66
   2  -2  18  510.57    7.21
   2  -2  18  508.24    7.66
   2  -1 -19   77.10    3.68
   2  -1 -18   73.61    4.79
   2  -1 -17   54.07    5.31
   2  -1 -16  508.08    9.14
   2  -1 -16  557.51   10.56
   2  -1 -15   47.55    4.84
   2  -1 -15   48.66    5.78
   2  -1 -15   59.40    5.63
   2  -1 -15   42.88    5.71
   2  -1 -15   45.48    4.97
   2  -1 -14    1.29    4.50
   2  -1 -14    5.20    5.23
   2  -1 -14    2.56    5.38
   2  -1 -13 1174.31   16.38
   2  -1 -13 1173.41   16.41
   2  -1 -12   21.95    4.78
   2  -1 -12   23.96    5.12
   2  -1 -11  376.99    8.26
   2  -1 -11  417.86    8.49
   2  -1 -10   27.05    3.94
   2  -1 -10   28.05    4.21
   2  -1 -10   38.14    3.96
   2  -1  -9 1319.62   15.94
   2  -1  -9 1304.92   15.98
   2  -1  -9 1344.08   16.01
   2  -1  -8  370.76    6.76
   2  -1  -8  354.63    6.80
   2  -1  -8  375.04    6.71
   2  -1  -7 2936.29   29.54
   2  -1  -7 2937.51   29.47
   2  -1  -6 4999.31   47.64
   2  -1  -5 1227.99   13.82
   2  -1  -5 1217.45   13.57
   2  -1  -1 2255.29   22.77
   2  -1   0  724.30    9.14
   2  -1   0  716.31    9.21
   2  -1   0  712.89    8.94
   2  -1   1 3523.81   33.43
   2  -1   2 2425.42   23.31
   2  -1   5  921.69   11.63
   2  -1   5  894.40   11.63
   2  -1   6 1072.40   12.94
   2  -1   6  979.53   12.24
   2  -1   7 2130.50   21.53
   2  -1   7 1776.89   19.93
   2  -1   8  172.71    5.34
   2  -1   8  105.03    4.26
   2  -1   9   39.22    3.76
   2  -1   9   41.49    4.44
   2  -1  10  497.98   10.27
   2  -1  10  481.04    9.18
   2  -1  10  469.72   10.11
   2  -1  10  469.30    9.36
   2  -1  11  449.06    9.28
   2  -1  11  441.98   10.38
   2  -1  11  450.04   10.01
   2  -1  12  351.56    9.86
   2  -1  12  337.32    8.41
   2  -1  12  363.72    9.48
   2  -1  12  378.85   11.42
   2  -1  12  382.09    9.16
   2  -1  13   85.90    6.84
   2  -1  13   87.40    7.22
   2  -1  13   87.19    8.01
   2  -1  13   84.87    5.27
   2  -1  13   84.07    7.05
   2  -1  14  402.20   10.88
   2  -1  14  434.75   10.84
   2  -1  14  407.58   12.02
   2  -1  14  402.30   10.47
   2  -1  15  127.88    7.57
   2  -1  15  130.16    7.75
   2  -1  15  123.22    8.35
   2  -1  15  138.71    7.40
   2  -1  16    7.43    5.34
   2  -1  16   14.10    6.16
   2  -1  16    1.51    6.00
   2  -1  16   -1.04    5.53
   2  -1  17  421.51    9.16
   2  -1  17  475.30    9.10
   2  -1  18  197.78    5.88
   2  -1  18  205.66    5.83
   2  -1  19   75.25    3.51
   2  -1  19   84.45    4.02
   2   0 -19  648.60    8.85
   2   0 -19  681.76    9.46
   2   0 -18  109.85    5.12
   2   0 -18  116.68    5.49
   2   0 -18  114.39    4.84
   2   0 -17  529.41    9.89
   2   0 -17  527.19    9.71
   2   0 -17  526.78   10.13
   2   0 -16 1088.97   15.77
   2   0 -16 1169.14   16.35
   2   0 -16 1158.04   15.79
   2   0 -16 1096.06   15.27
   2   0 -16 1114.83   14.68
   2   0 -15   73.91    6.53
   2   0 -15   62.90    5.55
   2   0 -15   78.71    5.99
   2   0 -15   74.69    5.38
   2   0 -14   29.19    5.95
   2   0 -14   29.22    5.19
   2   0 -14   28.15    5.07
   2   0 -14   34.75    4.95
   2   0 -13  406.37    9.45
   2   0 -13  383.47    8.46
   2   0 -13  398.41    9.46
   2   0 -13  389.11    8.63
   2   0 -12 5935.68   58.29
   2   0 -12 6054.37   57.83
   2   0 -11  105.18    4.85
   2   0 -11   99.44    5.44
   2   0 -11   92.33    4.79
   2   0 -10 1437.36   16.83
   2   0 -10 1472.15   17.60
   2   0 -10 1458.52   17.18
   2   0  -9  455.29    8.02
   2   0  -9  467.21    7.69
   2   0  -8  427.38    7.26
   2   0  -8  427.22    6.95
   2   0  -6  299.04    5.12
   2   0  -6  306.50    4.84
   2   0  -5 2728.87   26.07
   2   0  -5 2696.48   26.06
   2   0  -4  269.30    4.33
   2   0  -4  272.91    4.34
   2   0  -3  548.01    7.00
   2   0  -2  748.91    8.82
   2   0   0  257.90    4.26
   2   0   0  256.73    4.36
   2   0   1  440.58    6.10
   2   0   1  441.17    5.88
   2   0   2   73.94    2.26
   2   0   2   69.49    2.22
   2   0   5  503.01    6.47
   2   0   5  478.81    5.20
   2   0   6 1960.09   19.75
   2   0   6 2073.82   19.28
   2   0   8  148.66    3.36
   2   0   8  196.03    4.90
   2   0   9  665.88    9.88
   2   0   9  625.26    9.72
   2   0  10 4103.97   41.15
   2   0  10 3993.80   41.79
   2   0  10 4017.61   41.09
   2   0  11  310.70    7.42
   2   0  11  308.69    8.09
   2   0  11  312.67    9.33
   2   0  11  310.11    7.65
   2   0  11  324.77    7.95
   2   0  12  373.46    9.56
   2   0  12  401.67    8.76
   2   0  12  395.04    9.92
   2   0  12  426.27   11.03
   2   0  12  377.12    9.11
   2   0  12  427.92    9.40
   2   0  13   27.01    5.66
   2   0  13   17.90    4.27
   2   0  13   10.21    6.26
   2   0  13   11.28    6.87
   2   0  13    9.53    4.89
   2   0  13   13.25    5.50
   2   0  14  259.54    7.83
   2   0  14  247.99    9.39
   2   0  14  258.29    9.86
   2   0  14  264.98    8.60
   2   0  15   10.01    6.14
   2   0  15    3.94    6.98
   2   0  15   11.01    6.83
   2   0  15    7.75    5.59
   2   0  16  617.81   13.06
   2   0  16  595.51   11.18
   2   0  17  218.16    8.75
   2   0  17  195.29    7.11
   2   0  18   39.06    5.89
   2   0  18   46.77    4.54
   2   0  19  413.93    8.05
   2   1 -19   14.04    2.65
   2   1 -19   14.55    3.83
   2   1 -18  135.99    6.09
   2   1 -18  139.41    5.49
   2   1 -18  134.72    5.02
   2   1 -17  904.38   13.42
   2   1 -17  898.81   12.81
   2   1 -17  887.23   13.07
   2   1 -16  110.47    7.48
   2   1 -16  103.27    6.63
   2   1 -16  115.33    6.68
   2   1 -16  114.27    5.84
   2   1 -16  105.51    6.73
   2   1 -15  671.92   12.93
   2   1 -15  646.99   12.19
   2   1 -15  658.88   11.65
   2   1 -15  641.19   10.93
   2   1 -14 2763.23   32.01
   2   1 -14 2791.04   31.21
   2   1 -14 2689.73   30.11
   2   1 -13 2353.58   27.97
   2   1 -13 2412.88   27.54
   2   1 -12   80.13    6.37
   2   1 -12   78.13    6.08
   2   1 -12   83.33    6.16
   2   1 -12   83.32    5.77
   2   1 -12   85.67    5.00
   2   1 -11 2330.98   27.21
   2   1 -11 2327.31   26.61
   2   1 -11 2352.51   26.48
   2   1 -11 2308.11   25.54
   2   1 -10 2510.77   27.52
   2   1 -10 2520.30   26.67
   2   1  -9   26.81    3.76
   2   1  -9   25.17    2.86
   2   1  -8  109.45    4.31
   2   1  -8  121.95    3.30
   2   1  -8  105.47    3.54
   2   1  -8  127.57    3.45
   2   1  -7  664.43    9.25
   2   1  -7  656.16    8.58
   2   1  -7  645.76    8.21
   2   1  -6 1964.09   21.13
   2   1  -6 2009.82   20.54
   2   1   2  443.17    5.61
   2   1   2  440.30    6.07
   2   1   2  458.09    5.63
   2   1   5  299.79    4.72
   2   1   5  294.73    4.18
   2   1   7 2425.34   23.93
   2   1   7 2266.06   23.63
   2   1   8  529.63    7.97
   2   1   8  529.28    8.04
   2   1   9 3519.41   34.54
   2   1   9 3327.97   34.74
   2   1  10 1049.59   13.71
   2   1  11 1107.77   14.54
   2   1  11 1012.74   15.10
   2   1  12  269.50    7.15
   2   1  12  284.51    8.53
   2   1  12  285.60    8.27
   2   1  12  284.68    8.88
   2   1  12  299.44    7.15
   2   1  13  430.82    9.06
   2   1  13  392.25   10.40
   2   1  13  418.30   10.39
   2   1  13  426.58   11.04
   2   1  13  430.94    9.00
   2   1  14   22.65    4.69
   2   1  14   20.74    7.08
   2   1  14   23.87    5.93
   2   1  14   29.05    6.23
   2   1  14   27.71    5.13
   2   1  15   28.98    5.97
   2   1  15   40.52    7.50
   2   1  15   30.66    6.34
   2   1  15   29.94    6.32
   2   1  15   31.20    4.98
   2   1  16  535.87   11.54
   2   1  16  539.63   12.39
   2   1  16  572.35   12.10
   2   1  16  480.66   10.70
   2   1  16  494.38    9.37
   2   1  17   31.69    5.75
   2   1  17   32.05    5.80
   2   1  17   29.50    7.19
   2   1  17   27.26    4.64
   2   1  18   52.75    6.07
   2   1  18   52.30    5.38
   2   1  18   52.44    6.51
   2   1  19   90.92    4.85
   2   1  19   92.81    5.78
   2   1  19   96.26    5.26
   2   1  20  244.02    4.99
   2   1  20  244.89    5.61
   2   2 -19  180.30    5.13
   2   2 -19  167.83    4.36
   2   2 -18   58.06    5.47
   2   2 -18   53.70    4.54
   2   2 -17  326.46    8.86
   2   2 -17  309.52    7.01
   2   2 -16  129.93    8.04
   2   2 -16  119.50    7.49
   2   2 -16  119.82    5.99
   2   2 -15 1592.81   21.86
   2   2 -15 1553.82   21.12
   2   2 -15 1516.53   19.59
   2   2 -15 1516.14   18.85
   2   2 -15 1564.13   19.98
   2   2 -15 1527.35   20.89
   2   2 -14  137.66    8.56
   2   2 -14  123.56    8.05
   2   2 -14  105.88    6.07
   2   2 -14  129.08    5.87
   2   2 -14  126.47    7.33
   2   2 -14  128.81    7.21
   2   2 -13  269.78   10.04
   2   2 -13  294.12    9.67
   2   2 -13  282.30    8.56
   2   2 -13  278.31    8.87
   2   2 -13  264.20    6.83
   2   2 -12  117.48    7.45
   2   2 -12  125.81    6.57
   2   2 -12  123.03    6.47
   2   2 -12  137.31    5.28
   2   2 -11 2291.53   26.64
   2   2 -11 2328.82   25.74
   2   2 -11 2320.46   26.32
   2   2 -10    8.58    5.40
   2   2 -10    9.46    4.58
   2   2 -10   11.47    4.04
   2   2 -10   10.50    3.36
   2   2 -10    8.75    3.04
   2   2  -9  119.90    5.73
   2   2  -9  110.77    4.54
   2   2  -9  125.55    4.04
   2   2  -8 1586.14   18.55
   2   2  -8 1607.75   17.42
   2   2  -7  167.15    4.70
   2   2  -7  158.81    4.50
   2   2  -7  164.95    3.76
   2   2  -6  459.28    7.16
   2   2  -6  446.48    6.18
   2   2  -5 8173.44   75.03
   2   2  -3  845.23    9.59
   2   2  -3  776.86    8.45
   2   2   3 2575.22   25.68
   2   2   4  138.95    2.62
   2   2   4  127.46    2.93
   2   2   5 1039.76   11.17
   2   2   5 1032.99   11.28
   2   2   7   99.16    3.06
   2   2   7   93.52    2.72
   2   2   8 1178.87   13.66
   2   2   9 3222.01   32.33
   2   2  10 1324.57   15.93
   2   2  11 2439.79   26.48
   2   2  11 2407.05   27.22
   2   2  12  747.26   12.46
   2   2  12  757.56   11.77
   2   2  12  740.43   12.67
   2   2  12  744.65   13.11
   2   2  13  280.46    8.35
   2   2  13  268.47    7.34
   2   2  13  258.53    8.90
   2   2  13  266.01    8.80
   2   2  13  246.62    8.24
   2   2  14   71.44    6.30
   2   2  14   66.04    5.21
   2   2  14   69.30    7.34
   2   2  14   69.95    6.62
   2   2  14   69.62    6.30
   2   2  15  336.07   10.12
   2   2  15  325.18   10.00
   2   2  15  346.43    9.50
   2   2  16  121.30    7.12
   2   2  16  116.32    7.39
   2   2  16  134.88    8.31
   2   2  17   93.98    6.55
   2   2  17   94.56    6.42
   2   2  17   94.93    7.51
   2   2  18  409.83    9.02
   2   2  18  402.08    8.52
   2   2  18  417.20    9.62
   2   2  19  289.18    6.05
   2   2  19  282.99    7.34
   2   2  20  171.81    4.69
   2   2  20  162.01    4.27
   2   3 -18  767.93   10.50
   2   3 -18  731.97   10.33
   2   3 -17  529.67    9.85
   2   3 -17  516.78    9.47
   2   3 -16   58.33    6.82
   2   3 -16   52.01    5.07
   2   3 -16   47.69    5.42
   2   3 -15   13.19    7.00
   2   3 -15   13.15    5.67
   2   3 -15    4.70    7.10
   2   3 -15   19.78    5.72
   2   3 -14   42.47    8.02
   2   3 -14   24.74    7.85
   2   3 -14   36.73    6.39
   2   3 -14   39.93    6.26
   2   3 -13   19.75    7.64
   2   3 -13   17.49    6.24
   2   3 -13    9.55    7.35
   2   3 -13   17.15    6.05
   2   3 -13   21.17    4.86
   2   3 -12  972.58   14.05
   2   3 -12  982.71   15.90
   2   3 -11 1236.41   18.59
   2   3 -11 1213.31   16.03
   2   3 -11 1244.51   17.64
   2   3 -10  869.40   14.66
   2   3 -10  856.11   12.39
   2   3 -10  838.04   13.71
   2   3  -9 3834.11   40.42
   2   3  -9 3821.29   38.08
   2   3  -9 3832.63   39.76
   2   3  -9 3792.36   39.89
   2   3  -8 2848.02   31.35
   2   3  -8 2794.18   29.21
   2   3  -8 2885.46   30.98
   2   3  -7  268.31    7.17
   2   3  -7  266.99    5.70
   2   3  -7  273.31    6.90
   2   3  -6 5147.48   50.72
   2   3  -5 2441.03   26.24
   2   3  -4 1464.84   17.04
   2   3   0  252.05    4.62
   2   3   1  987.18   11.58
   2   3   1 1016.46   11.90
   2   3   2 1493.27   16.09
   2   3   2 1439.41   15.99
   2   3   6 3152.91   29.88
   2   3   7 3141.79   30.99
   2   3   7 3342.34   31.88
   2   3   8  417.08    6.55
   2   3   8  460.83    7.00
   2   3   9 1606.99   18.42
   2   3   9 1752.66   18.26
   2   3  10   19.22    3.03
   2   3  11 1795.19   21.34
   2   3  11 1740.77   20.41
   2   3  11 1813.55   21.87
   2   3  12  821.73   13.38
   2   3  12  791.68   13.04
   2   3  13   64.80    5.69
   2   3  13   51.38    6.44
   2   3  13   51.25    4.07
   2   3  14  315.52    9.04
   2   3  14  312.58    9.23
   2   3  15 1074.41   16.51
   2   3  15 1048.92   16.16
   2   3  16    5.18    4.92
   2   3  16    5.42    6.44
   2   3  17  242.15    7.96
   2   3  18  251.33    7.27
   2   3  18  254.66    7.09
   2   3  19   23.92    3.80
   2   3  19   18.82    3.43
   2   4 -17  262.49    5.19
   2   4 -17  256.85    5.33
   2   4 -16  670.97   10.45
   2   4 -16  686.12   10.55
   2   4 -16  648.22   10.57
   2   4 -15  233.13    7.70
   2   4 -15  238.53    7.70
   2   4 -15  222.74    7.57
   2   4 -14  125.02    7.52
   2   4 -14  127.14    7.57
   2   4 -14  109.96    7.20
   2   4 -13  682.05   12.84
   2   4 -13  689.04   13.14
   2   4 -13  644.97   12.68
   2   4 -12 1501.90   20.46
   2   4 -12 1426.28   20.57
   2   4 -12 1383.31   20.10
   2   4 -12 1511.20   20.97
   2   4 -11  107.42    7.71
   2   4 -11   87.32    8.76
   2   4 -11  100.33    7.41
   2   4 -11   96.64    7.05
   2   4 -11   98.95    6.14
   2   4 -10  381.03   10.90
   2   4 -10  371.26   10.20
   2   4 -10  396.13   10.19
   2   4 -10  393.49   10.32
   2   4 -10  377.45    9.18
   2   4  -9 1649.71   21.29
   2   4  -9 1636.38   22.13
   2   4  -9 1691.54   21.84
   2   4  -9 1615.45   22.00
   2   4  -9 1649.10   20.97
   2   4  -8  761.49   12.91
   2   4  -8  771.26   13.62
   2   4  -8  798.86   13.12
   2   4  -8  769.13   13.68
   2   4  -8  770.92   12.80
   2   4  -7    6.67    5.58
   2   4  -7   11.46    4.59
   2   4  -7   28.87    5.19
   2   4  -7    9.92    4.74
   2   4  -7   28.39    4.96
   2   4  -6 2945.75   32.94
   2   4  -5  499.23    9.87
   2   4  -4 3593.79   35.21
   2   4  -4 3378.21   36.75
   2   4  -2 1616.35   18.55
   2   4  -2 1639.17   18.40
   2   4  -1  180.89    4.88
   2   4  -1  183.11    4.98
   2   4  -1  169.58    5.40
   2   4   0 4939.10   47.56
   2   4   1 2840.52   28.89
   2   4   1 2906.13   28.15
   2   4   2 1589.38   18.09
   2   4   2 1623.69   17.36
   2   4   3 1527.91   17.67
   2   4   5  766.93   11.09
   2   4   6 4831.85   47.61
   2   4   7  175.65    5.54
   2   4   8 1169.80   15.22
   2   4   9  297.23    8.61
   2   4   9  296.61    6.99
   2   4  10 1229.33   15.72
   2   4  11  941.38   13.42
   2   4  12   69.93    5.93
   2   4  13  415.52    9.24
   2   4  14 3093.42   33.01
   2   4  14 3098.80   35.94
   2   4  14 3114.69   34.74
   2   4  15   12.29    5.24
   2   4  15    2.28    5.46
   2   4  15    5.45    5.28
   2   4  16  105.92    5.77
   2   4  16  111.02    6.07
   2   4  16  106.52    6.06
   2   4  17   25.89    4.13
   2   4  17   24.71    4.48
   2   4  18   20.29    3.34
   2   5 -16  162.16    4.40
   2   5 -16  140.29    4.18
   2   5 -15  157.52    5.75
   2   5 -15  147.42    4.77
   2   5 -14  611.68   10.84
   2   5 -14  599.54    9.76
   2   5 -13  201.45    8.11
   2   5 -13  200.23    7.01
   2   5 -12   23.92    7.15
   2   5 -12   15.73    5.42
   2   5 -12   34.08    6.01
   2   5 -11  258.22    9.34
   2   5 -11  234.78    8.89
   2   5 -11  236.99    8.49
   2   5 -10  352.80   10.08
   2   5 -10  351.04    9.99
   2   5 -10  367.05    9.44
   2   5  -9   54.81    7.15
   2   5  -9   49.19    7.18
   2   5  -9   52.87    7.01
   2   5  -9   57.31    6.36
   2   5  -8    9.25    7.22
   2   5  -8    5.08    6.14
   2   5  -8    3.53    6.24
   2   5  -8   10.31    5.45
   2   5  -8    5.76    6.29
   2   5  -8    6.27    6.32
   2   5  -7 1786.94   23.64
   2   5  -7 1763.00   22.96
   2   5  -7 1712.18   23.69
   2   5  -7 1787.18   23.12
   2   5  -7 1720.10   23.30
   2   5  -7 1764.19   21.52
   2   5  -6 1057.39   17.16
   2   5  -6 1174.48   16.86
   2   5  -6 1141.54   17.07
   2   5  -6 1099.43   17.33
   2   5  -5 1094.44   15.35
   2   5  -5 1022.58   15.48
   2   5  -5 1057.62   16.42
   2   5  -5 1073.44   15.69
   2   5  -5 1045.95   16.11
   2   5  -5 1089.76   16.64
   2   5  -4  675.72   11.60
   2   5  -4  625.59   11.72
   2   5  -4  661.87   12.13
   2   5  -4  656.25   11.29
   2   5  -4  635.15   10.68
   2   5  -4  632.36   12.46
   2   5  -4  690.07   12.07
   2   5  -3  424.68    9.30
   2   5  -3  431.41    9.44
   2   5  -3  438.39    9.62
   2   5  -3  407.47    8.41
   2   5  -3  403.76    9.79
   2   5  -3  419.63    9.13
   2   5  -2   91.15    6.02
   2   5  -2  114.45    5.61
   2   5  -2   94.37    5.79
   2   5  -2  109.42    5.21
   2   5  -2   93.54    5.85
   2   5  -2   87.98    5.88
   2   5  -1 4424.17   46.40
   2   5  -1 4506.69   45.59
   2   5  -1 4351.02   46.20
   2   5   0 2060.89   23.77
   2   5   0 1979.96   23.30
   2   5   1  153.62    6.09
   2   5   1  141.27    5.78
   2   5   2  221.72    6.87
   2   5   2  218.51    6.62
   2   5   3 1718.08   21.30
   2   5   3 1772.30   21.44
   2   5   4   54.40    4.90
   2   5   4   50.64    6.04
   2   5   4   41.86    5.23
   2   5   4   54.10    5.93
   2   5   5   42.48    5.35
   2   5   5   40.74    4.76
   2   5   5   59.45    6.19
   2   5   5   31.77    5.27
   2   5   5   59.69    6.11
   2   5   6 4521.97   46.44
   2   5   6 4368.35   45.40
   2   5   6 4381.81   47.11
   2   5   6 4479.20   47.84
   2   5   6 4418.62   47.72
   2   5   7 1040.56   15.60
   2   5   7 1000.18   16.47
   2   5   7 1099.55   17.29
   2   5   7 1151.78   16.33
   2   5   7 1015.10   16.93
   2   5   8    2.64    6.33
   2   5   8    2.02    4.40
   2   5   8    4.62    5.46
   2   5   8    2.43    4.78
   2   5   8    6.20    6.03
   2   5   9  386.97   10.53
   2   5   9  396.60    9.41
   2   5   9  387.65   10.75
   2   5  10 1037.98   17.18
   2   5  10 1071.32   15.72
   2   5  10 1035.45   17.34
   2   5  10 1029.85   15.58
   2   5  11  641.71   13.02
   2   5  11  630.23   13.06
   2   5  11  635.87   11.77
   2   5  12  342.32    8.92
   2   5  12  322.82    9.64
   2   5  12  323.72    9.60
   2   5  12  330.62    8.67
   2   5  13  309.16    9.08
   2   5  13  299.25    8.83
   2   5  13  325.04    8.39
   2   5  14  174.75    7.04
   2   5  14  190.73    6.73
   2   5  15   13.68    4.46
   2   5  15   23.42    4.38
   2   5  16   46.46    3.88
   2   6 -13   19.08    3.99
   2   6 -12  342.41    8.14
   2   6 -12  307.11    7.75
   2   6 -11  699.25   11.98
   2   6 -11  651.62   11.58
   2   6 -10   97.57    7.13
   2   6 -10   88.11    6.75
   2   6 -10   85.91    6.86
   2   6  -9   94.71    7.45
   2   6  -9   88.98    7.00
   2   6  -9   88.79    7.62
   2   6  -9   88.07    7.59
   2   6  -8  117.91    7.91
   2   6  -8  106.86    6.44
   2   6  -8  109.15    7.22
   2   6  -8  109.02    8.00
   2   6  -8  109.90    8.01
   2   6  -7  911.03   15.26
   2   6  -7  883.20   14.92
   2   6  -7  910.92   15.20
   2   6  -7  860.96   15.49
   2   6  -7  915.49   15.90
   2   6  -7  905.83   15.95
   2   6  -6  115.84    7.69
   2   6  -6  112.92    7.24
   2   6  -6  118.46    7.59
   2   6  -6  113.14    7.66
   2   6  -6  117.18    8.46
   2   6  -5  196.31    7.63
   2   6  -5  188.20    8.46
   2   6  -5  202.87    8.00
   2   6  -5  196.57    8.53
   2   6  -5  202.94    8.85
   2   6  -4 4780.63   50.10
   2   6  -4 4721.58   49.48
   2   6  -4 4771.89   49.14
   2   6  -4 4667.11   48.96
   2   6  -4 4701.50   50.37
   2   6  -4 4893.08   50.34
   2   6  -3  186.02    8.21
   2   6  -3  197.02    8.46
   2   6  -3  190.66    7.92
   2   6  -3  205.43    8.16
   2   6  -3  200.91    8.59
   2   6  -3  191.84    8.98
   2   6  -2 1483.95   21.11
   2   6  -2 1453.42   20.77
   2   6  -2 1502.97   19.23
   2   6  -2 1392.04   19.50
   2   6  -2 1552.94   20.63
   2   6  -2 1482.84   20.49
   2   6  -2 1384.11   20.73
   2   6  -1 1493.81   21.28
   2   6  -1 1487.57   20.95
   2   6  -1 1407.29   19.85
   2   6  -1 1466.70   20.22
   2   6  -1 1482.25   19.98
   2   6  -1 1370.95   20.30
   2   6   0  345.23   10.41
   2   6   0  346.89   10.62
   2   6   0  357.26    9.65
   2   6   0  361.23    9.43
   2   6   0  363.69    9.24
   2   6   1  654.65   13.65
   2   6   1  626.73   13.48
   2   6   1  663.78   13.00
   2   6   1  610.40   12.58
   2   6   1  686.86   12.29
   2   6   2  188.92    9.05
   2   6   2  197.55    7.74
   2   6   2  210.18    7.68
   2   6   2  180.43    7.71
   2   6   3 2877.52   35.09
   2   6   3 2860.96   34.89
   2   6   3 2912.43   33.10
   2   6   3 3099.44   32.65
   2   6   3 2769.01   33.98
   2   6   3 3060.81   35.71
   2   6   4  549.50   12.69
   2   6   4  574.99   11.19
   2   6   4  587.31   10.57
   2   6   4  531.91   12.25
   2   6   4  544.09   13.20
   2   6   5 1206.10   18.76
   2   6   5 1157.43   18.00
   2   6   6  137.00    9.01
   2   6   6  126.68    6.57
   2   6   6  149.47    7.72
   2   6   6  134.85    7.62
   2   6   6  119.78    7.33
   2   6   6  141.11    8.92
   2   6   7   43.17    6.37
   2   6   7   41.59    7.87
   2   6   7   62.90    6.49
   2   6   7   37.62    6.17
   2   6   7   45.00    7.51
   2   6   8  555.95   13.19
   2   6   8  515.89   10.96
   2   6   8  560.44   12.02
   2   6   8  538.46   12.88
   2   6   9  572.57   13.06
   2   6   9  574.82   11.87
   2   6   9  568.45   12.86
   2   6  10   37.66    7.20
   2   6  10   49.36    6.19
   2   6  10   36.12    6.80
   2   6  11 1530.60   20.87
   2   6  11 1540.86   20.22
   2   6  11 1499.65   20.83
   2   6  12  222.72    7.77
   2   6  12  229.95    7.14
   2   6  12  220.53    7.80
   2   6  13   20.58    4.34
   2   6  13   28.51    4.29
   2   6  13   22.03    4.60
   2   6  14   23.48    3.38
   2   7 -11   35.85    2.42
   2   7 -11   41.72    2.77
   2   7 -10  133.49    4.14
   2   7 -10  134.99    4.51
   2   7  -9  527.60    8.71
   2   7  -8   75.64    4.89
   2   7  -8   83.26    4.96
   2   7  -8   93.28    6.09
   2   7  -7  282.61    7.81
   2   7  -7  284.69    7.32
   2   7  -6 1860.27   21.77
   2   7  -6 1842.31   22.10
   2   7  -5 1525.61   18.71
   2   7  -5 1582.67   19.95
   2   7  -5 1608.08   21.49
   2   7  -5 1518.17   19.05
   2   7  -4  198.06    7.78
   2   7  -4  185.59    7.92
   2   7  -4  211.12    8.99
   2   7  -4  216.16    8.16
   2   7  -3  195.16    7.90
   2   7  -3  178.49    8.13
   2   7  -3  190.20    7.11
   2   7  -3  189.37    8.17
   2   7  -2  641.33   13.04
   2   7  -2  679.46   13.63
   2   7  -2  671.80   12.54
   2   7  -1  546.61   12.65
   2   7  -1  552.37   11.23
   2   7  -1  553.13   12.32
   2   7   0   22.29    7.57
   2   7   0   24.42    6.98
   2   7   0   28.94    5.55
   2   7   0   19.44    5.75
   2   7   1  912.80   16.41
   2   7   1  878.21   16.27
   2   7   2 2320.63   30.78
   2   7   2 2451.07   30.94
   2   7   3    9.50    7.81
   2   7   3   -0.03    6.73
   2   7   4  310.18   10.71
   2   7   4  298.43   10.03
   2   7   4  315.82    9.53
   2   7   5  531.48   12.93
   2   7   5  500.79   11.90
   2   7   5  520.61   11.19
   2   7   6   38.32    5.38
   2   7   6   25.38    6.33
   2   7   7  253.01    9.66
   2   7   7  239.28    8.17
   2   7   8  933.98   15.72
   2   7   8  928.25   13.85
   2   7   9   25.46    6.25
   2   7  10  125.69    6.69
   2   7  11  691.00   11.12
   2   7  12   74.95    4.14
   2   8  -7  593.86    7.39
   2   8  -6   51.03    3.37
   2   8  -6   45.60    2.93
   2   8  -5   24.72    3.07
   2   8  -5   30.85    3.94
   2   8  -4    2.60    4.15
   2   8  -4    0.86    3.46
   2   8  -4    4.70    3.02
   2   8  -4    0.93    3.36
   2   8  -3   34.63    4.95
   2   8  -3   32.00    4.39
   2   8  -3   31.16    3.40
   2   8  -3   29.11    3.68
   2   8  -2   59.40    5.06
   2   8  -2   60.81    5.49
   2   8  -2   57.13    3.58
   2   8  -2   55.03    3.89
   2   8  -1   20.49    4.60
   2   8  -1   21.43    5.17
   2   8  -1   19.04    3.08
   2   8   0  501.26   10.02
   2   8   0  509.45    9.53
   2   8   1  227.64    7.24
   2   8   1  220.69    7.31
   2   8   1  226.29    7.24
   2   8   2   18.33    5.41
   2   8   2   19.57    5.01
   2   8   3  333.39    8.48
   2   8   3  339.42    7.84
   2   8   4  984.78   14.08
   2   8   4  979.34   13.17
   2   8   4  983.94   14.35
   2   8   5   52.29    5.53
   2   8   5   57.57    4.95
   2   8   5   48.81    3.82
   2   8   6   67.50    5.28
   2   8   6   71.71    4.50
   2   8   7  331.87    6.24
   2   8   8  111.12    5.04
   2   8   9    2.57    3.20
   2   8  10  169.39    3.81
   3  -6  -6   24.72    1.85
   3  -6  -5    7.72    1.94
   3  -6  -4   54.49    2.77
   3  -6  -4   60.53    2.71
   3  -6  -3  154.93    3.96
   3  -6  -3  165.28    3.86
   3  -6  -2   12.62    2.43
   3  -6  -2   11.11    2.46
   3  -6  -1  175.33    4.04
   3  -6   0  319.16    5.30
   3  -6   1   73.21    2.82
   3  -6   2   86.32    2.75
   3  -5 -11   99.33    3.33
   3  -5 -10  153.46    4.35
   3  -5 -10  166.73    4.64
   3  -5  -9    7.24    3.15
   3  -5  -9    4.91    3.13
   3  -5  -8   62.90    4.33
   3  -5  -8   55.03    4.19
   3  -5  -8   59.98    4.00
   3  -5  -7  289.35    6.96
   3  -5  -7  296.76    6.76
   3  -5  -7  295.92    7.01
   3  -5  -6  167.11    6.03
   3  -5  -6  171.92    5.76
   3  -5  -6  171.04    6.12
   3  -5  -5  925.27   13.61
   3  -5  -5  940.36   13.43
   3  -5  -5  949.53   13.65
   3  -5  -4  728.14   11.90
   3  -5  -4  726.25   11.74
   3  -5  -4  749.24   11.96
   3  -5  -3  107.96    5.52
   3  -5  -3  112.73    5.30
   3  -5  -3  117.44    5.74
   3  -5  -2   98.19    5.77
   3  -5  -2   90.02    5.54
   3  -5  -1  771.56   12.43
   3  -5  -1  773.03   12.40
   3  -5   0   36.18    5.15
   3  -5   0   33.58    4.18
   3  -5   0   34.55    4.92
   3  -5   0   33.53    4.28
   3  -5   1  266.21    7.48
   3  -5   1  262.77    6.59
   3  -5   1  259.06    7.29
   3  -5   2  364.12    8.31
   3  -5   2  355.74    7.42
   3  -5   2  346.12    7.99
   3  -5   3  389.91    8.42
   3  -5   3  375.01    7.49
   3  -5   4   88.08    5.10
   3  -5   4   85.81    4.15
   3  -5   5  165.44    5.68
   3  -5   6   54.11    4.21
   3  -5   7   15.25    3.32
   3  -5   7   19.78    3.33
   3  -5   8   59.34    3.26
   3  -5   8   53.75    3.23
   3  -4 -14   99.26    3.23
   3  -4 -13   18.15    3.33
   3  -4 -13   21.79    2.95
   3  -4 -12  361.04    7.17
   3  -4 -12  361.64    7.26
   3  -4 -12  370.09    7.59
   3  -4 -11  186.93    5.98
   3  -4 -11  185.02    5.83
   3  -4 -10    9.51    4.34
   3  -4 -10   12.13    4.00
   3  -4  -9   30.71    4.76
   3  -4  -9   30.97    4.63
   3  -4  -8  733.57   12.32
   3  -4  -8  729.38   12.38
   3  -4  -8  766.98   12.88
   3  -4  -8  721.31   11.71
   3  -4  -7  151.42    7.04
   3  -4  -7  137.69    6.38
   3  -4  -7  154.30    6.26
   3  -4  -7  145.24    5.80
   3  -4  -7  147.15    6.18
   3  -4  -6   28.54    4.90
   3  -4  -6   33.27    5.12
   3  -4  -6   28.80    4.31
   3  -4  -6   29.64    5.52
   3  -4  -5  123.67    6.90
   3  -4  -5  127.51    6.13
   3  -4  -5  132.36    6.23
   3  -4  -5  125.82    5.54
   3  -4  -4   24.20    5.68
   3  -4  -4   26.27    4.98
   3  -4  -4   27.75    5.20
   3  -4  -4   25.87    4.28
   3  -4  -3  252.52    7.65
   3  -4  -3  243.11    8.36
   3  -4  -3  240.01    7.79
   3  -4  -3  222.26    6.94
   3  -4  -2  235.07    8.06
   3  -4  -2  228.20    7.93
   3  -4  -2  232.85    7.49
   3  -4  -1  205.92    7.95
   3  -4  -1  195.69    7.56
   3  -4  -1  193.59    7.37
   3  -4   0   17.73    5.72
   3  -4   0    7.43    5.09
   3  -4   0   10.39    5.00
   3  -4   1 1476.59   20.21
   3  -4   1 1501.75   20.60
   3  -4   2  259.08    8.20
   3  -4   2  275.28    8.71
   3  -4   2  248.40    7.34
   3  -4   3  160.14    6.62
   3  -4   3  156.64    7.14
   3  -4   3  156.37    7.31
   3  -4   4  568.05   11.66
   3  -4   4  584.68   11.17
   3  -4   4  583.38   11.43
   3  -4   5  605.49   12.17
   3  -4   5  619.31   11.55
   3  -4   6   84.76    6.16
   3  -4   6   82.02    5.64
   3  -4   7   55.75    4.92
   3  -4   7   64.34    5.54
   3  -4   8  161.71    6.69
   3  -4   9  312.50    7.93
   3  -4   9  327.05    7.67
   3  -4  10   63.46    4.62
   3  -4  10   68.65    4.40
   3  -4  11  236.65    5.45
   3  -4  11  186.05    4.91
   3  -4  12  190.88    4.30
   3  -3 -16  227.58    4.62
   3  -3 -15  443.29    7.57
   3  -3 -14    1.01    3.82
   3  -3 -14    4.81    3.11
   3  -3 -14    4.44    3.29
   3  -3 -13  130.81    5.64
   3  -3 -13  122.81    5.10
   3  -3 -13  132.53    5.16
   3  -3 -12 1226.44   16.27
   3  -3 -12 1186.87   15.91
   3  -3 -11  494.25    9.30
   3  -3 -11  514.14   10.49
   3  -3 -11  488.82    9.71
   3  -3 -10   66.50    5.03
   3  -3 -10   74.43    4.89
   3  -3 -10   71.02    5.91
   3  -3 -10   65.55    5.09
   3  -3  -9  993.07   14.93
   3  -3  -9  964.76   14.48
   3  -3  -9  949.88   14.30
   3  -3  -8  314.33    8.49
   3  -3  -8  284.48    7.54
   3  -3  -8  306.71    8.34
   3  -3  -8  311.14    7.87
   3  -3  -8  302.02    7.86
   3  -3  -8  323.52    8.26
   3  -3  -7   25.44    5.07
   3  -3  -7   23.27    4.49
   3  -3  -7   28.27    4.70
   3  -3  -7   27.15    4.59
   3  -3  -7   23.41    4.48
   3  -3  -7   24.54    4.55
   3  -3  -6  172.16    6.78
   3  -3  -6  174.14    6.48
   3  -3  -6  167.66    6.32
   3  -3  -6  164.44    6.02
   3  -3  -6  173.19    6.43
   3  -3  -5  156.98    6.64
   3  -3  -5  149.61    6.43
   3  -3  -5  154.25    5.90
   3  -3  -5  148.44    5.77
   3  -3  -5  147.16    5.88
   3  -3  -5  150.61    6.24
   3  -3  -4   24.33    4.70
   3  -3  -4   20.07    4.66
   3  -3  -4   19.89    4.00
   3  -3  -4   21.29    3.90
   3  -3  -4   29.73    4.37
   3  -3  -3  128.73    6.24
   3  -3  -3  127.74    6.09
   3  -3  -3  127.30    5.73
   3  -3  -3  130.81    5.47
   3  -3  -3  128.29    5.31
   3  -3  -3  127.08    5.48
   3  -3  -3  124.15    6.61
   3  -3  -2 2872.07   32.14
   3  -3  -2 2896.29   31.71
   3  -3  -2 2872.71   30.94
   3  -3  -2 2818.09   32.50
   3  -3  -2 2830.91   31.05
   3  -3  -2 2892.30   30.79
   3  -3  -1  547.51   11.15
   3  -3  -1  536.19   10.60
   3  -3  -1  540.74   10.20
   3  -3  -1  520.48    9.72
   3  -3  -1  543.33    9.35
   3  -3   0  309.56    6.65
   3  -3   0  316.45    8.41
   3  -3   0  291.58    8.05
   3  -3   0  305.46    7.18
   3  -3   0  287.12    8.69
   3  -3   1 2812.84   32.50
   3  -3   1 2897.19   32.31
   3  -3   1 2834.06   31.97
   3  -3   1 2873.22   30.95
   3  -3   2  184.87    7.15
   3  -3   2  174.48    7.06
   3  -3   2  172.22    5.66
   3  -3   3   87.14    6.07
   3  -3   3   79.91    5.96
   3  -3   4 1616.49   21.51
   3  -3   4 1630.20   21.24
   3  -3   4 1557.33   21.65
   3  -3   5  227.35    7.98
   3  -3   5  236.49    7.77
   3  -3   6  132.02    7.08
   3  -3   6  130.52    6.71
   3  -3   6  121.34    5.97
   3  -3   7   96.45    6.89
   3  -3   7   98.22    6.19
   3  -3   7  102.25    6.04
   3  -3   8  101.93    6.68
   3  -3   8  101.49    6.34
   3  -3   8   84.40    6.31
   3  -3   8   90.11    6.40
   3  -3   9   61.55    6.17
   3  -3   9   74.23    6.08
   3  -3   9   43.19    5.91
   3  -3   9   52.56    5.85
   3  -3   9   58.30    5.47
   3  -3  10  116.82    6.84
   3  -3  10  129.02    6.50
   3  -3  10  128.33    6.71
   3  -3  11  175.36    6.49
   3  -3  11  151.67    6.80
   3  -3  11  162.36    6.85
   3  -3  12   88.44    5.16
   3  -3  12   81.73    5.75
   3  -3  13   16.81    3.74
   3  -3  13   12.20    4.40
   3  -3  14  830.48   10.57
   3  -3  14  814.23   11.23
   3  -2 -17  380.25    6.30
   3  -2 -17  361.74    6.24
   3  -2 -16  352.84    6.94
   3  -2 -15  209.87    6.35
   3  -2 -15  218.29    5.92
   3  -2 -15  201.71    6.12
   3  -2 -15  220.60    5.78
   3  -2 -14   10.03    4.89
   3  -2 -14   12.46    3.93
   3  -2 -14   13.74    4.39
   3  -2 -13  145.33    6.42
   3  -2 -13  152.19    5.93
   3  -2 -13  145.71    6.41
   3  -2 -13  148.34    5.88
   3  -2 -12  248.78    7.65
   3  -2 -12  261.07    7.30
   3  -2 -12  247.74    7.63
   3  -2 -12  250.19    7.25
   3  -2 -11  322.68    8.56
   3  -2 -11  341.28    8.10
   3  -2 -11  332.48    8.36
   3  -2 -11  324.61    8.24
   3  -2 -10  878.81   13.76
   3  -2 -10  908.01   13.68
   3  -2 -10  874.72   13.62
   3  -2 -10  891.73   13.57
   3  -2  -9  316.10    7.98
   3  -2  -9  328.78    7.71
   3  -2  -9  313.73    7.95
   3  -2  -9  316.29    7.81
   3  -2  -8  292.58    7.77
   3  -2  -8  320.19    7.49
   3  -2  -8  297.65    7.51
   3  -2  -8  304.81    7.44
   3  -2  -7 1006.13   14.31
   3  -2  -7 1032.49   14.25
   3  -2  -6 2137.28   24.19
   3  -2  -6 2095.52   24.06
   3  -2  -5  468.21    9.20
   3  -2  -5  468.43    8.58
   3  -2  -5  473.53    8.63
   3  -2  -5  489.59    9.10
   3  -2  -4   23.74    4.11
   3  -2  -4   21.53    3.68
   3  -2  -4   17.59    3.31
   3  -2  -4   21.68    3.72
   3  -2  -3 1413.11   17.91
   3  -2  -3 1357.33   17.02
   3  -2  -3 1411.20   17.47
   3  -2  -3 1379.36   17.57
   3  -2  -3 1444.48   16.92
   3  -2  -2 2805.07   30.65
   3  -2  -2 2861.59   30.29
   3  -2  -2 2849.17   29.31
   3  -2  -2 2811.57   30.16
   3  -2  -2 2868.73   29.51
   3  -2  -2 2871.17   29.60
   3  -2  -1  153.38    5.87
   3  -2  -1  153.60    5.12
   3  -2  -1  153.34    4.88
   3  -2  -1  155.64    5.32
   3  -2  -1  151.49    4.71
   3  -2  -1  155.67    5.20
   3  -2  -1  158.76    4.77
   3  -2   0 1804.90   21.95
   3  -2   0 1736.62   20.51
   3  -2   0 1863.35   21.15
   3  -2   0 1813.51   20.33
   3  -2   0 1818.75   19.90
   3  -2   0 1900.32   20.75
   3  -2   1 2723.82   28.45
   3  -2   1 2715.41   28.95
   3  -2   2  115.97    5.16
   3  -2   2  130.14    5.12
   3  -2   3 1390.70   17.02
   3  -2   3 1391.86   17.87
   3  -2   4 2584.21   30.16
   3  -2   4 2630.22   28.47
   3  -2   4 2573.26   28.89
   3  -2   5  377.08    9.29
   3  -2   5  383.99    9.03
   3  -2   5  404.30    7.99
   3  -2   5  394.16    8.76
   3  -2   5  380.99    8.12
   3  -2   5  409.68    8.40
   3  -2   5  373.07    8.41
   3  -2   6 2159.25   26.85
   3  -2   6 2231.18   26.70
   3  -2   6 2149.08   25.16
   3  -2   6 2236.77   26.02
   3  -2   6 2225.94   25.52
   3  -2   7  288.15    8.54
   3  -2   7  296.79    7.33
   3  -2   7  277.18    8.81
   3  -2   7  304.26    8.43
   3  -2   7  300.21    8.14
   3  -2   8  866.11   14.97
   3  -2   8  871.55   14.61
   3  -2   8  837.43   13.46
   3  -2   8  939.52   15.07
   3  -2   8  951.50   14.65
   3  -2   9  127.40    7.18
   3  -2   9  116.47    5.39
   3  -2   9  140.33    6.88
   3  -2   9  121.24    6.75
   3  -2   9  126.32    7.66
   3  -2   9  137.30    7.22
   3  -2  10   95.57    6.97
   3  -2  10   81.30    5.06
   3  -2  10  104.02    6.44
   3  -2  10   95.26    7.54
   3  -2  10  100.64    7.01
   3  -2  11   31.66    5.66
   3  -2  11   33.28    5.41
   3  -2  11   27.63    6.62
   3  -2  11   13.25    6.23
   3  -2  12   55.80    5.65
   3  -2  12   50.43    7.06
   3  -2  12   54.79    6.58
   3  -2  13 1643.58   20.78
   3  -2  13 1579.93   21.61
   3  -2  13 1578.82   21.08
   3  -2  14   68.60    5.04
   3  -2  14   53.66    6.13
   3  -2  14   67.62    5.96
   3  -2  15  204.00    6.61
   3  -2  16  239.52    5.34
   3  -2  16  193.55    5.57
   3  -1 -18   15.75    2.97
   3  -1 -17  360.83    7.30
   3  -1 -16  126.93    5.63
   3  -1 -16  119.22    4.44
   3  -1 -15  193.77    6.91
   3  -1 -15  190.75    5.80
   3  -1 -15  201.03    6.65
   3  -1 -14  106.88    6.29
   3  -1 -14  107.39    6.17
   3  -1 -14  110.45    5.83
   3  -1 -13  370.84    9.42
   3  -1 -13  381.86    8.95
   3  -1 -12  178.45    7.40
   3  -1 -12  177.55    6.98
   3  -1 -11 1679.90   21.04
   3  -1 -11 1646.36   20.73
   3  -1 -10  830.02   13.26
   3  -1 -10  839.62   12.99
   3  -1  -9  131.56    5.78
   3  -1  -9  135.23    5.79
   3  -1  -9  131.51    5.57
   3  -1  -8 2613.91   28.58
   3  -1  -8 2644.41   28.38
   3  -1  -8 2587.66   28.23
   3  -1  -7  952.13   13.38
   3  -1  -7  951.40   13.16
   3  -1  -7  982.11   13.12
   3  -1  -6 2319.05   25.44
   3  -1  -6 2380.83   25.10
   3  -1  -6 2345.95   25.26
   3  -1  -6 2319.52   25.21
   3  -1  -5  645.38    9.84
   3  -1  -5  655.20    9.53
   3  -1  -5  642.35    9.73
   3  -1  -5  640.70    9.66
   3  -1  -4  244.37    5.67
   3  -1  -4  243.71    5.46
   3  -1  -3  994.61   12.89
   3  -1  -3  981.77   12.44
   3  -1  -3 1013.59   13.20
   3  -1  -2  884.46   11.96
   3  -1  -2  891.42   11.99
   3  -1  -1 1273.28   15.38
   3  -1  -1 1229.12   14.86
   3  -1  -1 1200.26   13.68
   3  -1  -1 1246.29   15.27
   3  -1  -1 1221.97   14.71
   3  -1   0 1736.97   19.02
   3  -1   0 1712.84   18.26
   3  -1   0 1738.12   19.80
   3  -1   0 1766.07   18.17
   3  -1   0 1788.04   19.45
   3  -1   1  762.80   10.59
   3  -1   1  753.41   10.19
   3  -1   1  743.51    9.41
   3  -1   1  745.65    8.98
   3  -1   2   53.92    3.24
   3  -1   2   53.11    3.23
   3  -1   3 4947.25   48.89
   3  -1   4  526.59    8.72
   3  -1   4  531.99    9.16
   3  -1   5  171.91    5.10
   3  -1   5  187.86    5.89
   3  -1   5  176.15    5.52
   3  -1   6 4976.29   50.48
   3  -1   7  604.62   10.92
   3  -1   7  592.07   10.47
   3  -1   8    7.67    4.03
   3  -1   8   20.85    4.13
   3  -1   8    7.22    4.91
   3  -1   8    6.31    4.68
   3  -1   9  336.21    8.77
   3  -1   9  319.76    7.85
   3  -1   9  355.19    8.59
   3  -1   9  343.98    9.65
   3  -1   9  338.60    8.82
   3  -1  10  151.30    6.99
   3  -1  10  146.00    5.94
   3  -1  10  175.79    6.94
   3  -1  10  165.17    8.46
   3  -1  10  168.23    7.37
   3  -1  11 1184.10   17.36
   3  -1  11 1202.45   16.42
   3  -1  11 1235.19   19.12
   3  -1  11 1207.31   17.73
   3  -1  12  266.52    8.48
   3  -1  12  270.36    8.18
   3  -1  13   22.83    5.41
   3  -1  13   29.32    5.70
   3  -1  13   32.70    7.35
   3  -1  14 1062.76   16.16
   3  -1  14 1071.53   15.32
   3  -1  15  680.29   11.27
   3  -1  15  654.40   11.95
   3  -1  16  756.82   10.78
   3  -1  16  717.16   11.49
   3  -1  17  126.33    4.91
   3  -1  18   46.83    3.36
   3  -1  18   42.33    2.91
   3   0 -18  369.94    6.91
   3   0 -17  119.68    4.71
   3   0 -17  135.55    5.72
   3   0 -17  125.46    5.08
   3   0 -16   65.85    4.80
   3   0 -16   67.04    5.31
   3   0 -15  503.86    9.78
   3   0 -15  523.70    9.81
   3   0 -14  852.91   13.05
   3   0 -14  872.16   13.62
   3   0 -14  859.99   13.14
   3   0 -13  774.83   12.38
   3   0 -13  764.63   12.86
   3   0 -13  754.25   12.32
   3   0 -12  437.87    9.38
   3   0 -12  468.31    9.67
   3   0 -12  462.31    9.30
   3   0 -11  901.27   13.46
   3   0 -11  874.27   13.02
   3   0 -10  318.27    7.68
   3   0 -10  329.49    7.29
   3   0  -9  475.95    9.19
   3   0  -9  494.53    8.71
   3   0  -8  902.28   12.86
   3   0  -8  908.09   12.33
   3   0  -7 1401.96   17.48
   3   0  -7 1491.43   16.97
   3   0  -6   56.18    3.92
   3   0  -6   58.33    3.48
   3   0  -6   57.20    2.55
   3   0  -5 2792.24   27.92
   3   0  -5 2731.47   27.09
   3   0  -4   27.89    2.19
   3   0  -4   23.89    2.24
   3   0  -4   20.64    2.29
   3   0  -3  828.57    9.93
   3   0  -3  778.96   10.67
   3   0  -2  762.00    9.43
   3   0  -2  794.05    9.27
   3   0  -1 2355.82   23.44
   3   0  -1 2358.27   23.24
   3   0   0  127.62    3.45
   3   0   0  133.90    3.25
   3   0   0  136.14    3.80
   3   0   1 1277.95   14.61
   3   0   1 1274.22   14.83
   3   0   2   94.91    3.32
   3   0   2   99.56    3.51
   3   0   3 5575.78   51.78
   3   0   3 5225.25   50.80
   3   0   4   85.99    3.47
   3   0   4   84.09    3.72
   3   0   4   74.78    3.21
   3   0   6 1382.65   16.49
   3   0   7  635.04   10.35
   3   0   7  639.64    9.66
   3   0   8 6146.75   59.73
   3   0   9 2886.81   32.59
   3   0   9 2973.48   31.57
   3   0   9 2818.74   31.33
   3   0   9 3028.23   33.25
   3   0   9 2906.87   31.84
   3   0  10   15.98    4.82
   3   0  10   13.91    4.05
   3   0  10   13.71    3.91
   3   0  10   17.00    5.10
   3   0  10   15.79    5.63
   3   0  10   11.59    5.07
   3   0  11  779.37   12.90
   3   0  11  793.44   13.31
   3   0  11  794.51   13.56
   3   0  11  825.49   13.63
   3   0  12 2573.01   30.32
   3   0  12 2640.70   30.29
   3   0  12 2632.46   30.32
   3   0  13  351.40    9.50
   3   0  13  376.18   10.00
   3   0  13  344.46   11.33
   3   0  13  375.18    9.68
   3   0  14   33.10    6.68
   3   0  14   29.64    7.17
   3   0  14   23.27    6.03
   3   0  15 1245.75   19.51
   3   0  15 1247.87   17.50
   3   0  16  363.69    9.38
   3   0  16  345.21    9.65
   3   0  17   31.37    4.57
   3   0  17   31.18    5.60
   3   0  17   25.18    5.03
   3   0  17   29.49    4.43
   3   0  18   30.12    4.57
   3   0  18   30.09    3.60
   3   0  18   31.32    4.17
   3   0  19  173.03    4.38
   3   0  19  162.39    3.91
   3   1 -18  211.56    5.26
   3   1 -18  210.01    5.44
   3   1 -17    3.16    3.51
   3   1 -17    3.49    4.73
   3   1 -17    7.41    4.54
   3   1 -17   -0.33    3.57
   3   1 -16  535.86   10.32
   3   1 -16  522.70   10.18
   3   1 -16  522.79    9.51
   3   1 -15  856.88   13.91
   3   1 -15  875.07   14.04
   3   1 -15  862.60   13.20
   3   1 -15  841.64   12.88
   3   1 -14  254.84    8.68
   3   1 -14  274.21    8.70
   3   1 -14  281.47    8.04
   3   1 -14  263.74    7.22
   3   1 -14  264.70    7.77
   3   1 -13   33.71    6.33
   3   1 -13   43.43    6.12
   3   1 -13   35.03    5.48
   3   1 -13   32.96    4.90
   3   1 -13   31.65    5.62
   3   1 -12 4674.48   48.67
   3   1 -12 4831.24   48.79
   3   1 -12 4755.27   47.92
   3   1 -12 4852.32   48.56
   3   1 -12 4713.80   47.43
   3   1 -11 1558.59   20.42
   3   1 -11 1684.65   20.73
   3   1 -11 1635.59   19.93
   3   1 -11 1679.15   20.61
   3   1 -11 1601.38   19.43
   3   1 -11 1552.91   19.63
   3   1 -10 1098.14   15.55
   3   1 -10 1121.52   15.54
   3   1 -10 1090.96   14.72
   3   1 -10 1106.06   14.87
   3   1 -10 1103.94   15.42
   3   1 -10 1102.82   14.51
   3   1  -9 7180.58   68.65
   3   1  -9 7281.57   69.66
   3   1  -9 7290.89   68.95
   3   1  -9 7226.80   68.58
   3   1  -8 1162.51   15.06
   3   1  -8 1147.48   14.51
   3   1  -8 1146.28   14.24
   3   1  -7   35.93    3.73
   3   1  -7   28.58    3.45
   3   1  -7   35.34    3.13
   3   1  -6 3625.21   35.41
   3   1  -6 3605.85   35.17
   3   1  -5  927.25   11.52
   3   1  -5  921.91   11.41
   3   1  -3  466.60    6.22
   3   1  -3  454.55    5.41
   3   1  -1  395.48    4.98
   3   1  -1  417.23    6.35
   3   1   1 2423.29   24.63
   3   1   1 2425.88   24.52
   3   1   3 4081.93   39.32
   3   1   4 2785.16   28.34
   3   1   4 2725.35   27.46
   3   1   5 3903.85   38.74
   3   1   6  221.24    4.91
   3   1   6  207.32    4.31
   3   1   7  784.44   10.58
   3   1   7  732.02    9.40
   3   1  10  216.54    6.20
   3   1  10  196.89    6.98
   3   1  10  189.98    7.51
   3   1  10  204.10    6.64
   3   1  11 1428.76   18.34
   3   1  11 1413.95   20.56
   3   1  11 1437.45   18.43
   3   1  12   41.77    4.58
   3   1  12   39.61    6.21
   3   1  12   41.92    6.61
   3   1  12   53.24    5.70
   3   1  13  158.33    6.37
   3   1  13  171.80    8.14
   3   1  13  171.19    8.82
   3   1  13  169.45    7.05
   3   1  14  284.50    9.55
   3   1  14  282.02   10.20
   3   1  14  264.74    8.21
   3   1  15  250.40    9.23
   3   1  15  238.29    9.39
   3   1  15  254.03    7.61
   3   1  16  174.74    7.32
   3   1  16  180.22    8.36
   3   1  16  170.41    7.64
   3   1  16  173.52    6.25
   3   1  17  298.65    7.87
   3   1  17  301.71    8.63
   3   1  17  252.20    7.61
   3   1  17  252.05    5.99
   3   1  18  269.11    6.69
   3   1  18  284.52    7.62
   3   1  19   77.35    4.19
   3   1  19   72.56    3.51
   3   1  19   80.01    4.40
   3   2 -19  148.53    3.62
   3   2 -18   86.87    3.81
   3   2 -18   88.44    4.78
   3   2 -17  188.93    6.80
   3   2 -17  176.37    5.22
   3   2 -17  179.48    5.84
   3   2 -16   64.45    6.49
   3   2 -16   69.66    5.23
   3   2 -16   69.55    5.72
   3   2 -15   40.58    7.00
   3   2 -15   43.69    5.74
   3   2 -15   42.63    4.85
   3   2 -15   46.29    6.17
   3   2 -14  255.17    9.52
   3   2 -14  259.37    8.41
   3   2 -14  247.66    7.26
   3   2 -14  242.40    8.60
   3   2 -13 2209.86   27.28
   3   2 -13 2230.01   26.29
   3   2 -13 2190.90   25.27
   3   2 -13 2157.61   27.15
   3   2 -12  923.28   15.68
   3   2 -12  892.43   14.86
   3   2 -12  944.36   14.69
   3   2 -12  897.88   13.54
   3   2 -12  953.56   15.05
   3   2 -12  871.68   12.85
   3   2 -11  409.74   10.43
   3   2 -11  402.84    9.41
   3   2 -11  395.44    9.90
   3   2 -11  397.72    8.61
   3   2 -11  406.82    9.47
   3   2 -11  391.56    7.96
   3   2 -10 1194.27   17.76
   3   2 -10 1233.88   17.06
   3   2 -10 1248.62   15.98
   3   2 -10 1286.73   17.05
   3   2 -10 1317.14   17.22
   3   2 -10 1207.90   17.07
   3   2 -10 1224.77   15.48
   3   2  -9  433.21    9.65
   3   2  -9  417.57    9.15
   3   2  -9  430.66    8.93
   3   2  -9  460.39    8.29
   3   2  -9  463.74    9.17
   3   2  -9  446.70    7.81
   3   2  -8 2433.63   26.93
   3   2  -8 2459.43   26.04
   3   2  -8 2445.06   25.19
   3   2  -8 2460.34   25.61
   3   2  -8 2427.42   27.00
   3   2  -7  284.99    6.15
   3   2  -7  288.42    5.77
   3   2  -6 4651.51   45.36
   3   2  -6 4774.71   44.86
   3   2  -6 4700.04   45.06
   3   2  -5   17.16    2.39
   3   2  -5   19.07    1.30
   3   2  -3 2501.13   24.61
   3   2  -3 2453.00   24.97
   3   2  -2 3406.16   33.17
   3   2  -2 3464.19   33.11
   3   2  -1  758.37    9.42
   3   2  -1  751.88    9.19
   3   2   2   71.42    2.39
   3   2   2   66.90    2.42
   3   2   3 1969.32   21.34
   3   2   3 1947.13   20.14
   3   2   5 2118.89   21.61
   3   2   6  852.05   10.54
   3   2   7    6.84    2.33
   3   2   8 1792.81   19.86
   3   2   9 1247.09   15.40
   3   2  10  660.99   11.87
   3   2  10  698.32   10.70
   3   2  11 1084.56   14.70
   3   2  11 1068.53   16.47
   3   2  11 1070.27   14.29
   3   2  12  161.81    5.90
   3   2  12  171.89    7.80
   3   2  13  294.16    8.47
   3   2  13  282.08    7.60
   3   2  13  292.94    9.50
   3   2  14 1137.55   17.04
   3   2  14 1146.01   18.07
   3   2  15  118.80    6.74
   3   2  15  108.76    7.15
   3   2  16  596.53   11.46
   3   2  16  581.04   11.21
   3   2  17  581.46   10.58
   3   2  17  509.91    9.26
   3   2  18   49.59    4.73
   3   2  18   46.12    4.26
   3   2  19    3.87    3.11
   3   3 -18   48.66    3.19
   3   3 -17   53.80    4.69
   3   3 -16 1283.78   16.95
   3   3 -15  310.24    7.07
   3   3 -15  327.93    8.90
   3   3 -14  227.14    7.15
   3   3 -14  230.97    8.48
   3   3 -14  241.46    9.16
   3   3 -13   34.68    5.86
   3   3 -13   32.63    6.18
   3   3 -13   39.65    7.03
   3   3 -12   64.87    6.54
   3   3 -12   63.33    6.14
   3   3 -11  253.00    7.92
   3   3 -11  251.74    8.24
   3   3 -10  183.17    8.55
   3   3 -10  169.45    5.92
   3   3 -10  171.89    7.06
   3   3  -9  162.34    6.55
   3   3  -9  157.87    5.84
   3   3  -8  299.26    8.86
   3   3  -8  297.28    7.49
   3   3  -8  281.08    7.54
   3   3  -8  288.63    6.92
   3   3  -6  487.59    8.44
   3   3  -5 1669.45   19.02
   3   3  -2 2461.81   25.49
   3   3  -1 1954.17   20.10
   3   3  -1 1795.09   18.17
   3   3   0  372.20    4.84
   3   3   0  390.87    6.55
   3   3   2  134.27    2.51
   3   3   2  121.47    4.04
   3   3   5 2311.03   23.33
   3   3   5 2536.56   24.71
   3   3   6 3308.04   31.84
   3   3   7   59.45    2.67
   3   3   8  110.73    3.55
   3   3   9  733.05   10.20
   3   3   9  760.15   11.74
   3   3  10  940.73   12.52
   3   3  10  952.49   14.12
   3   3  10  963.04   14.28
   3   3  11 2065.17   23.96
   3   3  11 2045.09   22.93
   3   3  11 2062.45   24.46
   3   3  11 2006.70   24.81
   3   3  12  117.56    5.79
   3   3  12   99.30    4.75
   3   3  12  114.91    7.06
   3   3  12  108.14    6.57
   3   3  13  533.89   10.63
   3   3  13  538.53   11.39
   3   3  13  528.68   11.45
   3   3  14  655.29   12.08
   3   3  14  653.46   12.68
   3   3  14  633.90   12.39
   3   3  15  531.89   10.74
   3   3  15  539.21   11.62
   3   3  15  509.40   10.36
   3   3  16  578.88   10.93
   3   3  16  634.85   11.78
   3   3  17   33.80    4.45
   3   3  17   38.87    5.76
   3   3  18   29.28    4.95
   3   3  18   23.74    3.66
   3   3  19  545.93    8.11
   3   4 -17  541.20    7.77
   3   4 -16  537.93    9.33
   3   4 -15  147.91    7.19
   3   4 -15  141.30    6.00
   3   4 -15  140.55    6.37
   3   4 -14  376.84    9.04
   3   4 -14  360.09    9.11
   3   4 -13  161.48    8.98
   3   4 -13  153.66    7.66
   3   4 -13  159.57    7.38
   3   4 -13  161.84    8.04
   3   4 -12  848.04   15.47
   3   4 -12  851.11   14.43
   3   4 -12  888.43   15.51
   3   4 -11  645.68   13.75
   3   4 -11  651.38   12.77
   3   4 -11  670.18   13.70
   3   4 -10 1027.05   17.16
   3   4 -10 1023.13   16.42
   3   4 -10 1014.35   15.80
   3   4 -10 1059.22   17.09
   3   4  -9  466.77   11.42
   3   4  -9  439.09   10.81
   3   4  -9  444.94   10.30
   3   4  -9  440.61   10.07
   3   4  -9  476.48   11.60
   3   4  -8  356.15   10.01
   3   4  -8  317.25    9.43
   3   4  -8  325.14    8.49
   3   4  -8  333.38    8.81
   3   4  -8  333.05    8.09
   3   4  -8  348.55    9.62
   3   4  -7 1200.24   17.64
   3   4  -7 1244.57   16.58
   3   4  -7 1187.91   16.94
   3   4  -7 1235.46   16.57
   3   4  -7 1197.19   16.08
   3   4  -7 1243.77   17.60
   3   4  -6  160.84    6.67
   3   4  -6  162.73    6.47
   3   4  -6  170.24    6.03
   3   4  -6  172.67    6.02
   3   4  -6  162.09    6.83
   3   4  -5 3642.84   38.45
   3   4  -4 1723.19   20.86
   3   4  -3  376.57    7.91
   3   4  -2 1169.46   15.41
   3   4  -1 1314.55   15.57
   3   4  -1 1209.91   15.95
   3   4   0   67.41    3.87
   3   4   0   75.91    3.97
   3   4   1  666.33   10.38
   3   4   1  691.83   10.07
   3   4   3  708.73   10.72
   3   4   4  653.36    9.88
   3   4   6 1445.84   17.31
   3   4   7  376.22    7.37
   3   4   8 1935.48   23.86
   3   4   8 2139.47   22.98
   3   4   9 1372.57   17.35
   3   4   9 1424.95   18.34
   3   4  10   56.05    5.60
   3   4  10   52.70    5.18
   3   4  11  338.24    8.60
   3   4  11  330.19    8.51
   3   4  12 1285.47   17.49
   3   4  12 1327.39   17.87
   3   4  13 1560.68   19.91
   3   4  13 1561.32   19.88
   3   4  14   10.29    5.73
   3   4  15  295.08    8.41
   3   4  15  280.05    7.66
   3   4  16 1096.96   14.73
   3   4  16 1043.32   14.32
   3   4  17   74.74    4.90
   3   4  18  200.30    4.63
   3   5 -15 1031.19   12.13
   3   5 -15 1191.27   13.61
   3   5 -14  187.28    5.78
   3   5 -14  198.39    6.89
   3   5 -14  206.96    6.58
   3   5 -13  225.11    7.11
   3   5 -13  213.93    8.05
   3   5 -13  233.21    7.75
   3   5 -12 2167.75   25.32
   3   5 -12 2253.06   26.70
   3   5 -12 2150.28   26.19
   3   5 -12 2231.16   26.33
   3   5 -11  319.41    9.14
   3   5 -11  320.12   10.17
   3   5 -11  312.58    9.35
   3   5 -11  338.01    9.81
   3   5 -10  414.51    9.96
   3   5 -10  409.78   11.36
   3   5 -10  380.13   10.09
   3   5 -10  379.36   10.21
   3   5 -10  405.07   10.44
   3   5  -9   83.42    6.83
   3   5  -9   75.97    7.81
   3   5  -9   66.69    6.81
   3   5  -9   74.63    6.75
   3   5  -9   76.88    7.08
   3   5  -8  271.38    8.42
   3   5  -8  255.92    8.65
   3   5  -8  254.01    8.93
   3   5  -8  266.48    8.42
   3   5  -8  249.61    8.51
   3   5  -8  265.30    8.78
   3   5  -7    9.66    5.75
   3   5  -7    6.47    5.36
   3   5  -7    9.91    6.04
   3   5  -7   10.71    5.72
   3   5  -7    8.37    5.38
   3   5  -7    9.73    5.80
   3   5  -6  211.70    7.58
   3   5  -6  201.65    8.76
   3   5  -6  193.09    6.97
   3   5  -6  201.86    7.10
   3   5  -6  217.27    8.28
   3   5  -6  204.31    7.15
   3   5  -6  225.18    8.15
   3   5  -6  189.99    7.61
   3   5  -5 1243.06   18.74
   3   5  -5 1269.40   16.97
   3   5  -5 1286.10   17.83
   3   5  -5 1284.75   17.26
   3   5  -5 1306.21   18.94
   3   5  -5 1292.24   17.42
   3   5  -5 1335.64   18.35
   3   5  -5 1319.89   17.68
   3   5  -4   43.60    6.14
   3   5  -4   48.04    5.86
   3   5  -4   48.85    4.85
   3   5  -4   48.30    5.26
   3   5  -4   45.00    4.35
   3   5  -4   53.85    5.80
   3   5  -4   66.23    5.08
   3   5  -4   52.79    5.73
   3   5  -3  138.03    6.68
   3   5  -3  148.21    6.08
   3   5  -3  158.10    7.24
   3   5  -3  146.28    6.45
   3   5  -3  147.48    5.65
   3   5  -3  162.78    6.89
   3   5  -2 2948.39   32.54
   3   5  -2 2851.71   32.00
   3   5  -2 2851.98   31.49
   3   5  -2 2971.60   32.10
   3   5  -1 2028.15   24.04
   3   5  -1 2053.25   24.50
   3   5  -1 2020.48   24.50
   3   5  -1 2084.72   24.50
   3   5  -1 2105.97   24.05
   3   5  -1 2091.70   23.96
   3   5   0  138.41    6.49
   3   5   0  143.48    5.46
   3   5   0  130.34    5.76
   3   5   0  125.51    5.93
   3   5   0  139.00    4.97
   3   5   0  133.29    5.50
   3   5   0  128.21    6.14
   3   5   1  392.44    8.69
   3   5   1  397.18    7.89
   3   5   1  412.72    8.53
   3   5   2  629.06   11.45
   3   5   2  627.47   10.21
   3   5   2  606.19   11.03
   3   5   3  292.05    7.82
   3   5   3  301.66    7.88
   3   5   3  289.22    7.70
   3   5   4 2389.25   27.57
   3   5   4 2369.75   27.02
   3   5   4 2362.07   26.90
   3   5   4 2414.79   27.07
   3   5   5 1058.16   15.75
   3   5   5 1032.86   15.00
   3   5   5 1015.83   14.80
   3   5   5 1018.84   14.85
   3   5   5 1037.31   15.44
   3   5   6 1061.00   15.87
   3   5   6 1034.72   14.91
   3   5   6 1026.99   14.49
   3   5   6 1025.61   14.95
   3   5   6 1053.42   15.16
   3   5   6 1043.28   15.58
   3   5   7  434.34    9.83
   3   5   7  406.73    9.24
   3   5   7  430.54    9.16
   3   5   7  417.72    9.54
   3   5   8 1053.12   15.76
   3   5   8 1005.45   14.27
   3   5   8 1018.14   15.24
   3   5   8 1077.57   15.30
   3   5   9  102.96    6.30
   3   5   9   98.91    5.71
   3   5   9  101.89    5.46
   3   5  10  395.15    8.81
   3   6 -14    5.53    2.61
   3   6 -13  204.79    4.68
   3   6 -13  263.83    6.15
   3   6 -12   44.51    3.55
   3   6 -12   54.17    5.71
   3   6 -12   49.41    5.02
   3   6 -11   29.10    4.17
   3   6 -11   29.35    5.23
   3   6 -10  477.07    8.74
   3   6 -10  487.49   10.40
   3   6  -9  115.04    5.57
   3   6  -9  126.80    8.33
   3   6  -9  122.09    7.07
   3   6  -9  118.90    7.03
   3   6  -8   -9.63    7.62
   3   6  -8   -1.01    5.70
   3   6  -8    1.67    5.84
   3   6  -7  403.30   11.41
   3   6  -7  395.37    9.39
   3   6  -7  387.94    9.74
   3   6  -7  396.40   10.69
   3   6  -7  414.67   10.16
   3   6  -6  350.82   10.89
   3   6  -6  351.42    9.56
   3   6  -6  339.29    8.99
   3   6  -6  354.26    9.50
   3   6  -5   45.50    7.36
   3   6  -5   48.65    6.55
   3   6  -5   52.47    5.68
   3   6  -5   50.44    5.18
   3   6  -5   49.56    5.64
   3   6  -5   57.68    6.35
   3   6  -4  321.92    9.97
   3   6  -4  334.54   10.26
   3   6  -4  343.91    9.17
   3   6  -4  344.84    9.99
   3   6  -4  322.80    8.23
   3   6  -4  312.08    9.91
   3   6  -4  338.88    9.05
   3   6  -3  195.51    8.58
   3   6  -3  197.10    7.90
   3   6  -3  188.24    8.53
   3   6  -3  183.72    8.49
   3   6  -3  205.44    7.43
   3   6  -2 2511.50   30.15
   3   6  -2 2577.86   29.79
   3   6  -2 2431.34   30.19
   3   6  -2 2553.13   30.75
   3   6  -2 2461.30   30.46
   3   6  -2 2413.22   27.90
   3   6  -1   21.91    6.69
   3   6  -1   34.03    5.46
   3   6  -1   15.83    6.50
   3   6  -1   20.92    6.27
   3   6  -1   30.87    5.34
   3   6  -1   16.87    6.12
   3   6   0  502.95   11.94
   3   6   0  494.12   11.36
   3   6   0  475.94   10.55
   3   6   0  500.56   10.92
   3   6   0  510.76   11.54
   3   6   1 2811.07   33.46
   3   6   1 2843.06   33.15
   3   6   1 2826.72   32.74
   3   6   2   35.06    6.47
   3   6   2   33.61    5.85
   3   6   2   42.52    5.58
   3   6   3 1133.42   17.51
   3   6   3 1091.30   16.87
   3   6   3 1101.08   17.01
   3   6   4 1242.28   18.88
   3   6   4 1249.34   18.67
   3   6   4 1288.30   18.11
   3   6   5  160.29    8.53
   3   6   5  136.71    7.59
   3   6   5  142.10    7.41
   3   6   5  143.30    7.12
   3   6   5  145.65    7.17
   3   6   6  198.36    9.02
   3   6   6  171.47    7.70
   3   6   6  180.85    7.39
   3   6   6  192.92    7.37
   3   6   6  186.91    7.82
   3   6   7 1102.29   17.63
   3   6   7 1081.00   16.33
   3   6   7 1097.79   17.08
   3   6   7 1081.71   17.33
   3   6   8  765.89   14.32
   3   6   8  740.46   12.58
   3   6   8  790.36   12.31
   3   6   8  743.56   13.81
   3   6   9   11.06    6.27
   3   6   9    4.77    4.54
   3   6   9   17.53    5.91
   3   6  10  599.62   11.56
   3   6  10  566.09   11.23
   3   6  11  308.09    8.05
   3   6  11  274.47    6.82
   3   7 -11  192.74    4.65
   3   7 -11  157.17    3.80
   3   7 -10  369.25    7.12
   3   7 -10  324.71    6.14
   3   7  -9  248.80    6.62
   3   7  -9  233.65    5.83
   3   7  -8  263.92    7.37
   3   7  -8  242.82    6.33
   3   7  -7  536.57    9.95
   3   7  -7  525.55    9.15
   3   7  -6  120.15    6.30
   3   7  -6  107.37    6.60
   3   7  -6  124.69    6.53
   3   7  -5  277.04    8.11
   3   7  -5  276.37    8.95
   3   7  -5  255.01    7.89
   3   7  -5  273.64    8.14
   3   7  -4  860.28   13.70
   3   7  -4  873.75   15.14
   3   7  -4  840.85   13.95
   3   7  -4  852.40   14.68
   3   7  -4  862.84   13.58
   3   7  -3  250.71    9.33
   3   7  -3  250.28    7.61
   3   7  -3  231.58    8.60
   3   7  -3  243.71    9.47
   3   7  -3  270.35    8.91
   3   7  -3  243.03    7.63
   3   7  -2   22.89    7.37
   3   7  -2   19.61    4.42
   3   7  -2   17.31    7.19
   3   7  -2   12.77    6.34
   3   7  -2    9.04    5.86
   3   7  -2   26.17    5.07
   3   7  -1  574.42   12.97
   3   7  -1  593.87   12.97
   3   7  -1  590.63   13.49
   3   7   0 1415.35   21.05
   3   7   0 1410.10   20.94
   3   7   0 1465.10   20.19
   3   7   1  990.11   17.57
   3   7   1 1026.82   17.29
   3   7   1 1022.71   17.67
   3   7   1 1052.79   16.37
   3   7   2    3.99    7.60
   3   7   2    3.56    6.70
   3   7   2    9.08    6.03
   3   7   3  472.78   11.85
   3   7   3  536.46   10.80
   3   7   4 1521.85   21.83
   3   7   4 1475.53   21.14
   3   7   5  372.51   11.36
   3   7   5  361.34   10.45
   3   7   5  378.32    9.73
   3   7   6  585.95   13.23
   3   7   6  596.97   12.08
   3   7   6  571.38   11.07
   3   7   7   42.35    7.50
   3   7   7   54.96    6.24
   3   7   8   10.39    6.70
   3   7   8   17.91    5.06
   3   7   9  276.63    8.48
   3   7   9  261.58    6.52
   3   7  10  592.60   10.57
   3   7  10  546.16    9.30
   3   7  11  387.20    7.72
   3   8  -7  190.28    4.74
   3   8  -6    3.54    3.27
   3   8  -6    5.58    3.47
   3   8  -5 1265.23   14.61
   3   8  -5 1263.46   14.50
   3   8  -4   73.41    5.24
   3   8  -4   77.01    4.38
   3   8  -4   86.26    4.81
   3   8  -3  160.97    6.61
   3   8  -3  161.69    5.97
   3   8  -3  170.52    5.87
   3   8  -2   52.67    5.64
   3   8  -2   56.19    5.39
   3   8  -2   56.00    4.83
   3   8  -2   48.68    4.34
   3   8  -1   58.05    6.01
   3   8  -1   53.49    5.80
   3   8  -1   52.00    5.52
   3   8  -1   55.01    4.77
   3   8   0   23.19    5.76
   3   8   0   24.25    5.60
   3   8   0   25.89    4.50
   3   8   1  138.18    7.24
   3   8   1  122.34    6.62
   3   8   1  120.32    6.66
   3   8   1  141.80    5.22
   3   8   2  412.19    9.95
   3   8   2  395.23    9.41
   3   8   3  264.81    8.53
   3   8   3  246.55    7.50
   3   8   4  248.52    8.14
   3   8   4  241.63    7.15
   3   8   4  251.35    7.74
   3   8   5  375.11    8.55
   3   8   6  235.73    7.59
   3   8   6  234.11    6.69
   3   8   7   14.97    4.92
   3   8   7   11.51    3.57
   3   8   7   12.64    3.83
   3   8   8  402.29    7.75
   3   8   8  323.47    5.76
   3   8   9  568.78    8.40
   3   8   9  504.25    7.37
   3   9   0    6.01    1.96
   3   9   1  341.67    5.49
   3   9   1  379.73    5.56
   3   9   2   26.86    2.10
   3   9   3   33.36    2.27
   3   9   3   27.23    2.11
   3   9   4    7.72    1.73
   4  -5  -7    6.07    1.99
   4  -5  -6  116.58    3.50
   4  -5  -5   51.14    3.07
   4  -5  -5   47.79    2.55
   4  -5  -4   86.04    3.67
   4  -5  -4   77.22    3.07
   4  -5  -3  267.04    5.52
   4  -5  -3  256.45    4.98
   4  -5  -2  732.23    9.87
   4  -5  -2  683.40    9.11
   4  -5  -1   79.10    3.31
   4  -5  -1   86.01    3.91
   4  -5   0  459.22    7.39
   4  -5   0  424.02    6.61
   4  -5   1 1033.83   12.27
   4  -5   1  932.54   11.26
   4  -5   2   36.83    2.46
   4  -5   2   46.78    3.33
   4  -5   3   72.13    3.30
   4  -5   4    5.22    2.45
   4  -5   5  154.21    3.54
   4  -4  -9  174.12    5.02
   4  -4  -9  159.54    4.13
   4  -4  -8   71.00    4.19
   4  -4  -8   66.40    3.61
   4  -4  -8   69.40    3.66
   4  -4  -7  150.46    5.58
   4  -4  -7  142.40    4.70
   4  -4  -7  153.27    4.87
   4  -4  -6  365.92    7.22
   4  -4  -6  372.08    7.26
   4  -4  -5   89.48    5.29
   4  -4  -5   86.30    4.52
   4  -4  -5   87.91    4.50
   4  -4  -4  121.53    5.82
   4  -4  -4  109.46    4.97
   4  -4  -4  116.21    4.86
   4  -4  -3  460.25    8.62
   4  -4  -3  475.62    8.74
   4  -4  -2  594.96   10.71
   4  -4  -2  551.28    9.60
   4  -4  -1   94.73    4.99
   4  -4  -1  112.81    5.92
   4  -4   0  519.90   10.17
   4  -4   0  460.65    8.66
   4  -4   1    7.56    4.83
   4  -4   1    8.22    3.93
   4  -4   1   13.07    4.68
   4  -4   2  574.79   10.89
   4  -4   2  576.43   10.47
   4  -4   3 1644.19   20.60
   4  -4   3 1633.54   20.09
   4  -4   4   26.17    4.62
   4  -4   4   31.65    4.42
   4  -4   5   80.29    5.26
   4  -4   5   72.71    4.57
   4  -4   6  105.43    4.68
   4  -4   6  100.82    3.96
   4  -4   7   63.72    4.47
   4  -4   8    9.63    3.49
   4  -3 -14  188.02    3.77
   4  -3 -13  258.42    5.40
   4  -3 -13  258.98    5.41
   4  -3 -12    5.94    3.43
   4  -3 -12    4.40    3.55
   4  -3 -11  864.85   12.31
   4  -3 -11  838.19   11.97
   4  -3 -11  859.99   12.41
   4  -3 -10  440.02    8.59
   4  -3 -10  448.91    8.25
   4  -3 -10  465.08    8.85
   4  -3 -10  455.14    9.12
   4  -3  -9  280.95    7.47
   4  -3  -9  264.20    7.62
   4  -3  -9  266.16    7.07
   4  -3  -9  274.08    6.67
   4  -3  -8   28.68    5.47
   4  -3  -8   39.45    4.96
   4  -3  -8   34.60    4.93
   4  -3  -8   27.09    4.06
   4  -3  -8   41.23    4.29
   4  -3  -7 1199.64   17.16
   4  -3  -7 1222.67   16.71
   4  -3  -7 1223.47   15.95
   4  -3  -7 1186.35   16.09
   4  -3  -6   29.33    5.32
   4  -3  -6   27.35    4.50
   4  -3  -6   25.80    4.43
   4  -3  -5   70.70    4.74
   4  -3  -5   69.35    5.93
   4  -3  -5   70.92    4.95
   4  -3  -4   18.80    5.11
   4  -3  -4   21.34    4.24
   4  -3  -3  306.16    8.43
   4  -3  -3  285.72    7.71
   4  -3  -3  284.47    7.38
   4  -3  -2   67.73    5.40
   4  -3  -2   72.69    5.08
   4  -3  -2   72.39    5.20
   4  -3  -1   65.15    5.34
   4  -3  -1   71.15    5.10
   4  -3  -1   80.79    5.19
   4  -3   0 2970.71   32.01
   4  -3   0 2980.69   33.63
   4  -3   1  211.94    7.07
   4  -3   1  216.63    6.58
   4  -3   1  233.76    8.14
   4  -3   2  975.57   14.49
   4  -3   2 1006.31   14.43
   4  -3   3 1075.54   17.11
   4  -3   3 1126.66   16.85
   4  -3   4   25.57    5.74
   4  -3   4   34.92    5.64
   4  -3   5  104.40    7.02
   4  -3   5  111.34    6.63
   4  -3   6   85.91    6.12
   4  -3   6   73.02    4.89
   4  -3   7  107.08    6.32
   4  -3   7   96.42    6.07
   4  -3   8   21.38    5.10
   4  -3   8   14.02    4.70
   4  -3   8   18.82    4.14
   4  -3   9  448.79    9.50
   4  -3   9  425.84    8.28
   4  -3  10  142.92    5.95
   4  -3  10  143.28    5.31
   4  -3  11    9.82    3.54
   4  -3  12  111.11    4.04
   4  -3  13  203.32    4.02
   4  -2 -15  722.93    9.34
   4  -2 -15  697.93    9.15
   4  -2 -15  700.35    8.90
   4  -2 -14  576.83    8.90
   4  -2 -14  556.26    8.71
   4  -2 -13   12.44    4.08
   4  -2 -13   13.17    3.89
   4  -2 -13   12.72    3.28
   4  -2 -12  430.44    8.80
   4  -2 -12  399.26    8.48
   4  -2 -12  421.90    8.32
   4  -2 -12  414.67    7.83
   4  -2 -11  688.89   11.76
   4  -2 -11  671.85   11.34
   4  -2 -11  686.04   11.25
   4  -2 -11  678.06   10.84
   4  -2 -10  341.07    8.34
   4  -2 -10  350.36    8.32
   4  -2 -10  342.64    7.70
   4  -2 -10  334.52    8.26
   4  -2  -9  479.18   10.04
   4  -2  -9  504.59    9.78
   4  -2  -9  488.12    9.38
   4  -2  -8  194.47    7.06
   4  -2  -8  197.44    6.88
   4  -2  -8  192.20    6.35
   4  -2  -8  182.29    6.92
   4  -2  -7   61.78    5.77
   4  -2  -7   60.92    5.30
   4  -2  -7   64.03    4.80
   4  -2  -7   62.78    5.11
   4  -2  -7   56.50    4.28
   4  -2  -6  339.83    8.53
   4  -2  -6  354.03    8.54
   4  -2  -6  351.15    8.09
   4  -2  -6  323.75    7.13
   4  -2  -6  347.09    8.49
   4  -2  -6  342.11    7.78
   4  -2  -5  604.98   10.97
   4  -2  -5  609.59   11.33
   4  -2  -5  617.16   10.68
   4  -2  -5  597.99   11.00
   4  -2  -5  600.36   10.09
   4  -2  -5  621.49   10.40
   4  -2  -4  980.54   14.54
   4  -2  -4 1014.96   15.08
   4  -2  -4 1015.01   15.66
   4  -2  -4 1007.01   14.53
   4  -2  -4 1013.18   14.85
   4  -2  -4  963.99   13.65
   4  -2  -4 1046.99   14.31
   4  -2  -3   91.08    4.80
   4  -2  -3   98.38    6.06
   4  -2  -3  106.42    5.73
   4  -2  -3   99.58    4.93
   4  -2  -3   95.00    6.25
   4  -2  -3  106.26    5.66
   4  -2  -2 2264.09   27.13
   4  -2  -2 2214.54   25.74
   4  -2  -2 2221.44   25.43
   4  -2  -2 2265.14   27.37
   4  -2  -2 2224.67   26.21
   4  -2  -1 5600.66   54.23
   4  -2  -1 5424.75   55.58
   4  -2  -1 5323.53   53.85
   4  -2  -1 5539.48   55.88
   4  -2  -1 5368.57   53.79
   4  -2   0  158.48    7.55
   4  -2   0  164.91    5.54
   4  -2   0  146.46    6.23
   4  -2   0  140.87    5.88
   4  -2   1  193.45    7.58
   4  -2   1  183.46    6.31
   4  -2   1  210.69    6.99
   4  -2   1  204.60    6.32
   4  -2   2 1588.70   19.89
   4  -2   2 1606.87   21.56
   4  -2   2 1563.85   20.30
   4  -2   3 1776.45   21.70
   4  -2   3 1805.80   22.23
   4  -2   4   11.94    5.45
   4  -2   4   10.18    3.77
   4  -2   4    8.48    4.36
   4  -2   4    7.29    4.34
   4  -2   5 1350.72   19.42
   4  -2   5 1289.37   17.47
   4  -2   5 1313.42   17.49
   4  -2   6 1217.60   18.35
   4  -2   6 1222.43   16.67
   4  -2   7   21.93    5.69
   4  -2   7   25.01    5.03
   4  -2   7   29.72    5.64
   4  -2   8  433.96   10.88
   4  -2   8  432.26   10.41
   4  -2   8  417.71    9.79
   4  -2   8  455.39   10.05
   4  -2   9  434.62   10.67
   4  -2   9  429.89   10.15
   4  -2   9  419.16    9.91
   4  -2   9  453.25    9.92
   4  -2  10  111.59    6.56
   4  -2  10  102.80    6.56
   4  -2  10  107.33    6.67
   4  -2  11  198.35    7.60
   4  -2  11  198.81    7.48
   4  -2  12  293.84    8.14
   4  -2  12  356.25    8.15
   4  -2  13  332.30    7.76
   4  -2  13  388.71    7.92
   4  -2  14    4.61    3.55
   4  -2  15  404.00    6.39
   4  -1 -16  299.09    5.45
   4  -1 -16  308.83    6.05
   4  -1 -15  219.85    5.52
   4  -1 -15  209.50    6.11
   4  -1 -14   52.68    4.39
   4  -1 -14   43.72    4.92
   4  -1 -14   46.40    3.70
   4  -1 -14   43.74    3.33
   4  -1 -13  111.67    5.47
   4  -1 -13  104.61    6.15
   4  -1 -13  110.66    4.96
   4  -1 -13  107.77    4.53
   4  -1 -12 1072.77   15.68
   4  -1 -12 1076.62   14.66
   4  -1 -12 1065.61   15.20
   4  -1 -12 1074.59   14.45
   4  -1 -12 1056.87   15.58
   4  -1 -11   40.15    5.80
   4  -1 -11   40.83    4.65
   4  -1 -11   34.97    5.59
   4  -1 -11   38.85    3.92
   4  -1 -10 1007.98   15.23
   4  -1 -10 1001.21   14.43
   4  -1 -10  999.52   13.96
   4  -1  -9  242.88    8.01
   4  -1  -9  243.18    6.99
   4  -1  -9  241.80    7.60
   4  -1  -9  247.56    6.63
   4  -1  -8  373.11    9.27
   4  -1  -8  401.56    8.54
   4  -1  -8  393.98    8.06
   4  -1  -8  403.28    9.38
   4  -1  -7   18.37    4.74
   4  -1  -7   20.11    5.05
   4  -1  -7   18.83    4.38
   4  -1  -7   19.22    3.64
   4  -1  -7   16.63    4.40
   4  -1  -6 1112.89   15.92
   4  -1  -6 1122.79   15.75
   4  -1  -6 1103.94   15.46
   4  -1  -6 1094.41   14.73
   4  -1  -6 1125.91   16.00
   4  -1  -5 1136.00   15.88
   4  -1  -5 1106.86   15.73
   4  -1  -5 1144.15   15.56
   4  -1  -5 1103.26   14.71
   4  -1  -5 1110.95   15.88
   4  -1  -4  573.05   10.43
   4  -1  -4  565.94   10.28
   4  -1  -4  569.19   10.38
   4  -1  -4  557.74    9.55
   4  -1  -4  560.19   10.43
   4  -1  -3 3689.78   38.53
   4  -1  -3 3594.21   38.05
   4  -1  -3 3610.92   38.16
   4  -1  -3 3578.75   37.38
   4  -1  -3 3677.01   38.39
   4  -1  -3 3655.77   37.70
   4  -1  -3 3673.99   38.73
   4  -1  -2  928.95   13.83
   4  -1  -2  908.99   13.22
   4  -1  -2  896.38   12.02
   4  -1  -2  894.19   12.81
   4  -1  -2  918.30   13.97
   4  -1  -2  919.46   13.61
   4  -1  -2  865.48   11.37
   4  -1  -2  931.70   12.98
   4  -1  -1  269.01    7.57
   4  -1  -1  262.79    7.14
   4  -1  -1  262.57    6.07
   4  -1  -1  258.72    6.67
   4  -1  -1  266.46    7.10
   4  -1   0 1908.01   21.90
   4  -1   0 1876.46   22.93
   4  -1   1   21.44    3.62
   4  -1   1   18.55    4.40
   4  -1   2  625.04   10.45
   4  -1   2  606.71   10.62
   4  -1   3  234.03    7.60
   4  -1   3  236.55    7.09
   4  -1   3  235.39    6.39
   4  -1   3  242.40    6.52
   4  -1   4 1289.17   18.46
   4  -1   4 1311.63   17.37
   4  -1   4 1336.86   17.99
   4  -1   4 1308.16   16.90
   4  -1   5 2529.39   29.74
   4  -1   5 2535.44   28.43
   4  -1   5 2476.85   29.03
   4  -1   5 2469.61   27.93
   4  -1   6  426.34   10.34
   4  -1   6  413.10    8.82
   4  -1   6  398.95    9.24
   4  -1   7  274.04    8.87
   4  -1   7  274.63    8.44
   4  -1   7  261.69    7.25
   4  -1   7  256.42    8.22
   4  -1   7  274.74    8.15
   4  -1   8  756.26   14.23
   4  -1   8  765.42   13.98
   4  -1   8  717.88   12.48
   4  -1   8  698.90   13.59
   4  -1   8  775.24   13.11
   4  -1   9   46.76    6.16
   4  -1   9   43.79    5.98
   4  -1   9   41.08    4.57
   4  -1   9   35.48    6.48
   4  -1   9   46.86    6.06
   4  -1  10  393.83   10.52
   4  -1  10  401.15   10.17
   4  -1  11  446.52   10.97
   4  -1  11  427.55   10.66
   4  -1  12   77.24    7.08
   4  -1  12   54.62    6.41
   4  -1  13   80.05    6.71
   4  -1  13   61.49    6.24
   4  -1  14  612.59   11.47
   4  -1  15    6.35    4.48
   4  -1  16   50.83    3.85
   4  -1  16   62.94    3.80
   4   0 -17   99.11    3.92
   4   0 -16   52.69    3.22
   4   0 -14  124.32    4.59
   4   0 -14  124.71    5.87
   4   0 -13 1040.88   13.87
   4   0 -13 1060.97   15.23
   4   0 -12  314.08    7.16
   4   0 -12  315.83    8.52
   4   0 -11   92.80    6.60
   4   0 -11   91.60    4.80
   4   0 -11   88.81    6.29
   4   0 -10 2006.95   24.56
   4   0 -10 1986.92   22.78
   4   0 -10 1974.23   23.93
   4   0  -9 1149.72   16.69
   4   0  -9 1161.08   15.27
   4   0  -8  581.92   11.12
   4   0  -8  600.75    9.91
   4   0  -7  962.05   14.61
   4   0  -7  999.65   13.50
   4   0  -6  236.85    7.35
   4   0  -6  243.39    6.10
   4   0  -6  251.34    7.02
   4   0  -5  446.01    8.60
   4   0  -5  423.82    8.98
   4   0  -5  442.69    8.11
   4   0  -5  416.63    7.32
   4   0  -5  438.89    8.75
   4   0  -4  234.70    6.15
   4   0  -4  198.71    6.60
   4   0  -4  221.94    5.83
   4   0  -4  210.61    5.08
   4   0  -4  216.69    6.45
   4   0  -3 1905.82   21.78
   4   0  -3 1901.42   21.50
   4   0  -2 1416.40   18.08
   4   0  -2 1458.72   17.84
   4   0  -2 1440.33   16.83
   4   0  -2 1486.49   17.67
   4   0  -1  295.39    7.41
   4   0  -1  312.42    6.68
   4   0   0 5328.77   52.56
   4   0   1  352.42    7.11
   4   0   1  317.49    7.41
   4   0   2   70.58    3.88
   4   0   2   68.35    4.50
   4   0   2   69.76    4.41
   4   0   3 1014.54   13.70
   4   0   3  977.89   14.30
   4   0   4 2211.67   24.69
   4   0   4 2141.31   25.63
   4   0   4 2189.70   25.50
   4   0   5  174.87    6.33
   4   0   5  185.77    6.40
   4   0   6   93.07    5.54
   4   0   6  100.54    4.79
   4   0   6   98.75    5.78
   4   0   6   93.61    5.49
   4   0   6   87.99    5.28
   4   0   6  101.81    5.35
   4   0   7 1461.92   19.88
   4   0   7 1479.02   19.97
   4   0   7 1467.46   19.06
   4   0   7 1425.83   19.49
   4   0   8 1115.29   16.97
   4   0   8 1126.19   17.05
   4   0   8 1125.15   16.06
   4   0   8 1140.71   15.52
   4   0   8 1102.12   17.01
   4   0   9   36.23    5.46
   4   0   9   38.17    4.42
   4   0   9   46.54    5.50
   4   0   9   42.67    5.52
   4   0   9   45.26    6.18
   4   0  10 1034.49   15.74
   4   0  10 1106.68   15.62
   4   0  10 1124.66   17.55
   4   0  10 1020.51   16.74
   4   0  11  562.19   11.18
   4   0  11  610.80   12.71
   4   0  12  780.06   13.19
   4   0  12  796.67   13.83
   4   0  13   27.32    5.72
   4   0  13   19.35    6.90
   4   0  13   19.79    5.92
   4   0  14 3271.70   34.18
   4   0  14 3121.98   34.49
   4   0  15  155.33    6.21
   4   0  15  154.47    6.31
   4   0  16  167.82    5.40
   4   0  16  158.26    5.68
   4   0  16  147.26    6.08
   4   0  16  139.52    5.31
   4   0  17  200.71    4.67
   4   0  17  191.37    4.52
   4   0  17  152.41    5.04
   4   0  17  164.00    4.44
   4   0  18  115.16    3.35
   4   1 -17  379.71    6.14
   4   1 -17  420.22    7.02
   4   1 -16   55.95    4.84
   4   1 -16   57.20    4.31
   4   1 -15   22.01    3.60
   4   1 -15   22.55    4.84
   4   1 -15   24.70    5.01
   4   1 -15   15.64    4.39
   4   1 -14  268.56    7.71
   4   1 -14  292.83    8.45
   4   1 -14  268.56    7.61
   4   1 -13  760.39   11.71
   4   1 -13  743.66   12.49
   4   1 -13  776.64   13.36
   4   1 -13  740.41   12.52
   4   1 -12  142.73    6.17
   4   1 -12  149.38    6.96
   4   1 -12  167.82    7.81
   4   1 -12  154.01    6.81
   4   1 -12  142.44    6.30
   4   1 -11 1197.05   16.45
   4   1 -11 1170.93   17.35
   4   1 -11 1172.51   16.58
   4   1 -11 1160.61   16.08
   4   1 -10 2807.32   30.94
   4   1 -10 2832.00   31.94
   4   1 -10 2799.45   31.08
   4   1 -10 2743.87   30.72
   4   1 -10 2823.76   30.38
   4   1  -9   31.85    5.22
   4   1  -9   28.82    5.31
   4   1  -9   19.53    5.20
   4   1  -9   20.23    4.44
   4   1  -9   22.37    4.48
   4   1  -8   96.31    5.10
   4   1  -8   90.31    5.58
   4   1  -8  104.97    5.90
   4   1  -8  100.39    4.11
   4   1  -8   96.87    5.74
   4   1  -8   89.93    5.11
   4   1  -7 4041.61   41.25
   4   1  -7 3989.29   41.75
   4   1  -7 4277.09   42.92
   4   1  -7 4135.00   40.73
   4   1  -7 4195.46   42.19
   4   1  -6  518.96    9.92
   4   1  -6  526.56    8.29
   4   1  -6  497.52    9.33
   4   1  -5  108.62    5.28
   4   1  -5  103.67    3.91
   4   1  -5   95.54    4.93
   4   1  -5  107.27    4.91
   4   1  -4 1665.25   20.26
   4   1  -4 1660.23   18.67
   4   1  -4 1649.90   20.01
   4   1  -3 2222.28   24.97
   4   1  -3 2154.14   23.37
   4   1  -3 2226.27   24.70
   4   1  -2  800.51   10.93
   4   1  -2  798.82   11.80
   4   1  -1 3778.78   38.56
   4   1   0  950.21   12.23
   4   1   0  950.07   12.70
   4   1   1  125.23    4.27
   4   1   1  132.76    4.12
   4   1   2 1973.18   22.34
   4   1   2 2033.07   23.22
   4   1   3   91.72    3.93
   4   1   3   93.62    4.43
   4   1   4  156.31    4.98
   4   1   4  169.85    5.53
   4   1   6 2481.87   27.08
   4   1   6 2431.96   27.49
   4   1   7  494.79    9.62
   4   1   7  510.14    9.18
   4   1   7  476.57    9.49
   4   1   7  506.93    9.41
   4   1   8    7.80    4.16
   4   1   8    9.87    4.03
   4   1   8    9.93    3.51
   4   1   8    9.63    4.47
   4   1   9 1260.73   17.75
   4   1   9 1227.80   17.07
   4   1   9 1315.13   17.50
   4   1   9 1238.73   18.13
   4   1   9 1306.82   17.38
   4   1  10  217.83    6.76
   4   1  10  217.35    7.71
   4   1  10  203.96    8.27
   4   1  10  212.78    7.53
   4   1  11  578.05   11.55
   4   1  11  575.68   12.49
   4   1  11  575.26   11.22
   4   1  12  270.14    8.91
   4   1  12  265.90    8.34
   4   1  13 6354.80   63.67
   4   1  13 6369.79   62.96
   4   1  14   12.40    6.21
   4   1  14    7.88    6.62
   4   1  14    6.61    5.19
   4   1  15  686.86   11.86
   4   1  15  737.58   12.71
   4   1  15  738.84   13.47
   4   1  15  673.18   11.41
   4   1  16  698.18   11.16
   4   1  16  686.47   12.15
   4   1  16  670.29   10.25
   4   1  17    1.88    3.07
   4   1  17    4.66    4.39
   4   1  17    4.75    4.04
   4   1  17    3.48    2.76
   4   1  18   42.03    3.53
   4   1  18   21.72    2.72
   4   2 -17  213.22    5.42
   4   2 -16   92.37    5.50
   4   2 -16   89.99    4.65
   4   2 -16   83.15    4.39
   4   2 -15  136.41    6.74
   4   2 -15  142.02    6.22
   4   2 -15  132.42    5.74
   4   2 -14  237.83    8.39
   4   2 -14  247.67    8.05
   4   2 -14  217.46    6.64
   4   2 -14  233.71    7.29
   4   2 -13   71.55    7.17
   4   2 -13   76.75    6.73
   4   2 -13   68.12    5.76
   4   2 -13   65.57    5.94
   4   2 -12  987.64   16.04
   4   2 -12 1015.08   15.71
   4   2 -12  986.65   14.61
   4   2 -12  959.28   15.03
   4   2 -11  889.71   15.05
   4   2 -11  928.01   14.86
   4   2 -11  881.87   13.79
   4   2 -11  876.93   14.21
   4   2 -10  163.55    7.89
   4   2 -10  167.91    7.47
   4   2 -10  165.03    6.83
   4   2 -10  157.35    7.07
   4   2  -9  301.93    8.76
   4   2  -9  311.46    8.57
   4   2  -9  307.50    7.95
   4   2  -9  317.90    8.47
   4   2  -8 2498.59   28.97
   4   2  -8 2535.38   29.14
   4   2  -8 2564.32   28.10
   4   2  -8 2461.93   28.15
   4   2  -7 1680.85   21.05
   4   2  -7 1677.78   20.20
   4   2  -7 1697.71   20.35
   4   2  -6  114.39    5.90
   4   2  -6   98.42    4.98
   4   2  -6  112.89    4.84
   4   2  -5  765.38   12.13
   4   2  -5  769.44   11.47
   4   2  -4 2098.62   24.05
   4   2  -4 2077.74   23.30
   4   2  -3  500.69    8.45
   4   2  -2 3095.85   31.78
   4   2   0  737.13   10.76
   4   2   0  698.86   10.05
   4   2   1 1059.55   13.29
   4   2   1 1074.29   13.98
   4   2   3 3950.16   39.76
   4   2   4 3718.39   37.92
   4   2   5 2424.39   25.83
   4   2   6 1039.22   13.47
   4   2   7   40.99    3.32
   4   2   8   70.34    4.05
   4   2   8   77.20    4.91
   4   2   8   75.72    5.19
   4   2   8   68.03    4.66
   4   2   9   77.27    4.44
   4   2   9   72.78    4.93
   4   2  10 4823.88   48.20
   4   2  10 4709.89   48.94
   4   2  10 4731.64   47.98
   4   2  11 1420.72   18.65
   4   2  11 1417.42   19.69
   4   2  11 1476.17   20.59
   4   2  11 1414.96   18.53
   4   2  12   17.47    4.07
   4   2  12   23.00    6.73
   4   2  12   14.45    6.26
   4   2  12   19.61    5.14
   4   2  13  112.28    5.93
   4   2  13  118.18    7.68
   4   2  13  122.81    8.16
   4   2  13  131.86    5.95
   4   2  14  736.58   13.37
   4   2  14  738.45   14.13
   4   2  14  704.19   11.18
   4   2  15  946.32   14.05
   4   2  15  996.14   15.40
   4   2  15 1005.72   15.87
   4   2  15  909.39   12.67
   4   2  16   49.91    4.38
   4   2  16   49.75    5.95
   4   2  16   47.48    5.77
   4   2  17    6.56    3.10
   4   2  17    9.92    4.86
   4   2  17   11.40    3.98
   4   2  18  210.11    5.14
   4   2  18  208.40    5.70
   4   2  19  125.24    3.46
   4   3 -17  124.55    4.45
   4   3 -16   67.46    4.67
   4   3 -16   72.55    5.30
   4   3 -15  409.55    8.78
   4   3 -15  443.13    9.70
   4   3 -14  456.01   10.89
   4   3 -14  450.35    9.86
   4   3 -13  229.29    9.37
   4   3 -13  231.80    8.20
   4   3 -12   61.02    7.68
   4   3 -12   68.86    5.93
   4   3 -12   71.05    7.07
   4   3 -11  109.30    8.53
   4   3 -11  103.98    6.20
   4   3 -11  116.45    6.64
   4   3 -11  107.03    7.55
   4   3 -10  486.90   12.04
   4   3 -10  489.04    9.82
   4   3 -10  509.28   10.62
   4   3 -10  476.49   10.99
   4   3  -9  336.14   10.32
   4   3  -9  333.94    8.34
   4   3  -9  313.02    8.81
   4   3  -9  316.72    8.98
   4   3  -8   13.31    5.89
   4   3  -8   11.57    6.13
   4   3  -8   32.03    5.02
   4   3  -8   10.58    4.95
   4   3  -8   16.90    4.73
   4   3  -7  309.99    9.38
   4   3  -7  333.57    7.84
   4   3  -7  313.77    8.21
   4   3  -7  330.02    7.77
   4   3  -7  305.01    6.81
   4   3  -7  335.99    8.85
   4   3  -6  131.13    5.70
   4   3  -6  123.19    5.66
   4   3  -6  141.62    5.29
   4   3  -6  137.00    4.83
   4   3  -6  133.03    6.22
   4   3  -5 3125.67   33.87
   4   3  -5 3291.97   32.89
   4   3  -4  125.84    4.47
   4   3  -3 1894.52   21.02
   4   3  -2 3326.25   33.30
   4   3  -1  238.30    6.50
   4   3  -1  247.49    5.08
   4   3   0  393.50    6.41
   4   3   0  425.04    8.27
   4   3   1 6437.40   60.34
   4   3   2   30.70    2.36
   4   3   2   28.68    2.56
   4   3   3 1610.66   17.31
   4   3   4 1174.53   13.51
   4   3   5  475.22    7.23
   4   3   6   51.42    3.01
   4   3   7   46.60    3.13
   4   3   7   39.13    4.40
   4   3   8 4127.44   41.85
   4   3   8 4105.36   43.85
   4   3   9   99.33    4.14
   4   3   9  109.82    5.01
   4   3   9   95.24    5.81
   4   3  10  414.50    7.93
   4   3  10  427.05   10.07
   4   3  10  427.36    9.78
   4   3  11   67.95    4.21
   4   3  11   76.84    7.03
   4   3  11   75.12    6.56
   4   3  12  326.99    9.65
   4   3  12  333.05    9.65
   4   3  13   18.60    6.57
   4   3  13   12.68    6.34
   4   3  14  733.65   13.26
   4   3  14  740.85   13.81
   4   3  15  854.21   14.17
   4   3  15  878.00   14.15
   4   3  16   16.39    5.68
   4   3  16   15.62    4.88
   4   3  17  392.12    8.17
   4   3  17  320.77    6.27
   4   3  18  343.26    6.84
   4   4 -16  550.65    8.55
   4   4 -16  519.43    8.25
   4   4 -15  636.99   10.19
   4   4 -15  612.87    9.77
   4   4 -14  158.40    6.89
   4   4 -14  177.98    7.62
   4   4 -13  674.76   13.22
   4   4 -12  247.70    9.60
   4   4 -12  231.31    7.99
   4   4 -11  393.75   11.51
   4   4 -11  385.87    9.80
   4   4 -11  374.79    9.79
   4   4 -10  683.70   14.53
   4   4 -10  654.84   12.55
   4   4 -10  649.81   12.41
   4   4  -9   36.66    7.65
   4   4  -9   48.32    6.37
   4   4  -9   44.11    5.78
   4   4  -9   42.98    5.00
   4   4  -9   51.56    7.37
   4   4  -8  821.41   15.30
   4   4  -8  764.94   13.60
   4   4  -8  784.13   13.07
   4   4  -8  780.21   12.61
   4   4  -8  803.15   14.47
   4   4  -7 1168.16   17.19
   4   4  -7 1174.02   16.28
   4   4  -7 1186.08   16.33
   4   4  -7 1166.83   17.87
   4   4  -6 3035.81   35.43
   4   4  -6 3117.50   34.24
   4   4  -6 3138.34   33.11
   4   4  -6 3132.19   33.59
   4   4  -6 3086.45   34.95
   4   4  -5 1812.14   23.64
   4   4  -5 1802.45   24.24
   4   4  -5 1930.49   23.52
   4   4  -5 2022.80   22.37
   4   4  -5 2004.91   22.17
   4   4  -5 1894.07   22.07
   4   4  -5 1974.64   23.01
   4   4  -5 1954.36   23.15
   4   4  -4  489.50   10.27
   4   4  -4  459.72   10.55
   4   4  -4  514.06   10.28
   4   4  -4  540.35    9.16
   4   4  -4  522.29    9.71
   4   4  -4  543.22    9.80
   4   4  -3  978.77   14.93
   4   4  -3 1018.47   14.22
   4   4  -2 4090.06   41.84
   4   4  -1  539.01   10.77
   4   4  -1  541.75   10.64
   4   4   0  948.87   14.69
   4   4   0  956.21   14.61
   4   4   1  303.75    7.73
   4   4   1  252.26    6.96
   4   4   2  156.42    5.97
   4   4   2  169.79    5.94
   4   4   3 2096.09   25.32
   4   4   3 2127.28   25.25
   4   4   4 3641.63   39.32
   4   4   5   31.40    4.51
   4   4   6 1702.93   19.66
   4   4   6 1706.77   20.00
   4   4   7 5364.21   51.85
   4   4   7 5452.89   52.59
   4   4   8   79.87    5.11
   4   4   8   72.63    5.62
   4   4   8   85.26    4.39
   4   4   9  457.36    9.93
   4   4   9  448.33   10.25
   4   4  10 1132.00   16.63
   4   4  10 1183.13   15.62
   4   4  10 1156.79   17.01
   4   4  11  889.11   14.16
   4   4  11  875.02   14.41
   4   4  12  233.39    8.24
   4   4  12  232.08    8.14
   4   4  13  467.44   10.54
   4   4  13  466.69   10.74
   4   4  14  528.52   10.65
   4   4  14  539.58   10.81
   4   4  15   12.20    5.46
   4   4  15   15.99    4.74
   4   4  16  308.91    7.42
   4   4  17  458.12    7.91
   4   5 -15   -1.16    2.87
   4   5 -15    3.05    2.11
   4   5 -14  378.97    7.64
   4   5 -14  394.89    7.45
   4   5 -13  826.08   12.63
   4   5 -13  855.76   12.53
   4   5 -12  101.17    6.88
   4   5 -12  111.63    7.09
   4   5 -12   97.06    6.30
   4   5 -11  535.38   11.63
   4   5 -11  548.13   11.66
   4   5 -11  514.72   11.30
   4   5 -10 1358.90   19.41
   4   5 -10 1389.67   19.40
   4   5 -10 1284.28   18.19
   4   5 -10 1253.08   17.96
   4   5 -10 1349.97   19.37
   4   5  -9  148.15    8.55
   4   5  -9  145.98    8.58
   4   5  -9  151.57    7.20
   4   5  -9  136.78    6.89
   4   5  -9  147.86    8.20
   4   5  -8  746.83   14.26
   4   5  -8  752.41   14.24
   4   5  -8  768.54   14.52
   4   5  -8  719.40   12.65
   4   5  -8  732.02   13.26
   4   5  -7  199.53    8.75
   4   5  -7  207.19    8.86
   4   5  -7  196.12    8.87
   4   5  -7  189.99    7.30
   4   5  -7  208.22    7.91
   4   5  -6  283.08    9.54
   4   5  -6  280.05    9.86
   4   5  -6  267.85    7.54
   4   5  -6  286.97    7.69
   4   5  -6  265.04    8.62
   4   5  -6  263.96    9.01
   4   5  -5    3.69    5.69
   4   5  -5    4.59    6.12
   4   5  -5    2.24    4.30
   4   5  -5    9.42    4.61
   4   5  -5    6.93    4.41
   4   5  -5    5.22    4.20
   4   5  -5    4.45    5.40
   4   5  -5    7.74    4.52
   4   5  -4    6.58    5.51
   4   5  -4   23.67    6.15
   4   5  -4    8.47    4.70
   4   5  -4    8.66    4.28
   4   5  -4   12.10    5.63
   4   5  -4    8.14    4.46
   4   5  -3  450.62   10.35
   4   5  -3  411.69   10.76
   4   5  -3  421.40   10.74
   4   5  -3  435.05    9.31
   4   5  -3  433.41    9.06
   4   5  -3  462.26   10.36
   4   5  -3  441.47    9.53
   4   5  -2   32.48    5.71
   4   5  -2   24.21    5.12
   4   5  -2   37.59    5.79
   4   5  -2   28.74    5.17
   4   5  -2   31.68    5.03
   4   5  -2   31.54    4.79
   4   5  -2   26.67    4.81
   4   5  -2   33.37    5.45
   4   5  -1  387.68    9.90
   4   5  -1  382.19    9.63
   4   5  -1  416.81    9.06
   4   5  -1  391.59    8.78
   4   5  -1  397.65    9.51
   4   5  -1  404.44    9.68
   4   5   0 2539.58   30.11
   4   5   0 2540.07   28.59
   4   5   0 2484.39   28.20
   4   5   0 2470.66   27.97
   4   5   0 2445.09   28.65
   4   5   0 2547.33   29.43
   4   5   1   59.38    5.22
   4   5   1   72.05    5.76
   4   5   1   61.40    5.22
   4   5   1   76.96    5.21
   4   5   1   66.53    5.45
   4   5   1   55.52    4.76
   4   5   2 1679.80   20.87
   4   5   2 1676.46   21.87
   4   5   2 1631.80   20.55
   4   5   2 1714.74   21.52
   4   5   3 2826.58   30.96
   4   5   3 2847.74   32.27
   4   5   3 2735.91   31.60
   4   5   3 2793.74   30.91
   4   5   3 2788.56   30.80
   4   5   4  116.76    6.07
   4   5   4  114.95    5.98
   4   5   4  110.54    5.66
   4   5   4  113.30    5.84
   4   5   4  114.78    5.94
   4   5   4  109.29    6.23
   4   5   5 3356.51   35.02
   4   5   5 3283.25   35.68
   4   5   5 3370.17   35.05
   4   5   6  105.95    5.72
   4   5   6  102.58    5.70
   4   5   6  110.93    5.78
   4   5   6   99.89    6.30
   4   5   7   42.23    5.17
   4   5   7   31.39    4.82
   4   5   7   45.04    4.82
   4   5   7   41.29    5.68
   4   5   8   14.07    4.34
   4   5   8   13.39    4.87
   4   5   8   15.98    4.89
   4   5   8   15.99    5.69
   4   5   9  673.10   11.32
   4   5   9  707.64   12.08
   4   5   9  704.22   12.91
   4   5  10 1925.84   22.91
   4   5  10 1958.56   23.93
   4   5  11    6.49    5.04
   4   5  11    7.68    4.02
   4   5  11    7.15    4.94
   4   5  12  299.57    7.88
   4   5  12  320.81    8.49
   4   5  13  473.92    9.23
   4   5  13  541.96    9.86
   4   5  14    9.02    4.57
   4   5  15  227.95    5.67
   4   6 -13   79.70    3.48
   4   6 -13   92.07    4.11
   4   6 -12    6.29    3.57
   4   6 -12    7.02    4.13
   4   6 -12    3.12    2.93
   4   6 -11  641.13    9.11
   4   6 -11  647.44   11.49
   4   6 -11  621.27   10.44
   4   6 -10   35.46    4.67
   4   6 -10   45.62    6.10
   4   6 -10   35.95    5.02
   4   6  -9   31.72    5.13
   4   6  -9   28.43    5.35
   4   6  -8  268.96    7.41
   4   6  -8  249.36    7.71
   4   6  -8  263.18    8.61
   4   6  -7  394.93   10.23
   4   6  -7  423.81    8.87
   4   6  -7  402.79    9.14
   4   6  -7  432.54    9.04
   4   6  -7  413.78   10.69
   4   6  -6  353.28    8.70
   4   6  -6  333.18    9.73
   4   6  -6  345.71    8.89
   4   6  -6  318.11    8.64
   4   6  -6  320.34    8.15
   4   6  -6  355.23   10.30
   4   6  -5 1075.66   17.48
   4   6  -5 1089.42   15.86
   4   6  -5 1104.52   18.37
   4   6  -5 1129.59   16.32
   4   6  -5 1105.51   15.58
   4   6  -5 1078.43   16.66
   4   6  -5 1133.61   17.98
   4   6  -5 1039.49   15.66
   4   6  -4  124.86    6.86
   4   6  -4  115.19    7.73
   4   6  -4  127.71    7.16
   4   6  -4  127.81    6.46
   4   6  -4  107.39    6.02
   4   6  -4  117.35    7.57
   4   6  -4  116.23    6.42
   4   6  -3 1170.84   17.77
   4   6  -3 1102.47   18.49
   4   6  -3 1152.95   17.33
   4   6  -3 1155.05   16.83
   4   6  -3 1159.08   16.96
   4   6  -3 1130.09   18.32
   4   6  -3 1111.95   16.87
   4   6  -2   99.63    6.39
   4   6  -2  110.77    7.82
   4   6  -2   95.94    7.05
   4   6  -2  111.66    7.14
   4   6  -2  108.04    6.59
   4   6  -2   98.17    5.57
   4   6  -1 1377.18   18.97
   4   6  -1 1260.22   19.18
   4   6  -1 1248.58   19.23
   4   6  -1 1293.22   18.84
   4   6  -1 1319.55   18.70
   4   6  -1 1218.27   19.17
   4   6  -1 1367.53   18.07
   4   6   0 1572.00   20.76
   4   6   0 1556.69   21.00
   4   6   0 1509.08   20.67
   4   6   0 1549.13   19.89
   4   6   1   90.02    5.78
   4   6   1   92.91    6.29
   4   6   1   88.05    6.91
   4   6   1   84.47    7.02
   4   6   2  576.54   12.34
   4   6   2  587.11   10.90
   4   6   2  534.71   11.14
   4   6   2  570.76   11.85
   4   6   2  530.03   11.82
   4   6   3 1489.92   20.99
   4   6   3 1557.11   19.91
   4   6   3 1487.38   20.03
   4   6   3 1534.57   20.53
   4   6   3 1534.39   20.74
   4   6   3 1437.49   20.70
   4   6   4  228.97    7.20
   4   6   4  232.91    8.35
   4   6   4  231.45    8.34
   4   6   4  249.46    8.90
   4   6   5  117.89    7.69
   4   6   5  124.95    6.95
   4   6   5  123.26    6.94
   4   6   5  120.40    6.98
   4   6   6  689.35   12.91
   4   6   6  669.29   12.46
   4   6   6  682.37   12.89
   4   6   7  171.52    7.86
   4   6   7  166.37    7.14
   4   6   7  189.14    7.24
   4   6   7  193.32    7.79
   4   6   8   61.54    6.33
   4   6   8   58.82    5.30
   4   6   8   60.12    6.30
   4   6   9  866.58   13.33
   4   6   9  822.42   12.67
   4   6   9  849.96   14.04
   4   6  10  477.81    9.60
   4   6  10  539.90   10.08
   4   6  11   38.36    4.28
   4   6  11   49.29    4.69
   4   7 -11   29.03    2.55
   4   7 -10  218.06    5.77
   4   7 -10  189.01    5.18
   4   7  -9   74.32    4.92
   4   7  -9   67.59    4.83
   4   7  -8  388.13    8.68
   4   7  -7  111.71    6.27
   4   7  -6  593.44   11.66
   4   7  -6  579.70   10.52
   4   7  -5  380.22    8.47
   4   7  -5  406.31    9.98
   4   7  -5  409.35    9.58
   4   7  -5  394.16    8.60
   4   7  -4  240.82    7.82
   4   7  -4  260.44    8.49
   4   7  -4  274.21    8.57
   4   7  -4  263.47    8.00
   4   7  -4  243.71    7.30
   4   7  -3  465.38   10.64
   4   7  -3  485.42   11.04
   4   7  -3  451.59   10.31
   4   7  -2  582.40   11.56
   4   7  -2  606.04   12.57
   4   7  -2  575.76   11.83
   4   7  -1  208.13    9.23
   4   7  -1  226.92    7.41
   4   7  -1  218.49    8.81
   4   7  -1  228.90    8.72
   4   7  -1  221.27    8.82
   4   7   0   12.06    7.33
   4   7   0   10.02    4.45
   4   7   0   13.99    6.75
   4   7   0    6.83    6.45
   4   7   0    8.37    6.30
   4   7   1  473.82    9.37
   4   7   1  464.10   11.33
   4   7   1  452.82   11.12
   4   7   2  534.52   12.01
   4   7   2  529.06   11.87
   4   7   3  305.13   10.18
   4   7   3  286.97    9.38
   4   7   3  303.17    9.27
   4   7   4  830.80   15.34
   4   7   4  843.82   14.45
   4   7   4  849.54   14.83
   4   7   4  885.66   14.55
   4   7   5 1053.19   17.05
   4   7   5 1014.42   16.32
   4   7   6  499.80   11.46
   4   7   6  529.22   11.01
   4   7   7   65.84    6.73
   4   7   7   71.91    5.95
   4   7   7   75.52    5.54
   4   7   8  224.93    7.05
   4   7   8  226.84    7.68
   4   7   9  403.29    7.78
   4   7   9  427.69    9.00
   4   7  10   67.46    4.46
   4   7  10   58.92    4.77
   4   7  11  206.15    4.80
   4   8  -8   64.26    2.90
   4   8  -7   31.18    3.26
   4   8  -6  545.84    7.46
   4   8  -6  681.35    9.45
   4   8  -5   57.99    2.97
   4   8  -4   86.71    4.36
   4   8  -4   89.51    3.38
   4   8  -3  611.87   10.26
   4   8  -3  685.18   11.21
   4   8  -3  672.16   10.39
   4   8  -3  733.77   11.13
   4   8  -3  579.97    9.36
   4   8  -2  257.26    7.27
   4   8  -2  289.85    7.92
   4   8  -2  281.55    7.40
   4   8  -2  309.78    7.65
   4   8  -2  216.60    6.04
   4   8  -2  253.86    6.69
   4   8  -1  120.55    6.37
   4   8  -1  124.49    6.18
   4   8  -1  129.83    6.16
   4   8  -1  110.25    5.78
   4   8   0  350.56    8.68
   4   8   0  321.00    8.39
   4   8   1  116.19    7.23
   4   8   1  105.56    6.48
   4   8   1  111.50    5.96
   4   8   2   56.62    6.69
   4   8   2   48.71    5.71
   4   8   2   54.05    5.89
   4   8   2   60.60    5.08
   4   8   3   20.85    4.56
   4   8   4  210.92    7.74
   4   8   4  216.31    7.25
   4   8   5   23.69    5.49
   4   8   5   13.20    4.69
   4   8   5   19.13    4.87
   4   8   5   23.52    3.57
   4   8   6   27.82    5.11
   4   8   6   19.55    4.25
   4   8   7  147.51    5.02
   4   8   7  146.49    5.52
   4   8   8  222.91    5.68
   4   8   8  182.25    4.43
   4   8   8  210.86    5.47
   4   8   8  197.67    5.89
   4   8   9   21.91    2.80
   4   8   9   16.12    3.14
   4   9   0  180.44    3.91
   4   9   1   21.40    2.42
   4   9   1   16.82    2.06
   4   9   2    8.12    2.26
   4   9   2    7.86    2.11
   4   9   2    7.76    2.21
   4   9   3  103.10    3.16
   4   9   3  111.03    3.36
   4   9   4   28.67    2.15
   4   9   4   25.77    2.15
   4   9   4   26.72    2.33
   5  -4  -7   59.07    2.33
   5  -4  -6  141.75    3.55
   5  -4  -4  109.90    3.66
   5  -4  -3    3.75    2.59
   5  -4  -2  209.85    4.87
   5  -4  -1  678.48    9.35
   5  -4   0   75.91    3.78
   5  -4   0   75.23    3.51
   5  -4   1   12.90    3.07
   5  -4   1   15.71    2.74
   5  -4   2  381.35    6.60
   5  -4   2  358.05    6.16
   5  -4   3   12.13    2.85
   5  -4   3   12.37    2.43
   5  -4   4   97.60    3.53
   5  -4   4   86.02    3.03
   5  -4   5  267.55    4.89
   5  -4   6   49.64    2.33
   5  -3 -10  125.80    3.47
   5  -3  -9  372.20    6.37
   5  -3  -8  183.01    5.05
   5  -3  -7   50.43    4.08
   5  -3  -7   48.06    3.36
   5  -3  -6  452.66    8.39
   5  -3  -6  435.17    7.65
   5  -3  -5  339.18    6.82
   5  -3  -5  350.80    7.77
   5  -3  -4   85.90    5.31
   5  -3  -4   82.90    4.25
   5  -3  -3  140.71    6.07
   5  -3  -3  139.09    4.87
   5  -3  -2  413.37    8.78
   5  -3  -2  400.12    7.63
   5  -3  -1   39.83    4.99
   5  -3  -1   34.19    3.56
   5  -3   0  133.50    6.08
   5  -3   1   91.72    5.47
   5  -3   2  517.77    9.97
   5  -3   3  144.78    6.02
   5  -3   4  636.46   10.90
   5  -3   5  134.24    5.43
   5  -3   6   25.15    3.79
   5  -3   7  668.10   10.24
   5  -3   7  631.81    9.73
   5  -3   8  550.52    8.80
   5  -2 -12  219.41    4.37
   5  -2 -12  233.92    4.98
   5  -2 -12  226.59    4.72
   5  -2 -11   12.22    3.42
   5  -2 -11   12.65    3.16
   5  -2 -11   13.35    3.11
   5  -2 -10  417.49    7.72
   5  -2 -10  421.02    7.99
   5  -2 -10  426.10    7.60
   5  -2  -9  254.82    6.62
   5  -2  -9  266.23    7.02
   5  -2  -9  264.33    6.49
   5  -2  -8   97.44    5.38
   5  -2  -8  101.05    5.30
   5  -2  -8  100.05    5.12
   5  -2  -7  108.50    5.72
   5  -2  -7  115.24    5.84
   5  -2  -7  114.75    5.30
   5  -2  -6  529.39   10.28
   5  -2  -6  536.32   10.41
   5  -2  -6  535.88    9.81
   5  -2  -5   15.38    4.94
   5  -2  -5   16.77    4.57
   5  -2  -4   93.70    5.97
   5  -2  -4  100.97    5.77
   5  -2  -3  719.70   12.61
   5  -2  -3  688.27   11.56
   5  -2  -2  147.91    7.04
   5  -2  -2  146.84    6.05
   5  -2  -2  141.50    6.56
   5  -2  -1  631.04   12.15
   5  -2  -1  633.11   11.58
   5  -2   0  198.23    7.55
   5  -2   0  204.26    6.83
   5  -2   1 3064.15   34.36
   5  -2   1 3028.83   33.51
   5  -2   2  456.54   10.51
   5  -2   2  421.02    9.51
   5  -2   3    3.90    5.67
   5  -2   3    8.49    5.07
   5  -2   3    0.73    4.14
   5  -2   3    8.85    4.14
   5  -2   4  554.08   11.66
   5  -2   4  571.99   11.48
   5  -2   5  391.43    9.56
   5  -2   5  386.34    9.73
   5  -2   5  358.77    8.13
   5  -2   6   64.34    6.12
   5  -2   6   57.54    5.75
   5  -2   6   59.60    5.20
   5  -2   7  245.56    7.82
   5  -2   7  228.07    7.29
   5  -2   7  234.47    6.72
   5  -2   8 1182.22   16.43
   5  -2   8 1156.78   15.27
   5  -2   9  553.60    9.32
   5  -2  10  643.81    9.66
   5  -2  11  114.56    4.36
   5  -2  12    3.58    2.78
   5  -2  13  104.32    2.84
   5  -1 -14  107.77    3.86
   5  -1 -13  495.46    7.74
   5  -1 -13  522.67    8.35
   5  -1 -12   48.18    3.55
   5  -1 -12   54.57    4.08
   5  -1 -12   51.96    4.60
   5  -1 -11   61.97    4.57
   5  -1 -11   60.81    5.30
   5  -1 -11   56.90    4.22
   5  -1 -10  119.59    5.74
   5  -1 -10  123.19    6.13
   5  -1 -10  104.14    4.84
   5  -1 -10  111.76    5.28
   5  -1  -9    8.73    4.40
   5  -1  -9   11.63    4.88
   5  -1  -9   11.12    5.55
   5  -1  -9    6.60    3.87
   5  -1  -9    8.56    3.12
   5  -1  -8  605.02   11.07
   5  -1  -8  606.34   11.32
   5  -1  -8  579.38   10.37
   5  -1  -8  561.36    9.45
   5  -1  -8  578.51   10.64
   5  -1  -7   58.64    5.42
   5  -1  -7   63.91    5.61
   5  -1  -7   63.34    6.29
   5  -1  -7   58.93    4.14
   5  -1  -6   28.01    5.24
   5  -1  -6   28.47    5.09
   5  -1  -6   26.21    5.73
   5  -1  -6   24.69    4.86
   5  -1  -5  367.26    9.10
   5  -1  -5  369.71    9.09
   5  -1  -5  355.55    9.30
   5  -1  -5  364.39    9.03
   5  -1  -5  369.36    8.37
   5  -1  -4 1368.94   18.19
   5  -1  -4 1383.45   18.87
   5  -1  -4 1397.66   19.14
   5  -1  -4 1364.27   18.55
   5  -1  -4 1352.68   18.77
   5  -1  -3  403.06    9.58
   5  -1  -3  383.24    8.59
   5  -1  -3  395.56    9.63
   5  -1  -3  381.39    9.46
   5  -1  -2  153.73    7.07
   5  -1  -2  139.60    5.77
   5  -1  -2  142.00    7.12
   5  -1  -2  138.57    6.80
   5  -1  -1 8608.78   83.79
   5  -1  -1 8866.41   84.72
   5  -1   0   80.71    6.72
   5  -1   0   60.34    4.98
   5  -1   0   68.14    5.97
   5  -1   0   79.13    5.88
   5  -1   0   63.16    5.04
   5  -1   1  501.11   10.97
   5  -1   1  497.58    9.74
   5  -1   1  504.69   10.60
   5  -1   2   86.46    6.35
   5  -1   2   80.56    5.07
   5  -1   2   81.50    6.10
   5  -1   2   84.10    5.33
   5  -1   3  585.35   12.04
   5  -1   3  565.73   10.78
   5  -1   3  600.61   12.38
   5  -1   3  577.84   11.51
   5  -1   3  550.90   10.25
   5  -1   4  240.10    8.64
   5  -1   4  229.06    7.24
   5  -1   4  252.38    8.41
   5  -1   4  247.50    7.85
   5  -1   4  237.50    7.23
   5  -1   5   75.93    6.61
   5  -1   5   78.53    6.58
   5  -1   5   70.27    4.95
   5  -1   5   70.11    5.73
   5  -1   5   76.57    5.76
   5  -1   6  502.36   11.12
   5  -1   6  476.84   10.09
   5  -1   7  797.49   14.20
   5  -1   7  778.06   12.87
   5  -1   8  264.82    8.85
   5  -1   8  252.36    7.70
   5  -1   9  985.83   15.82
   5  -1   9 1012.42   14.79
   5  -1  10 1108.87   16.39
   5  -1  10 1100.74   15.53
   5  -1  11   17.59    4.91
   5  -1  11   19.62    5.05
   5  -1  12   86.98    5.13
   5  -1  12   81.85    5.23
   5  -1  13  448.55    8.03
   5  -1  13  503.01    8.40
   5  -1  14   28.03    3.10
   5  -1  14   39.53    3.33
   5   0 -14   17.22    2.62
   5   0 -13    5.25    3.22
   5   0 -13    6.06    4.54
   5   0 -12   73.55    4.53
   5   0 -12   72.44    5.83
   5   0 -11  850.61   12.59
   5   0 -11  841.16   13.80
   5   0 -10   24.29    4.59
   5   0 -10   19.78    6.00
   5   0 -10   22.99    4.77
   5   0  -9   47.03    5.09
   5   0  -9   39.81    6.24
   5   0  -9   41.34    4.35
   5   0  -9   41.77    4.96
   5   0  -8  591.12   10.87
   5   0  -8  572.72   11.92
   5   0  -8  575.05   10.17
   5   0  -8  578.09   11.30
   5   0  -7 1263.47   17.37
   5   0  -7 1278.12   18.07
   5   0  -7 1220.05   16.57
   5   0  -7 1231.15   17.63
   5   0  -7 1251.01   16.93
   5   0  -6    1.92    4.41
   5   0  -6    0.84    4.58
   5   0  -6   -0.85    5.96
   5   0  -6    0.10    4.08
   5   0  -6    5.41    4.88
   5   0  -5  568.61   10.71
   5   0  -5  571.94   11.06
   5   0  -5  590.64   11.63
   5   0  -5  568.42   11.23
   5   0  -5  578.33   10.63
   5   0  -4 1732.61   21.81
   5   0  -4 1756.37   22.13
   5   0  -4 1736.23   22.52
   5   0  -4 1746.21   22.37
   5   0  -4 1777.02   21.73
   5   0  -3   66.01    5.33
   5   0  -3   71.78    5.84
   5   0  -3   67.17    6.06
   5   0  -3   56.70    5.42
   5   0  -3   70.30    4.81
   5   0  -2 2669.62   30.21
   5   0  -2 2732.05   30.46
   5   0  -2 2710.95   30.88
   5   0  -2 2663.44   30.66
   5   0  -1  797.84   13.08
   5   0  -1  803.94   12.81
   5   0  -1  776.32   13.29
   5   0   0  260.67    7.75
   5   0   0  254.10    7.04
   5   0   0  240.93    8.07
   5   0   1  249.76    7.63
   5   0   1  257.10    7.08
   5   0   1  234.16    7.62
   5   0   1  249.23    7.91
   5   0   1  234.94    6.70
   5   0   2  511.02   10.61
   5   0   2  529.70   10.12
   5   0   2  509.06    9.59
   5   0   3 1061.83   16.13
   5   0   3 1065.28   15.50
   5   0   3 1078.87   16.56
   5   0   3 1059.93   16.31
   5   0   3 1032.86   14.70
   5   0   4    7.32    4.98
   5   0   4   10.82    4.75
   5   0   4   10.67    4.13
   5   0   4    7.17    4.74
   5   0   4   10.07    4.69
   5   0   5  762.55   13.48
   5   0   5  773.13   12.88
   5   0   5  774.12   13.90
   5   0   5  756.89   13.50
   5   0   5  747.90   12.69
   5   0   6    8.75    4.97
   5   0   6    6.33    5.29
   5   0   6    8.12    3.89
   5   0   6    8.21    4.84
   5   0   6   12.20    5.33
   5   0   7  258.24    8.66
   5   0   7  236.94    8.61
   5   0   7  235.01    7.37
   5   0   7  247.21    7.17
   5   0   7  239.27    7.95
   5   0   7  237.24    7.93
   5   0   8  235.84    8.49
   5   0   8  230.07    8.44
   5   0   8  248.20    6.94
   5   0   8  214.59    7.97
   5   0   8  241.58    8.21
   5   0   9  136.69    7.21
   5   0   9  139.72    6.37
   5   0   9  120.16    7.38
   5   0   9  147.21    7.22
   5   0  10   65.70    5.35
   5   0  10   59.35    6.54
   5   0  10   62.91    6.25
   5   0  11  167.19    6.41
   5   0  11  157.17    7.63
   5   0  12  801.41   11.56
   5   0  12  757.75   13.37
   5   0  13  259.16    6.28
   5   0  13  244.80    7.65
   5   0  14   92.96    5.38
   5   0  14   94.49    5.00
   5   0  15  432.08    7.77
   5   0  15  458.07    7.53
   5   0  16   11.63    2.52
   5   0  16   13.41    2.26
   5   1 -15   54.87    4.12
   5   1 -14   22.22    3.38
   5   1 -14   22.47    4.70
   5   1 -13  242.43    6.19
   5   1 -13  276.84    7.73
   5   1 -12  395.59    8.27
   5   1 -12  447.80    9.97
   5   1 -11   78.03    5.58
   5   1 -11   88.13    6.61
   5   1 -11   83.43    5.47
   5   1 -10  482.67    9.22
   5   1 -10  495.33   11.01
   5   1 -10  473.71    9.95
   5   1  -9  304.96    8.09
   5   1  -9  319.02    7.83
   5   1  -9  325.73    9.58
   5   1  -9  325.61    8.62
   5   1  -8 1443.07   18.35
   5   1  -8 1459.30   20.11
   5   1  -8 1441.53   19.33
   5   1  -7  213.28    6.85
   5   1  -7  227.27    6.92
   5   1  -7  217.35    8.30
   5   1  -7  226.11    7.57
   5   1  -6  769.59   12.12
   5   1  -6  701.03   11.57
   5   1  -6  716.09   11.12
   5   1  -6  764.42   12.84
   5   1  -5 3332.28   35.62
   5   1  -5 3522.39   36.72
   5   1  -5 3319.31   35.49
   5   1  -5 3569.12   37.64
   5   1  -5 3519.09   36.95
   5   1  -4  976.15   13.83
   5   1  -4 1050.34   14.84
   5   1  -4  995.24   13.61
   5   1  -4 1069.47   15.63
   5   1  -4 1049.90   15.05
   5   1  -3   29.69    4.46
   5   1  -3   29.12    3.15
   5   1  -3   32.10    4.75
   5   1  -3   32.40    3.78
   5   1  -3   31.67    4.87
   5   1  -2 3373.45   36.13
   5   1  -2 3319.46   34.87
   5   1  -2 3462.22   35.72
   5   1  -2 3296.69   35.92
   5   1  -2 3499.50   36.38
   5   1  -1  351.37    7.96
   5   1  -1  330.26    6.83
   5   1  -1  344.60    7.49
   5   1   0   27.43    4.17
   5   1   0   24.62    4.47
   5   1   0   26.82    3.64
   5   1   1  998.94   14.37
   5   1   1  931.65   13.35
   5   1   1  977.02   14.94
   5   1   1  994.72   15.44
   5   1   1  946.13   13.96
   5   1   2 1246.49   17.78
   5   1   2 1312.91   18.53
   5   1   2 1259.42   17.28
   5   1   2 1272.05   16.87
   5   1   3   25.90    3.93
   5   1   3   27.42    4.53
   5   1   3   32.53    5.01
   5   1   3   30.09    4.00
   5   1   3   35.29    4.69
   5   1   3   28.21    4.59
   5   1   4  998.57   14.68
   5   1   4  946.24   14.74
   5   1   4  978.88   14.15
   5   1   4  983.46   14.16
   5   1   4  971.52   14.00
   5   1   5  814.64   13.14
   5   1   5  890.88   13.69
   5   1   5  844.42   13.90
   5   1   5  799.52   12.56
   5   1   5  886.27   13.37
   5   1   5  863.74   13.33
   5   1   5  861.36   13.14
   5   1   6   55.14    4.97
   5   1   6   58.23    4.62
   5   1   6   67.08    5.48
   5   1   6   48.79    5.17
   5   1   6   60.22    5.15
   5   1   6   56.86    5.19
   5   1   7  122.44    6.15
   5   1   7  129.67    6.53
   5   1   7  129.20    5.88
   5   1   7  135.27    6.44
   5   1   7  132.23    6.18
   5   1   7  134.84    6.02
   5   1   8   59.57    5.60
   5   1   8   57.68    5.77
   5   1   8   62.46    4.89
   5   1   8   56.68    5.93
   5   1   9   82.71    5.33
   5   1   9  109.11    6.68
   5   1   9   91.78    6.78
   5   1   9  108.97    6.71
   5   1  10 1016.33   15.11
   5   1  10 1004.01   15.35
   5   1  11  729.77   12.82
   5   1  11  732.49   13.71
   5   1  11  712.38   12.89
   5   1  12 1859.44   22.40
   5   1  12 1869.53   23.79
   5   1  13   28.92    5.69
   5   1  13   30.17    6.39
   5   1  13   31.78    5.30
   5   1  14  527.54    9.65
   5   1  14  537.31   10.60
   5   1  15  851.22   11.23
   5   1  15  730.93   10.82
   5   1  16    3.32    3.33
   5   1  16    1.74    2.58
   5   1  17   61.87    2.81
   5   2 -16  427.35    6.13
   5   2 -15  179.74    5.17
   5   2 -15  174.83    4.94
   5   2 -14  140.07    5.76
   5   2 -14  154.04    5.81
   5   2 -13  207.51    6.97
   5   2 -13  221.14    7.48
   5   2 -12  533.23   10.71
   5   2 -12  597.32   11.51
   5   2 -11  190.62    7.00
   5   2 -11  193.03    7.79
   5   2 -11  203.17    8.24
   5   2 -10  267.75    7.84
   5   2 -10  271.63    8.68
   5   2  -9  340.79    9.37
   5   2  -9  351.63   10.14
   5   2  -9  333.91    8.27
   5   2  -8  320.48    8.61
   5   2  -8  326.50    9.19
   5   2  -8  351.94   10.11
   5   2  -8  335.38    8.29
   5   2  -7   65.16    6.39
   5   2  -7   68.17    6.98
   5   2  -7   65.86    5.15
   5   2  -6 1241.87   17.28
   5   2  -6 1192.12   16.80
   5   2  -6 1215.92   16.98
   5   2  -5  921.93   13.97
   5   2  -5  965.43   15.38
   5   2  -5  951.19   14.31
   5   2  -5  973.41   13.76
   5   2  -4   39.91    5.24
   5   2  -4   38.15    4.20
   5   2  -4   35.96    3.67
   5   2  -4   35.81    5.84
   5   2  -4   34.97    3.89
   5   2  -4   37.46    4.59
   5   2  -4   40.74    4.39
   5   2  -3 4151.76   43.60
   5   2  -3 4379.05   43.85
   5   2  -3 4240.87   42.71
   5   2  -3 4267.88   44.91
   5   2  -3 4333.72   44.03
   5   2  -3 4166.95   43.19
   5   2  -3 4306.26   44.00
   5   2  -2 1337.35   17.18
   5   2  -2 1294.63   18.09
   5   2  -2 1351.92   17.35
   5   2  -2 1313.86   16.66
   5   2  -2 1319.57   17.26
   5   2  -1 1000.21   14.29
   5   2  -1 1048.09   14.35
   5   2  -1  988.84   15.29
   5   2  -1 1000.25   14.24
   5   2  -1 1014.98   14.53
   5   2   0  785.08   12.08
   5   2   0  775.72   12.09
   5   2   0  766.48   13.01
   5   2   0  789.84   12.16
   5   2   0  785.28   12.37
   5   2   1   54.56    4.17
   5   2   1   51.76    4.08
   5   2   1   53.45    5.47
   5   2   1   52.23    4.60
   5   2   1   51.03    3.96
   5   2   1   53.09    4.20
   5   2   2   24.12    3.48
   5   2   2   23.12    3.81
   5   2   2   20.57    4.08
   5   2   2   26.49    4.14
   5   2   2   23.96    3.88
   5   2   3 1141.60   15.51
   5   2   3 1114.92   16.01
   5   2   3 1126.04   16.25
   5   2   3 1148.07   14.90
   5   2   3 1139.29   16.24
   5   2   4 1981.95   23.47
   5   2   4 2014.07   24.43
   5   2   4 2068.69   24.15
   5   2   4 2042.83   22.91
   5   2   5  151.43    5.49
   5   2   5  151.48    5.39
   5   2   5  144.85    5.68
   5   2   5  154.27    6.24
   5   2   5  162.95    6.27
   5   2   5  158.85    5.66
   5   2   6   58.21    4.39
   5   2   6   56.84    4.33
   5   2   6   58.72    4.81
   5   2   6   63.85    5.41
   5   2   6   64.01    5.40
   5   2   6   61.57    4.65
   5   2   7 1002.97   14.95
   5   2   7  998.53   15.15
   5   2   7 1073.92   16.20
   5   2   7 1100.83   15.40
   5   2   7 1091.11   14.50
   5   2   8  205.02    6.43
   5   2   8  213.50    7.60
   5   2   8  223.22    7.85
   5   2   8  226.45    7.41
   5   2   9   15.59    4.05
   5   2   9   13.59    5.55
   5   2   9   13.05    5.31
   5   2  10  382.33    9.93
   5   2  10  397.67   10.01
   5   2  10  365.33    9.25
   5   2  11   12.67    6.36
   5   2  11    8.07    6.30
   5   2  11    5.92    5.51
   5   2  12  400.34   10.06
   5   2  12  402.19   10.67
   5   2  12  396.16    9.03
   5   2  13  708.97   12.46
   5   2  13  646.37   11.28
   5   2  14  363.91    8.96
   5   2  14  335.47    7.43
   5   2  15   15.90    5.02
   5   2  15   15.23    5.08
   5   2  15   10.57    3.33
   5   2  16  106.58    5.11
   5   2  16   99.71    5.08
   5   2  17   26.00    3.33
   5   2  17   18.99    2.87
   5   3 -16  257.45    5.00
   5   3 -15   66.61    4.63
   5   3 -15   41.31    2.83
   5   3 -14  196.69    6.66
   5   3 -14  144.33    5.04
   5   3 -13  883.86   13.06
   5   3 -13  901.81   13.97
   5   3 -12  144.90    6.89
   5   3 -12  149.45    7.82
   5   3 -12  146.09    6.32
   5   3 -11  521.43   10.91
   5   3 -11  522.38   11.59
   5   3 -11  533.75   10.74
   5   3 -10   31.00    6.10
   5   3 -10   45.31    7.52
   5   3 -10   49.48    6.42
   5   3  -9  213.55    8.12
   5   3  -9  221.12    9.02
   5   3  -9  202.67    6.44
   5   3  -9  230.28    8.31
   5   3  -8   96.83    7.03
   5   3  -8  115.69    8.06
   5   3  -8   88.07    5.25
   5   3  -8  106.06    6.86
   5   3  -7  293.68    8.93
   5   3  -7  302.78    9.69
   5   3  -7  292.76    7.61
   5   3  -7  321.94    9.26
   5   3  -6 1402.96   19.37
   5   3  -6 1473.42   20.33
   5   3  -6 1429.95   18.64
   5   3  -6 1491.57   19.99
   5   3  -5   42.40    6.58
   5   3  -5   38.41    4.40
   5   3  -5   40.01    5.74
   5   3  -4  326.10    9.28
   5   3  -4  328.81    8.61
   5   3  -4  316.32    7.63
   5   3  -4  336.34    8.71
   5   3  -4  305.87    7.34
   5   3  -3  915.39   14.76
   5   3  -3  924.84   14.61
   5   3  -3  911.69   13.45
   5   3  -3  902.61   14.11
   5   3  -3  917.60   13.13
   5   3  -3  903.77   14.53
   5   3  -3  873.13   13.03
   5   3  -2 1088.43   16.43
   5   3  -2 1172.90   16.74
   5   3  -2 1203.90   15.69
   5   3  -2 1129.96   15.47
   5   3  -2 1103.44   16.07
   5   3  -2 1135.07   15.12
   5   3  -2 1169.06   16.72
   5   3  -2 1208.37   16.49
   5   3  -2 1077.64   14.95
   5   3  -1 2190.74   25.24
   5   3  -1 2379.12   27.33
   5   3  -1 2377.80   26.04
   5   3  -1 2257.21   26.01
   5   3  -1 2225.46   26.33
   5   3  -1 2289.77   25.59
   5   3  -1 2219.20   25.64
   5   3  -1 2282.32   27.06
   5   3  -1 2461.43   26.89
   5   3   0 1370.46   17.35
   5   3   0 1465.35   19.24
   5   3   0 1527.87   18.31
   5   3   0 1464.41   18.47
   5   3   0 1374.34   18.40
   5   3   0 1498.94   18.07
   5   3   0 1363.06   17.72
   5   3   0 1457.70   19.22
   5   3   1   26.62    3.06
   5   3   1   32.24    4.41
   5   3   1   35.85    4.19
   5   3   1   33.70    4.25
   5   3   1   34.99    4.00
   5   3   1   32.23    3.75
   5   3   1   34.34    4.12
   5   3   1   38.20    4.47
   5   3   2  366.63    7.28
   5   3   2  376.89    8.86
   5   3   2  379.62    8.44
   5   3   2  408.81    8.18
   5   3   2  378.62    7.56
   5   3   2  359.18    7.73
   5   3   2  382.56    8.72
   5   3   2  408.44    8.36
   5   3   3 2628.79   29.13
   5   3   3 2744.03   31.71
   5   3   3 2902.34   30.38
   5   3   3 2722.13   30.87
   5   3   3 2869.08   30.30
   5   3   3 2719.11   29.75
   5   3   3 2656.20   29.89
   5   3   3 2773.88   31.64
   5   3   3 2995.49   30.51
   5   3   4 1138.53   15.10
   5   3   4 1178.54   17.63
   5   3   4 1270.79   16.23
   5   3   4 1219.08   17.49
   5   3   4 1283.64   16.30
   5   3   5   23.12    3.28
   5   3   5   37.46    4.43
   5   3   5   22.64    4.44
   5   3   5   24.25    4.64
   5   3   6  521.83    9.16
   5   3   6  598.54   10.57
   5   3   6  570.54   10.53
   5   3   6  561.96   10.29
   5   3   6  620.13    9.92
   5   3   7 1261.49   17.38
   5   3   7 1248.73   16.86
   5   3   8  883.78   13.20
   5   3   8 1016.26   14.69
   5   3   8  928.81   14.66
   5   3   8  951.44   14.01
   5   3   8  995.02   13.20
   5   3   9   57.05    4.10
   5   3   9   64.95    5.99
   5   3   9   67.09    5.55
   5   3  10  390.77    8.83
   5   3  11  117.33    5.88
   5   3  12 1792.01   23.24
   5   3  12 1697.15   20.21
   5   3  13   54.33    6.56
   5   3  14  113.94    6.89
   5   3  15   18.49    5.09
   5   3  16   35.82    4.18
   5   3  17   57.91    2.93
   5   4 -15  208.38    4.68
   5   4 -14  372.87    7.48
   5   4 -13  199.49    6.93
   5   4 -12   86.90    6.35
   5   4 -12   76.33    4.36
   5   4 -11  481.52   10.81
   5   4 -11  420.06    8.95
   5   4 -10  477.05   10.83
   5   4 -10  437.33    9.60
   5   4  -9   28.19    6.49
   5   4  -9   29.08    5.23
   5   4  -8  719.54   12.97
   5   4  -7 1524.67   20.58
   5   4  -6  229.45    7.89
   5   4  -5  850.94   13.18
   5   4  -5  887.08   14.37
   5   4  -4  632.41   13.19
   5   4  -4  656.82   11.19
   5   4  -4  660.77   12.24
   5   4  -4  612.33   10.24
   5   4  -4  674.91   12.09
   5   4  -3 1465.32   21.49
   5   4  -3 1609.77   19.49
   5   4  -3 1542.47   20.53
   5   4  -3 1460.39   18.42
   5   4  -3 1486.16   18.43
   5   4  -3 1472.57   21.46
   5   4  -3 1575.10   20.18
   5   4  -2   48.35    6.87
   5   4  -2   43.55    5.50
   5   4  -2   44.73    4.68
   5   4  -2   40.30    4.90
   5   4  -2   56.52    4.49
   5   4  -2   45.45    4.10
   5   4  -2   48.16    5.16
   5   4  -2   43.30    5.19
   5   4  -1 1861.31   24.65
   5   4  -1 1884.56   22.49
   5   4  -1 1906.89   23.62
   5   4  -1 1843.11   21.78
   5   4  -1 1881.77   22.05
   5   4  -1 1934.55   23.25
   5   4   0 1985.00   25.78
   5   4   0 2130.58   24.10
   5   4   0 2042.58   24.86
   5   4   0 1964.74   23.20
   5   4   0 2038.45   23.55
   5   4   0 1984.46   25.29
   5   4   0 2109.98   24.57
   5   4   1  417.92    8.79
   5   4   1  401.35    8.36
   5   4   1  427.08    8.57
   5   4   1  389.51    9.43
   5   4   2 1146.29   15.54
   5   4   2 1114.40   15.41
   5   4   2 1111.85   16.87
   5   4   2 1166.18   16.06
   5   4   3  492.11    9.42
   5   4   3  443.13    9.91
   5   4   3  466.29    9.33
   5   4   3  485.37    9.46
   5   4   3  461.02   10.20
   5   4   3  486.81    9.61
   5   4   4   33.55    4.44
   5   4   4   30.71    4.72
   5   4   4   35.55    4.86
   5   4   4   30.34    5.00
   5   4   4   32.02    4.78
   5   4   4   31.34    4.76
   5   4   5  517.42    9.69
   5   4   5  515.68    9.83
   5   4   5  504.50   10.14
   5   4   5  488.77   10.52
   5   4   5  475.76    9.20
   5   4   5  521.81    9.86
   5   4   6  536.99   10.15
   5   4   6  541.85   10.27
   5   4   6  512.05   10.57
   5   4   6  522.69   11.09
   5   4   7  350.64    7.95
   5   4   7  364.17    8.37
   5   4   7  318.97    8.90
   5   4   7  333.92    9.15
   5   4   7  357.05    7.80
   5   4   8   53.45    5.03
   5   4   9 5863.53   58.02
   5   4  10  624.13   12.41
   5   4  10  607.60   12.20
   5   4  11   29.30    6.68
   5   4  11   36.35    6.01
   5   4  12  530.46   11.16
   5   4  12  559.01   11.52
   5   4  13  144.37    7.15
   5   4  13  136.90    7.14
   5   4  14  125.25    6.54
   5   4  14  116.00    6.50
   5   4  15   74.46    5.41
   5   4  15   70.89    5.22
   5   4  16  652.91    9.45
   5   4  16  583.73    8.52
   5   4  17   29.42    2.92
   5   5 -14   -2.87    3.31
   5   5 -14    0.93    2.65
   5   5 -13   16.53    4.60
   5   5 -13   17.51    3.82
   5   5 -13   12.58    2.92
   5   5 -12  750.54   12.67
   5   5 -12  749.86   11.44
   5   5 -11  161.51    7.68
   5   5 -11  148.64    6.09
   5   5 -10    9.15    6.65
   5   5 -10   19.05    6.93
   5   5 -10   12.85    5.15
   5   5  -9 1654.07   21.95
   5   5  -9 1610.03   22.21
   5   5  -8 2794.42   31.48
   5   5  -8 2802.77   31.98
   5   5  -8 2702.77   31.34
   5   5  -7  318.97   10.90
   5   5  -7  331.60    9.68
   5   5  -6 1470.12   21.44
   5   5  -6 1464.46   21.03
   5   5  -6 1400.75   18.62
   5   5  -5  823.97   15.43
   5   5  -5  845.44   13.14
   5   5  -5  853.79   15.13
   5   5  -5  790.96   13.18
   5   5  -5  782.65   15.17
   5   5  -5  839.63   13.96
   5   5  -4  290.28   10.18
   5   5  -4  259.45    9.71
   5   5  -4  291.66    7.79
   5   5  -4  307.20    9.66
   5   5  -4  274.54    8.00
   5   5  -4  253.94    9.11
   5   5  -4  290.75    8.59
   5   5  -3   13.08    5.66
   5   5  -3    3.09    4.50
   5   5  -3    2.46    5.76
   5   5  -3    3.47    4.00
   5   5  -3    7.13    4.85
   5   5  -3    7.66    5.03
   5   5  -3    8.69    5.14
   5   5  -2  115.59    7.30
   5   5  -2  126.61    6.14
   5   5  -2  128.94    6.48
   5   5  -2  120.43    5.54
   5   5  -2  114.39    6.82
   5   5  -1  921.19   16.47
   5   5  -1  938.36   14.36
   5   5  -1  925.03   14.41
   5   5  -1  912.86   13.78
   5   5  -1  900.53   15.91
   5   5  -1  913.68   15.48
   5   5  -1  930.72   14.82
   5   5   0  115.72    7.09
   5   5   0  127.00    6.24
   5   5   0  116.32    6.68
   5   5   0  133.09    6.48
   5   5   0  112.58    5.70
   5   5   0  116.38    6.51
   5   5   0  112.19    6.37
   5   5   0  113.14    6.31
   5   5   1   49.64    5.89
   5   5   1   55.29    5.28
   5   5   1   52.69    5.68
   5   5   1   69.23    5.89
   5   5   1   52.97    5.12
   5   5   1   49.42    5.38
   5   5   1   55.58    5.25
   5   5   1   49.49    5.63
   5   5   2 2257.65   28.70
   5   5   2 2194.12   27.54
   5   5   2 2243.81   26.71
   5   5   2 2249.73   26.27
   5   5   2 2276.02   27.44
   5   5   3   42.71    5.76
   5   5   3   85.90    5.73
   5   5   3   43.89    5.57
   5   5   3   86.85    5.51
   5   5   3   46.90    5.87
   5   5   3   45.80    5.29
   5   5   3   42.37    4.85
   5   5   3   39.47    5.49
   5   5   4 1397.96   20.59
   5   5   4 1427.29   18.73
   5   5   4 1371.21   19.70
   5   5   4 1417.77   18.76
   5   5   4 1373.70   19.17
   5   5   4 1328.60   18.54
   5   5   4 1401.12   19.01
   5   5   5  954.42   14.39
   5   5   5  941.03   14.50
   5   5   6  497.98   10.12
   5   5   6  486.85   10.37
   5   5   6  470.96   10.22
   5   5   6  510.68   10.28
   5   5   7 1299.94   17.21
   5   5   7 1295.03   17.71
   5   5   7 1272.86   17.22
   5   5   8  524.90    9.66
   5   5   8  487.74   10.27
   5   5   8  532.52   10.38
   5   5   8  480.62   11.05
   5   5   8  490.76    9.90
   5   5   9   55.71    6.41
   5   5   9   60.80    5.65
   5   5   9   62.99    6.52
   5   5   9   63.70    4.84
   5   5  10  459.13   10.03
   5   5  10  474.26   10.65
   5   5  11  775.39   12.45
   5   5  11  785.83   11.88
   5   5  11  748.43   13.35
   5   5  12  157.22    6.68
   5   5  12  158.90    7.12
   5   5  13   62.94    5.36
   5   5  13   58.68    5.60
   5   5  14  856.90   11.75
   5   5  14  900.20   12.40
   5   5  15  470.27    7.30
   5   5  15  467.96    6.86
   5   6 -12  138.10    4.57
   5   6 -12  142.39    4.40
   5   6 -11   28.53    4.12
   5   6 -11   28.80    4.02
   5   6 -10   31.77    4.82
   5   6 -10   27.12    3.46
   5   6  -9  852.62   13.97
   5   6  -9  900.84   14.16
   5   6  -8  166.95    7.48
   5   6  -8  175.99    7.63
   5   6  -8  158.01    6.41
   5   6  -8  157.02    6.59
   5   6  -7   58.42    6.39
   5   6  -7   54.86    6.40
   5   6  -7   49.43    5.75
   5   6  -7   51.91    5.39
   5   6  -6 1119.09   18.05
   5   6  -6 1092.90   16.38
   5   6  -6 1058.97   17.23
   5   6  -5  267.93    9.41
   5   6  -5  269.41    7.42
   5   6  -5  277.08    8.67
   5   6  -5  261.32    8.58
   5   6  -5  263.65    7.96
   5   6  -4   60.87    6.65
   5   6  -4   57.53    5.49
   5   6  -4   56.19    6.44
   5   6  -4   54.80    5.66
   5   6  -4   59.68    5.77
   5   6  -3  526.64   12.47
   5   6  -3  566.99   10.94
   5   6  -3  556.71   12.60
   5   6  -3  525.87   11.67
   5   6  -3  513.88    9.92
   5   6  -3  537.98   11.70
   5   6  -3  536.86   11.08
   5   6  -3  556.88   11.30
   5   6  -2  245.36    9.01
   5   6  -2  259.80    8.09
   5   6  -2  244.29    9.04
   5   6  -2  249.39    8.62
   5   6  -2  247.06    7.29
   5   6  -2  247.26    8.34
   5   6  -2  244.30    7.83
   5   6  -2  271.87    8.59
   5   6  -1   24.36    5.84
   5   6  -1   24.23    5.85
   5   6  -1   23.56    6.02
   5   6  -1   23.84    5.03
   5   6  -1   28.76    5.16
   5   6  -1   27.81    6.23
   5   6  -1   30.94    4.70
   5   6  -1   26.46    5.90
   5   6   0   97.16    6.78
   5   6   0   84.43    6.61
   5   6   0   87.16    6.84
   5   6   0  109.45    6.88
   5   6   0  103.56    7.08
   5   6   0  100.05    6.08
   5   6   0   95.36    6.09
   5   6   0   88.50    6.69
   5   6   1 1597.27   21.74
   5   6   1 1537.66   20.85
   5   6   1 1457.96   21.40
   5   6   1 1538.24   20.35
   5   6   1 1447.61   20.83
   5   6   1 1464.17   20.00
   5   6   1 1518.63   20.95
   5   6   2  583.82   12.40
   5   6   2  583.56   11.85
   5   6   2  557.13   12.04
   5   6   2  573.60   12.21
   5   6   2  539.48   11.27
   5   6   2  568.81   12.08
   5   6   3   45.50    5.91
   5   6   3   41.10    6.40
   5   6   3   35.77    6.05
   5   6   3   37.15    5.83
   5   6   3   35.39    5.61
   5   6   4  725.09   12.63
   5   6   4  717.94   13.12
   5   6   4  704.04   13.24
   5   6   4  696.10   12.88
   5   6   4  709.27   13.33
   5   6   5  551.07   10.66
   5   6   5  543.23   11.23
   5   6   5  536.51   11.71
   5   6   5  530.89   11.53
   5   6   6  354.61    8.60
   5   6   6  353.87    9.14
   5   6   6  343.25    9.42
   5   6   6  366.67   10.04
   5   6   6  346.65    9.42
   5   6   7  592.98   10.23
   5   6   7  598.22   11.24
   5   6   7  618.88   11.82
   5   6   7  600.70   12.27
   5   6   7  600.72   11.68
   5   6   8 4012.93   41.77
   5   6   8 3920.52   42.40
   5   6   8 4009.37   41.37
   5   6   9  150.16    5.39
   5   6   9  144.37    6.63
   5   6   9  163.03    7.31
   5   6   9  145.44    6.21
   5   6  10  445.69    8.89
   5   6  10  462.18    9.77
   5   6  11  430.65    8.01
   5   6  11  458.57    9.12
   5   6  12   35.76    4.54
   5   6  13  326.79    6.04
   5   7 -10   31.21    3.07
   5   7  -9   33.11    2.82
   5   7  -9   30.35    3.27
   5   7  -8   56.78    3.69
   5   7  -8   56.42    4.39
   5   7  -7  525.31    9.11
   5   7  -7  542.67    9.68
   5   7  -6  684.97   11.18
   5   7  -6  709.15   12.00
   5   7  -5    9.24    4.06
   5   7  -5   13.61    3.87
   5   7  -5    7.97    5.24
   5   7  -5    8.96    5.45
   5   7  -5   12.67    4.17
   5   7  -4  703.44   11.59
   5   7  -4  669.88   11.28
   5   7  -4  703.26   12.82
   5   7  -4  715.19   12.72
   5   7  -3  499.82    9.79
   5   7  -3  476.00    9.89
   5   7  -3  507.88   10.85
   5   7  -3  518.63   11.19
   5   7  -3  477.10   10.02
   5   7  -2  572.53   10.49
   5   7  -2  566.53   11.15
   5   7  -2  562.11   11.67
   5   7  -2  559.92   11.91
   5   7  -2  522.71    9.96
   5   7  -2  542.93   11.26
   5   7  -1 1629.50   21.52
   5   7  -1 1682.14   21.97
   5   7  -1 1634.31   22.26
   5   7  -1 1634.51   21.76
   5   7   0  819.32   12.70
   5   7   0  775.38   13.84
   5   7   0  788.61   13.60
   5   7   0  739.82   12.90
   5   7   0  760.82   13.88
   5   7   1   -5.87    5.89
   5   7   1    3.36    5.08
   5   7   1   14.75    6.06
   5   7   1    1.07    5.15
   5   7   1    1.83    5.86
   5   7   2  254.79    8.75
   5   7   2  274.46    7.76
   5   7   2  287.21    8.68
   5   7   2  246.34    8.19
   5   7   2  257.90    9.07
   5   7   2  250.37    8.89
   5   7   3 1200.58   17.34
   5   7   3 1095.88   16.91
   5   7   3 1187.85   17.59
   5   7   3 1118.67   17.50
   5   7   4   26.35    6.16
   5   7   4   11.60    5.61
   5   7   4   11.74    5.57
   5   7   4   16.86    5.95
   5   7   5  957.43   14.50
   5   7   5  913.95   14.77
   5   7   5  970.31   15.22
   5   7   5  906.31   15.14
   5   7   6  369.44    8.84
   5   7   6  342.44    8.78
   5   7   6  333.03    9.17
   5   7   6  360.98    9.39
   5   7   7 3537.65   38.10
   5   7   7 3646.68   39.10
   5   7   7 3565.76   38.94
   5   7   8  465.34    8.81
   5   7   8  493.19    9.84
   5   7   8  475.04    9.70
   5   7   9  456.08    8.85
   5   7   9  429.15    8.50
   5   7  10 1070.95   13.71
   5   7  10  944.64   12.72
   5   7  11  166.56    4.09
   5   8  -7  364.86    5.75
   5   8  -6   22.64    2.44
   5   8  -6   21.76    3.26
   5   8  -5   47.29    3.10
   5   8  -5   54.98    4.06
   5   8  -4  833.56   10.52
   5   8  -4  899.78   11.78
   5   8  -3  405.95    7.63
   5   8  -3  391.60    7.26
   5   8  -2  294.83    6.89
   5   8  -2  311.24    5.93
   5   8  -2  305.11    6.89
   5   8  -1  609.26   10.25
   5   8  -1  614.73    8.52
   5   8  -1  603.77   10.30
   5   8   0   80.03    5.48
   5   8   0   73.21    4.65
   5   8   0   81.88    5.64
   5   8   0   79.23    5.46
   5   8   1  173.77    6.52
   5   8   1  159.04    5.99
   5   8   1  171.63    6.69
   5   8   2  321.78    8.00
   5   8   2  294.94    7.63
   5   8   2  319.40    8.22
   5   8   3   29.24    4.69
   5   8   3   19.64    4.51
   5   8   3   22.34    5.04
   5   8   4  355.20    8.06
   5   8   4  336.45    8.11
   5   8   5  505.41    9.41
   5   8   5  604.60    9.39
   5   8   6   74.40    4.39
   5   8   6   70.87    4.89
   5   8   7   65.49    3.73
   5   8   7   68.95    4.30
   5   8   7   71.31    4.46
   5   8   8   37.37    3.34
   5   8   8   36.53    3.50
   5   8   9  367.05    5.78
   5   9   1    7.90    1.97
   5   9   2  355.84    5.39
   6  -3  -4  290.24    4.52
   6  -3  -3  242.89    4.36
   6  -3  -2    0.77    2.15
   6  -3  -2    1.78    2.27
   6  -3  -1   40.49    2.66
   6  -3  -1   40.05    2.82
   6  -3   0  174.66    4.04
   6  -3   0  168.91    4.18
   6  -3   1   26.73    2.56
   6  -3   1   24.55    2.64
   6  -3   2   88.30    3.17
   6  -3   2   82.27    3.08
   6  -3   3  136.40    3.48
   6  -3   3  129.27    3.46
   6  -3   4   24.43    2.14
   6  -3   4   21.70    2.05
   6  -3   5   10.11    1.69
   6  -2  -8  285.27    4.31
   6  -2  -7   74.63    3.02
   6  -2  -6   22.48    2.91
   6  -2  -6   22.18    3.04
   6  -2  -5  125.61    4.38
   6  -2  -5  129.90    4.43
   6  -2  -4   88.99    4.23
   6  -2  -4   90.32    4.18
   6  -2  -3  238.12    6.00
   6  -2  -3  243.25    5.94
   6  -2  -2  309.20    6.79
   6  -2  -2  314.44    6.79
   6  -2  -1   74.77    4.64
   6  -2  -1   77.39    4.75
   6  -2  -1   74.14    4.17
   6  -2   0   25.85    4.09
   6  -2   0   30.30    4.25
   6  -2   0   26.65    3.57
   6  -2   1   44.39    4.30
   6  -2   1   48.23    3.77
   6  -2   2    6.53    3.98
   6  -2   3  173.73    5.53
   6  -2   4   79.10    4.40
   6  -2   5  303.60    6.59
   6  -2   6  474.31    7.98
   6  -2   7    6.36    2.99
   6  -2   7    7.58    2.26
   6  -2   8  230.65    3.88
   6  -1 -11  399.69    6.21
   6  -1 -10   32.65    3.32
   6  -1  -9   43.04    3.96
   6  -1  -8  511.53    7.60
   6  -1  -8  570.15    9.24
   6  -1  -7    4.41    3.24
   6  -1  -7    3.14    4.14
   6  -1  -6   83.05    4.41
   6  -1  -6   86.89    5.46
   6  -1  -5  291.87    6.88
   6  -1  -5  306.48    7.55
   6  -1  -4    1.68    4.17
   6  -1  -4    1.83    4.67
   6  -1  -3  590.27   10.32
   6  -1  -3  596.58   10.61
   6  -1  -2  503.05    9.66
   6  -1  -2  504.65   10.34
   6  -1  -1   62.31    5.27
   6  -1  -1   63.49    5.47
   6  -1   0   54.26    5.34
   6  -1   0   52.42    5.08
   6  -1   0   52.48    4.41
   6  -1   1  488.38    9.89
   6  -1   1  501.97   10.31
   6  -1   1  479.25   10.20
   6  -1   2  839.08   13.23
   6  -1   2  869.26   13.90
   6  -1   2  822.48   13.45
   6  -1   3    5.10    4.78
   6  -1   3    8.76    5.17
   6  -1   3    3.43    4.56
   6  -1   3    4.11    4.23
   6  -1   4  417.81    9.20
   6  -1   4  428.82    9.67
   6  -1   4  400.04    8.13
   6  -1   5  121.72    5.91
   6  -1   5  127.79    6.30
   6  -1   5  119.16    5.31
   6  -1   6   32.15    4.71
   6  -1   6   29.09    4.77
   6  -1   6   27.45    4.49
   6  -1   7  225.63    6.74
   6  -1   7  217.65    6.78
   6  -1   7  228.71    6.23
   6  -1   8  233.22    6.53
   6  -1   8  232.66    6.05
   6  -1   9  739.82   10.38
   6  -1  10  147.20    4.62
   6  -1  11   69.95    3.29
   6  -1  12  149.77    3.28
   6   0 -12  135.64    4.44
   6   0 -11   23.33    3.74
   6   0 -10   18.29    4.31
   6   0  -9  176.99    5.40
   6   0  -9  194.89    6.46
   6   0  -8  193.71    5.95
   6   0  -8  193.23    7.10
   6   0  -7  233.54    6.76
   6   0  -7  247.02    7.80
   6   0  -6  988.75   15.04
   6   0  -5   90.34    6.72
   6   0  -4   14.92    5.98
   6   0  -4   14.05    4.17
   6   0  -3 1033.75   15.63
   6   0  -3  987.25   13.51
   6   0  -2  138.06    6.01
   6   0  -2  145.44    7.12
   6   0  -2  133.43    5.55
   6   0  -1  101.87    5.77
   6   0  -1   97.14    7.02
   6   0  -1  105.94    6.60
   6   0  -1  101.34    5.46
   6   0   0 1067.73   15.46
   6   0   0 1020.94   14.41
   6   0   1   68.13    5.59
   6   0   1   87.68    6.43
   6   0   1   72.90    5.96
   6   0   1   72.64    5.49
   6   0   2  651.29   11.79
   6   0   2  678.94   12.71
   6   0   2  667.22   12.70
   6   0   2  649.51   11.07
   6   0   3    5.05    4.75
   6   0   3   13.04    5.29
   6   0   3    0.18    4.96
   6   0   3    6.40    4.79
   6   0   4  492.69   10.18
   6   0   4  513.36   11.12
   6   0   4  483.27   10.87
   6   0   4  472.27    9.70
   6   0   5    6.59    4.82
   6   0   5    6.85    5.24
   6   0   5    7.80    5.09
   6   0   6    5.92    4.84
   6   0   6    3.35    5.11
   6   0   6    8.21    5.17
   6   0   7 1494.49   19.49
   6   0   7 1452.96   19.81
   6   0   7 1462.98   18.74
   6   0   8    4.07    4.69
   6   0   8    9.62    4.24
   6   0   8    9.69    5.08
   6   0   9  103.85    5.15
   6   0   9  130.04    6.09
   6   0  10   11.87    4.29
   6   0  10   13.42    4.65
   6   0  11  238.17    6.05
   6   0  11  274.40    6.65
   6   0  12   64.19    3.84
   6   0  12   76.32    4.12
   6   0  13   50.84    3.01
   6   0  14  110.93    2.75
   6   1 -13  247.05    5.41
   6   1 -12    1.62    3.83
   6   1 -11  259.78    7.08
   6   1 -10  336.62    8.44
   6   1  -9  222.61    7.85
   6   1  -8    5.85    4.08
   6   1  -6 1392.44   17.59
   6   1  -5   34.80    3.90
   6   1  -4  610.06   10.42
   6   1  -3 3465.36   37.24
   6   1  -3 3419.03   37.11
   6   1  -2  741.04   12.69
   6   1  -2  752.12   12.00
   6   1  -2  721.88   13.08
   6   1  -1  151.99    6.31
   6   1  -1  142.59    7.80
   6   1  -1  154.21    7.47
   6   1  -1  144.50    5.81
   6   1  -1  136.35    7.19
   6   1   0  164.77    6.67
   6   1   0  170.36    7.95
   6   1   0  172.51    7.86
   6   1   0  191.47    7.71
   6   1   1 2243.16   27.11
   6   1   1 2278.04   27.09
   6   1   1 2166.65   25.80
   6   1   1 2232.65   26.72
   6   1   2   70.96    5.31
   6   1   2   81.46    5.89
   6   1   2   73.41    6.47
   6   1   2   81.67    5.31
   6   1   2   93.96    6.06
   6   1   3 1251.37   17.79
   6   1   3 1230.37   17.85
   6   1   3 1235.44   18.88
   6   1   3 1261.16   16.80
   6   1   3 1215.32   16.94
   6   1   3 1236.25   17.36
   6   1   4 1769.35   22.97
   6   1   4 1768.64   23.03
   6   1   4 1832.05   22.04
   6   1   4 1791.47   22.15
   6   1   5   46.31    5.56
   6   1   5   53.22    5.18
   6   1   5   56.69    5.88
   6   1   6  794.58   13.04
   6   1   6  802.22   13.73
   6   1   6  759.47   12.73
   6   1   6  854.59   13.21
   6   1   6  874.32   13.60
   6   1   7   52.03    5.00
   6   1   7   47.00    5.60
   6   1   7   45.50    5.34
   6   1   7   55.93    5.99
   6   1   8   58.19    5.47
   6   1   8   46.61    5.61
   6   1   9  574.91   10.14
   6   1   9  533.84   10.59
   6   1  10  111.56    5.59
   6   1  10   91.77    6.08
   6   1  11   97.85    5.26
   6   1  11   83.91    5.80
   6   1  11   97.06    5.67
   6   1  12   19.12    4.00
   6   1  12   18.74    4.61
   6   1  12   18.70    4.31
   6   1  13   77.85    3.92
   6   1  13   74.65    4.63
   6   1  13   71.83    4.28
   6   1  14  333.27    5.14
   6   1  14  354.92    6.28
   6   1  14  344.93    5.83
   6   1  15   22.17    2.25
   6   2 -13  429.43    7.16
   6   2 -12  223.78    6.15
   6   2 -12  170.62    4.57
   6   2 -11  462.13    8.22
   6   2 -11  500.86    9.51
   6   2 -10  206.29    6.63
   6   2 -10  229.90    7.71
   6   2  -9   22.97    5.06
   6   2  -9   23.40    6.17
   6   2  -8  343.57    8.65
   6   2  -8  397.76    9.88
   6   2  -7  586.08   10.95
   6   2  -7  537.05    9.83
   6   2  -6    4.96    5.06
   6   2  -6   13.51    6.10
   6   2  -6    7.18    3.39
   6   2  -6    4.48    4.19
   6   2  -5  664.12   11.16
   6   2  -5  746.52   13.69
   6   2  -5  674.82   11.24
   6   2  -5  694.71   12.08
   6   2  -5  716.16   12.35
   6   2  -4 1161.93   16.76
   6   2  -4 1135.04   15.59
   6   2  -4 1200.50   18.09
   6   2  -4 1126.58   15.74
   6   2  -4 1164.11   16.59
   6   2  -4 1157.02   16.65
   6   2  -3  107.71    5.60
   6   2  -3  102.95    5.19
   6   2  -3  112.51    7.42
   6   2  -3  100.97    4.97
   6   2  -3  110.25    5.73
   6   2  -3  100.29    6.52
   6   2  -2  487.08   10.13
   6   2  -2  456.91    9.21
   6   2  -2  489.75   11.46
   6   2  -2  487.74    9.41
   6   2  -2  476.93   10.00
   6   2  -2  489.94   10.41
   6   2  -1 3654.37   39.16
   6   2  -1 3587.09   37.97
   6   2  -1 3593.09   40.03
   6   2  -1 3646.65   40.37
   6   2  -1 3588.00   38.99
   6   2  -1 3568.30   38.47
   6   2   0  513.98   10.33
   6   2   0  496.28    9.81
   6   2   0  509.78   11.53
   6   2   0  521.12   11.31
   6   2   0  505.61   10.48
   6   2   0  518.86   10.56
   6   2   1   51.50    5.09
   6   2   1   35.53    5.37
   6   2   1   39.13    5.57
   6   2   1   37.85    4.84
   6   2   2 1228.31   17.42
   6   2   2 1217.35   18.38
   6   2   2 1235.76   17.80
   6   2   3 2106.34   26.01
   6   2   3 2154.96   27.15
   6   2   3 2140.61   25.35
   6   2   4  503.11   10.43
   6   2   4  534.53   11.45
   6   2   4  525.45   10.47
   6   2   5   30.54    5.52
   6   2   5   34.53    4.63
   6   2   5   28.13    4.65
   6   2   5   34.28    5.31
   6   2   6  474.59   10.48
   6   2   6  488.47   10.32
   6   2   6  470.37    9.70
   6   2   7   22.28    4.82
   6   2   7   17.34    5.27
   6   2   7   21.49    5.38
   6   2   7   19.87    5.59
   6   2   8  764.37   13.23
   6   2   8  789.93   13.34
   6   2   9  929.00   14.32
   6   2   9  916.22   14.14
   6   2  10  147.39    6.92
   6   2  10  131.70    6.94
   6   2  10  128.65    6.59
   6   2  11  151.20    6.84
   6   2  11  136.33    6.98
   6   2  11  145.64    6.46
   6   2  12  402.89    8.53
   6   2  12  386.99    9.01
   6   2  12  382.22    8.13
   6   2  13  637.00    9.96
   6   2  13  632.73   10.57
   6   2  14   55.65    4.16
   6   2  14   58.62    4.43
   6   2  14   45.69    3.26
   6   2  15   44.08    3.18
   6   2  15   41.55    3.34
   6   3 -14  192.19    3.63
   6   3 -13   46.92    3.98
   6   3 -12  550.07    9.05
   6   3 -12  420.43    7.29
   6   3 -11 1090.20   14.51
   6   3 -11 1097.01   13.70
   6   3 -10   17.47    5.58
   6   3 -10   20.87    3.83
   6   3 -10   20.62    4.95
   6   3 -10   14.81    3.56
   6   3  -9  455.95    9.35
   6   3  -9  446.36    9.40
   6   3  -8  534.94   10.54
   6   3  -8  517.94   10.39
   6   3  -7   84.95    7.06
   6   3  -7   93.04    5.65
   6   3  -7   80.05    5.35
   6   3  -6 1245.68   18.12
   6   3  -6 1173.33   17.37
   6   3  -6 1218.49   16.04
   6   3  -6 1314.44   18.28
   6   3  -6 1190.68   17.60
   6   3  -6 1256.29   16.78
   6   3  -5  583.58   12.08
   6   3  -5  576.01   11.29
   6   3  -5  556.89   10.20
   6   3  -5  551.16   11.14
   6   3  -5  585.48   10.91
   6   3  -4 1911.19   23.85
   6   3  -4 1992.94   24.44
   6   3  -4 1974.58   23.35
   6   3  -4 2038.65   25.25
   6   3  -4 1977.72   24.57
   6   3  -4 1962.96   23.67
   6   3  -3   22.41    5.14
   6   3  -3   29.68    4.88
   6   3  -3   22.31    4.39
   6   3  -3   23.12    4.20
   6   3  -3   31.74    6.59
   6   3  -3   20.70    4.79
   6   3  -3   24.00    4.45
   6   3  -3   21.21    4.88
   6   3  -2  846.89   13.48
   6   3  -2  902.90   14.33
   6   3  -2  878.62   13.42
   6   3  -2  892.45   14.97
   6   3  -2  849.79   13.94
   6   3  -2  887.06   14.32
   6   3  -2  859.92   13.65
   6   3  -2  895.37   14.70
   6   3  -1  147.32    5.79
   6   3  -1  155.27    6.52
   6   3  -1  144.88    6.00
   6   3  -1  142.71    7.15
   6   3  -1  133.29    6.19
   6   3  -1  137.92    6.19
   6   3  -1  134.91    6.44
   6   3  -1  137.93    6.56
   6   3   0   31.38    4.15
   6   3   0   38.66    5.07
   6   3   0   42.89    4.98
   6   3   0   34.30    4.78
   6   3   0   46.08    4.76
   6   3   0   52.05    5.50
   6   3   0   39.29    5.44
   6   3   1 1414.75   18.72
   6   3   1 1485.50   20.04
   6   3   1 1543.51   19.61
   6   3   1 1390.39   17.56
   6   3   1 1383.55   19.30
   6   3   1 1464.19   18.77
   6   3   1 1560.02   20.62
   6   3   2 1151.26   16.19
   6   3   2 1236.26   17.79
   6   3   2 1152.46   15.42
   6   3   2 1159.11   16.93
   6   3   2 1275.11   18.31
   6   3   3   76.55    4.76
   6   3   3   64.05    5.09
   6   3   3   68.50    6.21
   6   3   3   74.17    5.84
   6   3   3   71.66    5.91
   6   3   4  999.74   14.38
   6   3   4 1042.56   16.33
   6   3   4 1046.65   15.39
   6   3   4 1015.21   14.67
   6   3   5 1905.65   24.01
   6   3   5 1887.28   22.72
   6   3   5 1870.40   21.92
   6   3   6  295.31    7.94
   6   3   6  317.95    9.22
   6   3   6  303.06    8.61
   6   3   6  305.70    7.96
   6   3   7  110.91    6.40
   6   3   7  117.06    6.96
   6   3   7  118.24    6.45
   6   3   7  116.57    5.88
   6   3   8 1449.45   18.97
   6   3   8 1444.45   17.83
   6   3   9  213.40    7.66
   6   3   9  216.79    7.38
   6   3  10   50.74    6.67
   6   3  10   59.91    6.15
   6   3  10   53.88    5.24
   6   3  11 1106.83   15.88
   6   3  11 1089.93   15.99
   6   3  12  180.75    7.16
   6   3  12  167.62    7.14
   6   3  12  169.05    5.42
   6   3  13   25.05    4.99
   6   3  13   19.17    3.27
   6   3  14   25.82    4.46
   6   3  15   43.31    3.74
   6   3  15   45.11    3.68
   6   3  16   42.14    2.61
   6   4 -14   21.90    1.91
   6   4 -13  388.70    6.27
   6   4 -12  626.61    9.91
   6   4 -12  518.23    8.70
   6   4 -11  146.66    6.71
   6   4 -11  123.26    5.19
   6   4 -10    7.12    6.25
   6   4 -10    7.31    4.35
   6   4 -10    9.20    3.12
   6   4  -9  908.21   14.61
   6   4  -9  893.35   14.50
   6   4  -8  530.18   11.19
   6   4  -8  534.63    9.80
   6   4  -8  517.48   10.95
   6   4  -7   34.88    7.51
   6   4  -7   34.58    5.63
   6   4  -7   32.60    4.72
   6   4  -7   36.26    5.03
   6   4  -6  775.56   14.66
   6   4  -6  765.58   14.05
   6   4  -6  773.25   12.68
   6   4  -6  734.35   13.80
   6   4  -6  767.02   12.01
   6   4  -5  998.74   16.77
   6   4  -5  953.51   16.26
   6   4  -5  978.22   14.75
   6   4  -5  960.32   16.27
   6   4  -5  957.91   14.12
   6   4  -4 1595.64   22.37
   6   4  -4 1613.18   20.73
   6   4  -4 1583.00   22.16
   6   4  -3  305.20    9.16
   6   4  -3  324.14    8.57
   6   4  -3  307.70    9.08
   6   4  -2  160.19    7.56
   6   4  -2  154.10    6.74
   6   4  -2  152.50    5.32
   6   4  -2  162.33    6.26
   6   4  -2  148.91    6.88
   6   4  -1  118.85    6.77
   6   4  -1  116.70    6.25
   6   4  -1  112.94    5.37
   6   4  -1  123.43    5.92
   6   4  -1  129.33    6.76
   6   4   0   85.96    6.40
   6   4   0   93.24    6.09
   6   4   0   96.89    5.34
   6   4   0   86.43    5.77
   6   4   0  101.99    6.16
   6   4   0   83.92    6.39
   6   4   1 1190.99   18.37
   6   4   1 1184.80   17.37
   6   4   1 1172.81   16.83
   6   4   1 1167.88   16.06
   6   4   1 1209.45   18.44
   6   4   1 1211.09   17.50
   6   4   2 2772.56   33.72
   6   4   2 2887.69   32.83
   6   4   2 2895.11   31.96
   6   4   2 2769.18   31.02
   6   4   2 2812.80   33.72
   6   4   2 2978.44   32.53
   6   4   3  470.43   11.25
   6   4   3  455.53   10.01
   6   4   3  459.55    9.66
   6   4   3  457.28   11.04
   6   4   3  457.04   11.05
   6   4   3  483.08   10.18
   6   4   4 1900.31   23.15
   6   4   4 1785.98   22.42
   6   4   4 1836.83   24.36
   6   4   4 1802.78   22.87
   6   4   4 1924.31   23.08
   6   4   5 1570.79   20.33
   6   4   5 1579.60   21.94
   6   4   5 1576.54   20.16
   6   4   6   21.53    5.25
   6   4   6   18.89    5.55
   6   4   6   22.49    5.91
   6   4   6   19.31    5.03
   6   4   7  275.01    8.12
   6   4   7  247.16    7.93
   6   4   7  253.53    8.81
   6   4   7  257.88    7.40
   6   4   7  255.99    7.32
   6   4   8  443.27   10.00
   6   4   8  442.39    8.98
   6   4   8  456.25    8.80
   6   4   9   88.30    7.20
   6   4   9   91.47    6.50
   6   4   9   85.78    5.08
   6   4  10  869.36   14.41
   6   4  10  877.33   14.31
   6   4  11  551.73   11.03
   6   4  12    5.67    5.31
   6   4  13  232.28    7.00
   6   4  13  232.00    7.17
   6   4  14  627.75    9.92
   6   4  14  668.74   10.27
   6   4  15   20.95    3.47
   6   4  15   22.60    3.18
   6   5 -12    6.93    2.87
   6   5 -11   56.31    4.27
   6   5 -11   54.95    3.30
   6   5 -10  848.77   13.19
   6   5 -10  863.60   11.79
   6   5  -9  452.24   10.03
   6   5  -9  465.53    8.86
   6   5  -8   67.82    7.58
   6   5  -8   62.02    5.96
   6   5  -8   61.20    5.16
   6   5  -8   63.94    5.63
   6   5  -7 6447.61   65.32
   6   5  -7 6564.62   63.37
   6   5  -6  660.11   13.57
   6   5  -6  696.86   12.48
   6   5  -5  493.41   11.91
   6   5  -5  505.49   10.67
   6   5  -5  478.24    8.76
   6   5  -4 1584.35   22.87
   6   5  -4 1533.83   19.05
   6   5  -3 1031.05   17.51
   6   5  -3 1067.09   16.44
   6   5  -3 1029.77   14.44
   6   5  -3 1033.98   14.51
   6   5  -3 1006.77   17.04
   6   5  -2   98.05    7.22
   6   5  -2  111.75    6.73
   6   5  -2  109.31    5.75
   6   5  -2  101.29    5.36
   6   5  -2   98.82    6.74
   6   5  -2  111.65    6.87
   6   5  -1   46.51    5.46
   6   5  -1   53.61    6.15
   6   5  -1   50.10    5.46
   6   5  -1   48.13    5.11
   6   5  -1   46.24    6.11
   6   5  -1   47.53    6.09
   6   5   0  830.63   13.64
   6   5   0  815.14   14.45
   6   5   0  784.91   13.12
   6   5   0  807.82   13.08
   6   5   0  803.57   14.80
   6   5   0  828.85   14.06
   6   5   1  912.42   14.69
   6   5   1  924.58   14.18
   6   5   1  900.97   14.13
   6   5   1  913.21   15.76
   6   5   2   80.23    5.87
   6   5   2   82.96    6.29
   6   5   2   71.67    6.72
   6   5   2   77.80    6.42
   6   5   2   87.30    6.63
   6   5   3 1293.39   20.13
   6   5   3 1291.16   18.15
   6   5   3 1342.68   19.44
   6   5   3 1303.18   17.94
   6   5   3 1304.01   18.31
   6   5   3 1281.54   18.90
   6   5   3 1301.28   19.34
   6   5   3 1321.75   18.56
   6   5   4 1551.63   20.03
   6   5   4 1478.22   19.86
   6   5   4 1515.32   20.23
   6   5   4 1471.56   20.76
   6   5   4 1474.72   18.82
   6   5   4 1585.66   20.38
   6   5   5   59.88    6.10
   6   5   5   46.31    6.04
   6   5   5   48.43    5.55
   6   5   6  220.44    7.55
   6   5   6  228.48    7.95
   6   5   6  204.73    8.02
   6   5   6  215.26    7.35
   6   5   7 1985.82   23.77
   6   5   7 1903.63   24.12
   6   5   7 1933.23   22.87
   6   5   8   12.00    5.02
   6   5   8    5.96    5.63
   6   5   9  452.30   10.23
   6   5   9  453.47    8.31
   6   5  10  737.55   12.19
   6   5  11  122.96    6.30
   6   5  11  131.63    6.49
   6   5  12  188.92    6.24
   6   5  12  207.82    6.76
   6   5  13  379.82    7.41
   6   5  13  426.52    8.20
   6   5  14  162.91    4.51
   6   5  14  175.25    4.91
   6   6 -11  175.13    3.82
   6   6 -11  159.83    3.88
   6   6 -10  408.13    7.00
   6   6 -10  372.27    6.92
   6   6  -9   15.03    3.84
   6   6  -9   13.43    3.66
   6   6  -8  662.65   10.92
   6   6  -8  629.64   10.82
   6   6  -7  270.57    8.18
   6   6  -7  268.46    7.73
   6   6  -7  239.80    5.82
   6   6  -7  249.37    7.44
   6   6  -6   14.63    5.23
   6   6  -6   14.42    5.34
   6   6  -6   18.53    4.42
   6   6  -6   14.07    3.94
   6   6  -6   19.58    4.81
   6   6  -5  147.77    7.31
   6   6  -5  147.78    7.08
   6   6  -5  145.48    5.94
   6   6  -5  134.71    6.48
   6   6  -5  134.64    6.52
   6   6  -4  404.77   10.50
   6   6  -4  418.63   10.22
   6   6  -4  403.66    8.87
   6   6  -4  392.65    9.99
   6   6  -4  395.11    9.72
   6   6  -3   44.20    6.22
   6   6  -3   48.38    5.24
   6   6  -3   55.02    5.60
   6   6  -3   47.85    4.23
   6   6  -3   44.17    5.40
   6   6  -3   46.02    5.35
   6   6  -3   60.70    6.02
   6   6  -2  607.51   13.06
   6   6  -2  621.78   11.46
   6   6  -2  626.36   11.36
   6   6  -2  583.34   10.45
   6   6  -2  604.42   12.65
   6   6  -2  604.12   11.94
   6   6  -2  627.35   11.99
   6   6  -1  744.15   14.35
   6   6  -1  777.85   12.88
   6   6  -1  726.80   13.93
   6   6  -1  758.68   12.91
   6   6  -1  711.16   12.02
   6   6  -1  746.70   14.09
   6   6  -1  737.22   13.19
   6   6  -1  745.88   13.28
   6   6   0   10.86    5.88
   6   6   0   21.19    5.37
   6   6   0   16.37    5.68
   6   6   0   16.80    5.00
   6   6   0   13.93    5.66
   6   6   0   12.58    4.57
   6   6   0   14.47    4.73
   6   6   0   23.62    5.93
   6   6   1  246.28    8.94
   6   6   1  251.56    8.09
   6   6   1  233.92    8.49
   6   6   1  227.71    7.49
   6   6   1  254.92    8.30
   6   6   1  235.05    6.94
   6   6   1  252.77    7.76
   6   6   1  233.48    8.30
   6   6   2  644.72   13.21
   6   6   2  629.61   12.74
   6   6   2  609.34   11.52
   6   6   2  609.57   12.09
   6   6   2  601.11   10.69
   6   6   3  304.37    9.12
   6   6   3  282.83    8.38
   6   6   3  303.95    9.14
   6   6   3  276.39    7.52
   6   6   3  301.60    8.78
   6   6   4   96.22    6.19
   6   6   4   90.75    6.19
   6   6   4   99.16    6.95
   6   6   4   83.28    5.47
   6   6   4   86.26    6.46
   6   6   5  366.00    8.98
   6   6   5  340.57    9.55
   6   6   5  355.89    9.02
   6   6   6  949.30   14.31
   6   6   6  950.74   14.48
   6   6   7 1222.74   15.80
   6   6   7 1256.41   16.76
   6   6   8  530.89    9.16
   6   6   8  544.03   11.07
   6   6   8  542.38    9.61
   6   6   9   94.24    4.99
   6   6   9   95.78    6.04
   6   6   9   89.03    4.35
   6   6  10  217.32    5.60
   6   6  10  247.28    7.09
   6   6  11  142.83    4.26
   6   6  11  166.01    5.90
   6   6  12  374.53    7.34
   6   6  13  218.15    4.54
   6   7  -9    1.17    2.27
   6   7  -8  252.82    5.27
   6   7  -8  282.62    5.88
   6   7  -7  114.84    4.37
   6   7  -7  104.58    3.78
   6   7  -6   29.83    3.77
   6   7  -6   32.09    3.76
   6   7  -5  233.68    6.62
   6   7  -5  241.70    6.35
   6   7  -4  218.67    6.66
   6   7  -4  221.45    7.20
   6   7  -4  210.13    6.59
   6   7  -3    9.84    4.20
   6   7  -3   14.18    4.18
   6   7  -3   18.05    4.86
   6   7  -3    9.24    4.84
   6   7  -2  910.29   13.73
   6   7  -2  873.51   13.22
   6   7  -2  899.78   14.19
   6   7  -2  895.81   13.58
   6   7  -2  884.18   13.67
   6   7  -1  490.61    9.81
   6   7  -1  481.79    9.61
   6   7  -1  470.64   10.12
   6   7  -1  470.66   10.01
   6   7  -1  477.92    9.97
   6   7   0   47.90    5.03
   6   7   0   47.02    5.43
   6   7   0   43.08    5.41
   6   7   0   45.49    5.86
   6   7   0   41.29    4.89
   6   7   0   48.05    5.77
   6   7   1  869.90   13.73
   6   7   1  823.50   13.13
   6   7   1  874.57   14.13
   6   7   1  857.64   14.04
   6   7   2  395.43    9.20
   6   7   2  381.29    8.80
   6   7   2  412.72    9.76
   6   7   2  380.29    9.39
   6   7   3   35.43    5.14
   6   7   3   48.98    6.07
   6   7   4  381.80    8.86
   6   7   4  380.87    8.87
   6   7   4  401.04    9.28
   6   7   5  639.40   11.05
   6   7   5  625.19   11.12
   6   7   5  642.50   11.38
   6   7   6  237.72    6.59
   6   7   6  228.01    7.28
   6   7   6  225.20    6.99
   6   7   7   61.72    4.92
   6   7   7   60.97    5.42
   6   7   7   62.52    4.79
   6   7   8  435.91    8.23
   6   7   8  429.59    8.57
   6   7   9 2186.23   24.26
   6   7   9 2396.55   24.80
   6   7  10    8.58    3.34
   6   8  -5   93.96    3.00
   6   8  -5  111.27    3.28
   6   8  -4    7.59    2.42
   6   8  -4   12.25    2.93
   6   8  -3  109.07    3.72
   6   8  -3  123.87    4.40
   6   8  -2  330.08    6.08
   6   8  -2  372.22    6.99
   6   8  -1   19.91    3.57
   6   8  -1   22.99    3.94
   6   8  -1   15.33    2.78
   6   8  -1   20.13    3.88
   6   8   0  508.11    8.79
   6   8   0  509.08    8.94
   6   8   1  419.19    7.58
   6   8   1  437.43    8.43
   6   8   2    6.03    3.86
   6   8   2    6.01    3.53
   6   8   2    7.76    3.95
   6   8   3  307.12    6.78
   6   8   3  329.11    7.42
   6   8   4  529.75    8.79
   6   8   4  521.72    8.79
   6   8   5   33.85    3.65
   6   8   5   40.27    3.88
   6   8   5   37.40    3.89
   6   8   6  444.36    6.98
   6   8   6  364.24    6.91
   6   8   7 1248.77   14.62
   6   8   7 1099.45   13.94
   6   8   8  331.08    5.40
   7  -1  -4  248.17    4.66
   7  -1  -3  212.60    4.62
   7  -1  -2   74.61    3.40
   7  -1  -1  155.75    4.37
   7  -1  -1  159.88    4.57
   7  -1   0   67.94    3.59
   7  -1   1  151.05    4.48
   7  -1   2  297.18    4.93
   7  -1   2  350.54    6.23
   7  -1   3  392.35    5.76
   7  -1   3  452.65    7.00
   7  -1   4   18.11    1.99
   7  -1   4   19.20    2.68
   7  -1   4   18.95    2.18
   7  -1   5   12.63    2.00
   7   0  -8    4.61    2.74
   7   0  -7  516.91    8.00
   7   0  -6   29.08    3.77
   7   0  -5  111.00    3.79
   7   0  -4  969.47   12.19
   7   0  -3   29.61    3.56
   7   0  -2  297.92    6.54
   7   0  -2  293.38    5.82
   7   0  -1  746.57   11.01
   7   0  -1  751.72   11.91
   7   0  -1  744.05   10.11
   7   0   0  170.65    5.57
   7   0   0  163.27    6.02
   7   0   0  160.06    4.86
   7   0   1   12.10    3.81
   7   0   1    7.66    4.11
   7   0   1   16.32    3.65
   7   0   2  212.50    6.06
   7   0   2  212.26    6.36
   7   0   2  210.27    5.71
   7   0   3  402.66    7.89
   7   0   3  395.08    7.37
   7   0   4    6.60    3.55
   7   0   4    8.57    3.77
   7   0   5  751.92   10.95
   7   0   5  799.36   10.66
   7   0   6  123.45    4.61
   7   0   7   40.82    3.67
   7   0   8  149.79    4.33
   7   0   9   87.26    3.30
   7   0  10   55.03    2.48
   7   1 -10    3.99    2.72
   7   1  -8  158.42    4.97
   7   1  -7   12.62    3.66
   7   1  -7    9.21    2.80
   7   1  -6  206.63    6.22
   7   1  -6  204.34    5.10
   7   1  -5  697.19   11.58
   7   1  -5  702.28    9.95
   7   1  -4  263.04    7.51
   7   1  -4  270.20    6.26
   7   1  -3   33.98    5.48
   7   1  -3   34.62    5.01
   7   1  -3   35.18    4.23
   7   1  -2 1203.10   16.62
   7   1  -2 1154.27   14.82
   7   1  -1  658.58   11.93
   7   1  -1  638.04   10.34
   7   1   0  324.78    8.72
   7   1   0  323.71    7.45
   7   1   1  168.82    5.87
   7   1   1  179.82    7.06
   7   1   1  172.01    5.51
   7   1   1  177.33    6.30
   7   1   2 1405.75   17.74
   7   1   2 1417.06   17.09
   7   1   2 1430.52   17.78
   7   1   3    2.45    3.91
   7   1   3    0.43    3.44
   7   1   3    5.66    4.78
   7   1   4  103.70    4.98
   7   1   4  112.69    5.77
   7   1   5  753.52   11.55
   7   1   6   18.77    3.68
   7   1   6   24.46    4.58
   7   1   7   12.24    3.30
   7   1   7   11.89    4.32
   7   1   8  736.59   10.79
   7   1   9   20.11    2.96
   7   1   9   29.73    3.89
   7   1  10   31.40    2.72
   7   1  12  148.61    3.15
   7   2 -10  558.09    8.31
   7   2  -9  527.88    8.75
   7   2  -8   79.93    5.15
   7   2  -8   75.00    4.03
   7   2  -8   71.47    3.41
   7   2  -7  654.07   10.68
   7   2  -7  666.51    9.81
   7   2  -6  122.02    6.46
   7   2  -6  114.60    5.50
   7   2  -6  109.26    4.61
   7   2  -5  170.20    7.04
   7   2  -5  164.37    6.46
   7   2  -5  161.23    5.35
   7   2  -4  140.70    7.13
   7   2  -4  131.91    6.12
   7   2  -4  132.40    5.33
   7   2  -3  292.55    8.78
   7   2  -3  284.91    8.10
   7   2  -3  278.08    7.15
   7   2  -2 1061.74   15.06
   7   2  -2 1035.31   15.66
   7   2  -1   25.33    5.71
   7   2  -1   21.30    5.27
   7   2   0  163.06    7.16
   7   2   0  177.96    6.54
   7   2   0  174.09    6.85
   7   2   0  175.61    7.29
   7   2   1 2453.68   29.00
   7   2   1 2432.95   27.54
   7   2   1 2390.25   27.16
   7   2   1 2396.16   27.61
   7   2   2  875.87   14.50
   7   2   2  881.68   13.55
   7   2   2  862.19   13.50
   7   2   3  566.07   10.62
   7   2   3  568.78   10.59
   7   2   3  549.75   10.62
   7   2   4 1201.68   16.50
   7   2   4 1215.89   16.48
   7   2   5  101.85    5.62
   7   2   6  615.28    9.94
   7   2   7  368.84    7.67
   7   2   8  153.60    5.85
   7   2   8  148.54    6.04
   7   2   9   62.99    4.61
   7   2   9   51.27    4.55
   7   2   9   62.33    4.60
   7   2  10  382.46    7.02
   7   2  10  359.89    6.97
   7   2  10  373.41    7.37
   7   2  11  457.69    7.02
   7   2  11  440.03    7.22
   7   2  12   15.39    2.52
   7   2  12   11.97    2.76
   7   2  12   10.41    2.50
   7   3 -11   62.14    2.40
   7   3 -10  479.41    7.25
   7   3  -9  253.29    5.80
   7   3  -9  231.36    5.54
   7   3  -8  112.84    5.15
   7   3  -8  102.67    4.55
   7   3  -7  776.18   10.97
   7   3  -7  835.89   12.29
   7   3  -6  223.55    5.80
   7   3  -6  233.62    6.71
   7   3  -5  173.52    5.42
   7   3  -5  182.87    7.20
   7   3  -5  168.48    5.44
   7   3  -5  172.46    6.29
   7   3  -5  172.16    6.40
   7   3  -4  372.54    9.27
   7   3  -4  353.64    8.43
   7   3  -4  351.90    8.42
   7   3  -3   31.83    4.26
   7   3  -3   29.90    4.39
   7   3  -3   32.98    4.87
   7   3  -3   29.42    5.56
   7   3  -2  200.73    6.50
   7   3  -2  197.83    6.66
   7   3  -2  201.25    7.11
   7   3  -2  192.70    7.29
   7   3  -1   16.63    5.41
   7   3  -1   19.79    4.27
   7   3  -1   13.75    4.52
   7   3  -1   20.37    4.93
   7   3   0  519.54   10.46
   7   3   0  545.40   10.80
   7   3   1  941.30   14.80
   7   3   1  908.05   14.08
   7   3   2  155.19    7.09
   7   3   3 1144.21   16.79
   7   3   3 1125.10   16.14
   7   3   3 1086.68   15.71
   7   3   4  126.79    5.54
   7   3   4  142.65    6.92
   7   3   4  134.86    6.58
   7   3   5 1240.40   17.43
   7   3   5 1278.38   16.78
   7   3   6   62.74    4.89
   7   3   6   61.45    5.75
   7   3   6   62.66    5.82
   7   3   6   60.67    5.39
   7   3   7  851.19   12.99
   7   3   7  866.97   12.19
   7   3   8   38.73    5.60
   7   3   8   26.37    4.79
   7   3   8   32.88    4.79
   7   3   9  651.46   10.69
   7   3   9  629.59   10.16
   7   3  10  570.82    9.71
   7   3  10  552.34    9.45
   7   3  10  543.84    8.77
   7   3  11  322.81    6.89
   7   3  11  315.06    6.79
   7   3  12   12.60    3.51
   7   3  12   16.24    3.45
   7   3  12    8.01    2.21
   7   3  13  646.96    8.15
   7   3  13  604.64    8.24
   7   4 -11  138.26    3.60
   7   4 -10  142.47    3.72
   7   4 -10  160.96    4.51
   7   4  -9   69.99    3.48
   7   4  -9   73.78    4.09
   7   4  -8  613.51    9.65
   7   4  -8  643.16   10.35
   7   4  -7  455.12    8.52
   7   4  -7  439.59    7.45
   7   4  -7  458.40    9.10
   7   4  -6   10.53    4.02
   7   4  -6    8.66    3.99
   7   4  -6    8.05    3.46
   7   4  -6    8.61    3.51
   7   4  -6    9.00    4.30
   7   4  -5  395.13    8.73
   7   4  -5  392.57    7.77
   7   4  -5  383.42    8.62
   7   4  -5  388.14    9.15
   7   4  -5  381.91    8.10
   7   4  -4    5.97    4.88
   7   4  -4    9.08    4.50
   7   4  -4    7.69    4.04
   7   4  -4   16.39    4.03
   7   4  -4   13.52    4.95
   7   4  -3  512.05   10.42
   7   4  -3  515.53    9.74
   7   4  -3  504.72   10.31
   7   4  -3  513.89    9.95
   7   4  -3  534.90   11.01
   7   4  -2  891.35   14.24
   7   4  -2  873.73   13.30
   7   4  -2  841.78   13.38
   7   4  -2  887.74   14.64
   7   4  -1  428.00    9.92
   7   4  -1  402.64    9.18
   7   4  -1  436.06   10.28
   7   4   0   84.98    5.93
   7   4   0   77.41    6.05
   7   4   0   87.52    6.33
   7   4   1   24.46    5.45
   7   4   1   22.45    4.23
   7   4   2 1296.69   16.67
   7   4   2 1448.98   18.65
   7   4   3  260.47    6.83
   7   4   3  280.73    8.37
   7   4   3  272.74    7.88
   7   4   4  625.90   10.46
   7   4   4  646.34   11.39
   7   4   5  318.58    8.10
   7   4   5  309.41    7.99
   7   4   6 1003.82   14.25
   7   4   6 1022.75   13.96
   7   4   7   51.25    5.33
   7   4   7   52.25    4.97
   7   4   7   53.93    5.03
   7   4   8  160.37    6.18
   7   4   8  160.39    5.53
   7   4   8  160.37    5.41
   7   4   9  861.02   12.53
   7   4   9  785.36   10.95
   7   4  10  275.85    7.16
   7   4  11   23.73    4.26
   7   4  12  446.22    7.81
   7   4  13   36.68    3.01
   7   5 -10    8.16    2.21
   7   5 -10    7.17    2.47
   7   5  -9   88.08    3.85
   7   5  -9   79.22    2.82
   7   5  -9   87.98    4.11
   7   5  -8  424.99    8.03
   7   5  -8  423.16    6.89
   7   5  -8  429.01    8.21
   7   5  -7   42.64    4.40
   7   5  -7   43.17    3.72
   7   5  -6   15.68    4.43
   7   5  -6   17.93    3.77
   7   5  -5 2236.22   26.65
   7   5  -5 2255.94   24.53
   7   5  -4  159.50    6.89
   7   5  -4  163.77    6.15
   7   5  -4  158.39    6.38
   7   5  -4  169.05    5.94
   7   5  -4  160.81    6.86
   7   5  -3  691.88   12.59
   7   5  -3  667.79   11.60
   7   5  -3  670.21   12.38
   7   5  -3  653.48   10.89
   7   5  -3  686.12   12.70
   7   5  -2  918.76   15.16
   7   5  -2  947.31   14.29
   7   5  -2  895.52   13.37
   7   5  -2  930.00   15.21
   7   5  -1  751.51   13.56
   7   5  -1  768.56   12.84
   7   5  -1  773.55   13.72
   7   5   0   16.96    5.34
   7   5   0   26.59    5.65
   7   5   0   13.26    4.20
   7   5   0   13.89    5.57
   7   5   0   16.60    5.36
   7   5   1  252.32    8.38
   7   5   1  231.24    6.63
   7   5   1  239.35    8.24
   7   5   1  249.86    8.33
   7   5   2  946.89   13.58
   7   5   2  977.23   15.67
   7   5   2  979.52   14.39
   7   5   3  866.49   13.12
   7   5   3  873.50   14.77
   7   5   3  904.21   13.38
   7   5   4  265.23    7.40
   7   5   4  267.62    8.60
   7   5   4  270.40    7.28
   7   5   4  278.85    7.65
   7   5   5   52.38    5.18
   7   5   5   56.34    5.91
   7   5   5   58.32    4.71
   7   5   5   57.39    5.27
   7   5   6  312.98    7.84
   7   5   6  307.37    8.52
   7   5   6  293.22    6.56
   7   5   6  313.28    7.58
   7   5   7   64.99    5.19
   7   5   7   66.64    4.82
   7   5   8  416.59    9.10
   7   5   8  435.02    8.73
   7   5   8  432.81    7.58
   7   5   9  307.07    7.67
   7   5   9  324.21    7.46
   7   5  10  583.88    9.60
   7   5  10  595.58    9.86
   7   5  11  198.05    5.47
   7   5  11  204.49    5.86
   7   5  12  141.64    4.12
   7   6  -9  139.96    3.42
   7   6  -8   66.62    3.57
   7   6  -8   69.43    3.10
   7   6  -8   68.42    3.39
   7   6  -7  181.39    5.46
   7   6  -7  177.56    4.86
   7   6  -7  181.18    5.17
   7   6  -6 1118.36   15.08
   7   6  -6 1095.41   14.13
   7   6  -6 1105.43   14.53
   7   6  -5  232.07    6.90
   7   6  -5  230.69    6.37
   7   6  -5  213.22    5.29
   7   6  -5  230.58    6.45
   7   6  -4   23.23    4.07
   7   6  -4   26.17    4.61
   7   6  -4   24.77    4.38
   7   6  -3   65.73    5.28
   7   6  -3   58.32    4.03
   7   6  -3   52.77    4.61
   7   6  -3   54.61    4.60
   7   6  -3   59.69    4.91
   7   6  -2  704.52   11.91
   7   6  -2  674.90   10.26
   7   6  -2  662.15   11.03
   7   6  -2  701.23   11.89
   7   6  -1    2.55    4.66
   7   6  -1    8.30    3.96
   7   6  -1   -4.77    4.38
   7   6  -1    3.31    4.33
   7   6   0  138.55    5.85
   7   6   0  152.69    5.77
   7   6   0  136.36    6.02
   7   6   1 1766.85   21.18
   7   6   1 1780.31   20.95
   7   6   1 1746.43   21.23
   7   6   1 1771.99   19.79
   7   6   2   56.71    5.10
   7   6   2   58.27    5.09
   7   6   2   52.67    5.10
   7   6   3  541.13   10.10
   7   6   3  551.60    9.98
   7   6   3  523.94    9.83
   7   6   4  351.03    8.21
   7   6   4  360.51    8.21
   7   6   5   45.32    5.03
   7   6   5   34.66    5.00
   7   6   6    5.48    4.08
   7   6   6   10.27    4.36
   7   6   6   10.34    4.58
   7   6   7  129.96    5.22
   7   6   7  137.02    5.68
   7   6   7  135.76    4.97
   7   6   8  231.61    5.66
   7   6   8  246.79    6.56
   7   6   8  230.98    5.23
   7   6   9   30.19    3.47
   7   6  10   86.61    3.24
   7   6  11  369.20    6.45
   7   7  -6   33.72    2.83
   7   7  -5  209.25    5.07
   7   7  -5  213.29    5.21
   7   7  -4   34.43    3.58
   7   7  -4   35.70    2.73
   7   7  -4   32.25    2.90
   7   7  -3   50.65    3.98
   7   7  -3   49.45    3.38
   7   7  -3   43.91    3.62
   7   7  -2  452.26    8.56
   7   7  -2  442.29    7.52
   7   7  -1   81.93    4.49
   7   7   0  511.79    8.59
   7   7   0  560.38    9.18
   7   7   1   75.22    4.40
   7   7   1   78.75    4.69
   7   7   2   85.11    4.70
   7   7   2   88.46    4.97
   7   7   3  812.23   11.80
   7   7   3  828.57   11.95
   7   7   4   38.97    4.08
   7   7   4   38.07    4.40
   7   7   5   20.26    3.90
   7   7   5   13.84    4.13
   7   7   6  218.50    5.92
   7   7   6  213.67    5.27
   7   7   7   25.49    2.79
   7   7   8   83.57    3.86
   7   7   9  112.84    3.64
   7   8  -1  113.19    3.16
   7   8  -1   95.65    3.05
   7   8   0  272.67    4.91
   7   8   0  249.11    4.78
   7   8   1    0.65    2.55
   7   8   2  181.74    4.35
   7   8   3  559.89    7.77
   7   8   4    8.28    2.21
   8   1  -3  269.31    4.01
   8   1  -2   73.93    2.65
   8   1  -1   64.53    2.79
   8   1   0  421.01    6.19
   8   1   1   62.46    3.08
   8   1   2   35.94    2.85
   8   1   3  332.39    5.50
   8   1   4  278.92    4.88
   8   1   5   28.48    2.54
   8   1   6   72.54    2.64
   8   1   7  374.02    4.94
   8   2  -6    1.74    1.82
   8   2  -5  189.66    3.75
   8   2  -5  216.85    4.11
   8   2  -4  267.54    4.76
   8   2  -4  293.42    5.13
   8   2  -3   50.10    2.94
   8   2  -3   54.35    3.32
   8   2  -2   42.66    2.99
   8   2  -2   45.29    3.53
   8   2  -1   40.42    3.07
   8   2  -1   38.65    3.57
   8   2   0  284.27    5.51
   8   2   0  286.90    5.96
   8   2   1   93.04    3.69
   8   2   1   92.36    4.32
   8   2   2  601.67    8.42
   8   2   2  611.13    9.00
   8   2   3  875.11   11.30
   8   2   4  155.01    4.07
   8   2   4  166.21    4.84
   8   2   5  195.07    4.25
   8   2   5  214.18    5.11
   8   2   6  450.49    6.21
   8   2   6  500.10    7.29
   8   3  -8  152.56    3.06
   8   3  -7  130.29    3.30
   8   3  -6  181.49    4.20
   8   3  -5  187.59    4.69
   8   3  -4  145.17    4.62
   8   3  -4  160.40    4.67
   8   3  -3  128.84    4.59
   8   3  -3  135.35    4.67
   8   3  -2   76.46    4.23
   8   3  -2   82.03    4.48
   8   3  -1  220.40    5.83
   8   3  -1  226.91    5.95
   8   3   0   55.95    4.16
   8   3   0   58.45    4.48
   8   3   1  393.49    7.62
   8   3   1  387.21    7.60
   8   3   2   28.42    3.99
   8   3   3   28.02    3.86
   8   3   4  449.51    8.05
   8   3   5   19.74    3.79
   8   3   6   49.78    3.90
   8   3   6   50.84    3.90
   8   3   7   91.58    3.94
   8   3   7   90.10    3.86
   8   3   8  363.19    5.83
   8   3   8  349.12    5.77
   8   3   9  221.57    4.08
   8   3   9  198.68    3.74
   8   4  -7   22.38    2.21
   8   4  -6  259.32    5.17
   8   4  -5  263.76    5.60
   8   4  -4  153.18    4.83
   8   4  -3  293.62    6.80
   8   4  -3  298.43    6.39
   8   4  -2  640.35   10.31
   8   4  -2  637.76    9.76
   8   4  -1   17.19    4.14
   8   4  -1   14.65    4.11
   8   4   0  175.01    6.04
   8   4   0  170.80    5.71
   8   4   0  166.17    5.77
   8   4   1   53.32    4.79
   8   4   1   53.24    4.57
   8   4   1   57.93    4.76
   8   4   2   14.63    4.29
   8   4   2   14.49    4.21
   8   4   3  187.35    6.16
   8   4   3  194.96    5.89
   8   4   3  186.22    5.79
   8   4   4   43.90    4.54
   8   4   4   48.50    4.33
   8   4   4   47.50    4.28
   8   4   5   11.12    2.88
   8   4   5   16.13    3.72
   8   4   6   55.93    3.32
   8   4   6   62.86    3.80
   8   4   7  148.82    4.18
   8   4   7  159.58    4.28
   8   4   8  694.60    8.88
   8   4   8  655.17    8.27
   8   4   9  143.15    4.01
   8   4   9  122.02    3.29
   8   4  10  137.87    3.27
   8   5  -7   96.99    2.89
   8   5  -7  106.76    3.03
   8   5  -6   21.80    2.67
   8   5  -6   23.28    2.59
   8   5  -5   58.93    3.51
   8   5  -5   63.52    3.41
   8   5  -4   40.30    3.72
   8   5  -4   47.71    3.58
   8   5  -4   44.87    3.13
   8   5  -3  877.14   12.05
   8   5  -3  863.58   11.08
   8   5  -2   99.87    4.91
   8   5  -2  106.91    4.70
   8   5  -2  106.20    4.56
   8   5  -1  168.44    5.69
   8   5  -1  174.94    5.35
   8   5  -1  161.87    5.36
   8   5   0 1784.64   20.75
   8   5   0 1808.58   19.79
   8   5   1  150.93    5.73
   8   5   1  155.54    5.16
   8   5   1  144.33    5.36
   8   5   2   70.39    4.93
   8   5   2   70.28    4.11
   8   5   3  311.19    5.68
   8   5   3  317.90    7.37
   8   5   3  321.37    6.39
   8   5   4   19.26    3.89
   8   5   4   19.74    3.06
   8   5   4   16.97    4.00
   8   5   4   20.42    3.27
   8   5   5  190.24    4.70
   8   5   5  201.66    5.15
   8   5   6   45.77    4.26
   8   5   6   43.49    3.34
   8   5   6   45.31    3.40
   8   5   7  342.01    6.52
   8   5   7  326.48    5.93
   8   5   8  142.37    4.28
   8   5   8  129.80    3.90
   8   5   9    7.30    2.49
   8   5   9    8.78    2.23
   8   6  -4  310.39    4.93
   8   6  -3  188.19    4.25
   8   6  -3  192.84    3.95
   8   6  -3  193.63    4.26
   8   6  -2    3.07    2.93
   8   6  -2    0.68    2.67
   8   6  -2    2.34    2.39
   8   6  -1  525.39    7.87
   8   6  -1  506.79    6.85
   8   6  -1  504.60    7.90
   8   6   0  740.03    9.96
   8   6   0  708.98    8.58
   8   6   0  741.41   10.08
   8   6   1    3.25    3.46
   8   6   1    2.54    2.30
   8   6   1    1.61    3.09
   8   6   2  126.18    3.66
   8   6   2  132.11    4.44
   8   6   3  515.64    7.35
   8   6   4   30.64    2.87
   8   6   4   29.40    3.41
   8   6   5  169.81    4.43
   8   6   5  181.75    4.41
   8   6   5  176.29    4.55
   8   6   6   26.70    2.78
   8   6   6   28.92    2.89
   8   6   6   27.22    2.55
   8   6   7   40.39    2.72
   8   7   0  157.32    3.72
   8   7   1   46.39    2.81
   8   7   3   12.40    2.36


TITL s5267r in P1
REM P1 (#1 in standard setting)
CELL 1.54184   7.079134   7.217207  16.488150  85.7755  87.5021  64.4373
ZERR    2.00   0.000212   0.000247   0.000569   0.0028   0.0026   0.0032
LATT -1
SFAC C H O F Cr
UNIT 34.00 22.00 10.00 2.00 2.00
TREF
HKLF 4
END
_computing_structure_solution     'SHELXT 2014/4 (Sheldrick, 2014)'
;
_shelx_hkl_checksum              21560
_olex2_submission_special_instructions 'No special instructions were received'
_oxdiff_exptl_absorpt_empirical_details
;
Empirical correction (ABSPACK) includes:
- Absorption correction using spherical harmonics
- Frame scaling
;
_oxdiff_exptl_absorpt_empirical_full_max 1.563
_oxdiff_exptl_absorpt_empirical_full_min 0.681
loop_
_space_group_symop_operation_xyz
'x, y, z'
loop_
_atom_site_label
_atom_site_type_symbol
_atom_site_fract_x
_atom_site_fract_y
_atom_site_fract_z
_atom_site_U_iso_or_equiv
_atom_site_adp_type
_atom_site_occupancy
_atom_site_site_symmetry_order
_atom_site_calc_flag
_atom_site_refinement_flags_posn
_atom_site_refinement_flags_occupancy
_atom_site_disorder_assembly
_atom_site_disorder_group
Cr1A Cr 0.26611(8) 0.87875(8) 0.35089(4) 0.0246(3) Uani 1 1 d . . . .
Cr1 Cr 0.73541(8) 0.11547(8) 0.65409(4) 0.0234(3) Uani 1 1 d . . . .
C14A C 0.7184(9) 0.3895(9) 0.0852(4) 0.0264(12) Uani 1 1 d . . . .
H14A H 0.7042 0.3512 0.0340 0.032 Uiso 1 1 calc R . . .
C7 C 1.0063(10) 0.1911(11) 0.6447(4) 0.0390(15) Uani 1 1 d . . . .
H7 H 1.1269 0.1342 0.6127 0.047 Uiso 1 1 calc R . . .
O4 O -0.0587(6) 0.7860(7) 1.0152(3) 0.0326(10) Uani 1 1 d . . . .
O3A O 0.5034(7) 1.0898(8) 0.2598(3) 0.0446(12) Uani 1 1 d . . . .
O4A O 1.0681(7) 0.2103(7) -0.0107(3) 0.0334(10) Uani 1 1 d . . . .
O3 O 0.4092(8) 0.2265(9) 0.5267(3) 0.0484(12) Uani 1 1 d . . . .
O2A O 0.0004(7) 1.2768(8) 0.4253(3) 0.0429(11) Uani 1 1 d . . . .
O5 O -0.2690(7) 0.7425(7) 0.9284(3) 0.0386(10) Uani 1 1 d . . . .
C1 C 0.5995(9) -0.0234(9) 0.7109(4) 0.0280(12) Uani 1 1 d . . . .
C16A C 1.1071(9) 0.2568(9) 0.0611(4) 0.0298(12) Uani 1 1 d . . . .
C2 C 0.9005(9) -0.1263(9) 0.6053(4) 0.0305(13) Uani 1 1 d . . . .
F2L F 0.194(3) 0.886(4) 0.1564(12) 0.029(7) Uani 0.149(13) 1 d . P A 2
C9A C 0.1907(9) 0.8041(10) 0.2335(4) 0.0293(12) Uani 1 1 d . . . .
H9A H 0.1963 0.8641 0.1821 0.035 Uiso 0.851(13) 1 calc R P A 1
C5A C 0.3559(11) 0.5467(10) 0.3414(4) 0.0326(13) Uani 1 1 d . . . .
H5A H 0.4710 0.4321 0.3621 0.039 Uiso 0.149(13) 1 calc R P A 2
C4 C 0.6337(8) 0.3645(8) 0.7410(3) 0.0248(11) Uani 1 1 d . . . .
C6A C 0.1720(11) 0.6300(11) 0.3899(4) 0.0391(15) Uani 1 1 d . . . .
H6A H 0.1670 0.5726 0.4419 0.047 Uiso 1 1 calc R . . .
C1A C 0.4516(11) 0.8069(9) 0.4358(4) 0.0386(15) Uani 1 1 d . . . .
C13A C 0.9152(9) 0.3545(9) 0.1119(4) 0.0287(12) Uani 1 1 d . . . .
O1 O 0.5113(7) -0.1064(7) 0.7454(3) 0.0395(11) Uani 1 1 d . . . .
C12A C 0.9361(9) 0.4108(10) 0.1889(4) 0.0326(13) Uani 1 1 d . . . .
H12A H 1.0676 0.3873 0.2070 0.039 Uiso 1 1 calc R . . .
O2 O 1.0081(8) -0.2800(8) 0.5765(3) 0.0483(12) Uani 1 1 d . . . .
C10A C 0.5628(9) 0.5376(9) 0.2119(4) 0.0269(12) Uani 1 1 d . . . .
C10 C 0.4438(8) 0.4564(8) 0.7932(4) 0.0248(11) Uani 1 1 d . . . .
C11A C 0.7601(10) 0.5023(10) 0.2390(4) 0.0320(13) Uani 1 1 d . . . .
H11A H 0.7744 0.5396 0.2904 0.038 Uiso 1 1 calc R . . .
C8A C 0.0056(10) 0.8874(12) 0.2789(4) 0.0394(15) Uani 1 1 d . . . .
H8A H -0.1115 0.9987 0.2576 0.047 Uiso 1 1 calc R . . .
C15A C 0.5434(10) 0.4812(10) 0.1344(4) 0.0305(12) Uani 1 1 d . . . .
H15A H 0.4121 0.5054 0.1159 0.037 Uiso 1 1 calc R . . .
C15 C 0.4631(9) 0.5147(9) 0.8695(4) 0.0267(12) Uani 1 1 d . . . .
H15 H 0.5936 0.4957 0.8871 0.032 Uiso 1 1 calc R . . .
F1L F 0.455(4) 0.602(4) 0.6311(16) 0.031(9) Uani 0.113(12) 1 d . P B 2
O5A O 1.2812(8) 0.2208(11) 0.0826(4) 0.0627(17) Uani 1 1 d . . . .
C17 C -0.2395(10) 0.8893(10) 1.0667(4) 0.0361(14) Uani 1 1 d . . . .
H17D H -0.3335 1.0158 1.0393 0.054 Uiso 1 1 calc GR . . .
H17E H -0.1953 0.9184 1.1166 0.054 Uiso 1 1 calc GR . . .
H17F H -0.3098 0.8024 1.0785 0.054 Uiso 1 1 calc GR . . .
C4A C 0.3710(10) 0.6312(10) 0.2629(4) 0.0302(13) Uani 1 1 d . . . .
C13 C 0.0919(9) 0.6321(8) 0.8934(3) 0.0253(11) Uani 1 1 d . . . .
C12 C 0.0727(9) 0.5746(9) 0.8168(4) 0.0300(12) Uani 1 1 d . . . .
H12 H -0.0583 0.5956 0.7989 0.036 Uiso 1 1 calc R . . .
C17A C 1.2515(10) 0.1026(10) -0.0618(4) 0.0352(14) Uani 1 1 d . . . .
H17A H 1.2092 0.0623 -0.1095 0.053 Uiso 1 1 calc GR . . .
H17B H 1.3492 -0.0176 -0.0320 0.053 Uiso 1 1 calc GR . . .
H17C H 1.3168 0.1921 -0.0777 0.053 Uiso 1 1 calc GR . . .
C6 C 1.0001(9) 0.1034(11) 0.7241(4) 0.0341(14) Uani 1 1 d . . . .
H6 H 1.1152 -0.0112 0.7448 0.041 Uiso 1 1 calc R . . .
C11 C 0.2454(9) 0.4870(9) 0.7671(4) 0.0281(12) Uani 1 1 d . . . .
H11 H 0.2311 0.4479 0.7161 0.034 Uiso 1 1 calc R . . .
C5 C 0.8164(9) 0.1940(9) 0.7703(4) 0.0281(12) Uani 1 1 d . . . .
H5 H 0.8138 0.1396 0.8231 0.034 Uiso 0.113(12) 1 calc R P B 2
C9 C 0.6458(11) 0.4447(9) 0.6613(4) 0.0314(12) Uani 1 1 d . . . .
H9 H 0.5284 0.5542 0.6392 0.038 Uiso 0.887(12) 1 calc R P B 1
O1A O 0.5647(10) 0.7627(9) 0.4891(4) 0.0640(17) Uani 1 1 d . . . .
C2A C 0.1017(9) 1.1238(10) 0.3976(4) 0.0326(14) Uani 1 1 d . . . .
F2R F 0.5276(8) 0.3837(7) 0.3725(3) 0.0403(14) Uani 0.851(13) 1 d . P A 1
C3 C 0.5385(10) 0.1820(10) 0.5745(4) 0.0340(14) Uani 1 1 d . . . .
C8 C 0.8318(11) 0.3627(10) 0.6143(4) 0.0367(14) Uani 1 1 d . . . .
H8 H 0.8383 0.4229 0.5631 0.044 Uiso 1 1 calc R . . .
F1R F 0.8118(6) 0.1113(6) 0.8458(2) 0.0341(12) Uani 0.887(12) 1 d . P B 1
C16 C -0.0999(9) 0.7263(9) 0.9461(4) 0.0287(12) Uani 1 1 d . . . .
C3A C 0.4114(9) 1.0082(10) 0.2954(4) 0.0304(13) Uani 1 1 d . . . .
C7A C -0.0010(11) 0.7989(13) 0.3585(4) 0.0422(16) Uani 1 1 d . . . .
H7A H -0.1227 0.8550 0.3899 0.051 Uiso 1 1 calc R . . .
C14 C 0.2888(9) 0.6013(9) 0.9197(4) 0.0280(12) Uani 1 1 d . . . .
H14 H 0.3030 0.6390 0.9710 0.034 Uiso 1 1 calc R . . .
loop_
_atom_site_aniso_label
_atom_site_aniso_U_11
_atom_site_aniso_U_22
_atom_site_aniso_U_33
_atom_site_aniso_U_23
_atom_site_aniso_U_13
_atom_site_aniso_U_12
Cr1A 0.0222(5) 0.0308(5) 0.0238(5) -0.0024(4) 0.0012(3) -0.0143(4)
Cr1 0.0212(4) 0.0259(5) 0.0249(5) -0.0025(3) 0.0028(3) -0.0120(4)
C14A 0.031(3) 0.031(3) 0.023(3) -0.003(2) 0.001(2) -0.018(2)
C7 0.034(3) 0.053(4) 0.043(4) -0.016(3) 0.013(3) -0.031(3)
O4 0.025(2) 0.037(2) 0.032(2) -0.0095(18) 0.0034(17) -0.0083(17)
O3A 0.036(3) 0.051(3) 0.055(3) 0.005(2) 0.003(2) -0.028(2)
O4A 0.030(2) 0.038(2) 0.032(2) -0.0086(18) 0.0025(18) -0.0142(18)
O3 0.042(2) 0.059(3) 0.046(3) 0.004(2) -0.014(2) -0.024(2)
O2A 0.037(2) 0.044(3) 0.043(3) -0.014(2) 0.007(2) -0.013(2)
O5 0.027(2) 0.042(2) 0.049(3) -0.0153(19) 0.0035(18) -0.0157(18)
C1 0.022(3) 0.026(3) 0.033(3) -0.002(2) -0.001(2) -0.008(2)
C16A 0.029(3) 0.026(3) 0.031(3) -0.004(2) -0.002(2) -0.009(2)
C2 0.029(3) 0.035(3) 0.030(3) -0.005(3) 0.004(2) -0.015(3)
F2L 0.024(11) 0.046(14) 0.014(11) -0.003(9) 0.000(8) -0.010(10)
C9A 0.029(3) 0.039(3) 0.025(3) -0.004(2) -0.002(2) -0.019(3)
C5A 0.044(3) 0.034(3) 0.027(3) -0.002(2) 0.004(2) -0.024(3)
C4 0.026(3) 0.026(3) 0.027(3) -0.002(2) 0.003(2) -0.015(2)
C6A 0.048(4) 0.047(4) 0.033(3) -0.005(3) 0.012(3) -0.032(3)
C1A 0.045(4) 0.028(3) 0.042(4) 0.001(3) -0.012(3) -0.015(3)
C13A 0.029(3) 0.023(3) 0.030(3) 0.001(2) -0.003(2) -0.008(2)
O1 0.031(2) 0.040(2) 0.052(3) 0.003(2) 0.007(2) -0.021(2)
C12A 0.025(3) 0.033(3) 0.034(3) -0.006(2) -0.005(2) -0.005(2)
O2 0.046(3) 0.043(3) 0.050(3) -0.016(2) 0.017(2) -0.013(2)
C10A 0.030(3) 0.027(3) 0.025(3) 0.001(2) 0.002(2) -0.014(2)
C10 0.027(3) 0.022(2) 0.027(3) 0.001(2) -0.001(2) -0.012(2)
C11A 0.036(3) 0.035(3) 0.024(3) -0.002(2) -0.006(2) -0.013(3)
C8A 0.026(3) 0.059(4) 0.042(4) -0.008(3) -0.001(3) -0.026(3)
C15A 0.033(3) 0.041(3) 0.024(3) -0.002(2) -0.002(2) -0.022(3)
C15 0.024(3) 0.030(3) 0.029(3) -0.003(2) 0.000(2) -0.015(2)
F1L 0.029(16) 0.023(15) 0.023(15) 0.002(11) 0.000(11) 0.004(12)
O5A 0.029(3) 0.091(4) 0.053(3) -0.034(3) -0.004(2) -0.007(3)
C17 0.032(3) 0.035(3) 0.039(3) -0.013(3) 0.007(3) -0.011(3)
C4A 0.038(3) 0.038(3) 0.023(3) -0.005(2) 0.003(2) -0.024(3)
C13 0.026(3) 0.022(3) 0.026(3) -0.001(2) -0.001(2) -0.009(2)
C12 0.026(3) 0.032(3) 0.032(3) -0.002(2) -0.008(2) -0.012(2)
C17A 0.030(3) 0.034(3) 0.036(3) -0.010(3) 0.007(2) -0.007(3)
C6 0.022(3) 0.045(3) 0.039(4) -0.010(3) 0.003(2) -0.017(3)
C11 0.027(3) 0.028(3) 0.026(3) -0.005(2) -0.003(2) -0.008(2)
C5 0.027(3) 0.035(3) 0.029(3) -0.003(2) -0.001(2) -0.019(2)
C9 0.044(3) 0.025(3) 0.030(3) -0.003(2) 0.003(3) -0.020(3)
O1A 0.079(4) 0.048(3) 0.064(4) 0.007(3) -0.046(3) -0.024(3)
C2A 0.026(3) 0.045(4) 0.029(3) 0.000(3) 0.001(2) -0.018(3)
F2R 0.054(3) 0.033(2) 0.033(2) 0.0044(17) 0.0022(18) -0.020(2)
C3 0.036(3) 0.034(3) 0.035(3) -0.003(3) 0.004(3) -0.018(3)
C8 0.054(4) 0.039(4) 0.032(3) -0.008(3) 0.013(3) -0.035(3)
F1R 0.033(2) 0.036(2) 0.031(2) 0.0032(16) -0.0036(16) -0.0123(17)
C16 0.026(3) 0.025(3) 0.034(3) -0.001(2) -0.002(2) -0.009(2)
C3A 0.020(3) 0.036(3) 0.035(3) -0.008(3) 0.000(2) -0.011(2)
C7A 0.037(3) 0.068(5) 0.039(4) -0.017(3) 0.014(3) -0.039(4)
C14 0.031(3) 0.030(3) 0.026(3) -0.002(2) -0.003(2) -0.016(2)
loop_
_atom_type_symbol
_atom_type_description
_atom_type_scat_dispersion_real
_atom_type_scat_dispersion_imag
_atom_type_scat_source
C C 0.0181 0.0091 'International Tables Vol C Tables 4.2.6.8 and 6.1.1.4'
H H 0.0000 0.0000 'International Tables Vol C Tables 4.2.6.8 and 6.1.1.4'
Cr Cr -0.1635 2.4439 'International Tables Vol C Tables 4.2.6.8 and 6.1.1.4'
F F 0.0727 0.0534 'International Tables Vol C Tables 4.2.6.8 and 6.1.1.4'
O O 0.0492 0.0322 'International Tables Vol C Tables 4.2.6.8 and 6.1.1.4'
loop_
_geom_angle_atom_site_label_1
_geom_angle_atom_site_label_2
_geom_angle_atom_site_label_3
_geom_angle
C9A Cr1A C5A 66.3(2)
C9A Cr1A C6A 79.1(2)
C9A Cr1A C8A 36.8(2)
C9A Cr1A C4A 37.3(2)
C9A Cr1A C7A 67.0(2)
C5A Cr1A C6A 37.2(2)
C5A Cr1A C4A 37.0(2)
C6A Cr1A C4A 67.6(2)
C1A Cr1A C9A 148.1(3)
C1A Cr1A C5A 87.9(3)
C1A Cr1A C6A 91.8(3)
C1A Cr1A C8A 158.1(3)
C1A Cr1A C4A 110.9(3)
C1A Cr1A C2A 89.6(3)
C1A Cr1A C7A 120.8(3)
C8A Cr1A C5A 78.5(3)
C8A Cr1A C6A 67.1(3)
C8A Cr1A C4A 67.3(3)
C2A Cr1A C9A 122.2(2)
C2A Cr1A C5A 149.7(2)
C2A Cr1A C6A 112.7(3)
C2A Cr1A C8A 93.5(3)
C2A Cr1A C4A 159.4(2)
C2A Cr1A C7A 89.5(3)
C3A Cr1A C9A 88.5(3)
C3A Cr1A C5A 121.5(3)
C3A Cr1A C6A 158.6(3)
C3A Cr1A C1A 89.6(3)
C3A Cr1A C8A 112.1(3)
C3A Cr1A C4A 92.0(2)
C3A Cr1A C2A 88.7(3)
C3A Cr1A C7A 149.5(3)
C7A Cr1A C5A 66.3(3)
C7A Cr1A C6A 36.7(3)
C7A Cr1A C8A 37.7(3)
C7A Cr1A C4A 79.6(2)
C7 Cr1 C4 80.0(2)
C7 Cr1 C6 37.5(3)
C7 Cr1 C8 36.8(3)
C1 Cr1 C7 148.0(3)
C1 Cr1 C4 93.8(2)
C1 Cr1 C6 111.1(3)
C1 Cr1 C5 89.5(2)
C1 Cr1 C9 123.7(2)
C1 Cr1 C8 160.5(3)
C2 Cr1 C7 87.8(3)
C2 Cr1 C1 88.2(3)
C2 Cr1 C4 159.9(2)
C2 Cr1 C6 92.7(3)
C2 Cr1 C5 122.8(3)
C2 Cr1 C9 148.0(2)
C2 Cr1 C8 111.2(2)
C6 Cr1 C4 67.9(2)
C6 Cr1 C8 66.9(3)
C5 Cr1 C7 66.5(2)
C5 Cr1 C4 37.3(2)
C5 Cr1 C6 36.9(2)
C5 Cr1 C8 78.0(2)
C9 Cr1 C7 67.2(3)
C9 Cr1 C4 37.2(2)
C9 Cr1 C6 79.7(2)
C9 Cr1 C5 66.4(2)
C9 Cr1 C8 37.3(2)
C3 Cr1 C7 124.5(3)
C3 Cr1 C1 87.3(3)
C3 Cr1 C2 90.0(3)
C3 Cr1 C4 110.1(3)
C3 Cr1 C6 161.5(3)
C3 Cr1 C5 147.0(3)
C3 Cr1 C9 88.4(3)
C3 Cr1 C8 95.1(3)
C8 Cr1 C4 67.2(2)
C13A C14A H14A 119.8
C15A C14A H14A 119.8
C15A C14A C13A 120.3(6)
Cr1 C7 H7 129.0
C6 C7 Cr1 71.4(3)
C6 C7 H7 119.9
C8 C7 Cr1 72.1(4)
C8 C7 H7 119.9
C8 C7 C6 120.2(6)
C16 O4 C17 114.8(5)
C16A O4A C17A 115.6(5)
O1 C1 Cr1 178.5(5)
O4A C16A C13A 112.8(5)
O5A C16A O4A 123.1(6)
O5A C16A C13A 124.1(6)
O2 C2 Cr1 178.1(6)
Cr1A C9A H9A 128.3
F2L C9A Cr1A 131.4(11)
F2L C9A C8A 118.5(10)
F2L C9A C4A 119.0(10)
C8A C9A Cr1A 72.3(4)
C8A C9A H9A 118.8
C8A C9A C4A 122.4(6)
C4A C9A Cr1A 72.9(3)
C4A C9A H9A 118.8
Cr1A C5A H5A 130.2
C6A C5A Cr1A 71.4(4)
C6A C5A H5A 118.8
C4A C5A Cr1A 72.3(4)
C4A C5A H5A 118.8
C4A C5A C6A 122.4(6)
F2R C5A Cr1A 128.1(4)
F2R C5A C6A 119.1(6)
F2R C5A C4A 118.5(6)
C10 C4 Cr1 132.1(4)
C5 C4 Cr1 70.3(3)
C5 C4 C10 121.2(5)
C9 C4 Cr1 69.8(3)
C9 C4 C10 122.3(5)
C9 C4 C5 116.5(5)
Cr1A C6A H6A 129.3
C5A C6A Cr1A 71.4(4)
C5A C6A H6A 120.6
C7A C6A Cr1A 71.0(4)
C7A C6A C5A 118.8(6)
C7A C6A H6A 120.6
O1A C1A Cr1A 179.2(7)
C14A C13A C16A 122.1(6)
C14A C13A C12A 119.7(6)
C12A C13A C16A 118.2(5)
C13A C12A H12A 119.9
C13A C12A C11A 120.2(6)
C11A C12A H12A 119.9
C11A C10A C15A 119.4(5)
C11A C10A C4A 122.3(6)
C15A C10A C4A 118.3(5)
C15 C10 C4 118.9(5)
C15 C10 C11 119.3(5)
C11 C10 C4 121.8(5)
C12A C11A H11A 120.0
C10A C11A C12A 119.9(6)
C10A C11A H11A 120.0
Cr1A C8A H8A 130.4
C9A C8A Cr1A 70.8(3)
C9A C8A H8A 120.6
C9A C8A C7A 118.8(7)
C7A C8A Cr1A 70.6(4)
C7A C8A H8A 120.6
C14A C15A C10A 120.4(5)
C14A C15A H15A 119.8
C10A C15A H15A 119.8
C10 C15 H15 119.8
C14 C15 C10 120.3(5)
C14 C15 H15 119.8
O4 C17 H17D 109.5
O4 C17 H17E 109.5
O4 C17 H17F 109.5
H17D C17 H17E 109.5
H17D C17 H17F 109.5
H17E C17 H17F 109.5
C9A C4A Cr1A 69.7(4)
C9A C4A C10A 121.6(5)
C5A C4A Cr1A 70.7(4)
C5A C4A C9A 116.8(6)
C5A C4A C10A 121.6(6)
C10A C4A Cr1A 132.6(4)
C12 C13 C16 119.1(5)
C12 C13 C14 119.4(5)
C14 C13 C16 121.5(5)
C13 C12 H12 119.7
C11 C12 C13 120.6(5)
C11 C12 H12 119.7
O4A C17A H17A 109.5
O4A C17A H17B 109.5
O4A C17A H17C 109.5
H17A C17A H17B 109.5
H17A C17A H17C 109.5
H17B C17A H17C 109.5
Cr1 C6 H6 128.8
C7 C6 Cr1 71.1(4)
C7 C6 H6 120.9
C5 C6 Cr1 71.3(3)
C5 C6 C7 118.2(6)
C5 C6 H6 120.9
C10 C11 H11 119.9
C12 C11 C10 120.2(6)
C12 C11 H11 119.9
Cr1 C5 H5 130.6
C4 C5 Cr1 72.3(3)
C4 C5 H5 118.3
C6 C5 Cr1 71.8(4)
C6 C5 C4 123.4(5)
C6 C5 H5 118.3
F1R C5 Cr1 129.1(4)
F1R C5 C4 118.6(5)
F1R C5 C6 118.0(5)
Cr1 C9 H9 127.6
C4 C9 Cr1 73.0(3)
C4 C9 F1L 114.9(13)
C4 C9 H9 119.2
C4 C9 C8 121.5(6)
F1L C9 Cr1 123.7(14)
C8 C9 Cr1 72.4(4)
C8 C9 F1L 123.4(13)
C8 C9 H9 119.2
O2A C2A Cr1A 178.8(6)
O3 C3 Cr1 177.5(6)
Cr1 C8 H8 131.5
C7 C8 Cr1 71.1(4)
C7 C8 C9 120.1(6)
C7 C8 H8 119.9
C9 C8 Cr1 70.3(3)
C9 C8 H8 119.9
O4 C16 C13 112.0(5)
O5 C16 O4 124.3(6)
O5 C16 C13 123.7(6)
O3A C3A Cr1A 179.6(6)
Cr1A C7A H7A 128.7
C6A C7A Cr1A 72.3(4)
C6A C7A C8A 120.9(6)
C6A C7A H7A 119.6
C8A C7A Cr1A 71.7(4)
C8A C7A H7A 119.6
C15 C14 C13 120.2(6)
C15 C14 H14 119.9
C13 C14 H14 119.9
loop_
_geom_bond_atom_site_label_1
_geom_bond_atom_site_label_2
_geom_bond_distance
Cr1A C9A 2.193(6)
Cr1A C5A 2.214(6)
Cr1A C6A 2.215(7)
Cr1A C1A 1.849(7)
Cr1A C8A 2.213(7)
Cr1A C4A 2.235(6)
Cr1A C2A 1.850(7)
Cr1A C3A 1.841(6)
Cr1A C7A 2.198(6)
Cr1 C7 2.206(6)
Cr1 C1 1.850(6)
Cr1 C2 1.850(6)
Cr1 C4 2.230(6)
Cr1 C6 2.210(6)
Cr1 C5 2.204(6)
Cr1 C9 2.190(6)
Cr1 C3 1.840(7)
Cr1 C8 2.218(6)
C14A H14A 0.9300
C14A C13A 1.390(8)
C14A C15A 1.384(8)
C7 H7 0.9300
C7 C6 1.419(10)
C7 C8 1.397(11)
O4 C17 1.445(7)
O4 C16 1.334(8)
O3A C3A 1.167(8)
O4A C16A 1.325(8)
O4A C17A 1.460(7)
O3 C3 1.155(8)
O2A C2A 1.142(8)
O5 C16 1.198(7)
C1 O1 1.146(8)
C16A C13A 1.485(8)
C16A O5A 1.209(8)
C2 O2 1.163(8)
F2L C9A 1.36(2)
C9A H9A 0.9300
C9A C8A 1.392(9)
C9A C4A 1.418(9)
C5A H5A 0.9300
C5A C6A 1.414(9)
C5A C4A 1.410(8)
C5A F2R 1.362(8)
C4 C10 1.483(8)
C4 C5 1.419(8)
C4 C9 1.411(8)
C6A H6A 0.9300
C6A C7A 1.388(11)
C1A O1A 1.147(9)
C13A C12A 1.394(9)
C12A H12A 0.9300
C12A C11A 1.397(9)
C10A C11A 1.395(9)
C10A C15A 1.398(9)
C10A C4A 1.483(8)
C10 C15 1.387(9)
C10 C11 1.406(8)
C11A H11A 0.9300
C8A H8A 0.9300
C8A C7A 1.425(11)
C15A H15A 0.9300
C15 H15 0.9300
C15 C14 1.385(8)
F1L C9 1.42(3)
C17 H17D 0.9600
C17 H17E 0.9600
C17 H17F 0.9600
C13 C12 1.389(9)
C13 C16 1.499(8)
C13 C14 1.397(8)
C12 H12 0.9300
C12 C11 1.374(9)
C17A H17A 0.9600
C17A H17B 0.9600
C17A H17C 0.9600
C6 H6 0.9300
C6 C5 1.398(8)
C11 H11 0.9300
C5 H5 0.9300
C5 F1R 1.345(7)
C9 H9 0.9300
C9 C8 1.411(9)
C8 H8 0.9300
C7A H7A 0.9300
C14 H14 0.9300
