#------------------------------------------------------------------------------
#$Date: 2019-10-28 17:38:57 +0200 (Mon, 28 Oct 2019) $
#$Revision: 220146 $
#$URL: file:///home/coder/svn-repositories/cod/cif/4/51/49/4514999.cif $
#------------------------------------------------------------------------------
#
# This file is available in the Crystallography Open Database (COD),
# http://www.crystallography.net/
#
# All data on this site have been placed in the public domain by the
# contributors.
#
data_4514999
loop_
_publ_author_name
'Adhikary, Amit'
'Akhtar, Sohel'
'Pariyar, Anand'
'Batsanov, Andrei S.'
'Mondal, Raju'
_publ_section_title
;
 Temperature-Induced Single-Crystal-to-Single-Crystal Transformations with
 Consequential Changes in the Magnetic Properties of Fe(III) Complexes.
;
_journal_issue                   5
_journal_name_full               'ACS omega'
_journal_page_first              8731
_journal_page_last               8738
_journal_paper_doi               10.1021/acsomega.8b03400
_journal_volume                  4
_journal_year                    2019
_chemical_formula_sum            'C14 H6 Fe2 N2 O12'
_chemical_formula_weight         505.91
_space_group_crystal_system      triclinic
_space_group_IT_number           2
_space_group_name_Hall           '-P 1'
_space_group_name_H-M_alt        'P -1'
_symmetry_space_group_name_Hall  '-P 1'
_symmetry_space_group_name_H-M   'P -1'
_atom_sites_solution_hydrogens   geom
_audit_creation_method           SHELXL-2016/6
_cell_angle_alpha                82.177(11)
_cell_angle_beta                 70.183(7)
_cell_angle_gamma                64.893(7)
_cell_formula_units_Z            1
_cell_length_a                   7.2508(19)
_cell_length_b                   8.010(3)
_cell_length_c                   8.795(2)
_cell_measurement_reflns_used    1289
_cell_measurement_temperature    293(2)
_cell_measurement_theta_max      23.43
_cell_measurement_theta_min      2.46
_cell_volume                     435.1(2)
_computing_structure_refinement  'SHELXL-2016/6 (Sheldrick, 2016)'
_diffrn_ambient_temperature      293(2)
_diffrn_measured_fraction_theta_full 1.000
_diffrn_measured_fraction_theta_max 1.000
_diffrn_measurement_device_type  'Bruker APEX-II CCD'
_diffrn_measurement_method       '\f and \w scans'
_diffrn_radiation_type           MoK\a
_diffrn_radiation_wavelength     0.71073
_diffrn_reflns_av_R_equivalents  0.0124
_diffrn_reflns_av_unetI/netI     0.0128
_diffrn_reflns_Laue_measured_fraction_full 1.000
_diffrn_reflns_Laue_measured_fraction_max 1.000
_diffrn_reflns_limit_h_max       9
_diffrn_reflns_limit_h_min       -9
_diffrn_reflns_limit_k_max       10
_diffrn_reflns_limit_k_min       -10
_diffrn_reflns_limit_l_max       11
_diffrn_reflns_limit_l_min       -11
_diffrn_reflns_number            3998
_diffrn_reflns_point_group_measured_fraction_full 1.000
_diffrn_reflns_point_group_measured_fraction_max 1.000
_diffrn_reflns_theta_full        25.242
_diffrn_reflns_theta_max         27.444
_diffrn_reflns_theta_min         2.462
_exptl_absorpt_coefficient_mu    1.741
_exptl_crystal_colour            Orange
_exptl_crystal_density_diffrn    1.931
_exptl_crystal_description       Block
_exptl_crystal_F_000             252
_refine_diff_density_max         1.030
_refine_diff_density_min         -0.855
_refine_diff_density_rms         0.118
_refine_ls_extinction_method     none
_refine_ls_goodness_of_fit_ref   0.954
_refine_ls_hydrogen_treatment    constr
_refine_ls_matrix_type           full
_refine_ls_number_parameters     130
_refine_ls_number_reflns         1999
_refine_ls_number_restraints     0
_refine_ls_restrained_S_all      0.954
_refine_ls_R_factor_all          0.0596
_refine_ls_R_factor_gt           0.0586
_refine_ls_shift/su_max          0.000
_refine_ls_shift/su_mean         0.000
_refine_ls_structure_factor_coef Fsqd
_refine_ls_weighting_details
'w=1/[\s^2^(Fo^2^)+5.6305P] where P=(Fo^2^+2Fc^2^)/3'
_refine_ls_weighting_scheme      calc
_refine_ls_wR_factor_gt          0.1285
_refine_ls_wR_factor_ref         0.1290
_reflns_Friedel_coverage         0.000
_reflns_number_gt                1968
_reflns_number_total             1999
_reflns_threshold_expression     'I > 2\s(I)'
_cod_data_source_file            ao8b03400_si_003.cif
_cod_data_source_block           Complex_2
_cod_database_code               4514999
_shelx_shelxl_version_number     2016/6
_shelx_space_group_comment
;
The symmetry employed for this shelxl refinement is uniquely defined
by the following loop, which should always be used as a source of
symmetry information in preference to the above space-group names.
They are only intended as comments.
;
_shelx_res_file
;
TITL AA11_b.res in P1 New: P-1
    aa11.res
    created by SHELXL-2016/6 at 19:18:25 on 12-Mar-2019
CELL 0.71073 7.2508 8.01 8.795 82.177 70.183 64.893
ZERR 1 0.0019 0.003 0.002 0.011 0.007 0.007
LATT 1
SFAC C  Fe N  O  H
UNIT 14  2  2  12  6
L.S. 30
ACTA
BOND $H
FMAP 2
PLAN 5
CONF
EADP N1 O4
WGHT    0.000000    5.630454
FVAR       9.97783
FE1   2    1.077044    0.362871    0.129879    11.00000    0.01827    0.01780 =
         0.01802    0.00020   -0.00527   -0.00767
O4    4    0.879476    0.504342    0.340366    11.00000    0.01308    0.02988 =
         0.01825   -0.00565   -0.00544   -0.00409
O6    4    1.146502    0.541918   -0.011682    11.00000    0.01886    0.02190 =
         0.01762    0.00080   -0.00552   -0.00995
O2    4    1.289123   -0.175622   -0.009402    11.00000    0.02388    0.02301 =
         0.02665   -0.00233   -0.00854   -0.00882
O3    4    0.659171    0.494177    0.590372    11.00000    0.02534    0.04564 =
         0.02528   -0.00498   -0.00610   -0.01309
O5    4    1.323825    0.291961    0.216770    11.00000    0.02205    0.01939 =
         0.01959    0.00169   -0.00679   -0.00904
O1    4    1.247662    0.115407    0.002093    11.00000    0.02079    0.02048 =
         0.01955   -0.00008   -0.00693   -0.00697
N1    3    0.955883    0.192613    0.268863    11.00000    0.01308    0.02988 =
         0.01825   -0.00565   -0.00544   -0.00409
C2    1    1.021897    0.013824    0.213066    11.00000    0.04269    0.01993 =
         0.03796    0.01455   -0.03015   -0.02040
C7    1    0.776859    0.428164    0.454108    11.00000    0.02027    0.02182 =
         0.02287    0.00031   -0.00956   -0.00287
C5    1    0.704369    0.129879    0.508071    11.00000    0.02483    0.03094 =
         0.02803   -0.00794   -0.00793   -0.00238
AFIX  43
H5    5    0.598177    0.171379    0.606757    11.00000   -1.20000
AFIX   0
C6    1    0.804691    0.240944    0.412734    11.00000    0.01728    0.03259 =
         0.01780    0.00183   -0.00678   -0.00430
C1    1    1.198201   -0.020452    0.058319    11.00000    0.02693    0.01910 =
         0.02617    0.00199   -0.00996   -0.00918
C3    1    0.935826   -0.108518    0.298686    11.00000    0.02675    0.02661 =
         0.02212    0.00729   -0.01235   -0.01624
AFIX  43
H3    5    0.983766   -0.227000    0.260022    11.00000   -1.20000
AFIX   0
C4    1    0.770406   -0.044743    0.448784    11.00000    0.02521    0.01522 =
         0.04193    0.00927   -0.02094   -0.01082
AFIX  43
H4    5    0.705658   -0.121784    0.507970    11.00000   -1.20000
AFIX   0
HKLF 4




REM  AA11_b.res in P1 New: P-1
REM R1 =  0.0586 for    1968 Fo > 4sig(Fo)  and  0.0596 for all    1999 data
REM    130 parameters refined using      0 restraints

END

WGHT      0.0000      2.5376

REM Highest difference peak  1.030,  deepest hole -0.855,  1-sigma level  0.118
Q1    1   0.9563  0.2418  0.2606  11.00000  0.05    1.03
Q2    1   0.9497  0.1502  0.2804  11.00000  0.05    0.95
Q3    1   0.8257  0.5053  0.3086  11.00000  0.05    0.57
Q4    1   0.7922  0.5199  0.3432  11.00000  0.05    0.56
Q5    1   0.9742  0.4815  0.3410  11.00000  0.05    0.56
;
_shelx_res_checksum              27188
_shelx_hkl_file
;
   1   0   0  721507     849
   2   0   0   69482     264
   3   0   0   24547     157
   4   0   0     741      27
   5   0   0   41167     203
   6   0   0   19201     139
   7   0   0   24743     157
   8   0   0   11676     108
  -7   1   0      67       8
  -6   1   0    2264      48
  -5   1   0   52627     229
  -4   1   0  253747     504
  -3   1   0  113363     337
  -2   1   0     368      19
  -1   1   0   17369     132
   0   1   0   39315     198
   1   1   0   38444     196
   2   1   0  110378     332
   3   1   0   38797     197
   4   1   0   23024     152
   5   1   0   10108     101
   6   1   0     305      17
   7   1   0   19002     138
   8   1   0   15161     123
  -7   2   0     529      23
  -6   2   0    2160      46
  -5   2   0    1992      45
  -4   2   0  129524     360
  -3   2   0  189233     435
  -2   2   0   37369     193
  -1   2   0    1150      34
   0   2   0   73031     270
   1   2   0   97249     312
   2   2   0    1787      42
   3   2   0   31500     177
   4   2   0  120598     347
   5   2   0   32197     179
   6   2   0    1306      36
   7   2   0    5707      76
   8   2   0    3812      62
  -6   3   0    2990      55
  -5   3   0   16964     130
  -4   3   0    5846      76
  -3   3   0   17454     132
  -2   3   0  158302     398
  -1   3   0   65659     256
   0   3   0    9884      99
   1   3   0   20300     142
   2   3   0    1655      41
   3   3   0   31832     178
   4   3   0   24202     156
   5   3   0   61849     249
   6   3   0   60657     246
   7   3   0   17685     133
   8   3   0    2520      50
  -6   4   0   32289     180
  -5   4   0   36408     191
  -4   4   0    7719      88
  -3   4   0    4062      64
  -2   4   0    2004      45
  -1   4   0   20868     144
   0   4   0   17982     134
   1   4   0  345978     588
   2   4   0   72046     268
   3   4   0   18166     135
   4   4   0   70623     266
   5   4   0   17458     132
   6   4   0   84518     291
   7   4   0   13979     118
   8   4   0    9896      99
  -5   5   0    8071      90
  -4   5   0    2533      50
  -3   5   0   29557     172
  -2   5   0   20599     144
  -1   5   0    2410      49
   0   5   0      97      10
   1   5   0  100836     318
   2   5   0  240203     490
   3   5   0   60838     247
   4   5   0   36277     190
   5   5   0   24626     157
   6   5   0    1483      39
   7   5   0    6969      83
   8   5   0   24158     155
  -4   6   0      30       5
  -3   6   0   28304     168
  -2   6   0   42506     206
  -1   6   0   21270     146
   0   6   0   38378     196
   1   6   0    3685      61
   2   6   0   22606     150
   3   6   0   16093     127
   4   6   0   31254     177
   5   6   0   40444     201
   6   6   0    3617      60
   7   6   0    4523      67
   8   6   0     854      29
  -3   7   0    1496      39
  -2   7   0   28686     169
  -1   7   0   42160     205
   0   7   0   13400     116
   1   7   0    7563      87
   2   7   0    6760      82
   3   7   0    5620      75
   4   7   0   49832     223
   5   7   0   35384     188
   6   7   0   22313     149
   7   7   0   17960     134
   8   7   0    6906      83
  -2   8   0    2356      49
  -1   8   0    5299      73
   0   8   0   21413     146
   1   8   0   30573     175
   2   8   0   36437     191
   3   8   0    8781      94
   4   8   0     829      29
   5   8   0    1129      34
   6   8   0    6508      81
   7   8   0   22915     151
   0   9   0     425      21
   1   9   0    3384      58
   2   9   0    7898      89
   3   9   0   24629     157
   4   9   0    8205      91
   5   9   0    8167      90
   6   9   0    4769      69
   7   9   0    4736      69
   2  10   0    1480      38
   3  10   0   13570     116
   4  10   0    6227      79
   5  10   0    2632      51
  -4 -10   1   10812     104
  -3 -10   1    1598      40
  -2 -10   1   11616     108
  -6  -9   1    6653      82
  -5  -9   1    6718      82
  -4  -9   1   34031     184
  -3  -9   1   15646     125
  -2  -9   1    1765      42
  -1  -9   1    7078      84
   0  -9   1    8448      92
  -7  -8   1    8992      95
  -6  -8   1    1148      34
  -5  -8   1   34391     185
  -4  -8   1   35494     188
  -3  -8   1   10499     102
  -2  -8   1   12338     111
  -1  -8   1   13600     117
   0  -8   1    2573      51
   1  -8   1    3122      56
   2  -8   1    3867      62
  -7  -7   1   14405     120
  -6  -7   1    9050      95
  -5  -7   1    3744      61
  -4  -7   1    3529      59
  -3  -7   1   21441     146
  -2  -7   1    6167      79
  -1  -7   1   10933     105
   0  -7   1    9662      98
   1  -7   1   39387     198
   2  -7   1     630      25
   3  -7   1   18439     136
  -8  -6   1   23279     153
  -7  -6   1   16439     128
  -6  -6   1   16801     130
  -5  -6   1    1578      40
  -4  -6   1    1449      38
  -3  -6   1   50572     225
  -2  -6   1     235      15
  -1  -6   1  145289     381
   0  -6   1   66510     258
   1  -6   1   25236     159
   2  -6   1   46104     215
   3  -6   1   21437     146
   4  -6   1    1986      45
  -8  -5   1    3139      56
  -7  -5   1    1282      36
  -6  -5   1   16343     128
  -5  -5   1   20145     142
  -4  -5   1   10039     100
  -3  -5   1  136127     369
  -2  -5   1  144032     380
  -1  -5   1    3969      63
   0  -5   1    1468      38
   1  -5   1   36115     190
   2  -5   1   97443     312
   3  -5   1   23256     152
   4  -5   1    8244      91
   5  -5   1    4184      65
  -8  -4   1     266      16
  -7  -4   1   34798     187
  -6  -4   1   71574     268
  -5  -4   1    3412      58
  -4  -4   1   46391     215
  -3  -4   1   72527     269
  -2  -4   1  124939     353
  -1  -4   1  107086     327
   0  -4   1   68345     261
   1  -4   1    3176      56
   2  -4   1   42795     207
   3  -4   1   49394     222
   4  -4   1   13508     116
   5  -4   1    1517      39
   6  -4   1    1493      39
  -8  -3   1    3643      60
  -7  -3   1    7163      85
  -6  -3   1    7753      88
  -5  -3   1   16507     128
  -4  -3   1   10707     103
  -3  -3   1  104186     323
  -2  -3   1  454437     674
  -1  -3   1  220966     470
   0  -3   1   42693     207
   1  -3   1   11881     109
   2  -3   1    3585      60
   3  -3   1   33744     184
   4  -3   1   33555     183
   5  -3   1   12425     111
   6  -3   1   16192     127
  -8  -2   1    1187      34
  -7  -2   1   35483     188
  -6  -2   1  108289     329
  -5  -2   1  172243     415
  -4  -2   1   65623     256
  -3  -2   1    1911      44
  -2  -2   1   11157     106
  -1  -2   1   10580     103
   0  -2   1  271369     521
   1  -2   1   27305     165
   2  -2   1   26500     163
   3  -2   1  114528     338
   4  -2   1    3025      55
   5  -2   1    5508      74
   6  -2   1    1036      32
   7  -2   1    6816      83
  -8  -1   1    4768      69
  -7  -1   1    5456      74
  -6  -1   1   19103     138
  -5  -1   1   36862     192
  -4  -1   1   58143     241
  -3  -1   1    8336      91
  -2  -1   1  113438     337
  -1  -1   1  105475     325
   0  -1   1  288307     537
   1  -1   1  112027     335
   2  -1   1     810      28
   3  -1   1  166292     408
   4  -1   1  113836     337
   5  -1   1   32412     180
   6  -1   1   14510     120
   7  -1   1    4010      63
  -7   0   1    2716      52
  -6   0   1   11471     107
  -5   0   1   14175     119
  -4   0   1   29404     171
  -3   0   1   11568     108
  -2   0   1     166      13
  -1   0   1  190507     436
   0   0   1   81172     285
   1   0   1   38900     197
   2   0   1   64749     254
   3   0   1   25175     159
   4   0   1   72757     270
   5   0   1   25645     160
   6   0   1   13296     115
   7   0   1     275      17
   8   0   1    1147      34
  -7   1   1    2879      54
  -6   1   1    9906     100
  -5   1   1   27349     165
  -4   1   1    1734      42
  -3   1   1    8818      94
  -2   1   1   19549     140
  -1   1   1  116342     341
   0   1   1  245235     495
   1   1   1  401817     634
   2   1   1  299313     547
   3   1   1    1104      33
   4   1   1   72320     269
   5   1   1   35080     187
   6   1   1   12463     112
   7   1   1   19390     139
   8   1   1   23231     152
  -6   2   1    2035      45
  -5   2   1    7848      89
  -4   2   1   54721     234
  -3   2   1   93214     305
  -2   2   1    5123      72
  -1   2   1   19110     138
   0   2   1   64948     255
   1   2   1  337883     581
   2   2   1  158135     398
   3   2   1    8364      91
   4   2   1   23580     154
   5   2   1     903      30
   6   2   1   15217     123
   7   2   1   30194     174
   8   2   1   52112     228
  -6   3   1    2088      46
  -5   3   1   19380     139
  -4   3   1   40282     201
  -3   3   1   91024     302
  -2   3   1   93401     306
  -1   3   1  135193     368
   0   3   1   93595     306
   1   3   1   49599     223
   2   3   1   47707     218
   3   3   1   43034     207
   4   3   1  349754     591
   5   3   1  116701     342
   6   3   1     550      23
   7   3   1    7606      87
   8   3   1    2187      47
   9   3   1    7149      85
  -5   4   1    1667      41
  -4   4   1    9652      98
  -3   4   1   14989     122
  -2   4   1   40259     201
  -1   4   1   21559     147
   0   4   1  114545     338
   1   4   1   14950     122
   2   4   1   63598     252
   3   4   1    1061      33
   4   4   1    4735      69
   5   4   1  118223     344
   6   4   1   57770     240
   7   4   1    4255      65
   8   4   1    5189      72
   9   4   1    7517      87
  -5   5   1   14274     119
  -4   5   1   18856     137
  -3   5   1    2041      45
  -2   5   1    9925     100
  -1   5   1    6827      83
   0   5   1   73167     270
   1   5   1  128525     359
   2   5   1   31729     178
   3   5   1   15138     123
   4   5   1    5611      75
   5   5   1   57327     239
   6   5   1   23356     153
   7   5   1   11890     109
   8   5   1   19732     140
   9   5   1    2548      50
  -4   6   1   13465     116
  -3   6   1   25680     160
  -2   6   1    1248      35
  -1   6   1    8776      94
   0   6   1    2633      51
   1   6   1   22102     149
   2   6   1  189959     436
   3   6   1  151276     389
   4   6   1    7694      88
   5   6   1    1178      34
   6   6   1    1793      42
   7   6   1     348      19
   8   6   1    3343      58
  -3   7   1    4965      70
  -2   7   1   33102     182
  -1   7   1   48565     220
   0   7   1    2899      54
   1   7   1    7238      85
   2   7   1   19015     138
   3   7   1   14307     120
   4   7   1    4255      65
   5   7   1   42323     206
   6   7   1   14030     118
   7   7   1     448      21
   8   7   1     356      19
  -2   8   1    4863      70
  -1   8   1   10479     102
   0   8   1    7886      89
   1   8   1   22697     151
   2   8   1    2489      50
   3   8   1   19520     140
   4   8   1     274      17
   5   8   1     151      12
   6   8   1   52552     229
   7   8   1   37129     193
   8   8   1    3510      59
   0   9   1    2767      53
   1   9   1    6238      79
   2   9   1   25059     158
   3   9   1   18298     135
   4   9   1    6004      77
   5   9   1     234      15
   6   9   1   11752     108
   7   9   1   10321     102
   2  10   1    6236      79
   3  10   1   30773     175
   4  10   1   17403     132
   5  10   1    5989      77
  -5  -9   2    8681      93
  -4  -9   2    7709      88
  -3  -9   2    2052      45
  -2  -9   2    3475      59
  -1  -9   2    9213      96
   0  -9   2   15033     123
  -6  -8   2   10525     103
  -5  -8   2   25038     158
  -4  -8   2   30705     175
  -3  -8   2   19881     141
  -2  -8   2     511      23
  -1  -8   2    3367      58
   0  -8   2   11991     110
   1  -8   2   31736     178
   2  -8   2   18477     136
  -7  -7   2    9944     100
  -6  -7   2    2829      53
  -5  -7   2   11844     109
  -4  -7   2   14368     120
  -3  -7   2   98761     314
  -2  -7   2   85315     292
  -1  -7   2     532      23
   0  -7   2    1714      41
   1  -7   2     615      25
   2  -7   2    7734      88
   3  -7   2    9926     100
  -7  -6   2   26274     162
  -6  -6   2   18502     136
  -5  -6   2    2869      54
  -4  -6   2    3190      56
  -3  -6   2   19563     140
  -2  -6   2   37093     193
  -1  -6   2    3848      62
   0  -6   2   13441     116
   1  -6   2   15509     125
   2  -6   2    4189      65
   3  -6   2    1491      39
   4  -6   2    3788      62
  -8  -5   2     812      28
  -7  -5   2   22937     151
  -6  -5   2   65362     256
  -5  -5   2    4845      70
  -4  -5   2    1666      41
  -3  -5   2    2217      47
  -2  -5   2    4517      67
  -1  -5   2   24554     157
   0  -5   2   53127     230
   1  -5   2   98226     313
   2  -5   2   52106     228
   3  -5   2    4063      64
   4  -5   2     892      30
   5  -5   2    1187      34
  -8  -4   2     227      15
  -7  -4   2    1336      37
  -6  -4   2    3140      56
  -5  -4   2   12383     111
  -4  -4   2   69182     263
  -3  -4   2   49886     223
  -2  -4   2   23938     155
  -1  -4   2    4513      67
   0  -4   2    6277      79
   1  -4   2   82554     287
   2  -4   2   44985     212
   3  -4   2    4737      69
   4  -4   2    5883      77
   5  -4   2   10244     101
   6  -4   2    3595      60
  -8  -3   2   12109     110
  -7  -3   2   10443     102
  -6  -3   2    4165      65
  -5  -3   2   10507     103
  -4  -3   2   29500     172
  -3  -3   2   30019     173
  -2  -3   2  261949     512
  -1  -3   2  280113     529
   0  -3   2    2284      48
   1  -3   2   11538     107
   2  -3   2    4366      66
   3  -3   2  121112     348
   4  -3   2   54975     234
   5  -3   2    4003      63
   6  -3   2   24737     157
  -7  -2   2    4087      64
  -6  -2   2    7217      85
  -5  -2   2   35656     189
  -4  -2   2    5594      75
  -3  -2   2    5207      72
  -2  -2   2   91107     302
  -1  -2   2  219223     468
   0  -2   2   16975     130
   1  -2   2   29431     172
   2  -2   2  118036     344
   3  -2   2    2371      49
   4  -2   2   12060     110
   5  -2   2   28076     168
   6  -2   2   43312     208
   7  -2   2    6651      82
  -7  -1   2     279      17
  -6  -1   2   36489     191
  -5  -1   2  127963     358
  -4  -1   2    7376      86
  -3  -1   2   28752     170
  -2  -1   2  192667     439
  -1  -1   2   79689     282
   0  -1   2  141908     377
   1  -1   2   23837     154
   2  -1   2   83787     289
   3  -1   2  151591     389
   4  -1   2    4713      69
   5  -1   2    6149      78
   6  -1   2   24530     157
   7  -1   2   29759     173
   8  -1   2    5254      72
  -7   0   2     367      19
  -6   0   2    3826      62
  -5   0   2   40302     201
  -4   0   2   67070     259
  -3   0   2   22130     149
  -2   0   2    1287      36
  -1   0   2   51616     227
   0   0   2  111464     334
   1   0   2  481293     694
   2   0   2 1759499    1326
   3   0   2  333550     578
   4   0   2   10837     104
   5   0   2   35157     188
   6   0   2   13907     118
   7   0   2    4577      68
   8   0   2   19079     138
  -7   1   2    9262      96
  -6   1   2   20608     144
  -5   1   2    9092      95
  -4   1   2    1346      37
  -3   1   2   58564     242
  -2   1   2  277288     527
  -1   1   2  397011     630
   0   1   2   93503     306
   1   1   2   17918     134
   2   1   2   95615     309
   3   1   2    4069      64
   4   1   2  216456     465
   5   1   2   26857     164
   6   1   2    2838      53
   7   1   2    4024      63
   8   1   2     267      16
  -6   2   2    3650      60
  -5   2   2    2943      54
  -4   2   2   41090     203
  -3   2   2     570      24
  -2   2   2   70636     266
  -1   2   2  132821     364
   0   2   2  345483     588
   1   2   2   52858     230
   2   2   2   47782     219
   3   2   2    6936      83
   4   2   2     434      21
   5   2   2   59508     244
   6   2   2   25793     161
   7   2   2   10972     105
   8   2   2   10113     101
   9   2   2   12737     113
  -6   3   2    5451      74
  -5   3   2   25572     160
  -4   3   2   26865     164
  -3   3   2    6618      81
  -2   3   2    1230      35
  -1   3   2   11956     109
   0   3   2  237667     488
   1   3   2  157756     397
   2   3   2   41262     203
   3   3   2   36040     190
   4   3   2   55634     236
   5   3   2    4797      69
   6   3   2     875      30
   7   3   2    1775      42
   8   3   2   36183     190
   9   3   2   14448     120
  -5   4   2    1028      32
  -4   4   2   74936     274
  -3   4   2  115090     339
  -2   4   2    2120      46
  -1   4   2    1044      32
   0   4   2   47791     219
   1   4   2   19575     140
   2   4   2   13004     114
   3   4   2   94662     308
   4   4   2   95612     309
   5   4   2   70542     266
   6   4   2   56077     237
   7   4   2    3211      57
   8   4   2   10992     105
   9   4   2   17076     131
  -4   5   2    3772      61
  -3   5   2   10216     101
  -2   5   2    1863      43
  -1   5   2   26258     162
   0   5   2   61867     249
   1   5   2   28637     169
   2   5   2    9872      99
   3   5   2    7122      84
   4   5   2   88390     297
   5   5   2  103080     321
   6   5   2   50706     225
   7   5   2   35616     189
   8   5   2   13723     117
   9   5   2    3268      57
  -3   6   2   14681     121
  -2   6   2     345      19
  -1   6   2   12493     112
   0   6   2   28290     168
   1   6   2  105607     325
   2   6   2  113956     338
   3   6   2   30659     175
   4   6   2   21728     147
   5   6   2    3799      62
   6   6   2   58086     241
   7   6   2   19441     139
   8   6   2    2094      46
   9   6   2     979      31
  -3   7   2   10369     102
  -2   7   2   13008     114
  -1   7   2    2403      49
   0   7   2    4118      64
   1   7   2   46516     216
   2   7   2   56474     238
   3   7   2   11605     108
   4   7   2   14942     122
   5   7   2    2081      46
   6   7   2   34943     187
   7   7   2   15737     125
   8   7   2    2795      53
  -1   8   2    4020      63
   0   8   2    5397      73
   1   8   2     363      19
   2   8   2   35848     189
   3   8   2   42641     206
   4   8   2   18091     135
   5   8   2   15382     124
   6   8   2    6420      80
   7   8   2    2711      52
   8   8   2    1239      35
   0   9   2    6667      82
   1   9   2   11270     106
   2   9   2    3028      55
   3   9   2    3354      58
   4   9   2     301      17
   5   9   2    7335      86
   6   9   2   13271     115
   7   9   2   11823     109
   2  10   2    7019      84
   3  10   2    2199      47
   4  10   2     128      11
   5  10   2     231      15
   6  10   2    2094      46
  -5  -9   3    3317      58
  -4  -9   3    1732      42
  -3  -9   3    5956      77
  -2  -9   3   19403     139
  -1  -9   3   12144     110
   0  -9   3    5704      76
  -6  -8   3    5060      71
  -5  -8   3   15339     124
  -4  -8   3    8062      90
  -3  -8   3    7656      87
  -2  -8   3   13709     117
  -1  -8   3    2303      48
   0  -8   3   23832     154
   1  -8   3   29702     172
   2  -8   3    2424      49
  -6  -7   3   14283     120
  -5  -7   3    9285      96
  -4  -7   3   35514     188
  -3  -7   3   42295     206
  -2  -7   3     168      13
  -1  -7   3    2936      54
   0  -7   3    3853      62
   1  -7   3    3707      61
   2  -7   3    9809      99
   3  -7   3   13751     117
  -7  -6   3    2570      51
  -6  -6   3   12309     111
  -5  -6   3    7450      86
  -4  -6   3    8832      94
  -3  -6   3   10654     103
  -2  -6   3   13426     116
  -1  -6   3   33198     182
   0  -6   3    2604      51
   1  -6   3   55845     236
   2  -6   3   31828     178
   3  -6   3    3242      57
   4  -6   3   21243     146
  -7  -5   3   23764     154
  -6  -5   3   21341     146
  -5  -5   3    6084      78
  -4  -5   3    3350      58
  -3  -5   3    7835      89
  -2  -5   3   32192     179
  -1  -5   3   67745     260
   0  -5   3   81564     286
   1  -5   3   65866     257
   2  -5   3    9806      99
   3  -5   3    6432      80
   4  -5   3   10462     102
   5  -5   3   13573     117
  -7  -4   3    5534      74
  -6  -4   3    6628      81
  -5  -4   3   55034     235
  -4  -4   3   90901     301
  -3  -4   3   30446     174
  -2  -4   3    7086      84
  -1  -4   3   30089     173
   0  -4   3   27389     165
   1  -4   3  122100     349
   2  -4   3  151195     389
   3  -4   3    7926      89
   4  -4   3    4357      66
   5  -4   3    6719      82
   6  -4   3    9401      97
  -7  -3   3    4160      64
  -6  -3   3     847      29
  -5  -3   3    7852      89
  -4  -3   3    1133      34
  -3  -3   3   83060     288
  -2  -3   3  172883     416
  -1  -3   3   50841     225
   0  -3   3  153456     392
   1  -3   3   24000     155
   2  -3   3   91611     303
   3  -3   3   39877     200
   4  -3   3    1289      36
   5  -3   3     562      24
   6  -3   3    4164      65
   7  -3   3    6842      83
  -7  -2   3   22089     149
  -6  -2   3   11085     105
  -5  -2   3   42733     207
  -4  -2   3  110200     332
  -3  -2   3  128580     359
  -2  -2   3  237205     487
  -1  -2   3   68649     262
   0  -2   3   12077     110
   1  -2   3    6163      79
   2  -2   3   67824     260
   3  -2   3   44648     211
   4  -2   3    4160      64
   5  -2   3   30578     175
   6  -2   3   18855     137
   7  -2   3    1565      40
  -7  -1   3   16410     128
  -6  -1   3   38571     196
  -5  -1   3    4770      69
  -4  -1   3    8553      92
  -3  -1   3    4195      65
  -2  -1   3   39272     198
  -1  -1   3  101215     318
   0  -1   3   59888     245
   1  -1   3   17961     134
   2  -1   3   10119     101
   3  -1   3   12092     110
   4  -1   3     709      27
   5  -1   3    7320      86
   6  -1   3   51284     226
   7  -1   3   55210     235
   8  -1   3   13711     117
  -7   0   3   12637     112
  -6   0   3   17727     133
  -5   0   3   23920     155
  -4   0   3   45525     213
  -3   0   3   22843     151
  -2   0   3    2551      51
  -1   0   3    3474      59
   0   0   3     827      29
   1   0   3    7199      85
   2   0   3  153101     391
   3   0   3  299842     548
   4   0   3   73555     271
   5   0   3    1675      41
   6   0   3    1880      43
   7   0   3   19110     138
   8   0   3   12632     112
  -6   1   3    2176      47
  -5   1   3    2310      48
  -4   1   3   20401     143
  -3   1   3   11512     107
  -2   1   3   12609     112
  -1   1   3   75824     275
   0   1   3     348      19
   1   1   3    6083      78
   2   1   3    4749      69
   3   1   3  389673     624
   4   1   3  315986     562
   5   1   3    4205      65
   6   1   3    1079      33
   7   1   3    4396      66
   8   1   3   15058     123
  -6   2   3    4875      70
  -5   2   3   10694     103
  -4   2   3     153      12
  -3   2   3    1074      33
  -2   2   3   27196     165
  -1   2   3  352311     594
   0   2   3  179039     423
   1   2   3    3800      62
   2   2   3    3545      60
   3   2   3  116556     341
   4   2   3  228781     478
   5   2   3   13648     117
   6   2   3   13686     117
   7   2   3   15457     124
   8   2   3    3864      62
   9   2   3   12572     112
  -5   3   3   38175     195
  -4   3   3    4881      70
  -3   3   3   17419     132
  -2   3   3    7386      86
  -1   3   3   91941     303
   0   3   3  431359     657
   1   3   3  270850     520
   2   3   3   81130     285
   3   3   3    1494      39
   4   3   3   38463     196
   5   3   3   55460     235
   6   3   3   60873     247
   7   3   3   35916     190
   8   3   3   10603     103
   9   3   3   11902     109
  -5   4   3   12846     113
  -4   4   3   24006     155
  -3   4   3   31493     177
  -2   4   3   36012     190
  -1   4   3    3627      60
   0   4   3   61246     247
   1   4   3   53221     231
   2   4   3   31961     179
   3   4   3   10571     103
   4   4   3    2730      52
   5   4   3    5813      76
   6   4   3    5969      77
   7   4   3    8359      91
   8   4   3   27660     166
   9   4   3    4685      68
  -4   5   3   14353     120
  -3   5   3   47862     219
  -2   5   3   19650     140
  -1   5   3    3729      61
   0   5   3    1162      34
   1   5   3    8483      92
   2   5   3   31418     177
   3   5   3   10895     104
   4   5   3   56480     238
   5   5   3   63585     252
   6   5   3    1089      33
   7   5   3    1532      39
   8   5   3    3104      56
   9   5   3   12237     111
  -3   6   3    4759      69
  -2   6   3   15535     125
  -1   6   3   11561     108
   0   6   3    5675      75
   1   6   3    3784      62
   2   6   3    5712      76
   3   6   3    2263      48
   4   6   3   64011     253
   5   6   3  143138     378
   6   6   3   15263     124
   7   6   3    2751      52
   8   6   3   12018     110
   9   6   3     352      19
  -2   7   3    1432      38
  -1   7   3     498      22
   0   7   3   28784     170
   1   7   3  123928     352
   2   7   3   17981     134
   3   7   3    2071      46
   4   7   3   50170     224
   5   7   3    9877      99
   6   7   3   21453     146
   7   7   3   24289     156
   8   7   3   13249     115
  -1   8   3    2399      49
   0   8   3    1838      43
   1   8   3   10049     100
   2   8   3   33248     182
   3   8   3   34593     186
   4   8   3    7920      89
   5   8   3    5253      72
   6   8   3      26       5
   7   8   3      45       7
   8   8   3   17275     131
   0   9   3    2096      46
   1   9   3    2327      48
   2   9   3    5064      71
   3   9   3    6676      82
   4   9   3   11711     108
   5   9   3   25580     160
   6   9   3   10225     101
   7   9   3      18       4
   3  10   3    1133      34
   4  10   3    1635      40
   5  10   3   11940     109
   6  10   3   20120     142
  -3  -9   4    8207      91
  -2  -9   4    3747      61
  -1  -9   4    8333      91
  -5  -8   4     714      27
  -4  -8   4    1007      32
  -3  -8   4   21293     146
  -2  -8   4   16543     129
  -1  -8   4   21150     145
   0  -8   4   19389     139
   1  -8   4    2551      51
  -6  -7   4   14195     119
  -5  -7   4   15606     125
  -4  -7   4    9717      99
  -3  -7   4    1003      32
  -2  -7   4    7071      84
  -1  -7   4   52083     228
   0  -7   4   74948     274
   1  -7   4    5482      74
   2  -7   4    2219      47
   3  -7   4    1486      39
  -6  -6   4   10500     102
  -5  -6   4   29204     171
  -4  -6   4   57457     240
  -3  -6   4   32447     180
  -2  -6   4    4511      67
  -1  -6   4    4405      66
   0  -6   4    2626      51
   1  -6   4    9321      97
   2  -6   4   11925     109
   3  -6   4    3460      59
   4  -6   4    4499      67
  -7  -5   4    3540      59
  -6  -5   4     283      17
  -5  -5   4   20060     142
  -4  -5   4   48754     221
  -3  -5   4   18640     137
  -2  -5   4    2032      45
  -1  -5   4      57       8
   0  -5   4    7207      85
   1  -5   4    2244      47
   2  -5   4   15969     126
   3  -5   4   20231     142
   4  -5   4   21679     147
   5  -5   4   16088     127
  -7  -4   4   13742     117
  -6  -4   4    2809      53
  -5  -4   4    1204      35
  -4  -4   4    8298      91
  -3  -4   4    1005      32
  -2  -4   4   76985     277
  -1  -4   4    8300      91
   0  -4   4   15522     125
   1  -4   4   85285     292
   2  -4   4    5746      76
   3  -4   4    8651      93
   4  -4   4     937      31
   5  -4   4    8319      91
   6  -4   4   22068     149
  -7  -3   4    8260      91
  -6  -3   4   29386     171
  -5  -3   4    7215      85
  -4  -3   4    1543      39
  -3  -3   4   11470     107
  -2  -3   4    1387      37
  -1  -3   4   10316     102
   0  -3   4   98306     314
   1  -3   4  258802     509
   2  -3   4   93475     306
   3  -3   4   20253     142
   4  -3   4    4119      64
   5  -3   4   25188     159
   6  -3   4   32469     180
  -7  -2   4    3238      57
  -6  -2   4    4586      68
  -5  -2   4     727      27
  -4  -2   4    4833      70
  -3  -2   4  161983     402
  -2  -2   4  154000     392
  -1  -2   4    2593      51
   0  -2   4    7675      88
   1  -2   4   46734     216
   2  -2   4  119469     346
   3  -2   4   54487     233
   4  -2   4   25112     158
   5  -2   4   14417     120
   6  -2   4     183      14
   7  -2   4   12203     110
  -6  -1   4   14642     121
  -5  -1   4    5776      76
  -4  -1   4   36157     190
  -3  -1   4  124115     352
  -2  -1   4   96549     311
  -1  -1   4  178364     422
   0  -1   4  102707     320
   1  -1   4    9321      97
   2  -1   4   21862     148
   3  -1   4    7994      89
   4  -1   4   25604     160
   5  -1   4   30396     174
   6  -1   4   15106     123
   7  -1   4    1930      44
   8  -1   4    1622      40
  -6   0   4   20883     145
  -5   0   4   10663     103
  -4   0   4    2451      50
  -3   0   4   15535     125
  -2   0   4   65286     256
  -1   0   4   76096     276
   0   0   4    2668      52
   1   0   4   20332     143
   2   0   4  140687     375
   3   0   4  127404     357
   4   0   4  318553     564
   5   0   4    7863      89
   6   0   4    7171      85
   7   0   4   53771     232
   8   0   4   12618     112
  -6   1   4   12032     110
  -5   1   4   55401     235
  -4   1   4   37562     194
  -3   1   4    6020      78
  -2   1   4   13425     116
  -1   1   4   56050     237
   0   1   4  295761     544
   1   1   4   43796     209
   2   1   4   57010     239
   3   1   4  223327     473
   4   1   4   98025     313
   5   1   4    7459      86
   6   1   4   15280     124
   7   1   4   20338     143
   8   1   4    1983      45
  -5   2   4   28144     168
  -4   2   4    4020      63
  -3   2   4     319      18
  -2   2   4   84817     291
  -1   2   4   54669     234
   0   2   4   17270     131
   1   2   4    4245      65
   2   2   4   55688     236
   3   2   4  147320     384
   4   2   4   12321     111
   5   2   4   21288     146
   6   2   4   20136     142
   7   2   4   12517     112
   8   2   4   24114     155
   9   2   4    2124      46
  -5   3   4    7285      85
  -4   3   4    2973      55
  -3   3   4   13131     115
  -2   3   4   10102     101
  -1   3   4   31797     178
   0   3   4  101630     319
   1   3   4   37039     192
   2   3   4   16388     128
   3   3   4   23415     153
   4   3   4   14601     121
   5   3   4   35327     188
   6   3   4   22451     150
   7   3   4    6736      82
   8   3   4    3782      61
   9   3   4     221      15
  -4   4   4    8882      94
  -3   4   4    1218      35
  -2   4   4   51736     227
  -1   4   4   96354     310
   0   4   4   30556     175
   1   4   4   18040     134
   2   4   4   86751     295
   3   4   4   65021     255
   4   4   4   16410     128
   5   4   4   62338     250
   6   4   4   10490     102
   7   4   4   29065     170
   8   4   4   44478     211
   9   4   4    4297      66
  -4   5   4   17313     132
  -3   5   4    7026      84
  -2   5   4    5269      73
  -1   5   4   29402     171
   0   5   4    1838      43
   1   5   4   77199     278
   2   5   4   20052     142
   3   5   4   26217     162
   4   5   4   60113     245
   5   5   4    1290      36
   6   5   4   12414     111
   7   5   4    6438      80
   8   5   4   30093     173
   9   5   4   33189     182
  -3   6   4    9769      99
  -2   6   4   10190     101
  -1   6   4   28611     169
   0   6   4    8577      93
   1   6   4   13983     118
   2   6   4   10348     102
   3   6   4   27550     166
   4   6   4  121402     348
   5   6   4   72702     270
   6   6   4   39419     199
   7   6   4   10511     103
   8   6   4   11109     105
   9   6   4   15874     126
  -2   7   4    2733      52
  -1   7   4    4974      71
   0   7   4   35427     188
   1   7   4   19528     140
   2   7   4    1215      35
   3   7   4    1882      43
   4   7   4   12618     112
   5   7   4   26898     164
   6   7   4   14862     122
   7   7   4    3048      55
   8   7   4    1448      38
  -1   8   4    7060      84
   0   8   4   15483     124
   1   8   4   16903     130
   2   8   4   18214     135
   3   8   4    8086      90
   4   8   4    3803      62
   5   8   4   27805     167
   6   8   4   22267     149
   7   8   4    5388      73
   8   8   4    6174      79
   1   9   4    8737      93
   2   9   4   18945     138
   3   9   4   10753     104
   4   9   4    8663      93
   5   9   4    9601      98
   6   9   4     403      20
   7   9   4    2325      48
   4  10   4    2326      48
   5  10   4    4275      65
  -4  -8   5    7652      87
  -3  -8   5   12238     111
  -2  -8   5    4235      65
  -1  -8   5    1657      41
   0  -8   5    2789      53
   1  -8   5     760      28
  -5  -7   5    3985      63
  -4  -7   5    4065      64
  -3  -7   5    5450      74
  -2  -7   5   19666     140
  -1  -7   5   42679     207
   0  -7   5   16815     130
   1  -7   5    2424      49
   2  -7   5    7467      86
  -5  -6   5    5012      71
  -4  -6   5    6007      78
  -3  -6   5    1213      35
  -2  -6   5    1986      45
  -1  -6   5     773      28
   0  -6   5   33039     182
   1  -6   5   53672     232
   2  -6   5     148      12
   3  -6   5   21607     147
   4  -6   5    5708      76
  -6  -5   5    6308      79
  -5  -5   5   26611     163
  -4  -5   5   54781     234
  -3  -5   5   34432     186
  -2  -5   5    4240      65
  -1  -5   5    2803      53
   0  -5   5    7608      87
   1  -5   5   52659     229
   2  -5   5   37503     194
   3  -5   5   20351     143
   4  -5   5   19438     139
   5  -5   5     975      31
  -6  -4   5    8657      93
  -5  -4   5    2370      49
  -4  -4   5    3342      58
  -3  -4   5  112498     335
  -2  -4   5   90284     300
  -1  -4   5    5564      75
   0  -4   5    4916      70
   1  -4   5    1455      38
   2  -4   5   12829     113
   3  -4   5   17100     131
   4  -4   5   47878     219
   5  -4   5   25620     160
   6  -4   5     421      21
  -6  -3   5    9956     100
  -5  -3   5    2950      54
  -4  -3   5    3108      56
  -3  -3   5    1249      35
  -2  -3   5    2851      53
  -1  -3   5   34314     185
   0  -3   5   90837     301
   1  -3   5    7389      86
   2  -3   5    5559      75
   3  -3   5     741      27
   4  -3   5    4058      64
   5  -3   5   23585     154
   6  -3   5    7565      87
  -6  -2   5    7225      85
  -5  -2   5   20451     143
  -4  -2   5   12280     111
  -3  -2   5    4499      67
  -2  -2   5   40454     201
  -1  -2   5   38844     197
   0  -2   5   46708     216
   1  -2   5  123587     352
   2  -2   5  126688     356
   3  -2   5    8513      92
   4  -2   5    3398      58
   5  -2   5    1562      40
   6  -2   5    8483      92
   7  -2   5   14877     122
  -6  -1   5    1488      39
  -5  -1   5   15964     126
  -4  -1   5   24971     158
  -3  -1   5   29860     173
  -2  -1   5   45818     214
  -1  -1   5    7724      88
   0  -1   5     663      26
   1  -1   5   12827     113
   2  -1   5  118407     344
   3  -1   5   36965     192
   4  -1   5    5023      71
   5  -1   5    3126      56
   6  -1   5    5288      73
   7  -1   5    2349      48
  -6   0   5    2414      49
  -5   0   5    5156      72
  -4   0   5    8253      91
  -3   0   5   18140     135
  -2   0   5  177782     422
  -1   0   5   93848     306
   0   0   5    5323      73
   1   0   5   12180     110
   2   0   5    6795      82
   3   0   5   39208     198
   4   0   5   45347     213
   5   0   5   98690     314
   6   0   5   84026     290
   7   0   5    6723      82
   8   0   5     853      29
  -5   1   5    2927      54
  -4   1   5      16       4
  -3   1   5    3576      60
  -2   1   5    9085      95
  -1   1   5   48448     220
   0   1   5    8650      93
   1   1   5   50577     225
   2   1   5   59419     244
   3   1   5    1814      43
   4   1   5     513      23
   5   1   5   26973     164
   6   1   5   96074     310
   7   1   5   20168     142
   8   1   5     688      26
  -5   2   5   17705     133
  -4   2   5    9784      99
  -3   2   5   14114     119
  -2   2   5   13957     118
  -1   2   5     179      13
   0   2   5   18571     136
   1   2   5  104137     323
   2   2   5  164102     405
   3   2   5   83471     289
   4   2   5   11635     108
   5   2   5    4486      67
   6   2   5   16545     129
   7   2   5   16834     130
   8   2   5   18026     134
   9   2   5    6676      82
  -4   3   5   15635     125
  -3   3   5   32396     180
  -2   3   5    9758      99
  -1   3   5    1296      36
   0   3   5    3801      62
   1   3   5   17252     131
   2   3   5  154176     393
   3   3   5  295701     544
   4   3   5  119044     345
   5   3   5    3625      60
   6   3   5     201      14
   7   3   5    9894      99
   8   3   5   29451     172
   9   3   5    7141      85
  -4   4   5    1156      34
  -3   4   5    5775      76
  -2   4   5   17359     132
  -1   4   5  133386     365
   0   4   5  135014     367
   1   4   5    1271      36
   2   4   5    2883      54
   3   4   5    7855      89
   4   4   5   60987     247
   5   4   5    5013      71
   6   4   5     506      22
   7   4   5   30301     174
   8   4   5    8174      90
   9   4   5    1822      43
  -3   5   5     112      11
  -2   5   5    3979      63
  -1   5   5   38743     197
   0   5   5   56919     239
   1   5   5    7252      85
   2   5   5    1928      44
   3   5   5    6119      78
   4   5   5   10077     100
   5   5   5    5366      73
   6   5   5    4747      69
   7   5   5   29733     172
   8   5   5    9621      98
   9   5   5    5138      72
  -2   6   5     207      14
  -1   6   5     853      29
   0   6   5   16285     128
   1   6   5   13641     117
   2   6   5     764      28
   3   6   5   13247     115
   4   6   5   41524     204
   5   6   5    4438      67
   6   6   5    4603      68
   7   6   5   12588     112
   8   6   5   11390     107
   9   6   5    8794      94
  -1   7   5    4695      69
   0   7   5    4725      69
   1   7   5    2965      54
   2   7   5   15590     125
   3   7   5   47476     218
   4   7   5   26811     164
   5   7   5   23939     155
   6   7   5   60391     246
   7   7   5   19149     138
   8   7   5    4828      69
   0   8   5    9256      96
   1   8   5   18416     136
   2   8   5    8592      93
   3   8   5    2591      51
   4   8   5   12894     114
   5   8   5   55096     235
   6   8   5   11243     106
   7   8   5    4996      71
   8   8   5    7867      89
   2   9   5   11670     108
   3   9   5    5321      73
   4   9   5    4737      69
   5   9   5    3036      55
   6   9   5   15865     126
   7   9   5   10023     100
  -4  -7   6   13679     117
  -3  -7   6    9450      97
  -2  -7   6    6894      83
  -1  -7   6   17358     132
   0  -7   6    1016      32
   1  -7   6   23456     153
   2  -7   6   19133     138
  -5  -6   6    4335      66
  -4  -6   6    3501      59
  -3  -6   6   22905     151
  -2  -6   6   32182     179
  -1  -6   6   26805     164
   0  -6   6   18020     134
   1  -6   6    1103      33
   2  -6   6      21       5
   3  -6   6     751      27
  -5  -5   6    9870      99
  -4  -5   6   21465     147
  -3  -5   6    3651      60
  -2  -5   6   21211     146
  -1  -5   6    3118      56
   0  -5   6   11443     107
   1  -5   6   12129     110
   2  -5   6    3536      59
   3  -5   6    6340      80
   4  -5   6     850      29
  -5  -4   6   10690     103
  -4  -4   6   15234     123
  -3  -4   6   12313     111
  -2  -4   6   15073     123
  -1  -4   6    1855      43
   0  -4   6   17001     130
   1  -4   6    8902      94
   2  -4   6    6489      81
   3  -4   6   21618     147
   4  -4   6   18183     135
   5  -4   6    3457      59
  -5  -3   6    4138      64
  -4  -3   6   22331     149
  -3  -3   6   15436     124
  -2  -3   6     869      29
  -1  -3   6    3445      59
   0  -3   6   35259     188
   1  -3   6    2310      48
   2  -3   6   46236     215
   3  -3   6   51148     226
   4  -3   6   35325     188
   5  -3   6   41541     204
   6  -3   6    4578      68
  -5  -2   6    4177      65
  -4  -2   6    1367      37
  -3  -2   6    4348      66
  -2  -2   6   16974     130
  -1  -2   6  109828     331
   0  -2   6  103240     321
   1  -2   6   73060     270
   2  -2   6   13773     117
   3  -2   6    3656      60
   4  -2   6   10644     103
   5  -2   6   31745     178
   6  -2   6   32703     181
   7  -2   6    7036      84
  -5  -1   6    2841      53
  -4  -1   6   29444     172
  -3  -1   6   50249     224
  -2  -1   6   11053     105
  -1  -1   6   59157     243
   0  -1   6   21049     145
   1  -1   6  194510     441
   2  -1   6  155206     394
   3  -1   6     323      18
   4  -1   6     340      18
   5  -1   6     230      15
   6  -1   6   25755     160
   7  -1   6    9351      97
  -5   0   6   14004     118
  -4   0   6   12045     110
  -3   0   6   39287     198
  -2   0   6   40190     200
  -1   0   6    4056      64
   0   0   6   14210     119
   1   0   6    8575      93
   2   0   6   23073     152
   3   0   6   37129     193
   4   0   6   13439     116
   5   0   6   14101     119
   6   0   6   34340     185
   7   0   6    3288      57
   8   0   6     434      21
  -5   1   6    3490      59
  -4   1   6    8167      90
  -3   1   6   61147     247
  -2   1   6   91989     303
  -1   1   6   21117     145
   0   1   6    9246      96
   1   1   6    8262      91
   2   1   6   94086     307
   3   1   6   24322     156
   4   1   6    2286      48
   5   1   6   77416     278
   6   1   6  105418     325
   7   1   6   13647     117
   8   1   6     244      16
  -4   2   6    3190      56
  -3   2   6    9858      99
  -2   2   6    2535      50
  -1   2   6    4209      65
   0   2   6   42740     207
   1   2   6   26273     162
   2   2   6   24655     157
   3   2   6    8691      93
   4   2   6    5403      74
   5   2   6    3684      61
   6   2   6   10614     103
   7   2   6   49383     222
   8   2   6   14362     120
  -4   3   6    8773      94
  -3   3   6    9170      96
  -2   3   6    2581      51
  -1   3   6    2488      50
   0   3   6    3180      56
   1   3   6    4514      67
   2   3   6  121676     349
   3   3   6  134686     367
   4   3   6    3664      61
   5   3   6    4307      66
   6   3   6     568      24
   7   3   6   37138     193
   8   3   6   19625     140
   9   3   6    4266      65
  -3   4   6     838      29
  -2   4   6   26813     164
  -1   4   6   27392     166
   0   4   6   28604     169
   1   4   6   14765     122
   2   4   6    1204      35
   3   4   6   82278     287
   4   4   6  136495     369
   5   4   6   24315     156
   6   4   6     293      17
   7   4   6   11652     108
   8   4   6    8956      95
   9   4   6    4616      68
  -2   5   6   11777     109
  -1   5   6   37404     193
   0   5   6   42064     205
   1   5   6   42477     206
   2   5   6    3399      58
   3   5   6   41934     205
   4   5   6   37017     192
   5   5   6   10589     103
   6   5   6   23216     152
   7   5   6    3636      60
   8   5   6    1975      44
   9   5   6    1804      42
  -1   6   6   11062     105
   0   6   6   39015     198
   1   6   6   32806     181
   2   6   6    8163      90
   3   6   6     410      20
   4   6   6    5567      75
   5   6   6   12203     110
   6   6   6   18775     137
   7   6   6   40360     201
   8   6   6   49000     221
   9   6   6    9387      97
   0   7   6    3491      59
   1   7   6    7556      87
   2   7   6   15273     124
   3   7   6   18965     138
   4   7   6   13370     116
   5   7   6    1174      34
   6   7   6     480      22
   7   7   6    2396      49
   8   7   6    9174      96
   1   8   6    5653      75
   2   8   6    2010      45
   3   8   6     557      24
   4   8   6   28564     169
   5   8   6   24322     156
   6   8   6     478      22
   7   8   6    2886      54
   8   8   6    3838      62
   3   9   6      39       6
   4   9   6    5782      76
   5   9   6   19947     141
   6   9   6   11238     106
  -2  -7   7    4887      70
  -1  -7   7     726      27
   0  -7   7    9547      98
  -3  -6   7    3487      59
  -2  -6   7    6255      79
  -1  -6   7   22560     150
   0  -6   7    9526      98
   1  -6   7     342      18
   2  -6   7   11335     106
  -4  -5   7     558      24
  -3  -5   7   21615     147
  -2  -5   7   29668     172
  -1  -5   7   37723     194
   0  -5   7   15137     123
   1  -5   7     114      11
   2  -5   7    3135      56
   3  -5   7    8236      91
   4  -5   7   19629     140
  -4  -4   7    1528      39
  -3  -4   7    1141      34
  -2  -4   7    2909      54
  -1  -4   7   53412     231
   0  -4   7   71693     268
   1  -4   7   14559     121
   2  -4   7    1449      38
   3  -4   7    3779      61
   4  -4   7    5127      72
   5  -4   7    4055      64
  -5  -3   7   20303     142
  -4  -3   7   29274     171
  -3  -3   7   21123     145
  -2  -3   7    2330      48
  -1  -3   7    4249      65
   0  -3   7    2054      45
   1  -3   7   26542     163
   2  -3   7   22442     150
   3  -3   7     169      13
   4  -3   7   11205     106
   5  -3   7   15949     126
   6  -3   7      46       7
  -5  -2   7    3092      56
  -4  -2   7    2599      51
  -3  -2   7   30142     174
  -2  -2   7    8119      90
  -1  -2   7   12343     111
   0  -2   7    1517      39
   1  -2   7    3389      58
   2  -2   7    8340      91
   3  -2   7   20919     145
   4  -2   7   51381     227
   5  -2   7   31878     179
   6  -2   7    1312      36
  -4  -1   7    1207      35
  -3  -1   7    2135      46
  -2  -1   7   16815     130
  -1  -1   7    8152      90
   0  -1   7   54337     233
   1  -1   7  103405     322
   2  -1   7   13868     118
   3  -1   7       9       3
   4  -1   7   10164     101
   5  -1   7   24857     158
   6  -1   7    2713      52
   7  -1   7    1627      40
  -4   0   7    4535      67
  -3   0   7    6929      83
  -2   0   7    2902      54
  -1   0   7    4988      71
   0   0   7   77162     278
   1   0   7  114336     338
   2   0   7   20645     144
   3   0   7    9185      96
   4   0   7   10860     104
   5   0   7    3387      58
   6   0   7   40560     201
   7   0   7   42644     207
   8   0   7   19078     138
  -4   1   7   11058     105
  -3   1   7   21207     146
  -2   1   7   29277     171
  -1   1   7   18007     134
   0   1   7      51       7
   1   1   7   13502     116
   2   1   7   51263     226
   3   1   7   44821     212
   4   1   7    9942     100
   5   1   7   15097     123
   6   1   7    9175      96
   7   1   7    2872      54
   8   1   7    7157      85
  -3   2   7   17084     131
  -2   2   7   40619     202
  -1   2   7   32112     179
   0   2   7    6517      81
   1   2   7    9803      99
   2   2   7    1826      43
   3   2   7   54997     235
   4   2   7   25218     159
   5   2   7   19467     140
   6   2   7   28303     168
   7   2   7    2580      51
   8   2   7    1402      37
  -3   3   7    1200      35
  -2   3   7   13138     115
  -1   3   7   45228     213
   0   3   7    2886      54
   1   3   7    1466      38
   2   3   7   36725     192
   3   3   7     405      20
   4   3   7   32128     179
   5   3   7   34490     186
   6   3   7   53328     231
   7   3   7   19887     141
   8   3   7     346      19
  -2   4   7    2461      50
  -1   4   7     716      27
   0   4   7   11118     105
   1   4   7   69493     264
   2   4   7  132234     364
   3   4   7   30821     176
   4   4   7    6622      81
   5   4   7   10137     101
   6   4   7    2178      47
   7   4   7    9633      98
   8   4   7    4961      70
  -2   5   7    9708      99
  -1   5   7    9446      97
   0   5   7     234      15
   1   5   7    5111      71
   2   5   7   14003     118
   3   5   7   20645     144
   4   5   7   14490     120
   5   5   7    4454      67
   6   5   7    1596      40
   7   5   7      80       9
   8   5   7    6365      80
  -1   6   7   10161     101
   0   6   7   11292     106
   1   6   7    3791      62
   2   6   7     766      28
   3   6   7    2938      54
   4   6   7    3151      56
   5   6   7   10008     100
   6   6   7   20034     142
   7   6   7   11589     108
   8   6   7     139      12
   0   7   7   16760     129
   1   7   7    3582      60
   2   7   7    5555      75
   3   7   7   17381     132
   4   7   7    9110      95
   5   7   7   19711     140
   6   7   7    1857      43
   7   7   7   17061     131
   8   7   7   55368     235
   2   8   7    3581      60
   3   8   7   20665     144
   4   8   7   26413     163
   5   8   7    4875      70
   6   8   7     340      18
   7   8   7    8496      92
  -1  -6   8    3891      62
   0  -6   8   13086     114
   1  -6   8    6063      78
  -3  -5   8    7578      87
  -2  -5   8   19538     140
  -1  -5   8    7411      86
   0  -5   8     511      23
   1  -5   8    2148      46
   2  -5   8    1974      44
   3  -5   8    8556      92
  -3  -4   8    6016      78
  -2  -4   8    6677      82
  -1  -4   8   25244     159
   0  -4   8   52499     229
   1  -4   8    4486      67
   2  -4   8    4024      63
   3  -4   8      46       7
   4  -4   8    3966      63
  -3  -3   8     101      10
  -2  -3   8   14097     119
  -1  -3   8    1089      33
   0  -3   8    1891      43
   1  -3   8   13764     117
   2  -3   8   12071     110
   3  -3   8    3238      57
   4  -3   8    5093      71
   5  -3   8   15040     123
  -4  -2   8   28323     168
  -3  -2   8   12916     114
  -2  -2   8     961      31
  -1  -2   8    9446      97
   0  -2   8    5485      74
   1  -2   8   80895     284
   2  -2   8   30300     174
   3  -2   8   18595     136
   4  -2   8   36845     192
   5  -2   8    5169      72
   6  -2   8     307      18
  -4  -1   8     727      27
  -3  -1   8    9276      96
  -2  -1   8   28945     170
  -1  -1   8   23814     154
   0  -1   8    6310      79
   1  -1   8    5080      71
   2  -1   8    3996      63
   3  -1   8   30862     176
   4  -1   8   44737     212
   5  -1   8   16664     129
   6  -1   8    7100      84
   7  -1   8     536      23
  -3   0   8    5911      77
  -2   0   8    5303      73
  -1   0   8   14786     122
   0   0   8   45177     213
   1   0   8   23471     153
   2   0   8    3646      60
   3   0   8    2335      48
   4   0   8     334      18
   5   0   8   29758     173
   6   0   8   11824     109
   7   0   8    6761      82
  -3   1   8    3870      62
  -2   1   8    1034      32
  -1   1   8   36271     190
   0   1   8   25466     160
   1   1   8   34727     186
   2   1   8   47774     219
   3   1   8    4383      66
   4   1   8   14866     122
   5   1   8    2591      51
   6   1   8    4884      70
   7   1   8   28880     170
   8   1   8   24342     156
  -3   2   8   24222     156
  -2   2   8    3172      56
  -1   2   8     658      26
   0   2   8    8935      95
   1   2   8     123      11
   2   2   8   50268     224
   3   2   8   18872     137
   4   2   8    8601      93
   5   2   8   23171     152
   6   2   8    1155      34
   7   2   8    1082      33
   8   2   8     247      16
  -2   3   8   28238     168
  -1   3   8   17042     131
   0   3   8     807      28
   1   3   8    6832      83
   2   3   8    3057      55
   3   3   8    6395      80
   4   3   8   22238     149
   5   3   8   45188     213
   6   3   8   35742     189
   7   3   8   14945     122
   8   3   8    2887      54
  -1   4   8    1102      33
   0   4   8   15972     126
   1   4   8   21031     145
   2   4   8    2605      51
   3   4   8    1248      35
   4   4   8    9303      96
   5   4   8   11036     105
   6   4   8   72445     269
   7   4   8   25271     159
   8   4   8     339      18
  -1   5   8     701      26
   0   5   8    4647      68
   1   5   8   12557     112
   2   5   8   63168     251
   3   5   8   83759     289
   4   5   8    6413      80
   5   5   8    3921      63
   6   5   8    4787      69
   7   5   8   13528     116
   8   5   8   13565     116
   0   6   8     804      28
   1   6   8    2136      46
   2   6   8   15151     123
   3   6   8   44818     212
   4   6   8   14990     122
   5   6   8     544      23
   6   6   8     134      12
   7   6   8     950      31
   8   6   8    8766      94
   2   7   8    6245      79
   3   7   8    3591      60
   4   7   8   18990     138
   5   7   8    5267      73
   6   7   8    6965      83
   7   7   8    9984     100
   3   8   8     163      13
   4   8   8     256      16
   5   8   8     784      28
   6   8   8    3338      58
   0  -5   9   11379     107
   1  -5   9   15021     123
  -2  -4   9    2104      46
  -1  -4   9   20451     143
   0  -4   9    2970      54
   1  -4   9   21826     148
   2  -4   9   15898     126
   3  -4   9    8647      93
  -2  -3   9   17207     131
  -1  -3   9   25315     159
   0  -3   9   22989     152
   1  -3   9    5301      73
   2  -3   9    1068      33
   3  -3   9    2083      46
   4  -3   9    6963      83
  -2  -2   9     524      23
  -1  -2   9    8638      93
   0  -2   9    7202      85
   1  -2   9    2145      46
   2  -2   9    1055      32
   3  -2   9   13716     117
   4  -2   9    2978      55
   5  -2   9    5677      75
  -2  -1   9     681      26
  -1  -1   9     386      20
   0  -1   9     238      15
   1  -1   9    6382      80
   2  -1   9   23536     153
   3  -1   9   39575     199
   4  -1   9   36894     192
   5  -1   9    9228      96
   6  -1   9     352      19
  -2   0   9    3432      59
  -1   0   9    5093      71
   0   0   9   23085     152
   1   0   9    2360      49
   2   0   9   26135     162
   3   0   9   18370     136
   4   0   9    9745      99
   5   0   9   29661     172
   6   0   9    9986     100
   7   0   9     511      23
  -2   1   9    9323      97
  -1   1   9   10232     101
   0   1   9   38641     197
   1   1   9   74595     273
   2   1   9    8082      90
   3   1   9    1781      42
   4   1   9    8324      91
   5   1   9   31107     176
   6   1   9   13697     117
   7   1   9    4047      64
  -2   2   9     129      11
  -1   2   9    8688      93
   0   2   9   16614     129
   1   2   9   43321     208
   2   2   9   22723     151
   3   2   9    3947      63
   4   2   9    1831      43
   5   2   9    4867      70
   6   2   9   13036     114
   7   2   9    3029      55
  -1   3   9    1838      43
   0   3   9    4492      67
   1   3   9   15506     125
   2   3   9    2652      51
   3   3   9    1594      40
   4   3   9   10622     103
   5   3   9    7639      87
   6   3   9    1925      44
   7   3   9    4932      70
   0   4   9    1470      38
   1   4   9    2750      52
   2   4   9    2458      50
   3   4   9   45643     214
   4   4   9   30452     175
   5   4   9   10412     102
   6   4   9   29306     171
   7   4   9   21027     145
   0   5   9    3782      61
   1   5   9    7438      86
   2   5   9   15388     124
   3   5   9    6219      79
   4   5   9    4390      66
   5   5   9    1152      34
   6   5   9   11611     108
   7   5   9   13976     118
   2   6   9   21948     148
   3   6   9   23584     154
   4   6   9    1161      34
   5   6   9    3540      59
   6   6   9      21       5
   7   6   9   17904     134
   3   7   9    9641      98
   4   7   9   11354     107
   5   7   9   11011     105
   6   7   9    2715      52
   0  -3  10     637      25
   1  -3  10     271      16
   2  -3  10    1656      41
   3  -3  10   10141     101
  -1  -2  10   14890     122
   0  -2  10   16190     127
   1  -2  10    6273      79
   2  -2  10    7206      85
   3  -2  10   20648     144
   4  -2  10   10921     105
  -1  -1  10    3124      56
   0  -1  10   26267     162
   1  -1  10   16125     127
   2  -1  10    1713      41
   3  -1  10    5423      74
   4  -1  10    3080      55
   5  -1  10    3918      63
  -1   0  10    2524      50
   0   0  10    1072      33
   1   0  10    8024      90
   2   0  10   16705     129
   3   0  10    7278      85
   4   0  10   26439     163
   5   0  10   16714     129
   6   0  10     275      17
  -1   1  10    3117      56
   0   1  10    4523      67
   1   1  10    3088      56
   2   1  10    3027      55
   3   1  10    3183      56
   4   1  10   26404     162
   5   1  10    6277      79
   6   1  10    2057      45
   0   2  10    8240      91
   1   2  10   19542     140
   2   2  10   18137     135
   3   2  10    1317      36
   4   2  10    6715      82
   5   2  10   17078     131
   6   2  10   13524     116
   0   3  10   14043     119
   1   3  10   25181     159
   2   3  10    9592      98
   3   3  10    3232      57
   4   3  10    2849      53
   5   3  10     468      22
   6   3  10    9454      97
   7   3  10   10320     102
   1   4  10      39       6
   2   4  10   20014     141
   3   4  10   10014     100
   4   4  10     887      30
   5   4  10   17450     132
   6   4  10   18245     135
   2   5  10     614      25
   3   5  10    6365      80
   4   5  10   18629     136
   5   5  10   35737     189
   6   5  10   15275     124
   4   6  10    2063      45
   5   6  10    6308      79
   2  -1  11     101      10
   3  -1  11      81       9
   1   0  11    6038      78
   2   0  11    6842      83
   3   0  11    5898      77
   4   0  11     490      22
   1   1  11    6447      80
   2   1  11   16548     129
   3   1  11   35805     189
   4   1  11   24319     156
   5   1  11    1651      41
   2   2  11    4427      67
   3   2  11    7417      86
   4   2  11   10946     105
   5   2  11   14805     122
   2   3  11     392      20
   3   3  11    2828      53
   4   3  11    4526      67
   5   3  11    1259      35
   4   4  11     824      29
  -1   0   0  720064     849
  -2   0   0   69114     263
  -3   0   0   24133     155
  -4   0   0    1196      35
  -5   0   0   41913     205
  -6   0   0   19930     141
  -7   0   0   23951     155
  -8   0   0   11143     106
   7  -1   0     112      11
   6  -1   0    2079      46
   5  -1   0   54515     233
   4  -1   0  256363     506
   3  -1   0  113251     337
   2  -1   0     716      27
   1  -1   0   16696     129
   0  -1   0   37601     194
  -1  -1   0   36522     191
  -2  -1   0  112505     335
  -3  -1   0   38438     196
  -4  -1   0   22849     151
  -5  -1   0   10339     102
  -6  -1   0     206      14
  -7  -1   0   19638     140
  -8  -1   0   14145     119
   7  -2   0     735      27
   6  -2   0    1939      44
   5  -2   0    1363      37
   4  -2   0  128880     359
   3  -2   0  186218     432
   2  -2   0   36211     190
   1  -2   0    2061      45
   0  -2   0   73153     270
  -1  -2   0   96785     311
  -2  -2   0    1593      40
  -3  -2   0   32321     180
  -4  -2   0  118495     344
  -5  -2   0   31446     177
  -6  -2   0    1974      44
  -7  -2   0    5329      73
  -8  -2   0    3346      58
   6  -3   0    1764      42
   5  -3   0   16658     129
   4  -3   0    6042      78
   3  -3   0   16547     129
   2  -3   0  160979     401
   1  -3   0   67825     260
   0  -3   0    5901      77
  -1  -3   0   18725     137
  -2  -3   0    1535      39
  -3  -3   0   33381     183
  -4  -3   0   24400     156
  -5  -3   0   62210     249
  -6  -3   0   62327     250
  -7  -3   0   18271     135
  -8  -3   0    2441      49
   6  -4   0   34490     186
   5  -4   0   38142     195
   4  -4   0    8896      94
   3  -4   0    4609      68
   2  -4   0    1844      43
   1  -4   0   18969     138
   0  -4   0   16209     127
  -1  -4   0  347628     590
  -2  -4   0   72316     269
  -3  -4   0   19746     141
  -4  -4   0   69919     264
  -5  -4   0   17974     134
  -6  -4   0   84918     291
  -7  -4   0   11564     108
  -8  -4   0    8420      92
   5  -5   0    5464      74
   4  -5   0     902      30
   3  -5   0   30878     176
   2  -5   0   19735     140
   1  -5   0    2190      47
   0  -5   0      18       4
  -1  -5   0  103421     322
  -2  -5   0  243209     493
  -3  -5   0   60273     246
  -4  -5   0   35682     189
  -5  -5   0   24481     156
  -6  -5   0    1169      34
  -7  -5   0    7860      89
  -8  -5   0   26478     163
   4  -6   0     153      12
   3  -6   0   29382     171
   2  -6   0   41294     203
   1  -6   0   21345     146
   0  -6   0   39470     199
  -1  -6   0    3533      59
  -2  -6   0   20927     145
  -3  -6   0   13539     116
  -4  -6   0   32551     180
  -5  -6   0   38154     195
  -6  -6   0    2082      46
  -7  -6   0    5073      71
  -8  -6   0     763      28
   3  -7   0    1980      44
   2  -7   0   28741     170
   1  -7   0   41957     205
   0  -7   0   14201     119
  -1  -7   0    7598      87
  -2  -7   0    6835      83
  -3  -7   0    5951      77
  -4  -7   0   52256     229
  -5  -7   0   35890     189
  -6  -7   0   21889     148
  -7  -7   0   18945     138
  -8  -7   0    7211      85
   2  -8   0    2395      49
   1  -8   0    5587      75
   0  -8   0   23476     153
  -1  -8   0   29695     172
  -2  -8   0   33442     183
  -3  -8   0    7996      89
  -4  -8   0     995      32
  -5  -8   0     813      29
  -6  -8   0    7135      84
  -7  -8   0   24184     156
   0  -9   0     375      19
  -1  -9   0    2334      48
  -2  -9   0    8337      91
  -3  -9   0   26469     163
  -4  -9   0    8715      93
  -5  -9   0    8858      94
  -6  -9   0    4766      69
  -7  -9   0    4632      68
  -2 -10   0    1727      42
  -3 -10   0   13929     118
  -4 -10   0    5136      72
  -5 -10   0    1818      43
   4  10  -1   11101     105
   3  10  -1    1450      38
   2  10  -1   11146     106
   6   9  -1    6134      78
   5   9  -1    7477      86
   4   9  -1   33517     183
   3   9  -1   14974     122
   2   9  -1    1743      42
   1   9  -1    7754      88
   0   9  -1    8636      93
   7   8  -1    9473      97
   6   8  -1    1271      36
   5   8  -1   34837     187
   4   8  -1   34082     185
   3   8  -1    9957     100
   2   8  -1   11333     106
   1   8  -1   12417     111
   0   8  -1    2700      52
  -1   8  -1    2788      53
  -2   8  -1    4590      68
   7   7  -1   15309     124
   6   7  -1    9259      96
   5   7  -1    3070      55
   4   7  -1    3528      59
   3   7  -1   20592     143
   2   7  -1    8205      91
   1   7  -1   15242     123
   0   7  -1   13138     115
  -1   7  -1   39407     199
  -2   7  -1     582      24
  -3   7  -1   17720     133
   8   6  -1   22657     151
   7   6  -1   15177     123
   6   6  -1   14963     122
   5   6  -1     355      19
   4   6  -1    2777      53
   3   6  -1   49985     224
   2   6  -1     533      23
   1   6  -1  142314     377
   0   6  -1   63656     252
  -1   6  -1   24544     157
  -2   6  -1   44372     211
  -3   6  -1   20715     144
  -4   6  -1    1890      43
   8   5  -1    2811      53
   7   5  -1    1339      37
   6   5  -1   17609     133
   5   5  -1   21635     147
   4   5  -1   12657     113
   3   5  -1  137650     371
   2   5  -1  144597     380
   1   5  -1    4032      63
   0   5  -1    2301      48
  -1   5  -1   37439     193
  -2   5  -1   96973     311
  -3   5  -1   24555     157
  -4   5  -1    8342      91
  -5   5  -1    3623      60
   8   4  -1     541      23
   7   4  -1   34941     187
   6   4  -1   71315     267
   5   4  -1    2697      52
   4   4  -1   46678     216
   3   4  -1   72892     270
   2   4  -1  123370     351
   1   4  -1  105158     324
   0   4  -1   66055     257
  -1   4  -1    3215      57
  -2   4  -1   42900     207
  -3   4  -1   50452     225
  -4   4  -1   14645     121
  -5   4  -1    1954      44
  -6   4  -1    2034      45
   8   3  -1    3512      59
   7   3  -1    6984      84
   6   3  -1    8330      91
   5   3  -1   16039     127
   4   3  -1   10222     101
   3   3  -1  103755     322
   2   3  -1  452019     672
   1   3  -1  223267     473
   0   3  -1   42866     207
  -1   3  -1   13031     114
  -2   3  -1    4735      69
  -3   3  -1   33939     184
  -4   3  -1   32374     180
  -5   3  -1   10294     101
  -6   3  -1   15949     126
   8   2  -1    1548      39
   7   2  -1   36913     192
   6   2  -1  109437     331
   5   2  -1  172792     416
   4   2  -1   63298     252
   3   2  -1    1488      39
   2   2  -1   11078     105
   1   2  -1   11553     107
   0   2  -1  272171     522
  -1   2  -1   27619     166
  -2   2  -1   27374     165
  -3   2  -1  113215     336
  -4   2  -1    2961      54
  -5   2  -1    5416      74
  -6   2  -1     989      31
  -7   2  -1    6813      83
   8   1  -1    4588      68
   7   1  -1    5864      77
   6   1  -1   18184     135
   5   1  -1   36043     190
   4   1  -1   58890     243
   3   1  -1    7958      89
   2   1  -1  113081     336
   1   1  -1  105317     325
   0   1  -1  288049     537
  -1   1  -1  110633     333
  -2   1  -1     894      30
  -3   1  -1  164599     406
  -4   1  -1  114375     338
  -5   1  -1   32978     182
  -6   1  -1   13923     118
  -7   1  -1    4431      67
   7   0  -1    1347      37
   6   0  -1   11198     106
   5   0  -1   13931     118
   4   0  -1   29356     171
   3   0  -1   11673     108
   2   0  -1    1448      38
   1   0  -1  191100     437
   0   0  -1   81004     285
  -1   0  -1   38981     197
  -2   0  -1   65090     255
  -3   0  -1   25465     160
  -4   0  -1   71608     268
  -5   0  -1   26666     163
  -6   0  -1   14188     119
  -7   0  -1     419      20
  -8   0  -1    1298      36
   7  -1  -1    3543      60
   6  -1  -1   11133     106
   5  -1  -1   26748     164
   4  -1  -1    1189      34
   3  -1  -1    8858      94
   2  -1  -1   18733     137
   1  -1  -1  117546     343
   0  -1  -1  246235     496
  -1  -1  -1  403331     635
  -2  -1  -1  299773     548
  -3  -1  -1     862      29
  -4  -1  -1   72515     269
  -5  -1  -1   34566     186
  -6  -1  -1   12575     112
  -7  -1  -1   20338     143
  -8  -1  -1   24214     156
   6  -2  -1    1470      38
   5  -2  -1    7816      88
   4  -2  -1   54972     234
   3  -2  -1   93044     305
   2  -2  -1    4644      68
   1  -2  -1   19600     140
   0  -2  -1   64746     254
  -1  -2  -1  335549     579
  -2  -2  -1  156385     395
  -3  -2  -1    8319      91
  -4  -2  -1   23938     155
  -5  -2  -1     839      29
  -6  -2  -1   15807     126
  -7  -2  -1   30216     174
  -8  -2  -1   50823     225
   6  -3  -1    2280      48
   5  -3  -1   19677     140
   4  -3  -1   41294     203
   3  -3  -1   95145     308
   2  -3  -1   94549     307
   1  -3  -1  135315     368
   0  -3  -1   94478     307
  -1  -3  -1   48944     221
  -2  -3  -1   48082     219
  -3  -3  -1   43726     209
  -4  -3  -1  351886     593
  -5  -3  -1  116582     341
  -6  -3  -1     203      14
  -7  -3  -1    7335      86
  -8  -3  -1    1893      44
  -9  -3  -1    6858      83
   5  -4  -1    1940      44
   4  -4  -1    8991      95
   3  -4  -1   14437     120
   2  -4  -1   38417     196
   1  -4  -1   18973     138
   0  -4  -1  114830     339
  -1  -4  -1   13203     115
  -2  -4  -1   63449     252
  -3  -4  -1    1839      43
  -4  -4  -1    5238      72
  -5  -4  -1  116637     342
  -6  -4  -1   58112     241
  -7  -4  -1    5786      76
  -8  -4  -1    5634      75
  -9  -4  -1    7756      88
   5  -5  -1   14975     122
   4  -5  -1   18674     137
   3  -5  -1    1697      41
   2  -5  -1   10084     100
   1  -5  -1    5437      74
   0  -5  -1   74813     274
  -1  -5  -1  127965     358
  -2  -5  -1   30487     175
  -3  -5  -1   16156     127
  -4  -5  -1    5729      76
  -5  -5  -1   56617     238
  -6  -5  -1   20725     144
  -7  -5  -1   11058     105
  -8  -5  -1   18688     137
  -9  -5  -1    1887      43
   4  -6  -1   13237     115
   3  -6  -1   24262     156
   2  -6  -1     571      24
   1  -6  -1    8904      94
   0  -6  -1    3446      59
  -1  -6  -1   22618     150
  -2  -6  -1  192390     439
  -3  -6  -1  154433     393
  -4  -6  -1    6212      79
  -5  -6  -1     992      31
  -6  -6  -1    1566      40
  -7  -6  -1     892      30
  -8  -6  -1    4892      70
   3  -7  -1    4539      67
   2  -7  -1   35620     189
   1  -7  -1   50619     225
   0  -7  -1    2556      51
  -1  -7  -1    7502      87
  -2  -7  -1   16241     127
  -3  -7  -1   10097     100
  -4  -7  -1    3629      60
  -5  -7  -1   44042     210
  -6  -7  -1   14158     119
  -7  -7  -1     352      19
  -8  -7  -1     210      14
   2  -8  -1    4778      69
   1  -8  -1    9516      98
   0  -8  -1    6528      81
  -1  -8  -1   24109     155
  -2  -8  -1    2986      55
  -3  -8  -1   20141     142
  -4  -8  -1     802      28
  -5  -8  -1     681      26
  -6  -8  -1   53816     232
  -7  -8  -1   37027     192
  -8  -8  -1    3673      61
   0  -9  -1    1748      42
  -1  -9  -1    6974      84
  -2  -9  -1   24824     158
  -3  -9  -1   16820     130
  -4  -9  -1    5608      75
  -5  -9  -1     377      19
  -6  -9  -1   11893     109
  -7  -9  -1    9321      97
  -2 -10  -1    7203      85
  -3 -10  -1   31713     178
  -4 -10  -1   18497     136
  -5 -10  -1    6542      81
   5   9  -2    9049      95
   4   9  -2    8310      91
   3   9  -2    1930      44
   2   9  -2    3321      58
   1   9  -2    8255      91
   0   9  -2   15376     124
   6   8  -2   11008     105
   5   8  -2   22918     151
   4   8  -2   30016     173
   3   8  -2   20648     144
   2   8  -2     392      20
   1   8  -2    3836      62
   0   8  -2   13606     117
  -1   8  -2   31972     179
  -2   8  -2   16562     129
   7   7  -2   10404     102
   6   7  -2    2982      55
   5   7  -2   11372     107
   4   7  -2   14799     122
   3   7  -2   98358     314
   2   7  -2   81307     285
   1   7  -2     121      11
   0   7  -2    2111      46
  -1   7  -2     345      19
  -2   7  -2    7075      84
  -3   7  -2    9718      99
   7   6  -2   25143     159
   6   6  -2   18280     135
   5   6  -2    2679      52
   4   6  -2    3551      60
   3   6  -2   20684     144
   2   6  -2   36730     192
   1   6  -2    6461      80
   0   6  -2   15078     123
  -1   6  -2   15691     125
  -2   6  -2    4494      67
  -3   6  -2    1393      37
  -4   6  -2    4676      68
   8   5  -2     752      27
   7   5  -2   22478     150
   6   5  -2   62717     250
   5   5  -2    4123      64
   4   5  -2    2995      55
   3   5  -2    2533      50
   2   5  -2    4393      66
   1   5  -2   24095     155
   0   5  -2   50516     225
  -1   5  -2   96107     310
  -2   5  -2   51677     227
  -3   5  -2    3544      60
  -4   5  -2    1002      32
  -5   5  -2     982      31
   8   4  -2     431      21
   7   4  -2    1380      37
   6   4  -2    4488      67
   5   4  -2   15305     124
   4   4  -2   66314     258
   3   4  -2   49966     224
   2   4  -2   28652     169
   1   4  -2    4688      68
   0   4  -2    6618      81
  -1   4  -2   81954     286
  -2   4  -2   47104     217
  -3   4  -2    6879      83
  -4   4  -2    6469      80
  -5   4  -2   10347     102
  -6   4  -2    3550      60
   8   3  -2   11400     107
   7   3  -2   10371     102
   6   3  -2    4431      67
   5   3  -2   10511     103
   4   3  -2   28452     169
   3   3  -2   29067     170
   2   3  -2  261883     512
   1   3  -2  276256     526
   0   3  -2    1389      37
  -1   3  -2   11385     107
  -2   3  -2    5825      76
  -3   3  -2  119875     346
  -4   3  -2   53077     230
  -5   3  -2    4571      68
  -6   3  -2   23678     154
   7   2  -2    2901      54
   6   2  -2    9028      95
   5   2  -2   36943     192
   4   2  -2    5494      74
   3   2  -2    5565      75
   2   2  -2   93239     305
   1   2  -2  219408     468
   0   2  -2   16480     128
  -1   2  -2   30712     175
  -2   2  -2  117683     343
  -3   2  -2    2197      47
  -4   2  -2   12323     111
  -5   2  -2   30049     173
  -6   2  -2   43588     209
  -7   2  -2    6788      82
   7   1  -2     178      13
   6   1  -2   36780     192
   5   1  -2  126600     356
   4   1  -2    6876      83
   3   1  -2   29105     171
   2   1  -2  192272     438
   1   1  -2   79778     282
   0   1  -2  142071     377
  -1   1  -2   26690     163
  -2   1  -2   83710     289
  -3   1  -2  151640     389
  -4   1  -2    5341      73
  -5   1  -2    6075      78
  -6   1  -2   24050     155
  -7   1  -2   28825     170
  -8   1  -2    5232      72
   7   0  -2     527      23
   6   0  -2    4047      64
   5   0  -2   41585     204
   4   0  -2   66453     258
   3   0  -2   18622     136
   2   0  -2     325      18
   1   0  -2   51941     228
   0   0  -2  111453     334
  -1   0  -2  481832     694
  -2   0  -2 1757740    1326
  -3   0  -2  331017     575
  -4   0  -2   10201     101
  -5   0  -2   34438     186
  -6   0  -2   13396     116
  -7   0  -2    4872      70
  -8   0  -2   19247     139
   7  -1  -2    9267      96
   6  -1  -2   20308     143
   5  -1  -2    8893      94
   4  -1  -2    1574      40
   3  -1  -2   61548     248
   2  -1  -2  280043     529
   1  -1  -2  396871     630
   0  -1  -2   93870     306
  -1  -1  -2   18887     137
  -2  -1  -2   95020     308
  -3  -1  -2    4486      67
  -4  -1  -2  217639     467
  -5  -1  -2   26681     163
  -6  -1  -2    3371      58
  -7  -1  -2    4342      66
  -8  -1  -2     272      16
   6  -2  -2    2689      52
   5  -2  -2    3396      58
   4  -2  -2   41655     204
   3  -2  -2     510      23
   2  -2  -2   69693     264
   1  -2  -2  129692     360
   0  -2  -2  345422     588
  -1  -2  -2   53546     231
  -2  -2  -2   47999     219
  -3  -2  -2    7058      84
  -4  -2  -2     189      14
  -5  -2  -2   59147     243
  -6  -2  -2   25319     159
  -7  -2  -2   10648     103
  -8  -2  -2   10573     103
  -9  -2  -2   13025     114
   6  -3  -2    4747      69
   5  -3  -2   24289     156
   4  -3  -2   24869     158
   3  -3  -2    4052      64
   2  -3  -2    1150      34
   1  -3  -2   11343     107
   0  -3  -2  239492     489
  -1  -3  -2  159475     399
  -2  -3  -2   37393     193
  -3  -3  -2   33746     184
  -4  -3  -2   54205     233
  -5  -3  -2    4984      71
  -6  -3  -2     476      22
  -7  -3  -2    2845      53
  -8  -3  -2   37255     193
  -9  -3  -2   14759     121
   5  -4  -2    1286      36
   4  -4  -2   78010     279
   3  -4  -2  117909     343
   2  -4  -2    2858      53
   1  -4  -2    2440      49
   0  -4  -2   47891     219
  -1  -4  -2   18945     138
  -2  -4  -2   12648     112
  -3  -4  -2   97145     312
  -4  -4  -2   96877     311
  -5  -4  -2   73257     271
  -6  -4  -2   57111     239
  -7  -4  -2    3043      55
  -8  -4  -2   11098     105
  -9  -4  -2   15437     124
   4  -5  -2    3647      60
   3  -5  -2    7952      89
   2  -5  -2     528      23
   1  -5  -2   28346     168
   0  -5  -2   59982     245
  -1  -5  -2   26746     164
  -2  -5  -2    9795      99
  -3  -5  -2    8302      91
  -4  -5  -2   90472     301
  -5  -5  -2  101131     318
  -6  -5  -2   49862     223
  -7  -5  -2   35679     189
  -8  -5  -2   13180     115
  -9  -5  -2    3607      60
   3  -6  -2   14535     121
   2  -6  -2     520      23
   1  -6  -2   13581     117
   0  -6  -2   27456     166
  -1  -6  -2  106432     326
  -2  -6  -2  116394     341
  -3  -6  -2   31363     177
  -4  -6  -2   21500     147
  -5  -6  -2    3124      56
  -6  -6  -2   58667     242
  -7  -6  -2   17511     132
  -8  -6  -2     735      27
  -9  -6  -2    1810      43
   3  -7  -2    9887      99
   2  -7  -2   11864     109
   1  -7  -2    2052      45
   0  -7  -2    3891      62
  -1  -7  -2   46331     215
  -2  -7  -2   57106     239
  -3  -7  -2   10656     103
  -4  -7  -2   13919     118
  -5  -7  -2    1342      37
  -6  -7  -2   35631     189
  -7  -7  -2   15706     125
  -8  -7  -2    2978      55
   1  -8  -2    3954      63
   0  -8  -2    6094      78
  -1  -8  -2     283      17
  -2  -8  -2   37190     193
  -3  -8  -2   41155     203
  -4  -8  -2   15181     123
  -5  -8  -2   15045     123
  -6  -8  -2    7192      85
  -7  -8  -2    3042      55
  -8  -8  -2    1192      35
   0  -9  -2    7685      88
  -1  -9  -2   11480     107
  -2  -9  -2    3357      58
  -3  -9  -2    3237      57
  -4  -9  -2     761      28
  -5  -9  -2    9262      96
  -6  -9  -2   13783     117
  -7  -9  -2   13064     114
  -2 -10  -2    5689      75
  -3 -10  -2    2106      46
  -4 -10  -2     112      11
  -5 -10  -2     152      12
  -6 -10  -2    1302      36
   5   9  -3    3464      59
   4   9  -3    1157      34
   3   9  -3    6375      80
   2   9  -3   18442     136
   1   9  -3   11399     107
   0   9  -3    5172      72
   6   8  -3    6599      81
   5   8  -3   16441     128
   4   8  -3    8012      90
   3   8  -3    7979      89
   2   8  -3   13197     115
   1   8  -3    1704      41
   0   8  -3   23547     153
  -1   8  -3   29153     171
  -2   8  -3    3040      55
   6   7  -3   13743     117
   5   7  -3    9986     100
   4   7  -3   35985     190
   3   7  -3   40454     201
   2   7  -3     270      16
   1   7  -3    3015      55
   0   7  -3    5211      72
  -1   7  -3    6376      80
  -2   7  -3   11813     109
  -3   7  -3   14071     119
   7   6  -3    3377      58
   6   6  -3   12706     113
   5   6  -3    6963      83
   4   6  -3    6854      83
   3   6  -3   10508     103
   2   6  -3   15762     126
   1   6  -3   32203     179
   0   6  -3    2432      49
  -1   6  -3   55318     235
  -2   6  -3   29995     173
  -3   6  -3    2308      48
  -4   6  -3   19993     141
   7   5  -3   23597     154
   6   5  -3   20272     142
   5   5  -3    4870      70
   4   5  -3    3679      61
   3   5  -3    8271      91
   2   5  -3   34363     185
   1   5  -3   68433     262
   0   5  -3   81903     286
  -1   5  -3   66036     257
  -2   5  -3    9362      97
  -3   5  -3    6971      83
  -4   5  -3   10745     104
  -5   5  -3   14498     120
   7   4  -3    4957      70
   6   4  -3    7615      87
   5   4  -3   55266     235
   4   4  -3   91912     303
   3   4  -3   31276     177
   2   4  -3    7347      86
   1   4  -3   29910     173
   0   4  -3   24380     156
  -1   4  -3  120789     348
  -2   4  -3  148976     386
  -3   4  -3    7374      86
  -4   4  -3    4584      68
  -5   4  -3    7221      85
  -6   4  -3    9671      98
   7   3  -3    3859      62
   6   3  -3     798      28
   5   3  -3    7786      88
   4   3  -3     633      25
   3   3  -3   82414     287
   2   3  -3  171095     414
   1   3  -3   51470     227
   0   3  -3  153039     391
  -1   3  -3   26010     161
  -2   3  -3   92446     304
  -3   3  -3   40377     201
  -4   3  -3    2903      54
  -5   3  -3     960      31
  -6   3  -3    4179      65
  -7   3  -3    6021      78
   7   2  -3   21737     147
   6   2  -3   10441     102
   5   2  -3   43691     209
   4   2  -3  111020     333
   3   2  -3  127642     357
   2   2  -3  234933     485
   1   2  -3   68868     262
   0   2  -3   12378     111
  -1   2  -3    5959      77
  -2   2  -3   67962     261
  -3   2  -3   43708     209
  -4   2  -3    4963      70
  -5   2  -3   30126     174
  -6   2  -3   18306     135
  -7   2  -3    1812      43
   7   1  -3   16913     130
   6   1  -3   38970     197
   5   1  -3    6073      78
   4   1  -3    9274      96
   3   1  -3    3768      61
   2   1  -3   39436     199
   1   1  -3  102407     320
   0   1  -3   59264     243
  -1   1  -3   17542     132
  -2   1  -3   11611     108
  -3   1  -3   12084     110
  -4   1  -3     182      13
  -5   1  -3    7049      84
  -6   1  -3   51694     227
  -7   1  -3   54990     234
  -8   1  -3   12825     113
   7   0  -3   12567     112
   6   0  -3   16431     128
   5   0  -3   22240     149
   4   0  -3   44565     211
   3   0  -3   22938     151
   2   0  -3    2767      53
   1   0  -3    4096      64
   0   0  -3    2747      52
  -1   0  -3    6747      82
  -2   0  -3  153763     392
  -3   0  -3  299631     547
  -4   0  -3   72835     270
  -5   0  -3    1611      40
  -6   0  -3    2017      45
  -7   0  -3   19747     141
  -8   0  -3   13291     115
   6  -1  -3    1992      45
   5  -1  -3    3070      55
   4  -1  -3   22073     149
   3  -1  -3    9870      99
   2  -1  -3   12377     111
   1  -1  -3   77089     278
   0  -1  -3     324      18
  -1  -1  -3    6354      80
  -2  -1  -3    5982      77
  -3  -1  -3  390716     625
  -4  -1  -3  315036     561
  -5  -1  -3    4156      64
  -6  -1  -3    1242      35
  -7  -1  -3    4451      67
  -8  -1  -3   14865     122
   6  -2  -3    5336      73
   5  -2  -3   10686     103
   4  -2  -3      98      10
   3  -2  -3    1204      35
   2  -2  -3   26204     162
   1  -2  -3  352577     594
   0  -2  -3  177626     421
  -1  -2  -3    2569      51
  -2  -2  -3    3549      60
  -3  -2  -3  115431     340
  -4  -2  -3  226555     476
  -5  -2  -3   14318     120
  -6  -2  -3   14486     120
  -7  -2  -3   14536     121
  -8  -2  -3    4114      64
  -9  -2  -3   12545     112
   5  -3  -3   37446     194
   4  -3  -3    4008      63
   3  -3  -3   17772     133
   2  -3  -3    8289      91
   1  -3  -3   95503     309
   0  -3  -3  432086     657
  -1  -3  -3  270583     520
  -2  -3  -3   83826     290
  -3  -3  -3    1706      41
  -4  -3  -3   38732     197
  -5  -3  -3   55749     236
  -6  -3  -3   62528     250
  -7  -3  -3   35415     188
  -8  -3  -3    9778      99
  -9  -3  -3   11823     109
   5  -4  -3   13444     116
   4  -4  -3   23915     155
   3  -4  -3   32236     180
   2  -4  -3   36924     192
   1  -4  -3    3393      58
   0  -4  -3   59904     245
  -1  -4  -3   50649     225
  -2  -4  -3   31482     177
  -3  -4  -3    8435      92
  -4  -4  -3    1285      36
  -5  -4  -3    5730      76
  -6  -4  -3    5529      74
  -7  -4  -3    8024      90
  -8  -4  -3   27869     167
  -9  -4  -3    5622      75
   4  -5  -3   14459     120
   3  -5  -3   48264     220
   2  -5  -3   18123     135
   1  -5  -3    1927      44
   0  -5  -3    1554      39
  -1  -5  -3    8148      90
  -2  -5  -3   32872     181
  -3  -5  -3   11724     108
  -4  -5  -3   56345     237
  -5  -5  -3   64703     254
  -6  -5  -3    1707      41
  -7  -5  -3    1591      40
  -8  -5  -3    2211      47
  -9  -5  -3   11748     108
   3  -6  -3    4855      70
   2  -6  -3   15335     124
   1  -6  -3    9685      98
   0  -6  -3    5018      71
  -1  -6  -3    3277      57
  -2  -6  -3    5227      72
  -3  -6  -3    2303      48
  -4  -6  -3   65520     256
  -5  -6  -3  144049     380
  -6  -6  -3   13543     116
  -7  -6  -3    2515      50
  -8  -6  -3   11705     108
  -9  -6  -3     388      20
   2  -7  -3    1317      36
   1  -7  -3     378      19
   0  -7  -3   32303     180
  -1  -7  -3  126930     356
  -2  -7  -3   16488     128
  -3  -7  -3    2858      53
  -4  -7  -3   50102     224
  -5  -7  -3    8189      90
  -6  -7  -3   21664     147
  -7  -7  -3   26272     162
  -8  -7  -3   13244     115
   1  -8  -3    2320      48
   0  -8  -3    1459      38
  -1  -8  -3    9135      96
  -2  -8  -3   32212     179
  -3  -8  -3   36579     191
  -4  -8  -3    7943      89
  -5  -8  -3    4135      64
  -6  -8  -3      13       4
  -7  -8  -3      13       4
  -8  -8  -3   18312     135
   0  -9  -3    2186      47
  -1  -9  -3    2411      49
  -2  -9  -3    4525      67
  -3  -9  -3    6826      83
  -4  -9  -3   11525     107
  -5  -9  -3   24101     155
  -6  -9  -3    9759      99
  -7  -9  -3     113      11
  -3 -10  -3    1001      32
  -4 -10  -3    2272      48
  -5 -10  -3   12898     114
  -6 -10  -3   21230     146
   3   9  -4    8475      92
   2   9  -4    4764      69
   1   9  -4    8756      94
   5   8  -4     593      24
   4   8  -4     853      29
   3   8  -4   19781     141
   2   8  -4   15928     126
   1   8  -4   22095     149
   0   8  -4   18675     137
  -1   8  -4    1933      44
   6   7  -4   16025     127
   5   7  -4   16541     129
   4   7  -4   10075     100
   3   7  -4    1003      32
   2   7  -4    7682      88
   1   7  -4   51730     227
   0   7  -4   71961     268
  -1   7  -4    5600      75
  -2   7  -4    3545      60
  -3   7  -4    1564      40
   6   6  -4    9695      98
   5   6  -4   27416     166
   4   6  -4   56859     238
   3   6  -4   31798     178
   2   6  -4    3410      58
   1   6  -4    4698      69
   0   6  -4    2535      50
  -1   6  -4   10843     104
  -2   6  -4   12365     111
  -3   6  -4    3468      59
  -4   6  -4    5061      71
   7   5  -4    4100      64
   6   5  -4     242      16
   5   5  -4   19932     141
   4   5  -4   46446     216
   3   5  -4   20030     142
   2   5  -4    3903      62
   1   5  -4     284      17
   0   5  -4    7584      87
  -1   5  -4    1798      42
  -2   5  -4   14926     122
  -3   5  -4   19009     138
  -4   5  -4   21319     146
  -5   5  -4   15587     125
   7   4  -4   14016     118
   6   4  -4    3131      56
   5   4  -4    1159      34
   4   4  -4    8188      90
   3   4  -4    2000      45
   2   4  -4   74433     273
   1   4  -4    8586      93
   0   4  -4   21231     146
  -1   4  -4   85331     292
  -2   4  -4    5490      74
  -3   4  -4    8543      92
  -4   4  -4    2128      46
  -5   4  -4    9975     100
  -6   4  -4   22424     150
   7   3  -4    7996      89
   6   3  -4   28998     170
   5   3  -4    6962      83
   4   3  -4    2784      53
   3   3  -4   12022     110
   2   3  -4    1092      33
   1   3  -4   10027     100
   0   3  -4   97116     312
  -1   3  -4  255725     506
  -2   3  -4   92720     304
  -3   3  -4   19883     141
  -4   3  -4    3856      62
  -5   3  -4   25310     159
  -6   3  -4   31517     178
   7   2  -4    3041      55
   6   2  -4    4624      68
   5   2  -4     533      23
   4   2  -4    7130      84
   3   2  -4  164028     405
   2   2  -4  154100     393
   1   2  -4    2130      46
   0   2  -4    8613      93
  -1   2  -4   46628     216
  -2   2  -4  119395     346
  -3   2  -4   56024     237
  -4   2  -4   25292     159
  -5   2  -4   13981     118
  -6   2  -4     242      16
  -7   2  -4   12687     113
   6   1  -4   14687     121
   5   1  -4    5652      75
   4   1  -4   35850     189
   3   1  -4  120980     348
   2   1  -4   97287     312
   1   1  -4  178633     423
   0   1  -4  100803     317
  -1   1  -4    9500      97
  -2   1  -4   22130     149
  -3   1  -4    9116      95
  -4   1  -4   24704     157
  -5   1  -4   30167     174
  -6   1  -4   15835     126
  -7   1  -4    2339      48
  -8   1  -4    1548      39
   6   0  -4   21059     145
   5   0  -4   10848     104
   4   0  -4    2032      45
   3   0  -4   16095     127
   2   0  -4   64016     253
   1   0  -4   73219     271
   0   0  -4    1996      45
  -1   0  -4   22018     148
  -2   0  -4  140216     374
  -3   0  -4  127893     358
  -4   0  -4  317829     564
  -5   0  -4    6482      81
  -6   0  -4    6799      82
  -7   0  -4   52806     230
  -8   0  -4   12276     111
   6  -1  -4   11967     109
   5  -1  -4   55560     236
   4  -1  -4   37150     193
   3  -1  -4    6541      81
   2  -1  -4   13215     115
   1  -1  -4   57942     241
   0  -1  -4  297517     545
  -1  -1  -4   41738     204
  -2  -1  -4   57063     239
  -3  -1  -4  224616     474
  -4  -1  -4   98435     314
  -5  -1  -4    7348      86
  -6  -1  -4   16408     128
  -7  -1  -4   20096     142
  -8  -1  -4    2137      46
   5  -2  -4   28498     169
   4  -2  -4    2971      55
   3  -2  -4     120      11
   2  -2  -4   86894     295
   1  -2  -4   55771     236
   0  -2  -4   17481     132
  -1  -2  -4    3555      60
  -2  -2  -4   56150     237
  -3  -2  -4  146794     383
  -4  -2  -4   12623     112
  -5  -2  -4   22265     149
  -6  -2  -4   19784     141
  -7  -2  -4   12748     113
  -8  -2  -4   23695     154
  -9  -2  -4    2086      46
   5  -3  -4    7189      85
   4  -3  -4    2917      54
   3  -3  -4   12135     110
   2  -3  -4    7442      86
   1  -3  -4   29266     171
   0  -3  -4  102011     319
  -1  -3  -4   37803     194
  -2  -3  -4   16666     129
  -3  -3  -4   23790     154
  -4  -3  -4   12540     112
  -5  -3  -4   33898     184
  -6  -3  -4   21430     146
  -7  -3  -4    6820      83
  -8  -3  -4    3755      61
  -9  -3  -4     405      20
   4  -4  -4    8779      94
   3  -4  -4    1077      33
   2  -4  -4   53807     232
   1  -4  -4   98252     313
   0  -4  -4   30413     174
  -1  -4  -4   18764     137
  -2  -4  -4   87174     295
  -3  -4  -4   64843     255
  -4  -4  -4   16619     129
  -5  -4  -4   63268     252
  -6  -4  -4   12078     110
  -7  -4  -4   31250     177
  -8  -4  -4   44857     212
  -9  -4  -4    4071      64
   4  -5  -4   17537     132
   3  -5  -4    7278      85
   2  -5  -4    6225      79
   1  -5  -4   28772     170
   0  -5  -4    1541      39
  -1  -5  -4   79136     281
  -2  -5  -4   17223     131
  -3  -5  -4   24381     156
  -4  -5  -4   60157     245
  -5  -5  -4    1121      33
  -6  -5  -4   12801     113
  -7  -5  -4    5657      75
  -8  -5  -4   29443     172
  -9  -5  -4   32896     181
   3  -6  -4   10618     103
   2  -6  -4   10413     102
   1  -6  -4   28630     169
   0  -6  -4    8078      90
  -1  -6  -4   14504     120
  -2  -6  -4   10149     101
  -3  -6  -4   28769     170
  -4  -6  -4  123893     352
  -5  -6  -4   74119     272
  -6  -6  -4   40250     201
  -7  -6  -4   10145     101
  -8  -6  -4   11582     108
  -9  -6  -4   14475     120
   2  -7  -4    2024      45
   1  -7  -4    3867      62
   0  -7  -4   34238     185
  -1  -7  -4   18811     137
  -2  -7  -4    1584      40
  -3  -7  -4    1806      42
  -4  -7  -4   13112     115
  -5  -7  -4   25201     159
  -6  -7  -4   12816     113
  -7  -7  -4    1897      44
  -8  -7  -4    1361      37
   1  -8  -4    7484      87
   0  -8  -4   15792     126
  -1  -8  -4   16889     130
  -2  -8  -4   19085     138
  -3  -8  -4    7323      86
  -4  -8  -4    3813      62
  -5  -8  -4   27274     165
  -6  -8  -4   20480     143
  -7  -8  -4    5746      76
  -8  -8  -4    7106      84
  -1  -9  -4    9055      95
  -2  -9  -4   19444     139
  -3  -9  -4   10646     103
  -4  -9  -4    9290      96
  -5  -9  -4   10039     100
  -6  -9  -4     394      20
  -7  -9  -4    3062      55
  -4 -10  -4    1073      33
  -5 -10  -4    4450      67
   4   8  -5    9220      96
   3   8  -5   13123     115
   2   8  -5    4079      64
   1   8  -5    1810      43
   0   8  -5    2716      52
  -1   8  -5     476      22
   5   7  -5    3897      62
   4   7  -5    3481      59
   3   7  -5    6194      79
   2   7  -5   19806     141
   1   7  -5   40777     202
   0   7  -5   16809     130
  -1   7  -5    2213      47
  -2   7  -5    7406      86
   5   6  -5    6184      79
   4   6  -5    6800      82
   3   6  -5    1193      35
   2   6  -5    1401      37
   1   6  -5    1061      33
   0   6  -5   35595     189
  -1   6  -5   52999     230
  -2   6  -5     207      14
  -3   6  -5   23022     152
  -4   6  -5    5366      73
   6   5  -5    6482      81
   5   5  -5   25903     161
   4   5  -5   53446     231
   3   5  -5   31491     177
   2   5  -5    3241      57
   1   5  -5    2947      54
   0   5  -5    8133      90
  -1   5  -5   53095     230
  -2   5  -5   37130     193
  -3   5  -5   20078     142
  -4   5  -5   18277     135
  -5   5  -5     767      28
   6   4  -5    9063      95
   5   4  -5    2078      46
   4   4  -5    3900      62
   3   4  -5  113820     337
   2   4  -5   92064     303
   1   4  -5    7054      84
   0   4  -5    4656      68
  -1   4  -5    1153      34
  -2   4  -5   11019     105
  -3   4  -5   16443     128
  -4   4  -5   47179     217
  -5   4  -5   25038     158
  -6   4  -5     743      27
   6   3  -5    9833      99
   5   3  -5    2841      53
   4   3  -5    2926      54
   3   3  -5     551      23
   2   3  -5    2750      52
   1   3  -5   33336     183
   0   3  -5   88831     298
  -1   3  -5    8662      93
  -2   3  -5    6149      78
  -3   3  -5    1068      33
  -4   3  -5    4670      68
  -5   3  -5   23857     154
  -6   3  -5    8364      91
   6   2  -5    6942      83
   5   2  -5   19883     141
   4   2  -5   10927     105
   3   2  -5    4749      69
   2   2  -5   40839     202
   1   2  -5   38375     196
   0   2  -5   44436     211
  -1   2  -5  124603     353
  -2   2  -5  127129     357
  -3   2  -5    7555      87
  -4   2  -5    3631      60
  -5   2  -5    1302      36
  -6   2  -5    8680      93
  -7   2  -5   14636     121
   6   1  -5    2003      45
   5   1  -5   16704     129
   4   1  -5   25224     159
   3   1  -5   32659     181
   2   1  -5   47697     218
   1   1  -5    7463      86
   0   1  -5     720      27
  -1   1  -5   13233     115
  -2   1  -5  118900     345
  -3   1  -5   36824     192
  -4   1  -5    7095      84
  -5   1  -5    3949      63
  -6   1  -5    5061      71
  -7   1  -5    2125      46
   6   0  -5    2819      53
   5   0  -5    5376      73
   4   0  -5    7275      85
   3   0  -5   16221     127
   2   0  -5  177605     421
   1   0  -5   93494     306
   0   0  -5    5556      75
  -1   0  -5   11902     109
  -2   0  -5    7053      84
  -3   0  -5   38679     197
  -4   0  -5   45912     214
  -5   0  -5   98729     314
  -6   0  -5   82311     287
  -7   0  -5    6418      80
  -8   0  -5     712      27
   5  -1  -5    3301      57
   4  -1  -5      13       4
   3  -1  -5    3547      60
   2  -1  -5    9603      98
   1  -1  -5   47991     219
   0  -1  -5    9216      96
  -1  -1  -5   52273     229
  -2  -1  -5   59657     244
  -3  -1  -5    1781      42
  -4  -1  -5     730      27
  -5  -1  -5   28062     168
  -6  -1  -5   95230     309
  -7  -1  -5   19710     140
  -8  -1  -5    1358      37
   5  -2  -5   17563     133
   4  -2  -5   10424     102
   3  -2  -5   15082     123
   2  -2  -5   13822     118
   1  -2  -5      94      10
   0  -2  -5   18024     134
  -1  -2  -5  103844     322
  -2  -2  -5  162850     404
  -3  -2  -5   81634     286
  -4  -2  -5   11488     107
  -5  -2  -5    4509      67
  -6  -2  -5   16046     127
  -7  -2  -5   16929     130
  -8  -2  -5   18310     135
  -9  -2  -5    6038      78
   4  -3  -5   15518     125
   3  -3  -5   30979     176
   2  -3  -5    8262      91
   1  -3  -5     653      26
   0  -3  -5    3513      59
  -1  -3  -5   18610     136
  -2  -3  -5  153873     392
  -3  -3  -5  295728     544
  -4  -3  -5  120422     347
  -5  -3  -5    3693      61
  -6  -3  -5     137      12
  -7  -3  -5   10235     101
  -8  -3  -5   29833     173
  -9  -3  -5    6746      82
   4  -4  -5    1492      39
   3  -4  -5    6390      80
   2  -4  -5   17395     132
   1  -4  -5  135818     369
   0  -4  -5  137595     371
  -1  -4  -5    2074      46
  -2  -4  -5    2856      53
  -3  -4  -5    6675      82
  -4  -4  -5   59865     245
  -5  -4  -5    3628      60
  -6  -4  -5     345      19
  -7  -4  -5   30214     174
  -8  -4  -5    8085      90
  -9  -4  -5    1655      41
   3  -5  -5     172      13
   2  -5  -5    3894      62
   1  -5  -5   38259     196
   0  -5  -5   54538     234
  -1  -5  -5    4179      65
  -2  -5  -5    2927      54
  -3  -5  -5    6670      82
  -4  -5  -5   10445     102
  -5  -5  -5    5686      75
  -6  -5  -5    5493      74
  -7  -5  -5   30403     174
  -8  -5  -5    9838      99
  -9  -5  -5    5954      77
   2  -6  -5     384      20
   1  -6  -5     795      28
   0  -6  -5   16266     128
  -1  -6  -5   12256     111
  -2  -6  -5     266      16
  -3  -6  -5   13148     115
  -4  -6  -5   40517     201
  -5  -6  -5    4299      66
  -6  -6  -5    4910      70
  -7  -6  -5   12839     113
  -8  -6  -5   10163     101
  -9  -6  -5    8537      92
   1  -7  -5    5986      77
   0  -7  -5    4990      71
  -1  -7  -5    2847      53
  -2  -7  -5   18006     134
  -3  -7  -5   49606     223
  -4  -7  -5   25125     159
  -5  -7  -5   25204     159
  -6  -7  -5   62347     250
  -7  -7  -5   18882     137
  -8  -7  -5    5358      73
   0  -8  -5    8313      91
  -1  -8  -5   18617     136
  -2  -8  -5    8614      93
  -3  -8  -5    2178      47
  -4  -8  -5   12901     114
  -5  -8  -5   56505     238
  -6  -8  -5   10161     101
  -7  -8  -5    3017      55
  -8  -8  -5    7394      86
  -2  -9  -5   11602     108
  -3  -9  -5    5814      76
  -4  -9  -5    4829      69
  -5  -9  -5    3052      55
  -6  -9  -5   15716     125
  -7  -9  -5    9257      96
   4   7  -6   15405     124
   3   7  -6   10157     101
   2   7  -6    7347      86
   1   7  -6   17566     133
   0   7  -6     876      30
  -1   7  -6   23644     154
  -2   7  -6   17930     134
   5   6  -6    4445      67
   4   6  -6    2947      54
   3   6  -6   22116     149
   2   6  -6   31080     176
   1   6  -6   25940     161
   0   6  -6   16648     129
  -1   6  -6     752      27
  -2   6  -6       6       2
  -3   6  -6    1186      34
   5   5  -6   10693     103
   4   5  -6   20868     144
   3   5  -6    3953      63
   2   5  -6   20949     145
   1   5  -6    4541      67
   0   5  -6   13049     114
  -1   5  -6   12274     111
  -2   5  -6    4641      68
  -3   5  -6    6534      81
  -4   5  -6     675      26
   5   4  -6   10728     104
   4   4  -6   15702     125
   3   4  -6   11798     109
   2   4  -6   13532     116
   1   4  -6    1747      42
   0   4  -6   15711     125
  -1   4  -6    9529      98
  -2   4  -6    9749      99
  -3   4  -6   21177     146
  -4   4  -6   17533     132
  -5   4  -6    3428      59
   5   3  -6    4153      64
   4   3  -6   21623     147
   3   3  -6   15807     126
   2   3  -6    2700      52
   1   3  -6    4076      64
   0   3  -6   35333     188
  -1   3  -6    2056      45
  -2   3  -6   45807     214
  -3   3  -6   49641     223
  -4   3  -6   34996     187
  -5   3  -6   41134     203
  -6   3  -6    4145      64
   5   2  -6    3193      57
   4   2  -6    1323      36
   3   2  -6    4213      65
   2   2  -6   19689     140
   1   2  -6  110372     332
   0   2  -6  102930     321
  -1   2  -6   72123     269
  -2   2  -6   12984     114
  -3   2  -6    3698      61
  -4   2  -6   10801     104
  -5   2  -6   33026     182
  -6   2  -6   32758     181
  -7   2  -6    6612      81
   5   1  -6    4510      67
   4   1  -6   29633     172
   3   1  -6   49694     223
   2   1  -6   11110     105
   1   1  -6   57660     240
   0   1  -6   21292     146
  -1   1  -6  194887     441
  -2   1  -6  153297     392
  -3   1  -6     731      27
  -4   1  -6     284      17
  -5   1  -6     419      20
  -6   1  -6   24988     158
  -7   1  -6    8785      94
   5   0  -6   13419     116
   4   0  -6   11912     109
   3   0  -6   39454     199
   2   0  -6   38087     195
   1   0  -6    3619      60
   0   0  -6   13941     118
  -1   0  -6    7003      84
  -2   0  -6   23569     154
  -3   0  -6   38708     197
  -4   0  -6   13228     115
  -5   0  -6   14437     120
  -6   0  -6   35069     187
  -7   0  -6    2371      49
  -8   0  -6     245      16
   5  -1  -6    3764      61
   4  -1  -6    8087      90
   3  -1  -6   60757     246
   2  -1  -6   92690     304
   1  -1  -6   22323     149
   0  -1  -6    8008      89
  -1  -1  -6    7821      88
  -2  -1  -6   94327     307
  -3  -1  -6   22725     151
  -4  -1  -6    2377      49
  -5  -1  -6   78746     281
  -6  -1  -6  105578     325
  -7  -1  -6   13159     115
  -8  -1  -6     284      17
   4  -2  -6    3305      57
   3  -2  -6   10011     100
   2  -2  -6    1332      36
   1  -2  -6    4513      67
   0  -2  -6   44717     211
  -1  -2  -6   28370     168
  -2  -2  -6   25719     160
  -3  -2  -6    8544      92
  -4  -2  -6    5539      74
  -5  -2  -6    3296      57
  -6  -2  -6   11129     105
  -7  -2  -6   50011     224
  -8  -2  -6   14203     119
   4  -3  -6    9917     100
   3  -3  -6    9394      97
   2  -3  -6    2706      52
   1  -3  -6    2160      46
   0  -3  -6    1793      42
  -1  -3  -6    3004      55
  -2  -3  -6  123273     351
  -3  -3  -6  135632     368
  -4  -3  -6    3370      58
  -5  -3  -6    4136      64
  -6  -3  -6     247      16
  -7  -3  -6   36270     190
  -8  -3  -6   18797     137
  -9  -3  -6    4849      70
   3  -4  -6     170      13
   2  -4  -6   27290     165
   1  -4  -6   26256     162
   0  -4  -6   28575     169
  -1  -4  -6   15259     124
  -2  -4  -6     241      16
  -3  -4  -6   82656     287
  -4  -4  -6  136453     369
  -5  -4  -6   24056     155
  -6  -4  -6      97      10
  -7  -4  -6   12068     110
  -8  -4  -6    9334      97
  -9  -4  -6    5560      75
   2  -5  -6   11577     108
   1  -5  -6   38392     196
   0  -5  -6   44050     210
  -1  -5  -6   43384     208
  -2  -5  -6    3230      57
  -3  -5  -6   42748     207
  -4  -5  -6   34758     186
  -5  -5  -6    9554      98
  -6  -5  -6   23527     153
  -7  -5  -6    3091      56
  -8  -5  -6    2359      49
  -9  -5  -6    1479      38
   1  -6  -6   11779     109
   0  -6  -6   38975     197
  -1  -6  -6   32036     179
  -2  -6  -6    7184      85
  -3  -6  -6     175      13
  -4  -6  -6    5723      76
  -5  -6  -6   12685     113
  -6  -6  -6   20449     143
  -7  -6  -6   41911     205
  -8  -6  -6   49482     222
  -9  -6  -6    8875      94
   0  -7  -6    2798      53
  -1  -7  -6    6469      80
  -2  -7  -6   14448     120
  -3  -7  -6   19143     138
  -4  -7  -6   14540     121
  -5  -7  -6    1309      36
  -6  -7  -6     398      20
  -7  -7  -6    1330      36
  -8  -7  -6    7390      86
  -1  -8  -6    5986      77
  -2  -8  -6    2113      46
  -3  -8  -6     506      22
  -4  -8  -6   29392     171
  -5  -8  -6   23117     152
  -6  -8  -6      98      10
  -7  -8  -6    3307      58
  -8  -8  -6    3585      60
  -3  -9  -6       7       3
  -4  -9  -6    5907      77
  -5  -9  -6   19719     140
  -6  -9  -6   11683     108
   2   7  -7    5213      72
   1   7  -7     627      25
   0   7  -7    9590      98
   3   6  -7    4121      64
   2   6  -7    6868      83
   1   6  -7   22798     151
   0   6  -7    9269      96
  -1   6  -7     653      26
  -2   6  -7   12906     114
   4   5  -7     476      22
   3   5  -7   21507     147
   2   5  -7   28371     168
   1   5  -7   34585     186
   0   5  -7   13696     117
  -1   5  -7     374      19
  -2   5  -7    3341      58
  -3   5  -7    8446      92
  -4   5  -7   19284     139
   4   4  -7    2037      45
   3   4  -7    1132      34
   2   4  -7    3498      59
   1   4  -7   54529     234
   0   4  -7   73395     271
  -1   4  -7   15403     124
  -2   4  -7     900      30
  -3   4  -7    4189      65
  -4   4  -7    4750      69
  -5   4  -7    3789      62
   5   3  -7   20005     141
   4   3  -7   29014     170
   3   3  -7   20768     144
   2   3  -7    2107      46
   1   3  -7    4130      64
   0   3  -7    1474      38
  -1   3  -7   26334     162
  -2   3  -7   21094     145
  -3   3  -7     952      31
  -4   3  -7   11634     108
  -5   3  -7   15322     124
  -6   3  -7      30       5
   5   2  -7    2510      50
   4   2  -7    2278      48
   3   2  -7   30240     174
   2   2  -7    6465      80
   1   2  -7   12701     113
   0   2  -7    2406      49
  -1   2  -7    3146      56
  -2   2  -7    7660      88
  -3   2  -7   21599     147
  -4   2  -7   51887     228
  -5   2  -7   30857     176
  -6   2  -7    1642      41
   4   1  -7    1076      33
   3   1  -7    2252      47
   2   1  -7   17612     133
   1   1  -7   10367     102
   0   1  -7   55770     236
  -1   1  -7  102565     320
  -2   1  -7   13573     117
  -3   1  -7      48       7
  -4   1  -7   10645     103
  -5   1  -7   25034     158
  -6   1  -7    3870      62
  -7   1  -7    2778      53
   4   0  -7    5308      73
   3   0  -7    7330      86
   2   0  -7    2744      52
   1   0  -7    4617      68
   0   0  -7   76917     277
  -1   0  -7  113802     337
  -2   0  -7   20774     144
  -3   0  -7    8749      94
  -4   0  -7   10502     102
  -5   0  -7    3360      58
  -6   0  -7   40806     202
  -7   0  -7   42411     206
  -8   0  -7   17821     133
   4  -1  -7   11244     106
   3  -1  -7   21671     147
   2  -1  -7   28675     169
   1  -1  -7   17082     131
   0  -1  -7      40       6
  -1  -1  -7   13229     115
  -2  -1  -7   52624     229
  -3  -1  -7   45785     214
  -4  -1  -7   10085     100
  -5  -1  -7   15090     123
  -6  -1  -7    8840      94
  -7  -1  -7    3007      55
  -8  -1  -7    6787      82
   3  -2  -7   16706     129
   2  -2  -7   41736     204
   1  -2  -7   32901     181
   0  -2  -7    6241      79
  -1  -2  -7    9890      99
  -2  -2  -7    1544      39
  -3  -2  -7   55026     235
  -4  -2  -7   24264     156
  -5  -2  -7   18441     136
  -6  -2  -7   27998     167
  -7  -2  -7    3137      56
  -8  -2  -7    1352      37
   3  -3  -7    1017      32
   2  -3  -7   12807     113
   1  -3  -7   44254     210
   0  -3  -7     926      30
  -1  -3  -7     322      18
  -2  -3  -7   35190     188
  -3  -3  -7     280      17
  -4  -3  -7   32098     179
  -5  -3  -7   34881     187
  -6  -3  -7   53830     232
  -7  -3  -7   19219     139
  -8  -3  -7     362      19
   2  -4  -7    2216      47
   1  -4  -7     917      30
   0  -4  -7   11807     109
  -1  -4  -7   72127     269
  -2  -4  -7  135124     368
  -3  -4  -7   31557     178
  -4  -4  -7    7185      85
  -5  -4  -7    9891      99
  -6  -4  -7    1801      42
  -7  -4  -7    8966      95
  -8  -4  -7    5269      73
   2  -5  -7   10962     105
   1  -5  -7    9457      97
   0  -5  -7     329      18
  -1  -5  -7    4671      68
  -2  -5  -7   11886     109
  -3  -5  -7   18555     136
  -4  -5  -7   15462     124
  -5  -5  -7    5159      72
  -6  -5  -7    1218      35
  -7  -5  -7     126      11
  -8  -5  -7    6549      81
   1  -6  -7    9165      96
   0  -6  -7   11356     107
  -1  -6  -7    3791      62
  -2  -6  -7     884      30
  -3  -6  -7    2348      48
  -4  -6  -7    2958      54
  -5  -6  -7   10073     100
  -6  -6  -7   19545     140
  -7  -6  -7   11406     107
  -8  -6  -7     290      17
   0  -7  -7   17915     134
  -1  -7  -7    4844      70
  -2  -7  -7    5780      76
  -3  -7  -7   16433     128
  -4  -7  -7    9500      97
  -5  -7  -7   20343     143
  -6  -7  -7     883      30
  -7  -7  -7   18588     136
  -8  -7  -7   57207     239
  -2  -8  -7    2685      52
  -3  -8  -7   21594     147
  -4  -8  -7   27057     164
  -5  -8  -7    4983      71
  -6  -8  -7     436      21
  -7  -8  -7    9148      96
   1   6  -8    3602      60
   0   6  -8   12432     111
  -1   6  -8    5386      73
   3   5  -8    8210      91
   2   5  -8   18672     137
   1   5  -8    7876      89
   0   5  -8     613      25
  -1   5  -8    2792      53
  -2   5  -8    2678      52
  -3   5  -8    8902      94
   3   4  -8    6472      80
   2   4  -8    6694      82
   1   4  -8   24499     157
   0   4  -8   50976     226
  -1   4  -8    4242      65
  -2   4  -8    4279      65
  -3   4  -8     211      15
  -4   4  -8    5071      71
   3   3  -8     122      11
   2   3  -8   14209     119
   1   3  -8    1002      32
   0   3  -8    3607      60
  -1   3  -8   14225     119
  -2   3  -8   12069     110
  -3   3  -8    3511      59
  -4   3  -8    5259      73
  -5   3  -8   14606     121
   4   2  -8   26695     163
   3   2  -8   11450     107
   2   2  -8    1129      34
   1   2  -8    9064      95
   0   2  -8    6346      80
  -1   2  -8   81003     285
  -2   2  -8   29488     172
  -3   2  -8   17630     133
  -4   2  -8   35573     189
  -5   2  -8    5074      71
  -6   2  -8     310      18
   4   1  -8    1506      39
   3   1  -8   11121     105
   2   1  -8   28974     170
   1   1  -8   23533     153
   0   1  -8    7553      87
  -1   1  -8    5077      71
  -2   1  -8    4237      65
  -3   1  -8   31097     176
  -4   1  -8   43924     210
  -5   1  -8   16835     130
  -6   1  -8    6952      83
  -7   1  -8     442      21
   3   0  -8    5522      74
   2   0  -8    5636      75
   1   0  -8   14083     119
   0   0  -8   42234     206
  -1   0  -8   22931     151
  -2   0  -8    4181      65
  -3   0  -8    2063      45
  -4   0  -8     673      26
  -5   0  -8   30641     175
  -6   0  -8   11384     107
  -7   0  -8    7155      85
   3  -1  -8    3811      62
   2  -1  -8    1144      34
   1  -1  -8   36515     191
   0  -1  -8   26031     161
  -1  -1  -8   36167     190
  -2  -1  -8   45859     214
  -3  -1  -8    3086      56
  -4  -1  -8   15678     125
  -5  -1  -8    2079      46
  -6  -1  -8    4874      70
  -7  -1  -8   29652     172
  -8  -1  -8   24660     157
   3  -2  -8   24092     155
   2  -2  -8    2991      55
   1  -2  -8    1023      32
   0  -2  -8    8475      92
  -1  -2  -8       3       2
  -2  -2  -8   51853     228
  -3  -2  -8   20382     143
  -4  -2  -8    9587      98
  -5  -2  -8   22728     151
  -6  -2  -8    1100      33
  -7  -2  -8     675      26
  -8  -2  -8     530      23
   2  -3  -8   29727     172
   1  -3  -8   16871     130
   0  -3  -8     901      30
  -1  -3  -8    7068      84
  -2  -3  -8    2586      51
  -3  -3  -8    6101      78
  -4  -3  -8   23644     154
  -5  -3  -8   46117     215
  -6  -3  -8   35134     187
  -7  -3  -8   14607     121
  -8  -3  -8    2690      52
   1  -4  -8    1138      34
   0  -4  -8   16476     128
  -1  -4  -8   19480     140
  -2  -4  -8    1389      37
  -3  -4  -8    1285      36
  -4  -4  -8    8704      93
  -5  -4  -8   11423     107
  -6  -4  -8   72417     269
  -7  -4  -8   24557     157
  -8  -4  -8      34       6
   1  -5  -8     720      27
   0  -5  -8    4517      67
  -1  -5  -8   13600     117
  -2  -5  -8   65657     256
  -3  -5  -8   84262     290
  -4  -5  -8    5382      73
  -5  -5  -8    4145      64
  -6  -5  -8    4020      63
  -7  -5  -8   13035     114
  -8  -5  -8   13587     117
   0  -6  -8     585      24
  -1  -6  -8    2453      50
  -2  -6  -8   14821     122
  -3  -6  -8   43952     210
  -4  -6  -8   13682     117
  -5  -6  -8     145      12
  -6  -6  -8     296      17
  -7  -6  -8    1075      33
  -8  -6  -8    9319      97
  -2  -7  -8    6248      79
  -3  -7  -8    3113      56
  -4  -7  -8   18768     137
  -5  -7  -8    5895      77
  -6  -7  -8    8489      92
  -7  -7  -8   10046     100
  -3  -8  -8      94      10
  -4  -8  -8     237      15
  -5  -8  -8     548      23
  -6  -8  -8    3832      62
   0   5  -9   10886     104
  -1   5  -9   13069     114
   2   4  -9    2770      53
   1   4  -9   20588     143
   0   4  -9    2559      51
  -1   4  -9   22721     151
  -2   4  -9   16703     129
  -3   4  -9    8874      94
   2   3  -9   16707     129
   1   3  -9   24831     158
   0   3  -9   22824     151
  -1   3  -9    5704      76
  -2   3  -9    1053      32
  -3   3  -9    2012      45
  -4   3  -9    6346      80
   2   2  -9     669      26
   1   2  -9    8552      92
   0   2  -9    6059      78
  -1   2  -9    2743      52
  -2   2  -9    2428      49
  -3   2  -9   13989     118
  -4   2  -9    2782      53
  -5   2  -9    5968      77
   2   1  -9     512      23
   1   1  -9     393      20
   0   1  -9     209      14
  -1   1  -9    7641      87
  -2   1  -9   23992     155
  -3   1  -9   38500     196
  -4   1  -9   36444     191
  -5   1  -9    8927      94
  -6   1  -9     437      21
   2   0  -9    4036      64
   1   0  -9    5852      76
   0   0  -9   23698     154
  -1   0  -9    2219      47
  -2   0  -9   26508     163
  -3   0  -9   17795     133
  -4   0  -9    9825      99
  -5   0  -9   29436     172
  -6   0  -9    9684      98
  -7   0  -9     707      27
   2  -1  -9    9960     100
   1  -1  -9   10129     101
   0  -1  -9   37762     194
  -1  -1  -9   73316     271
  -2  -1  -9    7749      88
  -3  -1  -9    1909      44
  -4  -1  -9    9057      95
  -5  -1  -9   31604     178
  -6  -1  -9   13351     116
  -7  -1  -9    4142      64
   2  -2  -9     183      14
   1  -2  -9    8849      94
   0  -2  -9   17146     131
  -1  -2  -9   43599     209
  -2  -2  -9   22350     149
  -3  -2  -9    4571      68
  -4  -2  -9    2013      45
  -5  -2  -9    4979      71
  -6  -2  -9   12488     112
  -7  -2  -9    2330      48
   1  -3  -9    1835      43
   0  -3  -9    4634      68
  -1  -3  -9   14836     122
  -2  -3  -9    1343      37
  -3  -3  -9     434      21
  -4  -3  -9    9319      97
  -5  -3  -9    7466      86
  -6  -3  -9    2297      48
  -7  -3  -9    5066      71
   0  -4  -9    1138      34
  -1  -4  -9    2590      51
  -2  -4  -9    2746      52
  -3  -4  -9   47499     218
  -4  -4  -9   31905     179
  -5  -4  -9   10789     104
  -6  -4  -9   29746     172
  -7  -4  -9   21082     145
   0  -5  -9    4843      70
  -1  -5  -9    7571      87
  -2  -5  -9   15852     126
  -3  -5  -9    6456      80
  -4  -5  -9    3673      61
  -5  -5  -9     420      20
  -6  -5  -9   12500     112
  -7  -5  -9   14074     119
  -2  -6  -9   22246     149
  -3  -6  -9   23411     153
  -4  -6  -9    1322      36
  -5  -6  -9    3418      58
  -6  -6  -9      17       4
  -7  -6  -9   18001     134
  -3  -7  -9   10458     102
  -4  -7  -9   10899     104
  -5  -7  -9    9512      98
  -6  -7  -9    1948      44
   0   3 -10     899      30
  -1   3 -10     262      16
  -2   3 -10    2356      49
  -3   3 -10   10431     102
   1   2 -10   13803     117
   0   2 -10   16413     128
  -1   2 -10    5344      73
  -2   2 -10    7395      86
  -3   2 -10   20739     144
  -4   2 -10   10209     101
   1   1 -10    3763      61
   0   1 -10   26397     162
  -1   1 -10   16377     128
  -2   1 -10    3244      57
  -3   1 -10    6224      79
  -4   1 -10    2870      54
  -5   1 -10    4029      63
   1   0 -10    2875      54
   0   0 -10     838      29
  -1   0 -10    7407      86
  -2   0 -10   14433     120
  -3   0 -10    7295      85
  -4   0 -10   27218     165
  -5   0 -10   16381     128
  -6   0 -10     239      15
   1  -1 -10    3195      57
   0  -1 -10    4930      70
  -1  -1 -10    3352      58
  -2  -1 -10    3474      59
  -3  -1 -10    3847      62
  -4  -1 -10   25024     158
  -5  -1 -10    5172      72
  -6  -1 -10    3261      57
   0  -2 -10    8100      90
  -1  -2 -10   20080     142
  -2  -2 -10   18136     135
  -3  -2 -10    1194      35
  -4  -2 -10    7362      86
  -5  -2 -10   17782     133
  -6  -2 -10   13712     117
   0  -3 -10   14813     122
  -1  -3 -10   24834     158
  -2  -3 -10    9330      97
  -3  -3 -10    3529      59
  -4  -3 -10    3091      56
  -5  -3 -10     437      21
  -6  -3 -10   10079     100
  -7  -3 -10   10748     104
  -1  -4 -10      10       3
  -2  -4 -10   20466     143
  -3  -4 -10    8531      92
  -4  -4 -10     223      15
  -5  -4 -10   17932     134
  -6  -4 -10   17894     134
  -2  -5 -10     525      23
  -3  -5 -10    7153      85
  -4  -5 -10   20181     142
  -5  -5 -10   35606     189
  -6  -5 -10   13741     117
  -4  -6 -10    2002      45
  -5  -6 -10    5859      77
  -2   1 -11     102      10
  -3   1 -11     206      14
  -1   0 -11    6813      83
  -2   0 -11    7568      87
  -3   0 -11    5697      75
  -4   0 -11     608      25
  -1  -1 -11    6354      80
  -2  -1 -11   15932     126
  -3  -1 -11   35005     187
  -4  -1 -11   23904     155
  -5  -1 -11    1482      38
  -2  -2 -11    4785      69
  -3  -2 -11    7240      85
  -4  -2 -11   10830     104
  -5  -2 -11   15567     125
  -2  -3 -11     787      28
  -3  -3 -11    2976      55
  -4  -3 -11    3740      61
  -5  -3 -11     585      24
  -4  -4 -11     660      26
   0   0   0       0       0
_platon_generate_hkl      1999
;
_shelx_hkl_checksum              36379
loop_
_space_group_symop_operation_xyz
'x, y, z'
'-x, -y, -z'
loop_
_atom_site_label
_atom_site_type_symbol
_atom_site_fract_x
_atom_site_fract_y
_atom_site_fract_z
_atom_site_U_iso_or_equiv
_atom_site_adp_type
_atom_site_occupancy
_atom_site_site_symmetry_order
_atom_site_calc_flag
_atom_site_refinement_flags_posn
_atom_site_refinement_flags_adp
Fe1 Fe 1.07704(11) 0.36287(9) 0.12988(8) 0.01802(18) Uani 1 1 d . .
O4 O 0.8795(5) 0.5043(5) 0.3404(4) 0.0213(6) Uani 1 1 d . .
O6 O 1.1465(5) 0.5419(4) -0.0117(4) 0.0190(7) Uani 1 1 d . .
O2 O 1.2891(6) -0.1756(5) -0.0094(4) 0.0243(7) Uani 1 1 d . .
O3 O 0.6592(6) 0.4942(6) 0.5904(5) 0.0325(9) Uani 1 1 d . .
O5 O 1.3238(5) 0.2920(4) 0.2168(4) 0.0202(7) Uani 1 1 d . .
O1 O 1.2477(5) 0.1154(5) 0.0021(4) 0.0206(7) Uani 1 1 d . .
N1 N 0.9559(6) 0.1926(6) 0.2689(5) 0.0213(6) Uani 1 1 d . .
C2 C 1.0219(9) 0.0138(7) 0.2131(7) 0.0274(11) Uani 1 1 d . .
C7 C 0.7769(8) 0.4282(7) 0.4541(6) 0.0229(10) Uani 1 1 d . .
C5 C 0.7044(8) 0.1299(8) 0.5081(7) 0.0304(12) Uani 1 1 d . .
H5 H 0.598177 0.171379 0.606757 0.036 Uiso 1 1 calc R U
C6 C 0.8047(8) 0.2409(7) 0.4127(6) 0.0245(10) Uani 1 1 d . .
C1 C 1.1982(8) -0.0205(7) 0.0583(6) 0.0239(10) Uani 1 1 d . .
C3 C 0.9358(8) -0.1085(7) 0.2987(6) 0.0226(10) Uani 1 1 d . .
H3 H 0.983766 -0.227000 0.260022 0.027 Uiso 1 1 calc R U
C4 C 0.7704(8) -0.0447(6) 0.4488(7) 0.0246(10) Uani 1 1 d . .
H4 H 0.705658 -0.121784 0.507970 0.029 Uiso 1 1 calc R U
loop_
_atom_site_aniso_label
_atom_site_aniso_U_11
_atom_site_aniso_U_22
_atom_site_aniso_U_33
_atom_site_aniso_U_23
_atom_site_aniso_U_13
_atom_site_aniso_U_12
Fe1 0.0183(3) 0.0178(3) 0.0180(3) 0.0002(2) -0.0053(2) -0.0077(3)
O4 0.0131(11) 0.0299(14) 0.0182(12) -0.0056(10) -0.0054(9) -0.0041(10)
O6 0.0189(15) 0.0219(16) 0.0176(15) 0.0008(13) -0.0055(12) -0.0100(13)
O2 0.0239(17) 0.0230(17) 0.0266(18) -0.0023(14) -0.0085(14) -0.0088(14)
O3 0.0253(19) 0.046(2) 0.0253(19) -0.0050(17) -0.0061(15) -0.0131(18)
O5 0.0220(16) 0.0194(16) 0.0196(16) 0.0017(13) -0.0068(13) -0.0090(13)
O1 0.0208(16) 0.0205(16) 0.0195(16) -0.0001(13) -0.0069(13) -0.0070(13)
N1 0.0131(11) 0.0299(14) 0.0182(12) -0.0056(10) -0.0054(9) -0.0041(10)
C2 0.043(3) 0.020(2) 0.038(3) 0.015(2) -0.030(2) -0.020(2)
C7 0.020(2) 0.022(2) 0.023(2) 0.0003(18) -0.0096(19) -0.0029(19)
C5 0.025(3) 0.031(3) 0.028(3) -0.008(2) -0.008(2) -0.002(2)
C6 0.017(2) 0.033(3) 0.018(2) 0.0018(19) -0.0068(18) -0.004(2)
C1 0.027(2) 0.019(2) 0.026(2) 0.0020(19) -0.010(2) -0.009(2)
C3 0.027(2) 0.027(2) 0.022(2) 0.0073(19) -0.0124(19) -0.016(2)
C4 0.025(2) 0.015(2) 0.042(3) 0.009(2) -0.021(2) -0.0108(19)
loop_
_atom_type_symbol
_atom_type_description
_atom_type_scat_dispersion_real
_atom_type_scat_dispersion_imag
_atom_type_scat_source
C C 0.0033 0.0016 'International Tables Vol C Tables 4.2.6.8 and 6.1.1.4'
Fe Fe 0.3463 0.8444 'International Tables Vol C Tables 4.2.6.8 and 6.1.1.4'
N N 0.0061 0.0033 'International Tables Vol C Tables 4.2.6.8 and 6.1.1.4'
O O 0.0106 0.0060 'International Tables Vol C Tables 4.2.6.8 and 6.1.1.4'
H H 0.0000 0.0000 'International Tables Vol C Tables 4.2.6.8 and 6.1.1.4'
loop_
_geom_angle_atom_site_label_1
_geom_angle_atom_site_label_2
_geom_angle_atom_site_label_3
_geom_angle
_geom_angle_site_symmetry_1
_geom_angle_site_symmetry_3
O6 Fe1 N1 169.81(15) . .
O6 Fe1 O5 94.18(14) . .
N1 Fe1 O5 95.86(14) . .
O6 Fe1 O4 104.15(15) . .
N1 Fe1 O4 74.53(15) . .
O5 Fe1 O4 88.05(13) . .
O6 Fe1 O6 76.14(15) . 2_765
N1 Fe1 O6 93.89(14) . 2_765
O5 Fe1 O6 170.07(13) . 2_765
O4 Fe1 O6 96.37(13) . 2_765
O6 Fe1 O1 106.14(14) . .
N1 Fe1 O1 76.10(15) . .
O5 Fe1 O1 87.30(13) . .
O4 Fe1 O1 149.61(14) . .
O6 Fe1 O1 93.24(13) 2_765 .
C7 O4 Fe1 119.5(3) . .
Fe1 O6 Fe1 103.86(15) . 2_765
C1 O1 Fe1 118.6(3) . .
C6 N1 C2 116.6(5) . .
C6 N1 Fe1 123.6(4) . .
C2 N1 Fe1 119.8(3) . .
C3 C2 N1 123.1(5) . .
C3 C2 C1 127.5(5) . .
N1 C2 C1 109.4(4) . .
O3 C7 O4 126.5(5) . .
O3 C7 C6 118.7(5) . .
O4 C7 C6 114.8(4) . .
C4 C5 C6 117.0(5) . .
C4 C5 H5 121.5 . .
C6 C5 H5 121.5 . .
N1 C6 C5 125.1(5) . .
N1 C6 C7 107.0(4) . .
C5 C6 C7 127.8(4) . .
O2 C1 O1 124.0(5) . .
O2 C1 C2 120.2(4) . .
O1 C1 C2 115.8(4) . .
C2 C3 C4 117.0(5) . .
C2 C3 H3 121.5 . .
C4 C3 H3 121.5 . .
C5 C4 C3 121.2(5) . .
C5 C4 H4 119.4 . .
C3 C4 H4 119.4 . .
loop_
_geom_bond_atom_site_label_1
_geom_bond_atom_site_label_2
_geom_bond_distance
_geom_bond_site_symmetry_2
Fe1 O6 1.887(3) .
Fe1 N1 1.990(4) .
Fe1 O5 2.014(3) .
Fe1 O4 2.039(3) .
Fe1 O6 2.041(3) 2_765
Fe1 O1 2.075(3) .
O4 C7 1.281(6) .
O2 C1 1.255(6) .
O3 C7 1.241(6) .
O1 C1 1.274(6) .
N1 C6 1.336(6) .
N1 C2 1.404(6) .
C2 C3 1.384(6) .
C2 C1 1.479(8) .
C7 C6 1.505(7) .
C5 C4 1.385(7) .
C5 C6 1.399(8) .
C5 H5 0.9300 .
C3 C4 1.426(7) .
C3 H3 0.9300 .
C4 H4 0.9300 .
loop_
_geom_torsion_atom_site_label_1
_geom_torsion_atom_site_label_2
_geom_torsion_atom_site_label_3
_geom_torsion_atom_site_label_4
_geom_torsion
_geom_torsion_site_symmetry_1
_geom_torsion_site_symmetry_4
N1 Fe1 O6 Fe1 -12.0(10) . 2_765
O5 Fe1 O6 Fe1 177.78(15) . 2_765
O4 Fe1 O6 Fe1 -93.19(15) . 2_765
O6 Fe1 O6 Fe1 0.000(0) 2_765 2_765
O1 Fe1 O6 Fe1 89.38(16) . 2_765
C6 N1 C2 C3 0.9(7) . .
Fe1 N1 C2 C3 -176.1(4) . .
C6 N1 C2 C1 -176.4(4) . .
Fe1 N1 C2 C1 6.5(5) . .
Fe1 O4 C7 O3 176.6(4) . .
Fe1 O4 C7 C6 -4.0(5) . .
C2 N1 C6 C5 -2.0(7) . .
Fe1 N1 C6 C5 174.9(4) . .
C2 N1 C6 C7 174.4(4) . .
Fe1 N1 C6 C7 -8.7(5) . .
C4 C5 C6 N1 1.1(8) . .
C4 C5 C6 C7 -174.6(5) . .
O3 C7 C6 N1 -172.9(4) . .
O4 C7 C6 N1 7.6(6) . .
O3 C7 C6 C5 3.3(8) . .
O4 C7 C6 C5 -176.1(5) . .
Fe1 O1 C1 O2 179.4(4) . .
Fe1 O1 C1 C2 -0.6(6) . .
C3 C2 C1 O2 -0.7(8) . .
N1 C2 C1 O2 176.5(4) . .
C3 C2 C1 O1 179.3(5) . .
N1 C2 C1 O1 -3.6(6) . .
N1 C2 C3 C4 1.0(7) . .
C1 C2 C3 C4 177.9(5) . .
C6 C5 C4 C3 1.1(7) . .
C2 C3 C4 C5 -2.0(7) . .
