#------------------------------------------------------------------------------
#$Date: 2019-10-28 05:04:26 +0200 (Mon, 28 Oct 2019) $
#$Revision: 219651 $
#$URL: file:///home/coder/svn-repositories/cod/cif/4/51/44/4514462.cif $
#------------------------------------------------------------------------------
#
# This file is available in the Crystallography Open Database (COD),
# http://www.crystallography.net/
#
# All data on this site have been placed in the public domain by the
# contributors.
#
data_4514462
loop_
_publ_author_name
'Liu, Huapeng'
'Lu, Zhuoqun'
'Ye, Kaiqi'
'Zhang, Zuolun'
'Zhang, Hongyu'
_publ_section_title
;
 Polymorph-Dependent Luminescence Response to Acid Vapors and Its
 Application in Safety Protection of File Information.
;
_journal_issue                   37
_journal_name_full               'ACS applied materials &amp; interfaces'
_journal_page_first              34526
_journal_page_last               34531
_journal_paper_doi               10.1021/acsami.9b14474
_journal_volume                  11
_journal_year                    2019
_chemical_formula_moiety         'C17 H13 N O'
_chemical_formula_sum            'C17 H13 N O'
_chemical_formula_weight         247.28
_space_group_crystal_system      triclinic
_space_group_IT_number           1
_space_group_name_Hall           'P 1'
_space_group_name_H-M_alt        'P 1'
_symmetry_space_group_name_Hall  'P 1'
_symmetry_space_group_name_H-M   'P 1'
_atom_sites_solution_hydrogens   geom
_atom_sites_solution_primary     iterative
_audit_creation_date             2019-08-07
_audit_creation_method
;
Olex2 1.2
(compiled 2018.05.29 svn.r3508 for OlexSys, GUI svn.r5506)
;
_cell_angle_alpha                109.571(3)
_cell_angle_beta                 91.067(3)
_cell_angle_gamma                91.470(3)
_cell_formula_units_Z            2
_cell_length_a                   4.7869(3)
_cell_length_b                   10.7951(8)
_cell_length_c                   12.7630(9)
_cell_measurement_reflns_used    5485
_cell_measurement_temperature    100(2)
_cell_measurement_theta_max      29.47
_cell_measurement_theta_min      3.03
_cell_volume                     620.96(8)
_computing_cell_refinement       'SAINT V8.38A (?, 2016)'
_computing_data_reduction        'SAINT V8.38A (?, 2016)'
_computing_molecular_graphics    'Olex2 (Dolomanov et al., 2009)'
_computing_publication_material  'Olex2 (Dolomanov et al., 2009)'
_computing_structure_refinement  'XL (Sheldrick, 2008)'
_computing_structure_solution    'olex2.solve (Bourhis et al., 2015)'
_diffrn_ambient_temperature      100.0
_diffrn_measured_fraction_theta_full 0.999
_diffrn_measured_fraction_theta_max 0.982
_diffrn_measurement_device_type  'Bruker APEX-II CCD'
_diffrn_measurement_method       '\f and \w scans'
_diffrn_radiation_type           MoK\a
_diffrn_radiation_wavelength     0.71073
_diffrn_reflns_av_R_equivalents  0.0626
_diffrn_reflns_av_unetI/netI     0.0829
_diffrn_reflns_Laue_measured_fraction_full 0.999
_diffrn_reflns_Laue_measured_fraction_max 0.982
_diffrn_reflns_limit_h_max       6
_diffrn_reflns_limit_h_min       -6
_diffrn_reflns_limit_k_max       15
_diffrn_reflns_limit_k_min       -15
_diffrn_reflns_limit_l_max       17
_diffrn_reflns_limit_l_min       -17
_diffrn_reflns_number            18791
_diffrn_reflns_point_group_measured_fraction_full 0.993
_diffrn_reflns_point_group_measured_fraction_max 0.961
_diffrn_reflns_theta_full        25.242
_diffrn_reflns_theta_max         29.989
_diffrn_reflns_theta_min         3.028
_diffrn_standards_number         0
_exptl_absorpt_coefficient_mu    0.082
_exptl_absorpt_correction_type   none
_exptl_crystal_colour            yellow
_exptl_crystal_colour_primary    yellow
_exptl_crystal_density_diffrn    1.323
_exptl_crystal_description       plate
_exptl_crystal_F_000             260
_exptl_crystal_size_max          0.12
_exptl_crystal_size_mid          0.11
_exptl_crystal_size_min          0.09
_refine_diff_density_max         0.400
_refine_diff_density_min         -0.331
_refine_diff_density_rms         0.066
_refine_ls_abs_structure_details
;
 Flack x determined using 1883 quotients [(I+)-(I-)]/[(I+)+(I-)]
 (Parsons, Flack and Wagner, Acta Cryst. B69 (2013) 249-259).
;
_refine_ls_abs_structure_Flack   -1.2(10)
_refine_ls_extinction_method     none
_refine_ls_goodness_of_fit_ref   1.036
_refine_ls_hydrogen_treatment    constr
_refine_ls_matrix_type           full
_refine_ls_number_parameters     343
_refine_ls_number_reflns         6950
_refine_ls_number_restraints     3
_refine_ls_restrained_S_all      1.036
_refine_ls_R_factor_all          0.0934
_refine_ls_R_factor_gt           0.0692
_refine_ls_shift/su_max          0.000
_refine_ls_shift/su_mean         0.000
_refine_ls_structure_factor_coef Fsqd
_refine_ls_weighting_details
'w=1/[\s^2^(Fo^2^)+(0.0994P)^2^+0.0266P] where P=(Fo^2^+2Fc^2^)/3'
_refine_ls_weighting_scheme      calc
_refine_ls_wR_factor_gt          0.1661
_refine_ls_wR_factor_ref         0.1803
_reflns_Friedel_coverage         0.958
_reflns_Friedel_fraction_full    0.987
_reflns_Friedel_fraction_max     0.941
_reflns_number_gt                5339
_reflns_number_total             6950
_reflns_threshold_expression     'I > 2\s(I)'
_cod_data_source_file            am9b14474_si_004.cif
_cod_data_source_block           4
_cod_database_code               4514462
_shelx_shelxl_version_number     2014/7
_shelx_space_group_comment
;
The symmetry employed for this shelxl refinement is uniquely defined
by the following loop, which should always be used as a source of
symmetry information in preference to the above space-group names.
They are only intended as comments.
;
_shelx_estimated_absorpt_t_max   0.993
_shelx_estimated_absorpt_t_min   0.990
_olex2_refinement_description
;
1. Fixed Uiso
 At 1.2 times of:
  All C(H) groups
 At 1.5 times of:
  All O(H) groups
2.a Aromatic/amide H refined with riding coordinates:
 C1(H1A), C2(H2), C3(H3), C5(H5), C9(H9), C10(H10), C11(H11), C12(H12),
 C14(H14), C15(H15), C16(H16), C17(H17), C18(H18), C19(H19), C20(H20), C22(H22),
  C26(H26), C27(H27), C28(H28), C29(H29), C31(H31), C32(H32), C33(H33), C34(H34)
2.b Tetrahedral OH refined with riding coordinates:
 O1(H1), O2(H2A)
;
_shelx_res_file
;
    4.res created by SHELXL-2014/7

TITL 4_a.res in P1
CELL 0.71073 4.7869 10.7951 12.763 109.571 91.067 91.47
ZERR 2 0.0003 0.0008 0.0009 0.003 0.003 0.003
LATT -1
SFAC C H N O
UNIT 34 26 2 2

L.S. 4
PLAN  -5 0 0
SIZE 0.09 0.11 0.12
TEMP -173.15
HTAB
BOND $H
CONF
fmap 2
acta
REM <olex2.extras>
REM <HklSrc "%.\\4.hkl">
REM </olex2.extras>

WGHT    0.099400    0.026600
FVAR       1.03984
O1    4    0.100922    0.569653    0.525184    11.00000    0.03439    0.02664 =
         0.01749   -0.00206   -0.00570    0.00447
AFIX  83
H1    2    0.214947    0.564431    0.574240    11.00000   -1.50000
AFIX   0

O2    4    0.790013   -0.025005    0.083789    11.00000    0.03181    0.02223 =
         0.02523   -0.00307    0.00330   -0.00476
AFIX  83
H2A   2    0.870940    0.047067    0.089622    11.00000   -1.50000
AFIX   0

N1    3    0.373047    0.636304    0.710569    11.00000    0.01742    0.02030 =
         0.01958    0.00390   -0.00066   -0.00174
N2    3    0.938792    0.215700    0.168161    11.00000    0.01951    0.02114 =
         0.01767    0.00110   -0.00044    0.00001
C1    1    0.983996    0.520979    0.897210    11.00000    0.01651    0.03756 =
         0.02933    0.01656    0.00285    0.00357
AFIX  43
H1A   2    1.121933    0.493337    0.938325    11.00000   -1.20000
AFIX   0
C2    1    0.884686    0.648181    0.938005    11.00000    0.02265    0.03068 =
         0.01807    0.00411    0.00047   -0.00298
AFIX  43
H2    2    0.956770    0.707289    1.006995    11.00000   -1.20000
AFIX   0
C3    1    0.680470    0.689748    0.878646    11.00000    0.02218    0.02125 =
         0.01942    0.00239   -0.00041   -0.00187
AFIX  43
H3    2    0.612390    0.776237    0.906990    11.00000   -1.20000
AFIX   0
C4    1    0.578040    0.601842    0.776802    11.00000    0.01627    0.01930 =
         0.01921    0.00647    0.00316   -0.00058
C5    1    0.227101    0.744781    0.741692    11.00000    0.01719    0.02004 =
         0.01919    0.00240    0.00065   -0.00387
AFIX  43
H5    2    0.261929    0.807346    0.813770    11.00000   -1.20000
AFIX   0
C6    1    0.024196    0.770381    0.672413    11.00000    0.01890    0.02019 =
         0.01847    0.00251    0.00248   -0.00115
C7    1   -0.137511    0.889111    0.710273    11.00000    0.01320    0.01846 =
         0.02071    0.00508   -0.00035   -0.00390
C8    1   -0.335812    0.913771    0.636462    11.00000    0.01568    0.02355 =
         0.02480    0.00855    0.00079   -0.00209
C9    1   -0.494532    1.028764    0.671505    11.00000    0.01725    0.02812 =
         0.03183    0.01371   -0.00363   -0.00212
AFIX  43
H9    2   -0.626029    1.044507    0.621107    11.00000   -1.20000
AFIX   0
C10   1   -0.461217    1.117492    0.776878    11.00000    0.02017    0.02454 =
         0.03539    0.01021   -0.00126    0.00325
AFIX  43
H10   2   -0.565830    1.195209    0.799088    11.00000   -1.20000
AFIX   0
C11   1   -0.380639    0.818357    0.526871    11.00000    0.02524    0.02815 =
         0.02249    0.00699   -0.00535   -0.00217
AFIX  43
H11   2   -0.515958    0.834326    0.477917    11.00000   -1.20000
AFIX   0
C12   1   -0.236498    0.707454    0.491958    11.00000    0.03236    0.02891 =
         0.01938    0.00250   -0.00372   -0.00168
AFIX  43
H12   2   -0.272698    0.647340    0.418951    11.00000   -1.20000
AFIX   0
C13   1   -0.028264    0.676850    0.562009    11.00000    0.02617    0.02162 =
         0.01735    0.00277    0.00180   -0.00444
C14   1   -0.270975    1.092518    0.851787    11.00000    0.02311    0.02708 =
         0.02883    0.00271    0.00009    0.00230
AFIX  43
H14   2   -0.251676    1.152686    0.925646    11.00000   -1.20000
AFIX   0
C15   1   -0.111300    0.981941    0.819961    11.00000    0.02000    0.02458 =
         0.01975   -0.00007   -0.00331   -0.00051
AFIX  43
H15   2    0.017630    0.967649    0.871910    11.00000   -1.20000
AFIX   0
C16   1    0.677742    0.475091    0.735628    11.00000    0.01871    0.02153 =
         0.02349    0.00313    0.00075   -0.00239
AFIX  43
H16   2    0.607841    0.415945    0.666275    11.00000   -1.20000
AFIX   0
C17   1    0.879509    0.435146    0.796016    11.00000    0.02135    0.02477 =
         0.02913    0.00663    0.00376    0.00317
AFIX  43
H17   2    0.946515    0.348438    0.767860    11.00000   -1.20000
AFIX   0

C18   1    1.492262    0.514341    0.146436    11.00000    0.02038    0.02438 =
         0.03388    0.01009   -0.00508   -0.00332
AFIX  43
H18   2    1.617854    0.581085    0.140483    11.00000   -1.20000
AFIX   0
C19   1    1.467471    0.393298    0.061217    11.00000    0.02064    0.02535 =
         0.02385    0.00599   -0.00084    0.00037
AFIX  43
H19   2    1.577545    0.376698   -0.002922    11.00000   -1.20000
AFIX   0
C20   1    1.280554    0.296660    0.070431    11.00000    0.01757    0.01841 =
         0.02118    0.00124   -0.00108    0.00179
AFIX  43
H20   2    1.261820    0.214558    0.011811    11.00000   -1.20000
AFIX   0
C21   1    1.120935    0.319237    0.164720    11.00000    0.01684    0.01941 =
         0.01800    0.00244   -0.00232    0.00068
C22   1    0.751354    0.226245    0.245187    11.00000    0.01629    0.02013 =
         0.01758    0.00194   -0.00214    0.00420
AFIX  43
H22   2    0.729069    0.309441    0.300806    11.00000   -1.20000
AFIX   0
C23   1    0.583537    0.118035    0.247441    11.00000    0.01999    0.01882 =
         0.01667    0.00193   -0.00149    0.00129
C24   1    0.381855    0.131782    0.334169    11.00000    0.01842    0.01821 =
         0.01822    0.00525   -0.00155    0.00172
C25   1    0.226788    0.019749    0.336091    11.00000    0.01967    0.02311 =
         0.02663    0.01035   -0.00526   -0.00261
C26   1    0.030642    0.030043    0.419640    11.00000    0.01868    0.02645 =
         0.03132    0.01486   -0.00206   -0.00261
AFIX  43
H26   2   -0.070697   -0.046382    0.420588    11.00000   -1.20000
AFIX   0
C27   1   -0.015511    0.149258    0.499618    11.00000    0.02145    0.03257 =
         0.02385    0.00991    0.00056    0.00056
AFIX  43
H27   2   -0.146920    0.155251    0.555836    11.00000   -1.20000
AFIX   0
C28   1    0.271933   -0.104553    0.252239    11.00000    0.02831    0.02081 =
         0.03172    0.00659   -0.00593   -0.00410
AFIX  43
H28   2    0.169567   -0.180062    0.254667    11.00000   -1.20000
AFIX   0
C29   1    0.454380   -0.118536    0.169879    11.00000    0.03206    0.01778 =
         0.03029    0.00323   -0.00446   -0.00026
AFIX  43
H29   2    0.475529   -0.202752    0.115557    11.00000   -1.20000
AFIX   0
C30   1    0.616804   -0.007742    0.163368    11.00000    0.02152    0.02028 =
         0.02075    0.00098    0.00025    0.00244
C31   1    0.131604    0.260689    0.497444    11.00000    0.02389    0.02539 =
         0.01970    0.00354    0.00200    0.00531
AFIX  43
H31   2    0.095880    0.343529    0.551367    11.00000   -1.20000
AFIX   0
C32   1    0.329156    0.253338    0.418254    11.00000    0.02161    0.02101 =
         0.02092    0.00291    0.00162    0.00092
AFIX  43
H32   2    0.431322    0.330658    0.420006    11.00000   -1.20000
AFIX   0
C33   1    1.147997    0.440703    0.251266    11.00000    0.01865    0.02284 =
         0.02102    0.00006   -0.00209    0.00086
AFIX  43
H33   2    1.042054    0.457000    0.316449    11.00000   -1.20000
AFIX   0
C34   1    1.332401    0.536672    0.239943    11.00000    0.02147    0.02093 =
         0.02943    0.00086   -0.00857   -0.00034
AFIX  43
H34   2    1.349211    0.619547    0.297699    11.00000   -1.20000
AFIX   0
HKLF 4

REM  4_a.res in P1
REM R1 =  0.0692 for    5339 Fo > 4sig(Fo)  and  0.0934 for all    6950 data
REM    343 parameters refined using      3 restraints

END

WGHT      0.0994      0.0266

REM Instructions for potential hydrogen bonds
HTAB O1 N1
HTAB O2 N2
EQIV $1 x, y+1, z+1
HTAB C3 O2_$1
EQIV $2 x+1, y, z
HTAB C33 O1_$2

REM Highest difference peak  0.400,  deepest hole -0.331,  1-sigma level  0.066
Q1    1   0.3236  0.5810  0.6478  11.00000  0.05    0.40
Q2    1   0.5253  0.0954  0.3016  11.00000  0.05    0.39
Q3    1  -0.0669  0.8219  0.6972  11.00000  0.05    0.37
Q4    1   0.6788  0.5476  0.7356  11.00000  0.05    0.36
Q5    1   1.1676  0.3435  0.1120  11.00000  0.05    0.35
;
_shelx_res_checksum              13166
_shelx_hkl_file
;
  -1   0   0  101.09    8.40
  -1   0   0  116.89    8.80
  -1   0   0  118.39    8.60
  -1   0   0  110.99    8.60
  -1   0   0  101.49    9.40
  -1   0   0  118.79    8.40
   1   0   0  110.39    8.40
   1   0   0  115.39    8.90
   1   0   0  110.59    8.50
   1   0   0  105.59    8.80
   1   0   0  103.39    9.50
  -2   0   0   30.70    4.20
  -2   0   0   32.90    4.00
  -2   0   0   22.50    5.80
  -2   0   0   28.80    4.80
  -2   0   0   19.00    3.60
  -2   0   0   27.70    4.30
   2   0   0   25.80    4.40
   2   0   0   23.80    5.80
   2   0   0   28.80    5.00
   2   0   0   24.80    4.00
   2   0   0   21.00    4.40
  -3   0   0   58.89    9.00
  -3   0   0   53.69    7.20
  -3   0   0   57.39    6.50
  -3   0   0   56.99    7.10
  -3   0   0   49.70    6.50
  -3   0   0   55.29    7.20
   3   0   0   49.30    6.30
   3   0   0   54.99    6.60
   3   0   0   60.49    7.30
  -4   0   0   -9.60    6.80
  -4   0   0   -3.30    5.10
  -4   0   0   11.30    4.70
  -4   0   0   -0.70    4.50
  -4   0   0    6.20    4.00
  -4   0   0    0.50    4.00
   4   0   0   -0.40    5.80
   4   0   0    2.60    5.20
   4   0   0    1.90    4.80
  -5   0   0   10.20    5.00
  -5   0   0    8.10    5.60
  -5   0   0   15.50    5.40
   5   0   0    8.60    7.70
   5   0   0    9.60    6.40
   5   0   0    7.00    6.90
  -6   0   0    2.50    5.40
   6  -1   0   86.69   12.40
   6  -1   0   73.59   12.00
  -6   1   0   42.10    5.70
  -6   1   0   51.99    8.10
   5  -1   0   90.29   11.50
   5  -1   0   84.79   12.70
   5  -1   0   91.99   11.50
  -5   1   0   84.49    7.00
  -5   1   0   95.09   10.10
  -5   1   0   76.09    9.50
  -5   1   0   80.09   11.00
  -5   1   0   76.09    7.00
   4  -1   0   61.19    8.50
   4  -1   0   50.09    8.20
   4  -1   0   54.19    8.10
  -4   1   0   55.29    5.00
  -4   1   0   55.09    5.20
  -4   1   0   45.70    8.20
  -4   1   0   60.29    7.30
  -4   1   0   46.90    8.10
  -4   1   0   59.39    7.90
  -4   1   0   49.00    7.40
   3  -1   0   11.50    4.10
   3  -1   0    6.80    4.90
  -3   1   0    6.60    3.90
  -3   1   0   18.60    4.20
  -3   1   0   14.70    5.10
  -3   1   0   15.70    4.50
  -3   1   0   18.90    4.10
  -3   1   0   14.60    2.30
  -3   1   0   13.70    2.10
  -3   1   0   15.10    6.90
   2  -1   0   68.89    6.90
   2  -1   0   69.49    7.00
   2  -1   0   68.59    7.40
   2  -1   0   66.29    7.50
  -2   1   0   68.19    7.40
  -2   1   0   72.79    7.40
  -2   1   0   74.89    5.70
  -2   1   0   76.09    5.50
  -2   1   0   80.69    7.80
  -2   1   0   66.89    6.80
  -2   1   0   66.79    9.20
  -2   1   0   71.39    6.80
   1  -1   0  507.45   34.60
   1  -1   0  478.55   34.30
   1  -1   0  492.05   34.00
   1  -1   0  555.14   34.00
   1  -1   0  498.55   34.30
   1  -1   0  481.35   34.40
  -1   1   0  506.55   34.30
  -1   1   0  505.35   34.30
  -1   1   0  483.85   34.40
  -1   1   0  507.75   34.10
  -1   1   0  509.05   34.10
  -1   1   0  489.85   34.60
  -1  -1   0  865.51   55.69
  -1  -1   0  835.52   55.49
  -1  -1   0  855.01   55.69
  -1  -1   0  760.52   55.69
  -1  -1   0  790.12   55.29
   1   1   0  805.12   55.79
   1   1   0  825.52   55.69
   1   1   0  787.42   55.29
  -2  -1   0   30.10    4.70
  -2  -1   0   18.30    4.50
  -2  -1   0   25.50    5.70
  -2  -1   0   29.10    4.00
  -2  -1   0   20.70    3.70
   2   1   0   20.70    4.70
   2   1   0   19.10    6.10
   2   1   0   20.30    4.00
   2   1   0   26.10    4.90
   2   1   0   24.50    4.10
  -3  -1   0  152.68   14.10
  -3  -1   0  140.49   13.10
  -3  -1   0  131.49   12.30
  -3  -1   0  154.28   12.40
  -3  -1   0  142.79   11.90
  -3  -1   0  146.69   11.80
   3   1   0  143.09   14.00
   3   1   0  115.89   14.70
   3   1   0  146.69   12.40
   3   1   0  134.09   12.90
   3   1   0  152.48   12.20
  -4  -1   0   48.10    9.40
  -4  -1   0   30.30    5.70
  -4  -1   0   35.50    6.00
  -4  -1   0   38.30    5.90
  -4  -1   0   42.90    6.40
  -4  -1   0   28.40   12.30
   4   1   0   36.30    7.60
   4   1   0   34.20    6.30
   4   1   0   30.90    6.50
  -5  -1   0  169.08   14.80
  -5  -1   0  169.98   17.10
  -5  -1   0  180.38   15.80
  -6  -1   0    7.00    5.60
   6  -2   0  131.89   13.70
   6  -2   0  126.59   14.70
  -6   2   0   93.49    8.80
  -6   2   0  120.69   12.60
  -6   2   0   90.19    9.00
   5  -2   0  136.59   15.10
   5  -2   0  147.99   14.40
   5  -2   0  186.48   15.90
  -5   2   0  158.18   14.80
  -5   2   0  135.19   11.20
  -5   2   0  130.59   11.30
   4  -2   0    4.00    4.90
   4  -2   0    3.10    5.60
   4  -2   0    0.20    5.50
  -4   2   0    2.80    7.50
  -4   2   0    6.10    4.50
  -4   2   0    4.70    2.80
  -4   2   0    9.70    4.70
  -4   2   0    4.40    2.30
  -4   2   0   -0.20    3.80
  -4   2   0    1.30    4.70
  -4   2   0    5.10    5.40
   3  -2   0  164.28   13.30
   3  -2   0  154.38   13.60
   3  -2   0  186.98   13.90
   3  -2   0  160.08   13.90
  -3   2   0  151.58   13.00
  -3   2   0  172.28   14.10
  -3   2   0  155.28   13.10
  -3   2   0  172.08   12.10
  -3   2   0  161.98   12.00
  -3   2   0  157.08   15.50
  -3   2   0  163.38   14.10
  -3   2   0  163.48   13.40
   2  -2   0   59.59    6.50
   2  -2   0   56.89    6.50
   2  -2   0   58.89    6.70
   2  -2   0   55.19    4.50
   2  -2   0   57.59    7.10
   2  -2   0   58.19    4.50
  -2   2   0   62.29    6.10
  -2   2   0   46.40    8.30
  -2   2   0   52.49    6.80
  -2   2   0   63.99    6.90
  -2   2   0   55.49    5.30
  -2   2   0   62.49    5.40
   1  -2   0  305.37   22.20
   1  -2   0  306.97   21.70
   1  -2   0  316.67   22.30
   1  -2   0  345.27   21.90
   1  -2   0  305.87   22.10
  -1   2   0  305.27   22.00
  -1   2   0  296.67   21.90
  -1   2   0  317.47   21.80
   0  -2   0  579.34   39.60
   0  -2   0  569.34   39.70
   0  -2   0  550.04   39.30
   0  -2   0  628.34   39.60
   0   2   0  581.94   39.60
   0   2   0  588.94   39.60
   0   2   0  567.74   39.80
  -1  -2   0  146.99   11.80
  -1  -2   0  127.79   12.60
  -1  -2   0  152.58   10.40
  -1  -2   0  157.88   10.50
  -1  -2   0  138.89   11.20
   1   2   0  148.79   12.00
   1   2   0  123.19   13.60
  -2  -2   0  265.37   19.50
  -2  -2   0  265.37   20.50
  -2  -2   0  274.47   19.60
  -2  -2   0  285.57   20.30
  -2  -2   0  274.47   20.00
   2   2   0  263.77   20.90
   2   2   0  268.77   19.50
   2   2   0  279.07   20.40
  -3  -2   0  144.29   12.20
  -3  -2   0  138.29   11.50
  -3  -2   0  137.19   13.30
  -3  -2   0  148.29   11.30
  -3  -2   0  127.89   12.60
   3   2   0  134.59   14.30
   3   2   0  132.29   13.50
  -4  -2   0   50.29    6.80
  -4  -2   0   38.80    6.50
  -4  -2   0   46.50    9.30
  -4  -2   0   46.50    6.80
  -4  -2   0   49.30    6.70
  -4  -2   0   48.50    8.20
   4   2   0   30.30    7.60
   4   2   0   48.00    9.80
  -5  -2   0  114.09   11.60
  -6  -2   0    9.70    5.20
   6  -3   0   17.20    8.70
   6  -3   0    8.00    7.30
   6  -3   0   12.60    7.40
  -6   3   0   23.30    4.00
  -6   3   0    1.30    6.90
   5  -3   0   12.90    6.20
   5  -3   0    6.20    6.80
   5  -3   0    9.10    6.90
  -5   3   0   12.20    3.70
  -5   3   0    8.00    3.00
  -5   3   0   11.00    6.50
   4  -3   0   65.19    8.00
   4  -3   0   58.29    8.20
   4  -3   0   50.29    7.40
   4  -3   0   62.89    8.20
  -4   3   0   44.70    6.00
  -4   3   0   57.69    9.20
  -4   3   0   50.09    6.40
  -4   3   0   68.89    9.70
  -4   3   0   48.60    8.10
  -4   3   0   79.29   12.40
   3  -3   0   25.60    5.00
   3  -3   0   35.90    5.70
   3  -3   0   44.40    9.30
   3  -3   0   32.20    6.00
  -3   3   0   37.80    7.00
  -3   3   0   30.50    4.70
  -3   3   0   41.00    6.10
  -3   3   0   34.70    4.40
  -3   3   0   37.70    6.90
  -3   3   0   38.40    4.50
   2  -3   0  100.19    9.00
   2  -3   0   88.19    7.40
   2  -3   0   88.99    7.10
   2  -3   0   94.29    9.00
   2  -3   0   94.89    8.70
   2  -3   0   94.99    8.50
  -2   3   0   87.59    7.80
  -2   3   0   88.29   11.60
  -2   3   0   92.29    9.20
  -2   3   0   77.99    7.50
   1  -3   0    6.20    2.50
   1  -3   0    7.30    3.30
   1  -3   0    6.10    2.80
  -1   3   0    8.40    2.90
  -1   3   0    8.00    3.10
  -1   3   0    5.80    2.40
  -1   3   0    5.00    2.80
   0  -3   0  124.49    9.90
   0  -3   0  127.19   10.30
   0  -3   0  152.68   10.50
   0  -3   0  134.29   10.90
   0   3   0  134.29   10.30
   0   3   0  139.29   10.70
   0   3   0  136.39   11.40
  -1  -3   0  325.97   21.50
  -1  -3   0  319.97   21.50
  -1  -3   0  309.87   21.90
  -1  -3   0  285.97   21.20
   1   3   0  286.77   22.20
   1   3   0  318.57   21.30
   1   3   0  305.07   22.30
   1   3   0  319.57   21.40
  -2  -3   0  495.75   35.10
  -2  -3   0  492.85   35.80
  -2  -3   0  499.75   34.30
  -2  -3   0  481.65   35.50
  -2  -3   0  533.85   34.70
  -2  -3   0  519.85   36.00
  -2  -3   0  518.85   34.40
   2   3   0  483.05   36.00
   2   3   0  497.35   35.70
  -3  -3   0   33.20    6.80
  -3  -3   0   26.60    4.50
  -3  -3   0   20.90    4.80
  -3  -3   0   21.50    5.40
  -3  -3   0   32.10    4.50
   3   3   0   26.30    6.30
   3   3   0   27.90    7.80
  -4  -3   0   88.79    9.60
  -4  -3   0   81.29   12.10
  -4  -3   0   89.69   12.60
  -4  -3   0   60.99    9.90
  -4  -3   0  100.59    9.40
  -4  -3   0   99.19    9.40
   4   3   0   74.29   11.40
   4   3   0   91.89   13.60
  -5  -3   0   45.40    6.90
  -5  -3   0   37.90    8.30
  -6  -3   0   36.70    6.50
   6  -4   0   -0.10    7.00
   6  -4   0   14.70    7.00
  -6   4   0   -1.20    5.60
  -6   4   0    9.20    3.90
   5  -4   0    1.10    6.10
   5  -4   0    3.80    7.20
  -5   4   0    2.60    3.20
  -5   4   0    9.50    3.80
  -5   4   0    6.60    6.00
   4  -4   0  289.27   21.40
   4  -4   0  280.97   21.50
   4  -4   0  272.07   21.80
   4  -4   0  255.97   21.30
  -4   4   0  266.97   20.20
  -4   4   0  271.57   20.40
  -4   4   0  285.87   22.60
  -4   4   0  269.07   22.00
   3  -4   0   24.50    5.20
   3  -4   0   14.80    5.40
   3  -4   0   13.40    2.40
   3  -4   0   15.10    5.10
   3  -4   0   15.00    2.60
   3  -4   0    9.70    4.20
  -3   4   0   18.40    5.10
  -3   4   0   24.50    4.20
  -3   4   0   14.70    5.80
  -3   4   0   19.90    3.50
  -3   4   0   10.80    3.70
   2  -4   0   25.10    3.90
   2  -4   0   31.30    5.00
   2  -4   0   50.19    7.00
   2  -4   0   29.10    3.90
   2  -4   0   40.10    5.30
   2  -4   0   22.00    4.60
  -2   4   0   31.10    4.80
  -2   4   0   27.60    4.40
  -2   4   0   25.00    4.90
  -2   4   0   26.50    5.60
   1  -4   0 1951.80  134.09
   1  -4   0 1963.30  134.29
   1  -4   0 1932.51  134.79
  -1   4   0 2158.58  134.99
  -1   4   0 2155.98  134.59
  -1   4   0 1866.91  134.09
  -1   4   0 1847.92  134.39
   0  -4   0  115.99    8.50
   0  -4   0   99.59    7.70
   0  -4   0  107.69    9.00
   0  -4   0  104.49    8.60
   0   4   0  105.09    9.30
   0   4   0   83.59    8.30
   0   4   0  103.39    8.60
  -1  -4   0   77.39    7.20
  -1  -4   0   84.49    6.60
  -1  -4   0   72.19    6.60
   1   4   0   74.99    8.30
   1   4   0   72.89    8.30
   1   4   0   63.49    6.40
   1   4   0   72.69    6.30
  -2  -4   0  767.92   48.30
  -2  -4   0  741.73   48.20
  -2  -4   0  676.13   48.20
   2   4   0  664.83   49.40
   2   4   0  673.83   49.30
  -3  -4   0    1.40    3.40
  -3  -4   0    1.10    2.00
  -3  -4   0    3.40    1.90
  -3  -4   0    0.90    4.40
  -3  -4   0    1.00    5.50
  -3  -4   0    0.20    3.70
   3   4   0   -1.30    5.60
   3   4   0    1.90    6.60
  -4  -4   0   10.40    7.50
  -4  -4   0    7.50    4.40
  -4  -4   0    7.70    4.40
  -4  -4   0   -0.40    4.60
  -4  -4   0    3.80    2.20
  -4  -4   0    7.80    2.10
   4   4   0    3.30    8.20
   4   4   0    0.80    6.50
  -5  -4   0   -2.00    4.40
  -5  -4   0    1.60    4.90
   5   4   0    1.00    6.90
  -6  -4   0   14.20    5.40
   6  -5   0    6.90    6.90
   6  -5   0    8.20    8.00
   6  -5   0   14.90    7.60
  -6   5   0   -0.30    6.20
  -6   5   0   18.20    4.20
   5  -5   0   35.60    8.00
   5  -5   0   39.00    8.30
   5  -5   0   51.89    8.90
  -5   5   0   30.40    5.40
  -5   5   0   46.80    6.40
  -5   5   0   51.59    8.90
   4  -5   0   92.39   10.70
   4  -5   0   63.49    9.10
   4  -5   0   81.29   10.20
   4  -5   0   85.89   10.50
  -4   5   0   84.49   10.60
  -4   5   0   79.69    8.20
  -4   5   0   87.19    9.00
  -4   5   0   80.49   11.80
   3  -5   0   32.20    4.90
   3  -5   0   28.30    4.00
   3  -5   0   42.40    6.60
   3  -5   0   33.10    4.00
   3  -5   0   27.10    6.20
   3  -5   0   31.00    6.30
  -3   5   0   27.80    6.50
  -3   5   0   40.40    6.80
  -3   5   0   27.60    4.90
  -3   5   0   36.20    5.00
  -3   5   0   37.00    7.10
   2  -5   0   23.20    4.60
   2  -5   0   29.10    4.10
   2  -5   0   21.70    4.60
   2  -5   0   23.60    4.80
  -2   5   0   22.60    6.10
  -2   5   0   29.80    4.50
  -2   5   0   25.10    4.60
  -2   5   0   19.30    4.60
   1  -5   0   23.70    4.00
   1  -5   0   17.10    4.00
   1  -5   0   22.80    4.20
  -1   5   0   22.80    4.50
  -1   5   0   14.40    4.80
  -1   5   0   16.90    3.80
  -1   5   0   22.40    3.90
   0  -5   0   27.90    4.40
   0  -5   0   29.20    3.90
   0  -5   0   27.50    4.00
   0   5   0   19.70    4.40
   0   5   0   24.90    4.10
   0   5   0   31.30    4.30
  -1  -5   0   36.10    5.20
  -1  -5   0   52.09    5.60
  -1  -5   0   49.20    5.30
   1   5   0   42.30    5.10
   1   5   0   47.90    7.10
   1   5   0   40.50    5.60
  -2  -5   0  150.28   10.60
  -2  -5   0  123.59   10.00
  -2  -5   0  130.69   10.30
  -2  -5   0  130.49   11.10
   2   5   0  123.89   12.70
   2   5   0  131.79   12.60
  -3  -5   0   24.60    6.50
  -3  -5   0   19.50    3.70
  -3  -5   0   30.50    4.80
  -3  -5   0   26.70    4.20
  -3  -5   0   28.30    3.50
   3   5   0   27.70    7.30
   3   5   0   35.30   14.80
  -4  -5   0    3.40    2.40
  -4  -5   0    1.50    2.70
  -4  -5   0    7.30    7.40
  -4  -5   0    5.30    3.90
  -4  -5   0    2.50    4.60
   4   5   0    5.40    8.10
   4   5   0   10.20    7.30
  -5  -5   0   44.40    4.80
  -5  -5   0   41.50    7.00
  -5  -5   0   39.80    6.30
   5   5   0   54.29   11.30
   5   5   0   32.00    9.10
  -6  -5   0   22.00    6.10
   6  -6   0   21.20    7.10
   6  -6   0    9.40    8.00
   6  -6   0   11.40    7.70
  -6   6   0   16.20    5.20
  -6   6   0   11.50    6.40
   5  -6   0   48.10    9.40
   5  -6   0   47.70    9.30
   5  -6   0   53.59   12.40
  -5   6   0   52.49   11.70
  -5   6   0   50.19    7.10
   4  -6   0  154.98   15.10
   4  -6   0  164.08   15.30
   4  -6   0  165.28   14.70
  -4   6   0  171.68   19.90
  -4   6   0  141.89   13.40
  -4   6   0  171.88   16.70
  -4   6   0  161.18   13.80
   3  -6   0   42.40    6.90
   3  -6   0   44.60    6.90
   3  -6   0   45.40    7.00
   3  -6   0   36.90    5.90
   3  -6   0   40.90    5.30
   3  -6   0   40.00    5.40
  -3   6   0   36.50    5.70
  -3   6   0   42.20    5.80
  -3   6   0   42.60    6.50
  -3   6   0   48.00    8.00
   2  -6   0   41.70    6.30
   2  -6   0   43.60    5.40
   2  -6   0   53.79    7.00
   2  -6   0   33.10    5.60
   2  -6   0   48.40    6.00
  -2   6   0   37.60    6.90
  -2   6   0   45.10    5.70
  -2   6   0   47.40    5.70
  -2   6   0   52.39    6.40
   1  -6   0   72.39    7.80
   1  -6   0   74.49    8.50
   1  -6   0   97.19    8.00
  -1   6   0   81.39    7.70
  -1   6   0   90.29   11.10
  -1   6   0   76.29    7.80
  -1   6   0   82.59   11.00
   0  -6   0    8.70    3.60
   0  -6   0    8.10    3.00
   0  -6   0   10.20    3.40
   0  -6   0   10.60    2.60
   0   6   0   11.50    3.40
   0   6   0    7.30    3.60
   0   6   0    5.40    3.70
  -1  -6   0   12.50    3.90
  -1  -6   0   15.30    3.50
  -1  -6   0   13.50    3.40
   1   6   0   18.70    5.80
   1   6   0   18.90    3.60
   1   6   0   11.90    3.40
  -2  -6   0   99.69    8.80
  -2  -6   0   98.29    9.60
  -2  -6   0  107.09    9.00
   2   6   0  102.39    7.80
   2   6   0  109.99    8.10
   2   6   0  102.19   11.70
   2   6   0   86.69   11.60
  -3  -6   0   14.30    5.20
  -3  -6   0    5.40    3.20
  -3  -6   0    6.60    3.80
  -3  -6   0    7.60    2.90
  -3  -6   0   12.70    3.30
  -3  -6   0    5.70    3.90
   3   6   0   11.60    6.80
   3   6   0   17.00    8.40
  -4  -6   0   60.89    8.70
  -4  -6   0   66.39    7.60
  -4  -6   0   66.89    6.70
  -4  -6   0   61.19    8.40
  -4  -6   0   57.09    6.40
   4   6   0   61.09   10.30
   4   6   0   79.29   12.30
  -5  -6   0    8.60    2.60
  -5  -6   0    4.00    5.10
   5   6   0    6.20    7.80
   5   6   0   15.20   10.00
   5  -7   0   52.29    9.20
   5  -7   0   68.69   10.00
   5  -7   0   65.59   10.10
  -5   7   0   61.79    8.40
  -5   7   0   60.19   10.90
   4  -7   0   29.70    4.10
   4  -7   0   31.30    3.90
   4  -7   0   19.60    7.00
   4  -7   0   34.10    7.60
   4  -7   0   27.00    7.50
  -4   7   0   31.60    6.20
  -4   7   0   42.30    8.70
   3  -7   0   56.09    7.70
   3  -7   0   49.50    7.70
   3  -7   0   41.80    7.10
   3  -7   0   54.19    6.80
   3  -7   0   48.80    8.20
   3  -7   0   59.19    6.30
  -3   7   0   56.69    7.90
  -3   7   0   55.99    9.00
  -3   7   0   45.20    7.30
  -3   7   0   52.39    6.90
   2  -7   0   29.60    5.50
   2  -7   0   39.80    5.10
   2  -7   0   35.70    5.50
   2  -7   0   35.40    5.30
  -2   7   0   27.20    5.50
  -2   7   0   30.70    6.10
  -2   7   0   28.00    6.90
  -2   7   0   28.00    5.10
   1  -7   0   96.49    9.10
   1  -7   0   92.09    9.70
   1  -7   0  103.79    9.10
  -1   7   0   95.09    8.80
  -1   7   0  119.49   11.50
  -1   7   0  115.29   10.30
   0  -7   0   76.39    7.70
   0  -7   0   98.79    8.70
   0  -7   0   68.39    8.80
   0  -7   0   88.39    7.00
   0   7   0   82.29    8.80
   0   7   0   69.49    8.10
   0   7   0   73.29    9.70
  -1  -7   0  147.89   11.90
  -1  -7   0  139.89   11.80
  -1  -7   0  138.79   12.40
   1   7   0  140.89   11.80
   1   7   0  130.69   11.60
   1   7   0  160.68   13.90
  -2  -7   0   50.69    6.30
  -2  -7   0   32.60    5.80
  -2  -7   0   46.60    5.80
   2   7   0   52.39    8.40
   2   7   0   45.40    5.60
   2   7   0   42.60    7.90
   2   7   0   41.90    4.50
  -3  -7   0   33.30    5.70
  -3  -7   0   28.40    4.50
   3   7   0   30.90    7.90
   3   7   0   34.50    9.50
  -4  -7   0   22.80    4.30
  -4  -7   0   13.10    4.60
  -4  -7   0   28.50    4.90
  -4  -7   0   19.60    4.00
   4   7   0   24.50    9.50
   4   7   0   36.80    8.20
  -5  -7   0   26.60    6.20
   5   7   0   46.40   11.40
   5   7   0   32.80    8.90
   5  -8   0   46.10   19.40
   5  -8   0   82.69   12.00
   5  -8   0   94.59   11.70
  -5   8   0   98.79   10.50
  -5   8   0   81.99   12.60
   4  -8   0   10.30    2.80
   4  -8   0    6.10    5.60
   4  -8   0    1.90    6.50
   4  -8   0   10.30    7.40
   4  -8   0    7.90    2.50
  -4   8   0   11.30    7.50
  -4   8   0   15.60    5.80
   3  -8   0   44.20    8.00
   3  -8   0   55.69    6.30
   3  -8   0   50.49    6.30
   3  -8   0   41.80    7.20
   3  -8   0   39.00    7.90
  -3   8   0   32.60    6.60
  -3   8   0   56.49    7.80
  -3   8   0   40.70    8.30
   2  -8   0  124.69   14.90
   2  -8   0  153.28   12.50
   2  -8   0  149.99   12.50
   2  -8   0  129.39   11.50
  -2   8   0  153.88   13.30
  -2   8   0  130.49   12.40
  -2   8   0  158.28   15.40
  -2   8   0  133.69   12.70
   1  -8   0   14.20    4.10
   1  -8   0   11.90    4.30
   1  -8   0   12.50    3.40
  -1   8   0   11.40    3.60
  -1   8   0   13.70    5.00
  -1   8   0   17.30    6.00
   0  -8   0  105.49    9.30
   0  -8   0  104.89    8.30
   0  -8   0  116.69   10.20
   0  -8   0   90.79   10.30
   0   8   0  107.19   10.30
   0   8   0   83.39    8.90
   0   8   0  103.19   11.60
  -1  -8   0  480.75   35.70
  -1  -8   0  473.65   35.00
  -1  -8   0  537.85   35.40
   1   8   0  507.35   36.40
   1   8   0  451.45   34.90
   1   8   0  503.95   35.00
  -2  -8   0   77.29    8.60
  -2  -8   0   93.89    9.20
  -2  -8   0   79.89    9.70
   2   8   0   83.59    7.30
   2   8   0   97.79    8.20
   2   8   0   82.89   12.60
   2   8   0   82.19   12.00
  -3  -8   0    3.40    3.90
  -3  -8   0   -5.20    3.70
  -3  -8   0   -0.80    4.00
   3   8   0   -3.60    8.30
   3   8   0   -2.10    6.50
  -4  -8   0   21.10    4.10
  -4  -8   0   31.00    5.30
   4   8   0   36.70   11.10
   4   8   0   16.10    8.60
  -5  -8   0   -4.70    4.70
   5   8   0   16.90   10.60
   5   8   0    0.20    7.80
   5  -9   0   11.20    5.90
   5  -9   0   19.60    6.90
   5  -9   0   15.40    7.50
  -5   9   0    5.80    5.10
  -5   9   0    4.10    7.00
   4  -9   0    6.30    7.00
   4  -9   0   13.50    3.30
   4  -9   0    6.20    3.50
   4  -9   0   21.00    7.30
   4  -9   0    7.30    7.60
  -4   9   0   21.00    8.10
  -4   9   0   16.40    6.70
   3  -9   0   30.80    4.80
   3  -9   0   26.10    7.20
   3  -9   0   38.60    5.90
   3  -9   0   21.20    6.40
  -3   9   0   34.70    6.70
  -3   9   0   20.70    7.50
  -3   9   0   20.80    8.00
   2  -9   0   74.99    8.90
   2  -9   0   68.99    7.70
   2  -9   0   61.49    8.60
  -2   9   0   58.39   10.20
  -2   9   0   73.99    9.50
   1  -9   0   14.80    4.90
   1  -9   0   14.80    4.60
   1  -9   0   13.30    4.20
   1  -9   0   25.70    4.90
  -1   9   0   17.20    6.40
  -1   9   0   26.70    5.90
  -1   9   0   20.10    4.40
   0  -9   0  178.18   14.60
   0  -9   0  162.08   16.60
   0  -9   0  165.58   15.00
   0   9   0  193.48   16.50
   0   9   0  157.68   13.80
   0   9   0  166.18   14.60
  -1  -9   0   59.19    9.00
  -1  -9   0   87.39    9.60
  -1  -9   0   69.19    8.10
   1   9   0   75.19   10.80
   1   9   0   63.59    8.00
   1   9   0   84.79    8.80
  -2  -9   0   70.79    9.80
  -2  -9   0   78.89    8.40
  -2  -9   0  100.59    9.70
   2   9   0   84.99   12.30
   2   9   0   76.39    7.20
   2   9   0   85.39   12.80
  -3  -9   0    8.10    4.70
   3   9   0   14.90    7.70
   3   9   0   16.90    8.00
  -4  -9   0   11.00    4.20
   4   9   0   11.80    9.80
   4   9   0   13.70    7.70
   5   9   0    4.10    7.10
   4 -10   0   19.70    7.50
   4 -10   0   23.90    5.20
   4 -10   0   20.80    8.40
   4 -10   0   16.20    6.40
   4 -10   0   14.10    4.30
  -4  10   0   22.10    6.60
  -4  10   0   15.50    7.50
   3 -10   0   23.30    7.20
   3 -10   0   23.40    5.30
   3 -10   0   18.70    5.70
  -3  10   0   18.10    8.10
  -3  10   0   23.80    6.90
   2 -10   0   -2.90    4.60
   2 -10   0    5.10    4.50
  -2  10   0   -3.20    5.80
  -2  10   0    0.90    5.50
   1 -10   0   16.10    4.40
   1 -10   0   10.90    4.80
  -1  10   0   26.40    6.80
  -1  10   0   15.00    6.40
   0  10   0   33.80    7.30
   0  10   0   44.10    7.00
   0  10   0   39.40    6.00
  -1 -10   0  194.48   16.80
   1  10   0  209.38   16.70
   1  10   0  176.48   15.80
   1  10   0  246.28   19.20
  -2 -10   0   28.40    6.40
   2  10   0   27.30    4.80
   2  10   0   20.70    8.10
   2  10   0   33.50    8.60
   2  10   0   29.40    4.50
  -3 -10   0   26.70    5.50
   3  10   0   27.20    7.30
   3  10   0   22.40    8.50
   4  10   0   10.80    7.90
   4  10   0   15.00    8.40
   4 -11   0   38.00    6.80
   4 -11   0   34.20    9.10
   4 -11   0   22.10    8.20
   4 -11   0   46.30    7.90
  -4  11   0   25.60    9.30
  -4  11   0   40.00    7.70
   3 -11   0    8.60    7.00
   3 -11   0   14.80    4.90
   3 -11   0   21.00    5.30
  -3  11   0   16.20    5.90
  -3  11   0    7.00    7.30
   2 -11   0    9.10    4.50
   2 -11   0    0.40    5.40
  -2  11   0    8.80    6.20
  -2  11   0   15.60    7.60
   1 -11   0    3.60    3.50
   1 -11   0    3.90    5.20
  -1  11   0   10.70    6.40
  -1  11   0    4.30    6.80
   0 -11   0    0.60    4.00
   0  11   0   -1.80    5.30
   0  11   0    1.70    5.20
   1  11   0   41.20    9.00
   1  11   0   10.90    4.40
   1  11   0   24.00    6.00
   2  11   0  161.68   12.50
   2  11   0  151.58   14.20
   2  11   0  127.49   16.50
   3  11   0    5.00    7.50
   3  11   0    8.90    7.40
   4  11   0   18.90    7.80
   4  11   0    5.90    8.30
   3 -12   0    1.50    4.70
   3 -12   0   -2.00    5.80
   3 -12   0    6.40    4.60
  -3  12   0    2.60    6.10
  -3  12   0   10.20    8.40
   2 -12   0    5.10    5.30
   2 -12   0    8.30    4.40
  -2  12   0   10.80    6.10
  -2  12   0    3.80    6.60
   1 -12   0   21.70    6.00
  -1  12   0   19.90    7.80
  -1  12   0   25.40    7.20
   0 -12   0   23.50    5.90
   0  12   0   10.50    6.40
  -1 -12   0    3.70    4.00
   1  12   0   10.40    7.70
   1  12   0    3.20    5.50
   1  12   0   -0.80    6.10
   2  12   0   81.49    9.60
   2  12   0  106.99    9.90
   2  12   0  117.19   12.30
   2  12   0  112.59   14.30
  -3 -12   0    2.00    4.20
   3  12   0    8.20    7.40
   3  12   0   11.60    7.00
   3 -13   0   89.99   12.80
   2 -13   0   14.30    5.50
  -2  13   0    4.70    5.80
  -2  13   0    4.80    7.10
   1 -13   0   13.60    5.20
  -1  13   0   10.30    7.00
  -1  13   0   15.50    6.40
   0 -13   0   24.70    6.40
   0  13   0   22.00    6.70
   0  13   0   31.80    9.00
  -1 -13   0    9.30    4.90
   1  13   0    7.40    5.90
   1  13   0   13.30    7.00
   1  13   0   12.10    7.70
  -2 -13   0    4.80    4.90
   2  13   0   -4.00    3.60
   2  13   0   12.50    6.90
   2  13   0   19.20    7.90
  -1  14   0   34.50    7.90
  -1  14   0   22.00    8.00
   0 -14   0   13.60    5.60
   0  14   0   25.50    8.40
   0  14   0   31.70    7.20
   1  14   0   -4.40    7.40
   1  14  -1    1.00    5.70
   1  14  -1   23.40    7.90
   1  14  -1    4.10    7.50
  -1 -14   1   11.60    4.90
   0  14  -1   12.80    6.20
   0 -14   1    4.30    5.10
  -1  14  -1   35.50    8.10
  -1  14  -1   36.60    9.50
   1 -14   1   33.40    7.30
   2 -14   1    5.10    6.70
   2  13  -1   43.70    6.30
   2  13  -1   50.19    9.20
   2  13  -1   30.90    8.90
  -2 -13   1   38.90    7.10
   1  13  -1   13.40    5.90
   1  13  -1    0.10    9.00
   1  13  -1   15.00    9.00
  -1 -13   1   10.00    4.70
   0  13  -1   15.50    6.40
   0  13  -1    5.00    7.40
   0 -13   1   19.30    5.70
  -1  13  -1   22.00    7.00
  -1  13  -1   24.10    8.10
   1 -13   1   24.50    5.80
  -2  13  -1   14.70    7.80
  -2  13  -1   16.50    7.00
   2 -13   1    9.30    5.20
   2 -13   1    6.90    7.20
  -3  13  -1   27.20    8.50
  -3  13  -1   36.60    8.30
   3 -13   1   22.30    5.90
   3 -13   1   41.10    7.90
   3  12  -1   32.20    9.00
   3  12  -1   10.20    7.70
  -3 -12   1   17.70    4.80
   2  12  -1   16.00    7.90
   2  12  -1    9.70    3.80
   2  12  -1   11.50    9.00
   2  12  -1   13.60    4.20
  -2 -12   1    8.40    5.00
   1  12  -1    3.20    7.40
   1  12  -1    5.80    5.50
  -1 -12   1    2.60    4.00
   0  12  -1   37.50    9.00
   0 -12   1   28.30    6.20
  -1  12  -1   -4.90    5.60
  -1  12  -1   -2.40    5.80
   1 -12   1   -1.90    4.20
  -2  12  -1   -0.50    4.90
  -2  12  -1   13.90    7.10
   2 -12   1    3.70    4.60
  -3  12  -1   20.80    7.70
  -3  12  -1   17.60    6.70
   3 -12   1   20.80    5.70
   3 -12   1   17.80    7.00
   4  11  -1    0.20    7.50
   4  11  -1   12.90   10.00
  -4 -11   1   10.70    4.20
   3  11  -1   26.70    9.80
   3  11  -1   18.70    8.50
  -3 -11   1   15.20    5.10
   2  11  -1  151.38   11.90
   2  11  -1  159.98   16.90
   2  11  -1  164.68   16.40
   2  11  -1  110.49   11.50
  -2 -11   1  141.99   13.10
   1  11  -1   58.89    8.10
   1  11  -1   94.79    9.90
   1  11  -1   89.99   12.70
  -1 -11   1   80.19    9.00
   0  11  -1    5.20    5.90
   0  11  -1    8.80    5.60
   0 -11   1   16.80    5.10
  -1  11  -1   56.89    8.50
  -1  11  -1   42.10    8.50
   1 -11   1   44.20    7.20
  -2  11  -1   17.90    6.60
  -2  11  -1    0.20    6.40
   2 -11   1   11.20    4.80
   2 -11   1    5.40    4.50
  -3  11  -1   26.00    8.50
  -3  11  -1   29.60    7.30
   3 -11   1   25.80    6.80
   3 -11   1   24.20    5.80
   3 -11   1   29.00    7.70
  -4  11  -1   16.10    6.10
  -4  11  -1   19.10    7.70
   4 -11   1   12.10    7.20
   4 -11   1   19.30    8.30
   4 -11   1   18.30    5.00
   4 -11   1   17.00    5.60
   4  10  -1   22.60    8.10
   4  10  -1   13.00   10.00
  -4 -10   1   12.40    4.30
   3  10  -1   13.40    9.60
   3  10  -1   15.20   13.20
   2  10  -1   28.90    5.30
   2  10  -1   35.00    9.40
   2  10  -1   28.60    4.30
   2  10  -1   31.80    8.50
   1  10  -1  117.19   14.00
   1  10  -1  126.39   10.80
   1  10  -1   87.39    9.50
   0  10  -1  166.38   14.40
   0  10  -1  152.08   16.30
   0  10  -1  160.78   13.60
   0 -10   1  165.78   14.20
  -1  10  -1   23.00    6.30
  -1  10  -1   23.70    6.80
   1 -10   1   21.70    4.40
   1 -10   1   21.90    5.30
  -2  10  -1    4.90    6.20
  -2  10  -1    1.60    5.70
   2 -10   1   12.10    4.80
   2 -10   1    5.20    4.70
  -3  10  -1   31.60    8.20
   3 -10   1   27.70    7.30
   3 -10   1   31.60    7.40
   3 -10   1   34.80    5.80
   3 -10   1   41.50    6.50
  -4  10  -1   -1.10    7.00
  -4  10  -1   -2.50    4.90
   4 -10   1    7.00    3.70
   4 -10   1   13.20    5.40
   4 -10   1    3.00    6.40
   4 -10   1    8.50    6.90
   5 -10   1   48.50    9.00
   5   9  -1   17.30   11.70
   5   9  -1   10.90    7.70
  -5  -9   1   13.30    4.10
   4   9  -1    9.00   11.30
   4   9  -1   10.40    7.00
  -4  -9   1    5.10    3.50
   3   9  -1   26.50    9.50
   3   9  -1   11.20    7.00
  -3  -9   1   17.50    3.80
   2   9  -1   13.40    7.50
   2   9  -1   10.60    4.30
   2   9  -1    8.30    3.10
   2   9  -1   19.70    8.40
  -2  -9   1    4.40    4.10
  -2  -9   1   12.90    3.90
  -2  -9   1   -4.00    4.00
   1   9  -1   67.99    8.20
   1   9  -1   62.39    8.30
   1   9  -1   79.09   11.10
  -1  -9   1   56.99    8.00
  -1  -9   1   63.49    7.70
   0   9  -1  490.25   33.00
   0   9  -1  482.15   34.30
   0   9  -1  415.36   32.40
   0  -9   1  432.86   33.50
   0  -9   1  460.85   32.60
   0  -9   1  439.66   32.60
  -1   9  -1   -1.40    4.60
  -1   9  -1    3.50    3.90
  -1   9  -1   -3.60    5.00
   1  -9   1    2.00    4.40
   1  -9   1    4.10    3.60
   1  -9   1    3.20    3.40
   1  -9   1   -1.70    3.30
  -2   9  -1   88.09    9.60
  -2   9  -1  106.89   11.50
  -2   9  -1   98.49   13.30
   2  -9   1  101.09   10.40
   2  -9   1  103.39   10.10
   2  -9   1   95.49    9.70
  -3   9  -1   -1.50    4.60
  -3   9  -1    4.20    5.40
  -3   9  -1    0.00    6.30
   3  -9   1   12.50    6.20
   3  -9   1   10.50    6.90
   3  -9   1    2.40    5.10
   3  -9   1    5.10    3.60
  -4   9  -1    0.70    6.60
  -4   9  -1   16.50    6.70
   4  -9   1    3.80    9.90
   4  -9   1   12.20    6.30
   4  -9   1   16.20    6.90
   4  -9   1   10.00    2.90
   4  -9   1    6.30    3.50
  -5   9  -1   89.99   12.80
  -5   9  -1   67.59    9.50
   5  -9   1   58.49   10.30
   5  -9   1   67.39    9.40
   5  -9   1   70.19   11.20
   5   8  -1    0.00    6.80
   5   8  -1   14.00   15.50
  -5  -8   1    0.80    3.20
   4   8  -1   13.30   10.40
   4   8  -1    6.90    7.50
  -4  -8   1    4.80    4.20
   3   8  -1   62.49    9.40
   3   8  -1   71.39   11.20
  -3  -8   1   40.60    6.90
  -3  -8   1   57.89    7.10
  -3  -8   1   56.69    6.90
   2   8  -1    9.50    6.40
   2   8  -1    7.00    3.40
   2   8  -1   15.80    2.70
   2   8  -1   15.10    7.50
  -2  -8   1   10.00    4.40
  -2  -8   1   12.60    4.00
  -2  -8   1   11.20    4.30
   1   8  -1  165.18   12.70
   1   8  -1  150.18   12.40
   1   8  -1  160.28   14.70
  -1  -8   1  125.39   13.20
  -1  -8   1  148.49   12.50
  -1  -8   1  159.98   12.80
   0   8  -1   46.00    5.80
   0   8  -1   45.20    6.50
   0   8  -1   43.50    7.50
   0  -8   1   47.10    5.60
   0  -8   1   43.50    6.30
  -1   8  -1   11.40    4.60
  -1   8  -1   -1.70    2.60
  -1   8  -1    3.20    4.80
   1  -8   1    4.40    2.20
   1  -8   1    4.90    3.00
   1  -8   1   -1.90    3.20
   1  -8   1    4.20    3.60
  -2   8  -1   11.40    4.30
  -2   8  -1   11.90    6.20
  -2   8  -1   19.50    4.80
  -2   8  -1   12.90    5.20
   2  -8   1   21.20    4.90
   2  -8   1   19.20    5.90
   2  -8   1   13.10    4.40
   2  -8   1   12.10    4.70
  -3   8  -1    4.70    5.30
  -3   8  -1    7.30    4.90
  -3   8  -1   14.70    7.00
   3  -8   1   16.70    6.80
   3  -8   1   11.90    5.90
   3  -8   1   14.60    3.40
   3  -8   1   13.80    5.50
   3  -8   1    9.20    3.80
  -4   8  -1   11.60    6.90
  -4   8  -1   14.10    6.10
  -4   8  -1    5.00    5.60
   4  -8   1   15.10    3.00
   4  -8   1   19.20    6.40
   4  -8   1    4.60    7.40
   4  -8   1   11.80    3.00
   4  -8   1   10.70    6.70
  -5   8  -1   36.80   11.20
  -5   8  -1   25.60    8.70
   5  -8   1   27.20    8.10
   5  -8   1   46.80    9.40
   5  -8   1   40.50    7.90
   5   7  -1    2.20   11.30
   5   7  -1   13.00    7.70
  -5  -7   1    9.50    3.20
  -5  -7   1   15.20    4.60
  -5  -7   1   -2.90    4.60
   4   7  -1   24.30    7.40
   4   7  -1   27.10   10.50
  -4  -7   1   19.50    3.60
  -4  -7   1    8.20    6.80
  -4  -7   1   12.50    3.90
  -4  -7   1   14.60    5.00
   3   7  -1   77.99   11.00
   3   7  -1   87.39   12.70
  -3  -7   1   88.99   10.10
  -3  -7   1   87.09    9.70
  -3  -7   1   66.39    7.80
  -3  -7   1   92.79    9.00
   2   7  -1   15.40    6.30
   2   7  -1   20.60    7.10
   2   7  -1   17.10    3.40
   2   7  -1   17.00    2.90
  -2  -7   1   20.20    6.20
  -2  -7   1   17.90    3.80
  -2  -7   1   18.90    4.60
   1   7  -1   46.70    7.30
   1   7  -1   37.30    5.10
   1   7  -1   46.50    6.10
  -1  -7   1   49.10    5.70
  -1  -7   1   37.70    5.20
  -1  -7   1   33.90    5.70
   0   7  -1  276.07   19.80
   0   7  -1  236.88   19.50
   0   7  -1  296.07   21.10
   0  -7   1  266.17   19.40
   0  -7   1  249.38   20.30
  -1   7  -1    6.10    3.30
  -1   7  -1    5.80    2.60
  -1   7  -1    6.70    4.30
  -1   7  -1    8.70    4.60
   1  -7   1    5.10    3.40
   1  -7   1    4.40    3.10
   1  -7   1    6.80    3.30
   1  -7   1    5.00    3.20
  -2   7  -1   30.60    5.20
  -2   7  -1   36.10    6.90
  -2   7  -1   37.40    5.50
  -2   7  -1   30.20    6.10
   2  -7   1   32.70    5.10
   2  -7   1   35.80    5.30
   2  -7   1   43.80    6.80
   2  -7   1   35.70    7.80
   2  -7   1   31.20    5.30
  -3   7  -1   19.50    4.70
  -3   7  -1   23.80    7.10
  -3   7  -1   24.30    6.80
  -3   7  -1   30.30    5.90
   3  -7   1   24.00    6.60
   3  -7   1   21.90    4.20
   3  -7   1   25.60    6.00
   3  -7   1   28.70    3.80
   3  -7   1   25.10    7.00
   3  -7   1   24.80    5.50
  -4   7  -1    7.50    6.90
  -4   7  -1   14.80    5.00
  -4   7  -1    7.40    5.90
   4  -7   1    0.60    5.30
   4  -7   1    9.80    6.10
   4  -7   1    6.10    2.10
   4  -7   1    7.50    2.00
   4  -7   1    0.50    5.90
  -5   7  -1   95.29   13.50
  -5   7  -1   87.09    9.80
   5  -7   1   97.19   12.00
   5  -7   1   78.49   10.90
   5  -7   1   84.99   11.90
   5   6  -1    6.50    7.60
   5   6  -1   -7.60   10.40
  -5  -6   1    4.60    2.80
  -5  -6   1    5.10    2.70
   4   6  -1   29.30    9.80
   4   6  -1   30.80    9.00
  -4  -6   1   33.00    5.10
  -4  -6   1   27.60    4.10
  -4  -6   1   33.90    5.90
   3   6  -1   70.49   11.60
   3   6  -1   69.09    9.50
  -3  -6   1   61.79    7.50
  -3  -6   1   58.69    6.30
  -3  -6   1   59.19    6.40
  -3  -6   1   64.09    6.90
   2   6  -1   64.69    8.60
   2   6  -1   42.20    7.30
   2   6  -1   40.70    4.40
   2   6  -1   45.20    4.50
  -2  -6   1   41.80    5.20
  -2  -6   1   36.50    5.60
  -2  -6   1   47.60    5.20
   1   6  -1    7.00    5.00
   1   6  -1    3.90    2.70
   1   6  -1   13.90    3.40
  -1  -6   1   10.90    3.40
  -1  -6   1   10.30    3.90
  -1  -6   1    8.60    2.90
   0   6  -1  394.86   27.50
   0   6  -1  341.07   26.50
   0   6  -1  391.46   26.60
   0  -6   1  363.76   26.50
   0  -6   1  401.16   26.50
   0  -6   1  343.57   27.00
  -1   6  -1   73.39    9.20
  -1   6  -1   72.69    6.80
  -1   6  -1   53.29    6.90
  -1   6  -1   75.49    7.90
   1  -6   1   69.99    7.00
   1  -6   1   71.59    7.00
   1  -6   1   63.49    8.00
   1  -6   1   63.79    7.00
  -2   6  -1  169.18   14.50
  -2   6  -1  200.78   16.60
  -2   6  -1  193.58   15.00
  -2   6  -1  163.88   14.50
   2  -6   1  198.48   15.40
   2  -6   1  193.08   14.90
   2  -6   1  188.78   15.50
   2  -6   1  206.28   14.60
   2  -6   1  172.88   14.40
  -3   6  -1   32.20    5.20
  -3   6  -1   38.10    5.40
  -3   6  -1   37.50    6.10
  -3   6  -1   29.50    7.10
   3  -6   1   35.80    4.50
   3  -6   1   40.30    5.70
   3  -6   1   38.10    6.40
   3  -6   1   41.20    7.20
   3  -6   1   33.80    5.40
   3  -6   1   37.70    6.80
  -4   6  -1   77.49   10.30
  -4   6  -1   75.29    8.30
  -4   6  -1   65.29    8.80
  -4   6  -1   85.09   12.20
   4  -6   1   89.49   11.00
   4  -6   1   82.59   10.70
   4  -6   1   73.99    9.50
   4  -6   1   78.69   10.60
  -5   6  -1   68.49    8.80
  -5   6  -1   76.39   11.20
   5  -6   1   89.69   11.50
   5  -6   1   58.79   10.50
   5  -6   1   97.09   12.20
  -6   6  -1   20.80    8.50
  -6   6  -1    5.10    4.50
   6  -6   1   18.80    7.20
   6  -6   1   17.50    8.70
  -6  -5   1   36.40    8.40
   5   5  -1   11.70    7.80
   5   5  -1   21.00   10.90
  -5  -5   1    0.90    4.70
  -5  -5   1   11.10    5.30
  -5  -5   1   14.10    2.80
  -5  -5   1    9.80    2.40
   4   5  -1   41.70    8.50
   4   5  -1   52.79   10.70
  -4  -5   1   45.80    6.20
  -4  -5   1   54.29    6.80
  -4  -5   1   34.40    9.00
  -4  -5   1   34.50    4.80
  -4  -5   1   40.90    7.40
   3   5  -1   27.10    7.00
   3   5  -1   43.90    9.20
  -3  -5   1   35.80    4.40
  -3  -5   1   36.10    4.20
  -3  -5   1   30.80    5.40
  -3  -5   1   34.70    4.30
  -3  -5   1   29.90    5.90
  -3  -5   1   37.60    6.20
   2   5  -1   94.99   11.10
   2   5  -1   89.09   11.00
  -2  -5   1   97.89    7.80
  -2  -5   1   92.89    7.30
  -2  -5   1   91.19    8.00
   1   5  -1   51.99    7.70
   1   5  -1   49.99    5.50
   1   5  -1   41.10    5.70
  -1  -5   1   43.80    5.40
  -1  -5   1   46.60    6.60
  -1  -5   1   55.79    5.70
   0   5  -1   47.60    7.00
   0   5  -1   48.20    5.90
   0   5  -1   50.39    5.60
   0  -5   1   65.79    5.80
   0  -5   1   52.29    5.60
   0  -5   1   43.00    6.30
   0  -5   1   45.70    4.70
  -1   5  -1  728.63   47.20
  -1   5  -1  593.84   47.00
  -1   5  -1  731.63   47.90
  -1   5  -1  655.93   46.70
   1  -5   1  655.33   46.70
   1  -5   1  745.23   47.10
   1  -5   1  659.63   47.60
   1  -5   1  686.73   47.10
  -2   5  -1  134.79   11.40
  -2   5  -1  142.19   11.50
  -2   5  -1  157.78   13.20
  -2   5  -1  128.29   11.00
   2  -5   1  130.29   11.00
   2  -5   1  127.59   11.90
   2  -5   1  143.99   11.00
   2  -5   1  170.18   16.20
   2  -5   1  138.09   11.90
  -3   5  -1   32.30    5.20
  -3   5  -1   27.80    4.30
  -3   5  -1   35.20    4.70
  -3   5  -1   26.40    6.00
   3  -5   1   30.20    6.00
   3  -5   1   33.90    6.10
   3  -5   1   21.00    4.50
   3  -5   1   20.70    3.40
   3  -5   1   29.90    3.60
   3  -5   1   26.60    5.80
  -4   5  -1   86.09   11.60
  -4   5  -1   77.89   10.40
  -4   5  -1   80.19    8.60
  -4   5  -1   77.49    7.80
   4  -5   1   74.19   10.70
   4  -5   1   78.19    9.50
   4  -5   1   71.89    9.10
   4  -5   1   77.99    9.90
  -5   5  -1   21.00    7.40
  -5   5  -1   21.90    5.10
  -5   5  -1   32.70    4.90
   5  -5   1   27.10    7.40
   5  -5   1   35.50    8.20
   5  -5   1   20.90    7.60
  -6   5  -1    3.50    3.80
  -6   5  -1   -1.40    5.40
   6  -5   1    4.30    7.40
   6  -5   1   10.00    6.80
  -6  -4   1    6.40    5.30
   5   4  -1   44.60   11.60
  -5  -4   1   23.80    5.90
  -5  -4   1   31.40    6.10
  -5  -4   1   12.20    5.30
   4   4  -1   19.10    9.60
   4   4  -1   19.80    7.30
  -4  -4   1   24.90    3.00
  -4  -4   1   23.80    4.90
  -4  -4   1   17.30   10.10
  -4  -4   1   38.30    5.50
   3   4  -1   67.69   10.30
   3   4  -1   75.49   12.20
  -3  -4   1   59.69    6.00
  -3  -4   1   77.69    7.70
  -3  -4   1   80.99    6.00
  -3  -4   1   72.99    8.20
  -3  -4   1   67.89    7.20
  -3  -4   1   69.29    8.60
  -3  -4   1   81.09   10.40
   2   4  -1   31.00    6.20
   2   4  -1   30.10    7.00
  -2  -4   1   38.30    4.40
  -2  -4   1   32.90    4.10
  -2  -4   1   33.80    4.00
  -2  -4   1   35.20    5.80
   1   4  -1  106.59    9.90
   1   4  -1  115.59    8.40
   1   4  -1  107.49   10.00
   1   4  -1   96.89    8.30
  -1  -4   1  101.49    8.40
  -1  -4   1  118.59    8.40
  -1  -4   1   98.99    9.00
   0   4  -1  323.87   24.90
   0   4  -1  324.57   24.40
   0   4  -1  374.96   25.60
   0   4  -1  374.66   25.00
   0  -4   1  343.07   25.40
   0  -4   1  404.86   25.00
   0  -4   1  358.56   25.00
   0  -4   1  356.06   24.40
  -1   4  -1  254.07   18.10
  -1   4  -1  228.78   17.10
  -1   4  -1  227.48   17.10
  -1   4  -1  237.38   17.20
   1  -4   1  229.58   17.10
   1  -4   1  265.27   17.20
   1  -4   1  236.08   17.70
   1  -4   1  225.08   17.00
  -2   4  -1   77.49    7.60
  -2   4  -1   82.99    8.20
  -2   4  -1   78.69    9.40
  -2   4  -1   79.59    8.80
   2  -4   1  108.19    9.20
   2  -4   1  103.89    9.00
   2  -4   1   89.29    9.30
   2  -4   1   78.59    8.50
   2  -4   1  100.29    7.40
   2  -4   1   80.19    7.50
  -3   4  -1  120.49    9.90
  -3   4  -1  134.09   12.00
  -3   4  -1  125.49   10.30
  -3   4  -1  123.39   11.40
  -3   4  -1  119.09   10.80
  -3   4  -1  109.89    9.60
   3  -4   1  116.59   10.90
   3  -4   1  122.79   15.70
   3  -4   1  118.39   11.20
   3  -4   1  109.69    8.40
   3  -4   1  101.79    8.40
   3  -4   1  112.99   10.60
  -4   4  -1  162.78   15.30
  -4   4  -1  184.78   16.30
  -4   4  -1  159.98   13.50
  -4   4  -1  177.88   13.90
   4  -4   1  151.78   14.40
   4  -4   1  174.98   15.50
   4  -4   1  210.28   15.80
   4  -4   1  181.48   15.80
  -5   4  -1   14.60    5.70
  -5   4  -1    4.60    3.80
  -5   4  -1    7.40    3.00
   5  -4   1    5.70    6.70
   5  -4   1    9.40   11.40
   5  -4   1   16.10    6.90
  -6   4  -1   -4.20    3.60
  -6   4  -1   -6.00    7.00
   6  -4   1   17.00    6.50
   6  -4   1    6.10    7.30
  -6  -3   1   -1.80    4.60
   5   3  -1   73.09   13.60
  -5  -3   1   65.89    8.60
  -5  -3   1   86.09   10.10
  -5  -3   1   56.09    9.00
   4   3  -1  242.98   21.70
  -4  -3   1  224.78   18.80
  -4  -3   1  238.28   18.10
  -4  -3   1  229.38   18.10
  -4  -3   1  244.68   21.60
   3   3  -1   61.49    8.40
   3   3  -1   61.39    7.40
  -3  -3   1   63.49    7.60
  -3  -3   1   61.09    9.40
  -3  -3   1   66.69    6.90
  -3  -3   1   62.19    7.60
  -3  -3   1   63.99    7.30
   2   3  -1  168.78   14.70
   2   3  -1  171.38   13.30
   2   3  -1  171.28   15.50
  -2  -3   1  195.18   12.70
  -2  -3   1  174.28   14.10
  -2  -3   1  173.28   14.60
  -2  -3   1  174.48   13.60
  -2  -3   1  195.28   12.60
  -2  -3   1  167.68   13.20
  -2  -3   1  179.58   15.10
   1   3  -1  865.61   57.19
   1   3  -1  817.82   57.29
   1   3  -1  802.42   57.99
  -1  -3   1  875.31   57.29
  -1  -3   1  799.52   57.69
  -1  -3   1  900.01   57.39
   0   3  -1  196.38   15.40
   0   3  -1  235.68   16.20
   0   3  -1  203.88   14.90
   0   3  -1  232.18   15.60
   0  -3   1  222.68   15.50
   0  -3   1  198.78   14.90
   0  -3   1  225.58   16.10
  -1   3  -1  161.98   12.00
  -1   3  -1  153.58   12.50
  -1   3  -1  159.28   12.10
   1  -3   1  150.48   11.80
   1  -3   1  170.48   12.40
   1  -3   1  172.88   11.80
   1  -3   1  150.48   12.20
   1  -3   1  160.78   12.40
  -2   3  -1   24.40    8.50
  -2   3  -1   30.00    3.80
  -2   3  -1   29.40    3.60
  -2   3  -1   30.90    7.50
  -2   3  -1   25.40    4.50
   2  -3   1   27.70    3.30
   2  -3   1   32.90    5.00
   2  -3   1   29.50    4.80
   2  -3   1   28.40    3.40
   2  -3   1   31.80    4.60
   2  -3   1   22.60    4.20
  -3   3  -1    9.70    5.20
  -3   3  -1    6.90    3.50
  -3   3  -1   10.70    4.60
  -3   3  -1    5.60    2.90
  -3   3  -1    7.00    4.70
  -3   3  -1   11.20    3.80
   3  -3   1   14.70    4.80
   3  -3   1    4.30    3.10
   3  -3   1    9.90    4.60
   3  -3   1    6.90    4.60
  -4   3  -1  452.75   35.60
  -4   3  -1  505.15   33.90
  -4   3  -1  425.66   34.70
  -4   3  -1  536.55   36.00
  -4   3  -1  458.75   35.40
  -4   3  -1  490.85   33.90
  -4   3  -1  518.85   37.40
   4  -3   1  525.75   35.50
   4  -3   1  439.06   35.00
   4  -3   1  501.95   35.20
   4  -3   1  489.55   35.30
  -5   3  -1   90.69    8.60
  -5   3  -1   83.69    8.20
  -5   3  -1  102.79   11.90
   5  -3   1  100.99   12.00
   5  -3   1  100.19   12.60
   5  -3   1   97.49   12.50
  -6   3  -1   -3.20    3.70
  -6   3  -1    7.20    3.50
  -6   3  -1    6.70    5.70
   6  -3   1    4.80    7.40
   6  -3   1   11.60    8.10
  -6  -2   1    9.40    5.30
  -5  -2   1  121.69   11.80
  -5  -2   1   98.59   11.00
  -5  -2   1  133.19   12.70
   4   2  -1   35.30    9.80
   4   2  -1   29.80    6.30
  -4  -2   1   43.10    6.00
  -4  -2   1   39.20    6.50
  -4  -2   1   35.90    6.40
  -4  -2   1   29.40    6.80
  -4  -2   1   33.40    5.70
  -4  -2   1   50.39    9.30
   3   2  -1  102.19    9.70
   3   2  -1  112.59   15.90
   3   2  -1   85.89   10.80
  -3  -2   1  108.49    9.30
  -3  -2   1  102.59    9.00
  -3  -2   1   98.59    9.80
  -3  -2   1  103.19   11.70
  -3  -2   1   92.29    9.50
   2   2  -1  219.28   17.30
   2   2  -1  217.48   16.50
   2   2  -1  198.18   15.40
  -2  -2   1  198.88   16.60
  -2  -2   1  212.18   15.40
  -2  -2   1  215.38   16.20
  -2  -2   1  212.98   15.90
  -2  -2   1  205.48   15.30
   1   2  -1 3187.68  226.28
   1   2  -1 3428.06  226.18
   1   2  -1 3230.68  226.88
   1   2  -1 3439.56  226.18
   1   2  -1 3384.56  226.68
  -1  -2   1 3077.39  226.28
  -1  -2   1 3330.77  226.88
  -1  -2   1 3325.17  226.68
  -1  -2   1 3669.23  226.28
  -1  -2   1 3473.05  226.28
   0   2  -1  153.38   11.40
   0  -2   1  185.58   11.70
   0  -2   1  158.08   12.00
  -1   2  -1 1463.65   98.69
  -1   2  -1 1393.46   98.39
  -1   2  -1 1460.15   98.29
  -1   2  -1 1447.26   98.39
  -1   2  -1 1337.47   98.39
   1  -2   1 1469.05   98.39
   1  -2   1 1373.96   98.39
   1  -2   1 1586.14   98.29
   1  -2   1 1600.34   98.59
   1  -2   1 1466.95   98.59
   1  -2   1 1379.46   98.29
  -2   2  -1   51.79    5.80
  -2   2  -1   55.29    6.40
  -2   2  -1   54.29    4.90
  -2   2  -1   60.69    7.10
  -2   2  -1   53.09    4.80
  -2   2  -1   52.79    6.30
  -2   2  -1   49.50    6.80
   2  -2   1   50.79    6.80
   2  -2   1   48.70    6.60
   2  -2   1   47.70    6.30
   2  -2   1   48.00    5.90
  -3   2  -1   24.60    3.20
  -3   2  -1   23.80    5.50
  -3   2  -1   30.20    3.70
  -3   2  -1   21.60    4.90
  -3   2  -1   40.20    8.40
  -3   2  -1   20.30    4.80
  -3   2  -1   18.90    4.60
  -3   2  -1   25.60    4.70
   3  -2   1   19.90    4.20
   3  -2   1   24.10    5.00
   3  -2   1   25.40    5.50
   3  -2   1   25.50    5.40
  -4   2  -1  108.79   11.30
  -4   2  -1  117.79   12.10
  -4   2  -1  133.39   11.90
  -4   2  -1  115.19   11.00
  -4   2  -1  150.68   16.20
  -4   2  -1  110.29   12.20
  -4   2  -1  114.99    9.30
   4  -2   1  118.49   13.10
   4  -2   1  108.39   11.90
   4  -2   1  128.09   12.40
  -5   2  -1   69.09    9.00
  -5   2  -1   47.30   10.30
  -5   2  -1   58.79    6.20
  -5   2  -1   56.79    5.90
   5  -2   1   69.59   10.10
   5  -2   1   71.79    9.20
  -6   2  -1   18.20    3.60
  -6   2  -1   11.90    6.60
  -6   2  -1   20.10    3.60
   6  -2   1   24.30    9.80
   6  -2   1   20.60    7.50
  -6  -1   1    9.20    5.60
   5   1  -1  154.88   14.80
  -5  -1   1  144.49   13.60
  -5  -1   1  137.99   13.00
  -5  -1   1  170.68   15.10
   4   1  -1   88.79   13.50
   4   1  -1   81.19   10.20
   4   1  -1   93.19   10.70
  -4  -1   1   87.29    9.00
  -4  -1   1   80.89   10.40
  -4  -1   1  112.69   14.90
  -4  -1   1   88.99    9.80
  -4  -1   1   71.89   13.50
  -4  -1   1  102.49    9.40
   3   1  -1   25.70    5.20
   3   1  -1   22.50    4.70
   3   1  -1   19.30    5.40
   3   1  -1   30.40   10.40
  -3  -1   1   33.60    6.40
  -3  -1   1   30.20    7.00
  -3  -1   1   28.50    4.30
  -3  -1   1   26.20    5.50
  -3  -1   1   20.50    4.60
  -3  -1   1   15.90    4.40
   2   1  -1  314.87   22.20
   2   1  -1  304.17   22.30
   2   1  -1  314.67   21.70
   2   1  -1  296.77   21.60
   2   1  -1  293.87   23.10
  -2  -1   1  290.87   22.70
  -2  -1   1  312.97   22.00
  -2  -1   1  299.87   21.60
  -2  -1   1  308.97   22.20
  -2  -1   1  313.87   21.60
   1   1  -1  383.56   26.60
   1   1  -1  377.16   27.30
   1   1  -1  397.66   26.90
  -1  -1   1  361.66   27.10
  -1  -1   1  392.96   26.10
  -1  -1   1  371.76   26.50
  -1  -1   1  399.86   26.70
  -1  -1   1  385.26   26.40
  -1  -1   1  400.46   26.90
  -1   1  -1  200.08   14.20
  -1   1  -1  207.08   14.40
  -1   1  -1  196.18   14.40
  -1   1  -1  209.18   13.70
  -1   1  -1  186.48   13.70
  -1   1  -1  216.88   14.30
  -1   1  -1  184.88   14.20
   1  -1   1  182.78   14.10
   1  -1   1  200.08   14.40
   1  -1   1  179.18   14.30
   1  -1   1  212.28   14.30
   1  -1   1  215.88   13.60
   1  -1   1  182.78   13.60
   1  -1   1  201.78   14.30
  -2   1  -1  155.28   11.80
  -2   1  -1  137.89   11.70
  -2   1  -1  154.58   12.00
  -2   1  -1  159.48   11.80
  -2   1  -1  147.59   13.10
  -2   1  -1  140.49   10.40
  -2   1  -1  151.28   11.60
  -2   1  -1  146.89   10.40
   2  -1   1  150.88   12.10
   2  -1   1  141.79   11.40
   2  -1   1  155.28   11.80
   2  -1   1  147.49   12.00
  -3   1  -1  263.77   18.50
  -3   1  -1  262.47   20.00
  -3   1  -1  227.78   16.70
  -3   1  -1  242.98   18.30
  -3   1  -1  232.48   18.60
  -3   1  -1  227.98   16.70
  -3   1  -1  234.78   18.10
  -3   1  -1  238.68   18.30
   3  -1   1  236.58   18.20
   3  -1   1  252.07   18.90
  -4   1  -1   37.10    6.00
  -4   1  -1   32.20    4.00
  -4   1  -1   38.00    9.90
  -4   1  -1   26.30    6.70
  -4   1  -1   31.30    6.40
  -4   1  -1   57.99   10.80
  -4   1  -1   36.30    6.30
  -4   1  -1   34.00    4.10
   4  -1   1   39.60    7.60
   4  -1   1   42.60    6.60
   4  -1   1   53.09    7.20
  -5   1  -1    6.00    5.30
  -5   1  -1   10.50    2.30
   5  -1   1   25.80    6.70
   5  -1   1   16.50    7.70
  -6   1  -1   53.99    8.30
  -6   1  -1   40.50    4.80
  -6   1  -1   39.50    4.90
   6  -1   1   74.89   12.30
   6  -1   1   58.09    9.60
  -6   0   1  124.09    9.20
  -6   0   1   99.99    9.60
  -6   0   1  149.79   13.50
   5   0  -1   91.39   11.40
   5   0  -1   79.59   10.30
  -5   0   1   60.29    8.70
  -5   0   1   81.99    6.70
  -5   0   1   60.49    9.40
  -5   0   1   87.79    6.60
   4   0  -1   73.19    9.00
   4   0  -1   72.19    8.70
   4   0  -1   74.49    9.70
  -4   0   1   50.19    7.70
  -4   0   1   60.89    5.50
  -4   0   1   71.69    8.60
  -4   0   1   60.69   10.10
  -4   0   1   67.59    7.70
  -4   0   1   62.49    5.40
  -4   0   1   75.79    8.20
   3   0  -1   18.30    5.40
   3   0  -1   19.90    4.20
   3   0  -1   23.50    5.00
  -3   0   1   22.60    5.60
  -3   0   1   22.80    7.20
  -3   0   1   13.60    4.90
  -3   0   1   18.30    6.00
  -3   0   1   17.10    4.20
   2   0  -1   39.40    5.00
   2   0  -1   39.40    5.20
   2   0  -1   35.20    4.40
   2   0  -1   39.60    7.20
  -2   0   1   50.59    5.80
  -2   0   1   45.10    4.60
  -2   0   1   38.90    7.00
  -2   0   1   40.60    5.60
  -2   0   1   39.90    5.40
  -2   0   1   38.90    5.20
   1   0  -1  478.65   33.70
   1   0  -1  487.75   33.70
   1   0  -1  464.25   34.40
   1   0  -1  496.05   33.90
  -1   0   1  477.55   33.80
  -1   0   1  532.45   33.50
  -1   0   1  554.54   34.30
  -1   0   1  468.45   33.50
  -1   0   1  511.45   33.60
  -1   0   1  479.85   34.40
  -1   0   1  484.65   33.70
  -1   0  -1 2948.80  209.08
  -1   0  -1 3130.89  209.08
  -1   0  -1 3163.38  208.88
  -1   0  -1 3158.18  208.98
  -1   0  -1 2998.70  208.88
  -1   0  -1 3104.69  208.98
   1   0   1 3172.68  209.08
   1   0   1 3077.29  208.98
   1   0   1 3099.79  208.98
  -2   0  -1  423.96   28.80
  -2   0  -1  426.26   28.80
  -2   0  -1  381.56   29.60
  -2   0  -1  431.86   29.10
  -2   0  -1  407.96   28.70
  -2   0  -1  419.86   29.10
   2   0   1  390.96   28.70
   2   0   1  403.86   29.10
   2   0   1  414.96   28.90
   2   0   1  404.06   29.20
  -3   0  -1  341.37   23.70
  -3   0  -1  308.57   24.10
  -3   0  -1  327.37   25.30
  -3   0  -1  329.97   23.60
  -3   0  -1  336.07   23.90
  -3   0  -1  322.37   23.50
   3   0   1  325.17   23.60
   3   0   1  301.07   24.00
   3   0   1  315.67   23.50
   3   0   1  320.17   24.20
  -4   0  -1    1.60    4.30
  -4   0  -1    2.30    7.10
  -4   0  -1    5.10    4.10
  -4   0  -1    5.20    4.60
  -4   0  -1   -3.60    4.10
  -4   0  -1    2.90    5.60
   4   0   1   -6.70    5.90
   4   0   1    5.10    5.10
  -5   0  -1   21.90    6.00
   5   0   1   15.90    6.80
   5   0   1   19.40    7.90
  -6   0  -1   64.09    8.70
   6  -1  -1   44.10    9.20
   6  -1  -1   53.59    9.70
  -6   1   1   31.10    4.50
  -6   1   1   31.50    8.30
  -6   1   1   34.90    4.50
   5  -1  -1   99.09   11.70
   5  -1  -1   91.69   12.40
   5  -1  -1   93.39   12.80
  -5   1   1  112.49   12.30
  -5   1   1   88.49    7.70
  -5   1   1   81.29    9.80
  -5   1   1   95.29    8.00
  -5   1   1   90.19   10.60
   4  -1  -1    9.40    4.80
   4  -1  -1    0.80    5.90
   4  -1  -1    4.20    5.40
  -4   1   1    2.10    3.70
  -4   1   1    3.80    2.60
  -4   1   1   -5.00    5.20
  -4   1   1    4.00    3.50
  -4   1   1    7.90    2.30
  -4   1   1    9.10    4.80
  -4   1   1   10.30    7.90
   3  -1  -1  229.98   18.30
   3  -1  -1  224.08   17.40
   3  -1  -1  219.08   16.70
  -3   1   1  209.78   15.60
  -3   1   1  213.58   17.80
  -3   1   1  206.18   16.90
  -3   1   1  237.78   17.80
  -3   1   1  225.98   15.80
  -3   1   1  227.08   19.60
  -3   1   1  230.88   16.80
  -3   1   1  221.88   16.40
   2  -1  -1   46.60    6.30
   2  -1  -1   51.09    6.00
   2  -1  -1   57.49    6.60
   2  -1  -1   62.19    7.10
  -2   1   1   59.79    5.00
  -2   1   1   57.39    6.90
  -2   1   1   61.59    4.80
  -2   1   1   57.09    6.30
  -2   1   1   52.69    8.60
  -2   1   1   58.99    5.80
  -2   1   1   51.69    5.80
   1  -1  -1  320.87   22.70
   1  -1  -1  335.67   22.40
   1  -1  -1  343.67   22.60
   1  -1  -1  319.07   22.40
   1  -1  -1  325.17   22.50
   1  -1  -1  328.67   23.00
  -1   1   1  321.87   23.60
  -1   1   1  310.17   22.70
  -1   1   1  319.47   22.40
  -1   1   1  324.17   22.50
  -1   1   1  332.87   23.10
   0  -1  -1 4253.87  297.27
   0  -1  -1 4325.97  297.47
   0   1   1 4269.67  297.27
   0   1   1 4781.52  297.47
  -1  -1  -1   46.90    7.50
  -1  -1  -1   63.09    7.10
  -1  -1  -1   65.69    4.60
  -1  -1  -1   55.29    6.80
  -1  -1  -1   63.69    4.70
   1   1   1   70.49    7.40
   1   1   1   47.30    7.30
   1   1   1   57.79    7.00
  -2  -1  -1  239.68   17.60
  -2  -1  -1  230.28   17.00
  -2  -1  -1  240.28   17.70
  -2  -1  -1  241.48   17.20
  -2  -1  -1  223.08   18.10
   2   1   1  243.18   17.80
   2   1   1  206.38   17.90
   2   1   1  235.88   17.80
   2   1   1  244.58   17.50
  -3  -1  -1  381.86   26.90
  -3  -1  -1  366.16   26.30
  -3  -1  -1  365.86   26.40
  -3  -1  -1  374.46   26.40
  -3  -1  -1  360.96   27.60
  -3  -1  -1  335.47   26.90
   3   1   1  377.26   27.20
   3   1   1  358.66   27.60
   3   1   1  369.26   26.70
  -4  -1  -1   65.59   10.10
  -4  -1  -1   42.50    6.50
  -4  -1  -1   49.90    6.70
  -4  -1  -1   47.90   12.80
  -4  -1  -1   45.90    7.50
  -4  -1  -1   44.30    6.30
   4   1   1   46.30    8.60
   4   1   1   41.60    7.90
  -5  -1  -1   73.99   10.00
  -6  -1  -1   87.59   10.70
   6  -2  -1   65.59   10.10
   6  -2  -1   71.49   10.40
  -6   2   1   45.50    8.70
  -6   2   1   36.40    5.60
   5  -2  -1  200.88   16.50
   5  -2  -1  176.58   17.20
   5  -2  -1  199.68   17.10
  -5   2   1  194.88   17.80
  -5   2   1  172.28   14.00
  -5   2   1  177.98   14.20
   4  -2  -1   44.10    7.80
   4  -2  -1   51.69    7.00
   4  -2  -1   54.59    7.60
  -4   2   1   48.10    6.20
  -4   2   1   52.19    6.70
  -4   2   1   45.80    5.90
  -4   2   1   54.39   11.10
  -4   2   1   46.70    7.70
  -4   2   1   52.89    7.60
  -4   2   1   45.00    7.20
   3  -2  -1  191.18   15.50
   3  -2  -1  193.28   15.80
   3  -2  -1  187.28   15.20
   3  -2  -1  200.88   16.00
  -3   2   1  208.18   16.30
  -3   2   1  201.78   14.50
  -3   2   1  196.18   16.50
  -3   2   1  189.48   14.80
  -3   2   1  194.98   14.20
  -3   2   1  199.68   15.00
  -3   2   1  179.28   15.90
   2  -2  -1  314.77   21.90
   2  -2  -1  294.07   21.20
   2  -2  -1  339.97   21.90
   2  -2  -1  321.87   21.20
   2  -2  -1  286.67   22.30
   2  -2  -1  319.67   22.20
  -2   2   1  300.27   21.50
  -2   2   1  299.67   21.50
  -2   2   1  286.87   22.10
  -2   2   1  302.97   23.30
  -2   2   1  296.47   22.50
   1  -2  -1  206.48   15.40
   1  -2  -1  210.88   15.70
   1  -2  -1  225.68   16.00
   1  -2  -1  202.58   15.30
  -1   2   1  210.58   16.10
  -1   2   1  252.17   15.50
  -1   2   1  209.98   15.50
  -1   2   1  186.68   15.30
   0  -2  -1 1146.69   78.79
   0  -2  -1 1220.18   78.89
   0  -2  -1 1170.48   78.79
   0   2   1 1145.79   78.89
   0   2   1 1177.78   78.79
   0   2   1 1107.09   78.69
  -1  -2  -1  268.07   22.40
  -1  -2  -1  315.97   21.80
  -1  -2  -1  328.57   21.80
  -1  -2  -1  354.06   22.00
   1   2   1  310.17   22.90
   1   2   1  312.77   21.50
   1   2   1  311.17   21.50
  -2  -2  -1  187.88   15.30
  -2  -2  -1  191.78   14.00
  -2  -2  -1  185.88   13.70
  -2  -2  -1  166.98   17.40
  -2  -2  -1  176.88   14.70
   2   2   1  172.08   14.90
   2   2   1  186.88   14.60
  -3  -2  -1   98.59   10.80
  -3  -2  -1   95.39   10.30
  -3  -2  -1  100.39    9.20
  -3  -2  -1   99.09   10.30
  -3  -2  -1  105.09    9.30
   3   2   1   81.99   10.80
   3   2   1   80.79   11.40
  -4  -2  -1   12.50    6.40
  -4  -2  -1   14.90    6.20
  -4  -2  -1   21.60    5.00
  -4  -2  -1   23.90    8.20
  -4  -2  -1   22.50    5.00
  -4  -2  -1   28.40    5.30
   4   2   1   17.70    6.80
  -5  -2  -1   13.60    5.10
  -6  -2  -1   23.80    5.60
   6  -3  -1   21.60    7.80
   6  -3  -1   33.00    9.10
   6  -3  -1   24.30    8.30
  -6   3   1   21.90    4.50
  -6   3   1   17.10    4.40
  -6   3   1   15.50    6.80
   5  -3  -1   56.19    8.50
   5  -3  -1   39.90    7.50
   5  -3  -1   67.59    9.70
  -5   3   1   41.70    5.50
  -5   3   1   28.70    8.00
   4  -3  -1   44.80    7.80
   4  -3  -1   58.99    7.40
   4  -3  -1   46.10    7.00
   4  -3  -1   41.70    6.10
  -4   3   1   38.60    7.50
  -4   3   1   45.00    5.50
  -4   3   1   39.30    8.20
  -4   3   1   44.80    5.40
   3  -3  -1   76.79    9.40
   3  -3  -1   60.09    7.50
   3  -3  -1   68.79    8.00
   3  -3  -1   70.69    9.10
  -3   3   1   60.79    8.90
  -3   3   1   55.79    6.70
  -3   3   1   58.49    6.10
  -3   3   1   59.69   10.40
  -3   3   1   50.09    6.70
   2  -3  -1  137.49   10.90
   2  -3  -1   96.59   10.60
   2  -3  -1  142.99   10.30
   2  -3  -1  140.89   10.30
   2  -3  -1  121.09    9.20
   2  -3  -1   96.79    9.40
  -2   3   1  116.09   12.30
  -2   3   1  117.89   10.00
  -2   3   1  132.89   10.40
  -2   3   1  113.39   11.20
  -2   3   1  105.99    9.50
   1  -3  -1  271.37   18.30
   1  -3  -1  244.88   18.40
   1  -3  -1  262.17   18.40
   1  -3  -1  255.57   18.90
  -1   3   1  250.87   18.30
  -1   3   1  251.67   18.50
  -1   3   1  251.87   18.30
  -1   3   1  267.57   19.10
   0  -3  -1  744.03   48.80
   0  -3  -1  694.93   48.70
   0  -3  -1  719.53   48.90
   0   3   1  671.53   48.70
   0   3   1  724.73   49.00
   0   3   1  714.33   48.80
  -1  -3  -1   11.20    2.80
  -1  -3  -1   14.10    2.50
  -1  -3  -1   18.10    2.80
   1   3   1   18.60    3.90
   1   3   1   12.40    2.40
   1   3   1   14.40    2.50
  -2  -3  -1 1247.78   88.69
  -2  -3  -1 1270.77   88.89
  -2  -3  -1 1372.36   88.09
  -2  -3  -1 1345.47   89.19
  -2  -3  -1 1418.86   88.19
  -2  -3  -1 1226.18   88.29
   2   3   1 1240.08   88.99
   2   3   1 1275.37   89.19
  -3  -3  -1   28.70    5.90
  -3  -3  -1   25.80    2.90
  -3  -3  -1   37.20    6.90
  -3  -3  -1   33.40    4.80
  -3  -3  -1   30.40    3.50
  -3  -3  -1   26.10    5.10
  -3  -3  -1   29.80    5.60
   3   3   1   24.10    6.50
   3   3   1   33.50    7.60
  -4  -3  -1   13.60    7.20
  -4  -3  -1   18.60    6.30
  -4  -3  -1   20.80    4.90
  -4  -3  -1   28.30    7.20
  -4  -3  -1   24.90    5.90
   4   3   1   16.30    7.70
   4   3   1   14.90    7.30
  -5  -3  -1   82.19    9.90
   5   3   1   67.69   15.70
  -6  -3  -1   -0.90    4.60
   6  -4  -1   29.60    8.00
   6  -4  -1   30.30    8.00
   6  -4  -1   41.80    8.40
  -6   4   1    3.50    7.10
  -6   4   1   24.20    5.10
   5  -4  -1   45.20   12.00
   5  -4  -1   41.10    8.30
   5  -4  -1   27.10    7.40
  -5   4   1   41.80    8.10
  -5   4   1   32.30    5.60
   4  -4  -1   70.89    9.70
   4  -4  -1   77.69    9.60
   4  -4  -1   73.49    9.70
   4  -4  -1   61.19    8.40
  -4   4   1   74.99    8.40
  -4   4   1   63.39    9.50
  -4   4   1   73.39    7.40
   3  -4  -1   28.80    4.80
   3  -4  -1   30.90    3.60
   3  -4  -1   29.70    3.70
   3  -4  -1   27.60    5.60
   3  -4  -1   38.50    5.80
   3  -4  -1   42.10    6.60
  -3   4   1   34.40    7.20
  -3   4   1   28.80    4.70
  -3   4   1   29.80    4.70
  -3   4   1   29.80    4.30
  -3   4   1   27.40    6.10
   2  -4  -1   65.59    7.70
   2  -4  -1   62.59    7.40
   2  -4  -1   60.89    7.30
   2  -4  -1   59.99    5.90
   2  -4  -1   42.20    5.80
  -2   4   1   53.49    7.00
  -2   4   1   56.79    8.50
  -2   4   1   44.80    5.90
  -2   4   1   53.79    6.60
  -2   4   1   54.69    8.10
   1  -4  -1   50.09    6.10
   1  -4  -1   43.60    5.10
   1  -4  -1   45.50    5.40
   1  -4  -1   48.60    5.10
  -1   4   1   40.60    5.20
  -1   4   1   47.70    6.90
  -1   4   1   36.90    5.20
  -1   4   1   40.20    5.00
   0  -4  -1   11.00    2.70
   0  -4  -1   12.10    3.00
   0  -4  -1    6.40    2.80
   0  -4  -1   10.60    3.20
   0   4   1    3.80    2.80
   0   4   1   12.10    3.20
   0   4   1    7.10    3.30
  -1  -4  -1  288.37   19.60
  -1  -4  -1  288.47   19.70
  -1  -4  -1  292.87   20.10
   1   4   1  269.57   19.50
   1   4   1  269.87   19.40
   1   4   1  247.28   19.90
  -2  -4  -1  176.28   14.10
  -2  -4  -1  210.68   14.80
  -2  -4  -1  194.08   14.00
  -2  -4  -1  200.98   14.10
  -2  -4  -1  194.28   15.50
   2   4   1  190.98   17.20
   2   4   1  180.28   15.60
  -3  -4  -1   24.90    4.50
  -3  -4  -1   19.60    2.90
  -3  -4  -1   17.60    3.00
  -3  -4  -1   17.00    5.40
  -3  -4  -1   20.70    6.70
  -3  -4  -1   24.40    4.70
   3   4   1   19.80    7.00
   3   4   1   11.80    6.10
  -4  -4  -1   12.40    2.40
  -4  -4  -1   21.80    5.00
  -4  -4  -1   11.00    2.60
  -4  -4  -1   19.30    6.20
  -4  -4  -1    3.80    5.20
  -4  -4  -1   12.30    4.40
   4   4   1   14.20    8.20
   4   4   1   12.40    7.20
  -5  -4  -1  116.09   13.50
   5   4   1  146.29   15.60
  -6  -4  -1    3.40    4.90
   6  -5  -1   16.70    7.70
   6  -5  -1   22.40    8.80
   6  -5  -1   19.50    7.10
  -6   5   1   -4.60    6.40
  -6   5   1   18.50    4.70
   5  -5  -1    7.30    6.40
   5  -5  -1   20.90    7.00
   5  -5  -1    5.40    6.80
  -5   5   1    4.10    4.30
  -5   5   1    5.10    5.60
  -5   5   1   12.50    4.90
   4  -5  -1  265.07   20.80
   4  -5  -1  272.47   21.40
   4  -5  -1  226.98   20.80
   4  -5  -1  283.77   20.70
  -4   5   1  253.87   19.60
  -4   5   1  243.58   21.10
  -4   5   1  263.27   20.00
  -4   5   1  281.47   22.60
   3  -5  -1    5.10    2.90
   3  -5  -1   10.50    5.60
   3  -5  -1    8.70    9.40
   3  -5  -1    5.20    2.90
   3  -5  -1    5.50    4.50
   3  -5  -1    6.50    2.80
  -3   5   1    6.70    4.00
  -3   5   1    7.60    3.50
  -3   5   1    3.00    4.80
  -3   5   1    0.10    2.70
  -3   5   1   -1.60    4.70
   2  -5  -1   62.99    6.40
   2  -5  -1   51.79    6.30
   2  -5  -1   60.99    7.80
   2  -5  -1   68.49    7.90
  -2   5   1   50.09    7.10
  -2   5   1   55.69    6.60
  -2   5   1   55.09    7.40
  -2   5   1   65.19    9.10
   1  -5  -1 1550.94  106.09
   1  -5  -1 1509.25  106.39
   1  -5  -1 1708.83  106.49
   1  -5  -1 1440.16  106.79
  -1   5   1 1419.46  106.29
  -1   5   1 1636.54  106.59
  -1   5   1 1669.53  107.19
   0  -5  -1   18.90    3.20
   0  -5  -1   20.30    3.90
   0  -5  -1   18.30    5.30
   0  -5  -1   15.10    3.60
   0   5   1   13.60    5.40
   0   5   1   12.10    4.20
   0   5   1   15.00    4.00
  -1  -5  -1   46.20    5.40
  -1  -5  -1   54.39    6.10
  -1  -5  -1   53.09    6.30
   1   5   1   46.60    5.60
   1   5   1   47.40    5.50
   1   5   1   41.30    6.90
  -2  -5  -1  401.46   27.00
  -2  -5  -1  390.76   27.40
  -2  -5  -1  358.56   26.50
  -2  -5  -1  384.66   27.30
   2   5   1  393.06   28.80
   2   5   1  365.96   27.90
  -3  -5  -1   30.20    4.90
  -3  -5  -1   32.70    4.30
  -3  -5  -1   36.50    5.60
  -3  -5  -1   31.50    4.70
   3   5   1   35.10    7.40
   3   5   1   36.70    7.70
  -4  -5  -1    9.10    4.30
  -4  -5  -1    8.40    6.60
  -4  -5  -1   -2.80    3.90
  -4  -5  -1    2.50    2.60
  -4  -5  -1    3.20    2.30
   4   5   1    2.20    6.70
   4   5   1    0.20    8.20
  -5  -5  -1   18.10    3.10
  -5  -5  -1   22.20    5.60
  -5  -5  -1   14.60    5.20
  -5  -5  -1   20.70    3.20
   5   5   1   15.30    8.20
  -6  -5  -1   -3.50    4.50
   6   5   1   10.10    7.40
   6  -6  -1   16.30    7.80
   6  -6  -1   32.80    8.10
   6  -6  -1   25.80    8.90
  -6   6   1   21.30    8.40
  -6   6   1   27.60    7.60
   5  -6  -1    6.60    6.60
   5  -6  -1    8.90    7.50
  -5   6   1   11.10    6.70
  -5   6   1   15.60    5.10
   4  -6  -1  118.19    9.60
   4  -6  -1  139.09   13.70
   4  -6  -1  151.98   13.50
   4  -6  -1  140.59   13.80
   4  -6  -1  116.49    9.60
  -4   6   1  135.69   11.70
  -4   6   1  142.49   15.20
  -4   6   1  148.69   12.60
   3  -6  -1   31.70    6.20
   3  -6  -1   49.10    7.10
   3  -6  -1   33.40    5.20
   3  -6  -1   43.00    5.40
   3  -6  -1   47.30    7.00
   3  -6  -1   38.50    6.60
  -3   6   1   35.50    6.20
  -3   6   1   47.80    6.00
  -3   6   1   37.50    6.70
  -3   6   1   38.40    7.40
   2  -6  -1    7.20    3.30
   2  -6  -1    9.60    4.50
   2  -6  -1   17.00    3.80
  -2   6   1    6.80    4.30
  -2   6   1   12.20    3.40
  -2   6   1   10.10    5.20
  -2   6   1    6.70    4.00
   1  -6  -1  116.69   11.60
   1  -6  -1  150.88   11.40
   1  -6  -1  121.49   11.10
   1  -6  -1  138.49   10.70
  -1   6   1  113.09   10.40
  -1   6   1  133.29   12.70
  -1   6   1  134.59   11.40
   0  -6  -1    6.40    2.70
   0  -6  -1    9.50    3.80
   0  -6  -1    6.90    3.00
   0   6   1    7.90    3.50
   0   6   1    8.40    4.20
   0   6   1    1.10    3.50
  -1  -6  -1   31.80    4.60
  -1  -6  -1   21.40    4.50
  -1  -6  -1   25.90    4.30
   1   6   1   24.00    4.50
   1   6   1   25.60    4.30
  -2  -6  -1  289.27   21.10
  -2  -6  -1  292.07   22.40
  -2  -6  -1  294.37   21.70
  -2  -6  -1  328.77   22.00
   2   6   1  325.67   24.10
   2   6   1  311.27   21.20
   2   6   1  290.37   20.90
   2   6   1  284.87   22.90
  -3  -6  -1   47.00    6.10
  -3  -6  -1   41.60    5.80
  -3  -6  -1   44.70    5.20
  -3  -6  -1   49.40    7.90
  -3  -6  -1   43.60    5.30
  -3  -6  -1   34.90    8.50
   3   6   1   43.20    8.90
   3   6   1   35.10    8.20
  -4  -6  -1   48.00    6.70
  -4  -6  -1   26.90    4.50
  -4  -6  -1   21.90    3.70
  -4  -6  -1   33.70    5.20
   4   6   1   32.80    8.60
   4   6   1   33.80    9.30
  -5  -6  -1   26.90    4.10
  -5  -6  -1   27.30    4.10
  -5  -6  -1   37.30    5.80
  -5  -6  -1   38.90    6.20
   5   6   1   45.10    9.40
   5  -7  -1    4.70    6.00
   5  -7  -1   -4.70    5.40
   5  -7  -1   -1.80    6.60
  -5   7   1    2.80    4.90
  -5   7   1   -1.70    7.00
   4  -7  -1  130.09   13.70
   4  -7  -1  117.39   13.00
   4  -7  -1  127.69   13.20
  -4   7   1  123.19   15.20
  -4   7   1  118.59   12.40
   3  -7  -1   96.29   11.40
   3  -7  -1  112.19   11.80
   3  -7  -1   97.79    9.10
   3  -7  -1  105.89   11.60
   3  -7  -1   96.19    9.40
   3  -7  -1   85.89   11.20
  -3   7   1  121.99   13.00
  -3   7   1   89.39    9.90
  -3   7   1   94.59    9.70
  -3   7   1   90.29   13.20
  -3   7   1  102.99   11.00
   2  -7  -1    2.60    3.60
   2  -7  -1    4.00    3.60
   2  -7  -1    3.30    3.50
   2  -7  -1    3.30    4.50
  -2   7   1   -4.50    4.00
  -2   7   1   -0.60    4.80
  -2   7   1    5.90    4.10
   1  -7  -1    5.40    3.50
   1  -7  -1    9.10    3.00
   1  -7  -1    6.90    4.10
   1  -7  -1    3.00    3.80
  -1   7   1   11.60    4.50
  -1   7   1   13.70    2.90
  -1   7   1   10.00    5.00
   0  -7  -1    2.00    2.70
   0  -7  -1    2.50    2.50
   0  -7  -1    0.70    3.50
   0  -7  -1    0.60    3.30
   0   7   1    3.30    3.30
   0   7   1    1.30    3.90
   0   7   1    0.80    4.00
  -1  -7  -1  681.23   45.70
  -1  -7  -1  638.84   45.60
  -1  -7  -1  650.53   46.10
   1   7   1  612.14   45.50
   1   7   1  686.93   47.10
  -2  -7  -1  114.49   10.00
  -2  -7  -1  117.49   10.50
  -2  -7  -1  116.99   11.00
   2   7   1   97.49    8.50
   2   7   1  115.09    9.30
   2   7   1  109.49   12.30
   2   7   1  113.39   13.30
  -3  -7  -1   18.20    4.80
  -3  -7  -1   13.90    4.40
  -3  -7  -1   11.40    3.50
  -3  -7  -1   20.00    3.30
   3   7   1   10.70    7.40
   3   7   1   20.50    9.90
  -4  -7  -1   35.00    4.70
  -4  -7  -1   25.40    5.50
  -4  -7  -1   30.50    5.00
  -4  -7  -1   33.10    4.50
   4   7   1   36.10    9.90
   4   7   1   27.10   10.50
  -5  -7  -1   71.59    7.60
   5   7   1   72.19   12.40
   5  -8  -1   53.09    9.10
   5  -8  -1   38.40    8.20
   5  -8  -1   40.40    8.70
  -5   8   1   45.10   10.40
  -5   8   1   42.10    7.60
   4  -8  -1   -2.30    6.00
   4  -8  -1    4.80   10.30
   4  -8  -1   -1.20    2.70
   4  -8  -1    0.40    6.00
   4  -8  -1    6.60    2.60
  -4   8   1   -3.90    5.80
  -4   8   1    3.00    5.40
   3  -8  -1   17.60    4.30
   3  -8  -1   10.90    3.60
   3  -8  -1   13.00    6.40
   3  -8  -1    9.10    5.50
  -3   8   1   12.70    6.00
  -3   8   1   11.00    5.60
  -3   8   1    2.90    6.20
   2  -8  -1   24.00    5.10
   2  -8  -1   19.60    5.30
   2  -8  -1   32.70    4.90
  -2   8   1   25.70    7.10
  -2   8   1   29.60    6.80
  -2   8   1   27.50    5.40
   1  -8  -1   13.70    4.10
   1  -8  -1    8.40    6.10
   1  -8  -1   10.60    4.80
   1  -8  -1    9.90    4.30
  -1   8   1   13.90    5.80
  -1   8   1    8.60    6.00
  -1   8   1   14.30    5.10
   0  -8  -1   25.20    5.50
   0  -8  -1   22.00    3.70
   0  -8  -1   27.80    5.30
   0  -8  -1   25.00    4.80
   0   8   1   20.60    5.90
   0   8   1   22.30    4.30
   0   8   1   27.40    5.50
  -1  -8  -1  435.56   33.90
  -1  -8  -1  490.95   33.70
  -1  -8  -1  468.35   33.90
   1   8   1  489.35   33.40
   1   8   1  452.75   33.40
  -2  -8  -1  109.69   10.10
  -2  -8  -1   89.09   10.20
   2   8   1  106.99    9.00
   2   8   1   90.29    7.90
   2   8   1   95.19   13.60
   2   8   1   95.39   12.20
  -3  -8  -1   14.20    4.50
  -3  -8  -1   11.40    5.40
  -3  -8  -1    6.70    3.60
   3   8   1   18.60    7.90
   3   8   1   14.50    7.00
  -4  -8  -1   -7.10    3.50
  -4  -8  -1    9.00    4.00
  -4  -8  -1   -0.10    3.60
   4   8   1    9.50    6.70
   4   8   1    1.20    7.90
  -5  -8  -1   -7.90    3.90
   5   8   1   13.00    7.90
   5  -9  -1   56.29    9.70
   5  -9  -1   64.49    9.90
   5  -9  -1   81.39   11.50
  -5   9   1   73.19    9.90
  -5   9   1   55.79   11.30
   4  -9  -1   20.10    7.20
   4  -9  -1   20.00    4.20
   4  -9  -1   10.90    6.60
   4  -9  -1   15.80    7.50
  -4   9   1   16.50    6.10
  -4   9   1   18.10    7.30
   3  -9  -1    7.90    5.20
   3  -9  -1   11.60    6.20
   3  -9  -1    5.40    3.80
   3  -9  -1    5.10    3.40
  -3   9   1    6.40    7.00
  -3   9   1    7.00    5.80
   2  -9  -1   89.59    9.70
   2  -9  -1   77.59    8.90
   2  -9  -1   81.99    9.40
  -2   9   1   83.99   10.60
  -2   9   1   73.99   11.00
   1  -9  -1   -0.90    3.80
   1  -9  -1   -0.60    4.00
   1  -9  -1    2.90    3.70
  -1   9   1    8.20    3.90
  -1   9   1    6.40    5.60
  -1   9   1    7.50    5.40
   0  -9  -1  123.29   12.10
   0  -9  -1  124.79    9.90
   0  -9  -1  112.29   12.00
   0   9   1   99.39   10.90
   0   9   1  141.59   12.30
   0   9   1  127.19   13.60
  -1  -9  -1  260.07   22.50
  -1  -9  -1  277.57   21.50
  -1  -9  -1  315.77   22.20
   1   9   1  281.07   21.60
   1   9   1  296.77   21.70
  -2  -9  -1   31.90    6.20
  -2  -9  -1   34.70    6.00
   2   9   1   46.50    8.10
   2   9   1   34.80    4.50
   2   9   1   43.80    9.50
  -3  -9  -1    2.30    4.10
   3   9   1    5.10    9.70
   3   9   1    8.60    6.10
  -4  -9  -1   14.50    4.70
   4   9   1   14.70    7.60
   4   9   1    5.10    7.70
   4 -10  -1    0.80    6.80
   4 -10  -1   11.30    6.00
   4 -10  -1   10.50   11.30
   4 -10  -1    8.20    3.80
  -4  10   1    2.00    5.20
  -4  10   1    2.20    7.40
   3 -10  -1   17.80    6.50
   3 -10  -1   17.90    4.70
   3 -10  -1    4.60    5.40
  -3  10   1    3.80    6.90
  -3  10   1    7.40    5.40
   2 -10  -1   33.30    6.20
   2 -10  -1   26.90    5.90
  -2  10   1   40.80    8.70
  -2  10   1   36.80    7.80
   1 -10  -1    8.50    6.80
  -1  10   1    9.60    6.40
  -1  10   1    2.10    5.80
   0 -10  -1   -0.40    4.60
   0 -10  -1    2.30    3.10
   0  10   1   11.50    6.00
   0  10   1    5.10    5.40
   0  10   1    4.40    5.60
  -1 -10  -1  268.47   21.50
   1  10   1  262.27   22.50
   1  10   1  264.87   22.90
   1  10   1  274.97   20.90
  -2 -10  -1   26.70    6.10
   2  10   1   36.10    6.90
   2  10   1   29.70    4.30
   2  10   1   25.30    4.20
   2  10   1   22.50    8.50
  -3 -10  -1   12.60    5.30
   3  10   1   22.10    6.90
   3  10   1   16.80    7.90
  -4 -10  -1   18.70    6.20
   4  10   1   15.40    7.90
   4  10   1   32.40    8.30
   4 -11  -1   42.40    7.90
   4 -11  -1   65.29   10.50
   4 -11  -1   44.50    9.10
   4 -11  -1   44.90    6.60
  -4  11   1   63.99    9.50
  -4  11   1   58.79   11.50
   3 -11  -1   20.30    5.10
   3 -11  -1   13.50    5.70
   3 -11  -1   14.50    6.70
  -3  11   1   18.10    8.00
  -3  11   1   21.00    7.40
   2 -11  -1    0.60    4.80
   2 -11  -1    3.50    4.70
  -2  11   1   -1.10    5.70
  -2  11   1    4.00    6.90
   1 -11  -1   14.40    4.80
   1 -11  -1   18.00    5.30
  -1  11   1   24.60    8.70
  -1  11   1   23.30    7.10
   0  11   1   20.10    6.30
   0  11   1   17.90    7.10
   1  11   1   26.90    6.70
   1  11   1   27.70    8.60
   1  11   1   28.80    4.90
   1  11   1   29.70    7.40
  -2 -11  -1    3.20    6.50
   2  11   1    1.50    3.00
   2  11   1   13.20    5.90
   2  11   1    8.80    7.80
  -3 -11  -1   50.99    7.90
   3  11   1   42.40   10.10
   3  11   1   64.59    9.70
   3 -12  -1   10.70    4.90
   3 -12  -1   -2.60    5.70
  -3  12   1    1.60    5.60
  -3  12   1    3.20    7.30
   2 -12  -1   20.10    4.70
   2 -12  -1   15.90    5.50
  -2  12   1   23.60    8.30
  -2  12   1   20.90    7.10
   1 -12  -1   10.30    4.90
   1 -12  -1   13.30    4.00
  -1  12   1   13.20    6.30
  -1  12   1   19.30    7.20
   0  12   1   18.60    7.60
   0  12   1   31.40    6.90
   1  12   1   61.69   13.20
   1  12   1   49.60    8.30
   1  12   1   49.30    8.40
  -2 -12  -1    2.00    5.10
   2  12   1    9.00    4.20
   2  12   1   19.60    7.70
   2  12   1   10.60    5.70
   3  12   1   19.40    8.60
   3  12   1   15.00    7.00
   2 -13  -1   17.90    5.20
   2 -13  -1    8.80    4.80
  -2  13   1   15.30    6.50
  -2  13   1   10.10    7.10
   1 -13  -1   16.50    5.60
  -1  13   1   23.80    7.50
  -1  13   1   14.70    7.80
   0 -13  -1   25.60    6.50
   0  13   1   28.60    6.80
  -1 -13  -1   13.10    4.50
   1  13   1    3.00    7.60
   1  13   1    9.50    6.10
   1  13   1   15.70    6.00
   2  13   1    3.50    7.30
   2  13   1   -2.20    3.90
   2  13   1   10.40    5.90
   1  14  -2   14.20    7.10
   1  14  -2   -8.10   14.00
   1  14  -2    8.50    5.90
  -1 -14   2   15.50    4.80
   0  14  -2   10.40    6.90
   0  14  -2   10.10    6.10
   0 -14   2    5.90    5.00
  -1  14  -2   27.70    7.90
  -1  14  -2   24.50    8.70
   1 -14   2   23.70    6.60
  -2  14  -2   17.40    8.40
  -2  14  -2    7.70    6.70
   2 -14   2   23.20    5.70
   3  13  -2   37.80    9.50
   2  13  -2   30.40    8.20
   2  13  -2   53.79   10.90
   2  13  -2   40.70    6.10
  -2 -13   2   45.50    7.10
   1  13  -2  -11.70   10.00
   1  13  -2   10.20    6.60
   1  13  -2   -1.50    9.50
  -1 -13   2   11.10    4.40
   0  13  -2    7.20    7.40
   0  13  -2   10.70    5.70
   0 -13   2   11.80    5.10
  -1  13  -2   28.90    8.20
  -1  13  -2   18.00    7.10
   1 -13   2   20.10    5.50
  -2  13  -2   23.70    7.30
  -2  13  -2   33.40    9.60
   2 -13   2   21.60    5.90
   2 -13   2   32.10    7.50
  -3  13  -2   30.00    7.80
  -3  13  -2   17.50    8.70
   3 -13   2   21.70    7.80
   3 -13   2   24.20    5.70
   3  12  -2   18.00    9.20
   3  12  -2   11.50    7.50
  -3 -12   2    3.00    3.70
   2  12  -2  231.28   19.80
   2  12  -2  183.78   15.80
   2  12  -2  184.88   20.50
   2  12  -2  227.38   16.30
  -2 -12   2  205.98   17.20
   1  12  -2   17.60    7.40
   1  12  -2   22.40    6.50
  -1 -12   2   20.40    5.00
   0  12  -2    4.20    5.80
   0  12  -2    0.30    6.50
   0 -12   2    8.00    4.70
  -1  12  -2   -2.70    5.80
  -1  12  -2    7.10    6.30
   1 -12   2   -1.30    4.70
  -2  12  -2    6.20    6.80
  -2  12  -2   -4.50    6.00
   2 -12   2    2.50    4.00
   2 -12   2    2.30    7.00
  -3  12  -2    8.40    7.40
  -3  12  -2   13.70    6.10
   3 -12   2    5.20    4.60
   3 -12   2    7.30    5.90
  -4  12  -2   27.30    8.60
   4 -12   2    2.10    6.60
   4 -12   2   11.30    7.60
   4  11  -2   45.40   16.20
   4  11  -2    2.10    7.00
  -4 -11   2   26.40    8.60
   3  11  -2   38.60    8.80
   3  11  -2   51.19   12.20
  -3 -11   2   44.10    6.40
   2  11  -2   83.59   12.60
   2  11  -2   92.19    8.60
   2  11  -2   87.89   12.90
   2  11  -2   67.59    7.60
  -2 -11   2   76.69    9.50
   1  11  -2   15.80    4.60
   1  11  -2   28.30    7.90
   1  11  -2   27.80    6.00
  -1 -11   2   20.10    5.00
   0  11  -2   10.10    5.90
   0  11  -2   16.80    7.30
   0 -11   2    9.70    4.90
  -1  11  -2   83.99   10.90
  -1  11  -2   78.79   11.50
   1 -11   2   76.59    9.80
  -2  11  -2    6.20    9.80
  -2  11  -2   11.40    9.10
   2 -11   2   16.30    5.30
  -3  11  -2   31.70    7.40
  -3  11  -2   18.20    8.20
   3 -11   2   18.30    6.90
   3 -11   2   24.30    5.40
  -4  11  -2  -12.90    5.60
  -4  11  -2    3.20    7.00
  -4  11  -2    8.00    5.90
   4 -11   2    6.60    4.20
   4 -11   2    2.30    7.50
   4 -11   2   -2.00    6.90
   4  10  -2    8.10    7.40
   4  10  -2    9.20   10.60
  -4 -10   2   -1.60    3.20
   3  10  -2   49.00   11.70
   3  10  -2   44.30    9.60
  -3 -10   2   32.20    6.00
   2  10  -2   49.80    5.70
   2  10  -2   52.49   10.40
   2  10  -2   48.80    9.30
   2  10  -2   52.89    7.00
  -2 -10   2   38.40    6.50
   1  10  -2   10.80    5.00
   1  10  -2   16.30    3.30
   1  10  -2    6.90    6.90
  -1 -10   2    3.60    4.10
   0  10  -2  169.28   15.00
   0  10  -2  188.58   15.80
   0 -10   2  194.98   15.60
  -1  10  -2   97.49   11.10
  -1  10  -2   97.89   12.90
   1 -10   2   76.79    9.70
  -2  10  -2    4.50    5.20
  -2  10  -2   -0.50    2.90
  -2  10  -2    5.00    6.30
   2 -10   2   19.20    6.70
   2 -10   2   10.40    4.90
  -3  10  -2    7.50    6.90
  -3  10  -2   -0.60    5.30
   3 -10   2    3.60    3.80
   3 -10   2    2.10    4.50
   3 -10   2    2.00    7.30
   3 -10   2    5.90    6.90
   3 -10   2    2.50    3.00
  -4  10  -2   55.49   10.40
  -4  10  -2   53.39    8.80
   4 -10   2   51.19    9.80
   4 -10   2   54.89    6.80
   4 -10   2   51.29    6.40
   4 -10   2   55.49    9.40
  -5  10  -2   15.70    5.10
  -5  10  -2   10.50    8.00
   5 -10   2   14.00    7.50
   5 -10   2   22.70    7.80
   5   9  -2    8.80    6.80
   5   9  -2    1.20   10.90
  -5  -9   2    8.50    3.60
   4   9  -2   33.70    8.40
   4   9  -2   23.90   11.70
  -4  -9   2   22.00    4.50
   3   9  -2   11.70    8.50
   3   9  -2    5.40    6.80
  -3  -9   2    3.70    3.80
  -3  -9   2    6.40    3.20
   2   9  -2   32.70    9.10
   2   9  -2   31.50    5.50
   2   9  -2   36.10    8.30
   2   9  -2   28.40    4.30
  -2  -9   2   30.70    5.20
  -2  -9   2   22.10    5.50
  -2  -9   2   28.20    5.00
   1   9  -2   19.60    5.10
   1   9  -2   35.10    7.10
   1   9  -2   19.30    4.80
  -1  -9   2   16.80    4.80
  -1  -9   2   20.40    4.70
  -1  -9   2   21.10    4.20
   0   9  -2  313.27   24.80
   0   9  -2  380.76   25.70
   0   9  -2  351.46   27.00
   0  -9   2  310.97   25.90
   0  -9   2  323.87   24.90
   0  -9   2  369.66   25.30
  -1   9  -2   64.69    7.20
  -1   9  -2   87.69   11.50
  -1   9  -2   76.99    8.70
  -1   9  -2   83.69    9.60
   1  -9   2  101.09    9.10
   1  -9   2   74.59    8.20
  -2   9  -2   10.50    6.30
  -2   9  -2   14.20    4.20
  -2   9  -2   15.60    6.50
  -2   9  -2    9.60    5.70
   2  -9   2   13.20    4.90
   2  -9   2   18.80    6.50
   2  -9   2   15.30    3.60
   2  -9   2   12.40    4.80
   2  -9   2   14.40    4.70
  -3   9  -2   11.10    7.10
  -3   9  -2   12.10    5.50
  -3   9  -2    8.00    4.80
   3  -9   2    7.90    6.70
   3  -9   2    8.20    3.20
   3  -9   2    2.90    3.70
   3  -9   2    5.30    6.00
   3  -9   2    9.20    5.20
  -4   9  -2   -6.30    7.00
  -4   9  -2    3.60    5.50
  -4   9  -2   17.50    6.00
   4  -9   2   -2.20    5.90
   4  -9   2    8.00    7.00
   4  -9   2    5.40    6.10
   4  -9   2    6.00    3.40
   4  -9   2    2.30    2.40
  -5   9  -2   15.10    5.60
  -5   9  -2   10.90    8.30
   5  -9   2   11.60    7.40
   5  -9   2    5.40    7.60
   5   8  -2    4.20    7.10
   5   8  -2    3.80   10.60
  -5  -8   2    6.50    3.00
  -5  -8   2   -6.30    3.60
   4   8  -2   25.10   10.80
  -4  -8   2   13.00    3.80
  -4  -8   2    9.50    6.60
   3   8  -2   63.09   10.10
   3   8  -2   75.89   10.90
  -3  -8   2   66.79    7.30
  -3  -8   2   54.19    7.90
  -3  -8   2   57.09    7.00
   2   8  -2    8.40    2.50
   2   8  -2   15.70    3.70
   2   8  -2   10.80    6.60
   2   8  -2   11.40    7.60
  -2  -8   2    9.50    4.10
  -2  -8   2    8.00    3.50
   1   8  -2   68.09    7.20
   1   8  -2   55.69    7.70
  -1  -8   2   65.99    7.40
  -1  -8   2   63.99    7.30
  -1  -8   2   65.09    8.40
   0   8  -2  105.29    9.90
   0   8  -2   97.89    9.20
   0   8  -2   95.69   11.30
   0  -8   2   96.39   10.30
   0  -8   2  114.59    9.50
   0  -8   2   92.69    8.60
  -1   8  -2   51.79    6.90
  -1   8  -2   39.90    7.10
  -1   8  -2   40.80    5.80
  -1   8  -2   42.10    5.30
   1  -8   2   41.30    6.00
   1  -8   2   51.39    5.40
   1  -8   2   41.60    5.30
   1  -8   2   49.70    6.20
  -2   8  -2   32.90    5.60
  -2   8  -2   36.90    6.90
  -2   8  -2   34.70    7.50
   2  -8   2   41.40    5.50
   2  -8   2   36.20    5.60
   2  -8   2   38.60    5.80
   2  -8   2   36.20    7.00
  -3   8  -2   56.49    8.20
  -3   8  -2   63.89    8.40
  -3   8  -2   66.59    9.70
  -3   8  -2   53.89    7.00
   3  -8   2   57.09    7.20
   3  -8   2   73.19    9.70
   3  -8   2   67.39    9.10
   3  -8   2   51.29    7.50
   3  -8   2   51.99    7.80
   3  -8   2   59.89    6.50
  -4   8  -2   11.00    5.30
  -4   8  -2   18.00    5.80
  -4   8  -2   15.10    7.30
   4  -8   2    6.60    4.10
   4  -8   2   19.40    7.00
   4  -8   2    2.00    4.20
   4  -8   2   10.30    5.80
   4  -8   2   14.10    7.20
  -5   8  -2  133.09   12.80
  -5   8  -2  150.78   16.70
   5  -8   2  106.29   14.10
   5  -8   2  141.99   15.50
   5   7  -2    9.90    7.20
   5   7  -2   20.70   17.20
  -5  -7   2   10.00    4.50
  -5  -7   2    0.90    2.80
   4   7  -2    2.30    7.00
   4   7  -2   15.70    9.80
  -4  -7   2   13.60    4.50
  -4  -7   2    2.20    2.90
  -4  -7   2    5.70    3.60
   3   7  -2  212.08   19.10
   3   7  -2  180.78   18.20
  -3  -7   2  203.18   15.20
  -3  -7   2  194.38   16.70
   2   7  -2   18.40    3.40
   2   7  -2   21.40    7.70
   2   7  -2   14.50    5.90
   2   7  -2   18.00    2.90
  -2  -7   2   13.30    4.40
  -2  -7   2   12.90    3.40
   1   7  -2   15.60    4.00
   1   7  -2   17.90    5.70
   1   7  -2   19.60    3.40
  -1  -7   2   13.10    3.60
  -1  -7   2    9.90    5.10
  -1  -7   2   12.90    4.20
   0   7  -2  287.77   21.80
   0   7  -2  242.88   20.40
   0   7  -2  286.37   20.60
   0  -7   2  268.37   20.30
   0  -7   2  309.97   20.60
   0  -7   2  274.17   21.30
  -1   7  -2   11.40    3.50
  -1   7  -2   13.10    4.60
  -1   7  -2   10.40    2.60
  -1   7  -2   17.00    5.30
   1  -7   2    9.90    3.80
   1  -7   2   15.30    3.40
   1  -7   2   18.10    3.80
   1  -7   2   12.30    4.00
  -2   7  -2   90.49   11.60
  -2   7  -2   81.19    8.70
  -2   7  -2   96.29    9.90
  -2   7  -2   89.09    8.90
   2  -7   2   89.79    9.10
   2  -7   2   91.69   10.40
   2  -7   2   93.89   12.50
   2  -7   2   87.49    8.50
   2  -7   2  109.59    9.00
  -3   7  -2   66.89    8.90
  -3   7  -2   99.19   12.10
  -3   7  -2   72.29   11.40
  -3   7  -2   88.89    9.80
   3  -7   2   83.99   11.00
   3  -7   2   90.69   11.00
   3  -7   2   74.49   10.70
   3  -7   2   87.99    7.80
   3  -7   2  103.79   10.00
   3  -7   2   89.49    8.10
  -4   7  -2   19.50    4.80
  -4   7  -2   18.90    5.60
  -4   7  -2    3.10    6.00
  -4   7  -2   13.80    4.80
   4  -7   2    7.50    6.20
   4  -7   2    9.50    2.00
   4  -7   2   12.40    6.70
   4  -7   2    8.30    2.00
   4  -7   2   10.00    6.20
  -5   7  -2   77.99    8.70
  -5   7  -2   54.29   10.50
   5  -7   2   73.69   16.80
   5  -7   2   73.59   10.50
   6  -7   2   41.70    8.70
   6   6  -2   55.79   13.30
  -6  -6   2   32.90    4.30
  -6  -6   2   36.90    7.20
   5   6  -2    9.00    7.80
   5   6  -2   15.50   11.20
  -5  -6   2   11.90    2.90
  -5  -6   2    9.00    3.10
   4   6  -2   34.90    8.80
   4   6  -2   85.79   13.10
  -4  -6   2   68.29    8.10
  -4  -6   2   45.90    5.70
  -4  -6   2   50.09    5.90
  -4  -6   2   51.69    7.10
   3   6  -2   94.19   13.50
   3   6  -2   84.59   11.90
  -3  -6   2   93.19    8.00
  -3  -6   2   95.09    9.40
  -3  -6   2   86.79    7.90
  -3  -6   2   85.69    9.80
   2   6  -2    6.20    5.40
   2   6  -2    1.70    2.20
   2   6  -2    6.00    2.20
   2   6  -2    5.80    6.80
  -2  -6   2   -0.80    3.40
  -2  -6   2    5.20    2.80
   1   6  -2   49.50    5.70
   1   6  -2   44.70    6.40
   1   6  -2   48.10    5.90
  -1  -6   2   48.80    6.50
  -1  -6   2   55.19    5.70
   0   6  -2  212.98   16.60
   0   6  -2  205.58   15.60
   0   6  -2  172.98   15.30
   0  -6   2  232.48   15.60
   0  -6   2  212.08   16.30
   0  -6   2  201.78   15.40
  -1   6  -2  198.58   15.20
  -1   6  -2  218.98   16.90
  -1   6  -2  184.28   15.40
  -1   6  -2  224.88   15.90
   1  -6   2  233.18   15.70
   1  -6   2  208.18   15.20
   1  -6   2  190.08   15.40
   1  -6   2  186.38   16.30
  -2   6  -2  503.25   36.00
  -2   6  -2  540.45   36.40
  -2   6  -2  473.15   36.10
  -2   6  -2  566.44   37.60
   2  -6   2  507.05   36.00
   2  -6   2  524.85   36.50
   2  -6   2  470.55   36.70
   2  -6   2  543.55   35.90
   2  -6   2  487.75   35.70
  -3   6  -2  101.09   10.40
  -3   6  -2  101.79   10.40
  -3   6  -2  121.69   10.20
  -3   6  -2  117.19   12.50
  -3   6  -2   89.19    9.60
   3  -6   2  116.39   11.60
   3  -6   2  123.19   12.10
   3  -6   2  125.89   11.20
   3  -6   2  100.49   10.20
   3  -6   2  102.29    8.80
   3  -6   2   96.89    8.90
  -4   6  -2    3.10    4.20
  -4   6  -2    4.10    4.90
  -4   6  -2    3.00    5.50
   4  -6   2    5.50    5.70
   4  -6   2    3.00    4.00
   4  -6   2    3.10    5.60
   4  -6   2    5.50    5.60
  -5   6  -2   30.00    7.10
  -5   6  -2   23.20    5.30
   5  -6   2   23.70    7.90
   5  -6   2   18.50    7.10
  -6   6  -2   12.60    7.40
  -6   6  -2   12.30    5.00
   6  -6   2   15.80    8.40
   6  -6   2   22.20    7.10
  -6  -5   2    2.50    4.60
   5   5  -2   39.10   12.70
  -5  -5   2   14.30    5.30
  -5  -5   2   32.80    3.90
  -5  -5   2   24.80    6.40
   4   5  -2   30.20    8.50
   4   5  -2   67.79   12.00
  -4  -5   2   52.39    6.90
  -4  -5   2   61.19    7.60
  -4  -5   2   49.90    7.30
  -4  -5   2   44.70    5.30
  -4  -5   2   51.79    9.90
  -4  -5   2   45.90    5.60
   3   5  -2   98.49   13.20
   3   5  -2   77.09   11.60
  -3  -5   2   89.59    7.40
  -3  -5   2   89.19    9.20
  -3  -5   2   72.99    8.90
  -3  -5   2   90.69    8.80
  -3  -5   2   92.89    7.90
  -2  -5   2   75.29    6.80
  -2  -5   2   79.59    9.50
   1   5  -2  970.60   67.59
   1   5  -2  964.80   67.09
   1   5  -2 1017.70   67.09
  -1  -5   2  977.60   67.09
  -1  -5   2  903.61   67.89
  -1  -5   2 1064.39   67.19
   0   5  -2   72.09    8.00
   0   5  -2   68.59    6.80
   0   5  -2   73.59    7.20
   0  -5   2   85.59    6.90
   0  -5   2   76.89    6.90
   0  -5   2   76.79    7.70
  -1   5  -2    6.30    3.80
  -1   5  -2    7.60    3.50
  -1   5  -2   10.60    3.60
  -1   5  -2    2.00    3.10
   1  -5   2   14.30    3.10
   1  -5   2    9.00    3.20
   1  -5   2   10.00    3.30
   1  -5   2   10.60    5.60
  -2   5  -2   59.29    6.80
  -2   5  -2   58.99    7.10
  -2   5  -2   59.29    8.40
  -2   5  -2   44.80    6.00
   2  -5   2   51.09    5.80
   2  -5   2   54.29    7.10
   2  -5   2   59.79    5.90
   2  -5   2   69.09    8.50
   2  -5   2   63.39    7.70
  -3   5  -2  132.19   10.60
  -3   5  -2  122.89   11.20
  -3   5  -2  109.69   10.10
  -3   5  -2  129.99   12.50
  -3   5  -2  126.39   10.70
   3  -5   2  127.69   11.30
   3  -5   2  132.89   11.70
   3  -5   2  126.39   12.00
   3  -5   2  113.59    9.30
   3  -5   2  123.39   11.70
   3  -5   2  110.19    9.30
  -4   5  -2    2.10    3.50
  -4   5  -2    7.20    4.10
  -4   5  -2   11.30    5.60
  -4   5  -2    2.30    5.50
   4  -5   2    0.20    5.70
   4  -5   2    0.20    5.90
   4  -5   2    6.50    5.20
   4  -5   2   -1.30    3.50
  -5   5  -2   35.70    5.30
  -5   5  -2   35.50    7.20
  -5   5  -2   22.60    4.60
   5  -5   2   30.70    7.40
   5  -5   2   28.00    8.20
  -6   5  -2   12.80    3.90
  -6   5  -2   -3.50    5.40
   6  -5   2   -8.90    7.90
   6  -5   2   10.20    6.40
  -6  -4   2   -2.50    4.70
   5   4  -2   96.79   16.00
  -5  -4   2   87.59   10.50
  -5  -4   2   65.59    8.80
  -5  -4   2   58.59    6.00
  -5  -4   2   70.29    6.00
  -5  -4   2   75.49    8.70
   4   4  -2   25.90    5.80
   4   4  -2   28.40    7.80
   4   4  -2   46.40   10.30
  -4  -4   2   33.20    6.70
  -4  -4   2   29.30    3.70
  -4  -4   2   28.10    5.30
  -4  -4   2   27.80    3.90
  -4  -4   2   47.90    8.60
  -4  -4   2   33.20    5.50
   3   4  -2   47.70    9.50
   3   4  -2   47.70    5.50
   3   4  -2   43.00    7.40
  -3  -4   2   39.80    4.50
  -3  -4   2   37.70    5.40
  -3  -4   2   42.30    5.80
  -3  -4   2   42.10    6.20
  -3  -4   2   48.00    6.50
  -3  -4   2   41.20    4.40
  -3  -4   2   48.40    8.20
   2   4  -2   22.10    3.50
   2   4  -2   34.80    7.30
   2   4  -2   30.80    6.00
  -2  -4   2   23.80    3.40
  -2  -4   2   26.80    3.40
  -2  -4   2   26.80    5.50
   1   4  -2 1239.58   87.59
   1   4  -2 1256.37   87.39
   1   4  -2 1352.06   86.99
   1   4  -2 1258.47   86.99
  -1  -4   2 1277.67   86.99
  -1  -4   2 1414.06   87.09
  -1  -4   2 1175.88   87.19
   0   4  -2   57.39    5.70
   0   4  -2   49.30    5.50
   0   4  -2   54.39    4.90
   0   4  -2   60.39    6.70
   0  -4   2   64.69    5.70
   0  -4   2   54.49    5.60
   0  -4   2   60.89    6.40
  -1   4  -2   12.00    2.60
  -1   4  -2   13.70    3.30
  -1   4  -2   10.60    3.50
  -1   4  -2   14.30    3.40
   1  -4   2    9.60    2.80
   1  -4   2   14.70    2.90
   1  -4   2    9.30    3.10
   1  -4   2    9.50    3.10
   1  -4   2   14.90    3.60
  -2   4  -2   19.60    4.80
  -2   4  -2   21.00    4.00
  -2   4  -2   19.50    4.40
  -2   4  -2   23.90    3.80
  -2   4  -2   30.30    5.00
   2  -4   2   19.90    4.00
   2  -4   2   22.20    4.70
   2  -4   2   27.80    5.10
   2  -4   2   21.90    3.40
   2  -4   2   27.70    3.30
   2  -4   2   23.10    4.50
  -3   4  -2   32.50    5.40
  -3   4  -2   35.50    5.10
  -3   4  -2   34.20    4.40
  -3   4  -2   36.10    6.20
  -3   4  -2   35.60    5.80
  -3   4  -2   32.90    4.60
   3  -4   2   25.80    5.30
   3  -4   2   31.10    5.00
   3  -4   2   34.40    6.20
   3  -4   2   31.90    5.80
  -4   4  -2  480.15   34.10
  -4   4  -2  428.06   33.30
  -4   4  -2  406.16   32.80
  -4   4  -2  475.65   35.80
  -4   4  -2  463.55   32.10
   4  -4   2  478.95   33.40
   4  -4   2  416.66   33.20
   4  -4   2  506.25   33.80
   4  -4   2  447.26   33.20
  -5   4  -2    4.10    3.30
  -5   4  -2    9.40    3.90
  -5   4  -2    3.40    5.40
   5  -4   2    6.80    6.40
   5  -4   2   18.30    6.90
  -6   4  -2    5.50    3.60
  -6   4  -2   -1.70    5.90
  -6   4  -2   -2.30    4.10
   6  -4   2    7.10    7.30
   6  -4   2    6.40    8.30
  -6  -3   2  -11.50    5.30
   5   3  -2   58.79    8.30
   5   3  -2   67.49   12.50
  -5  -3   2   53.99    7.70
  -5  -3   2   49.50    7.70
  -5  -3   2   50.59    6.70
  -5  -3   2   40.40    9.20
   4   3  -2  107.29   11.60
   4   3  -2  121.49   16.20
  -4  -3   2  127.09   13.90
  -4  -3   2  106.39    8.70
  -4  -3   2  116.09   11.00
  -4  -3   2  128.29   10.60
  -4  -3   2  127.99   12.30
  -4  -3   2  114.69   11.20
   3   3  -2   15.50    8.00
   3   3  -2   19.20    4.60
   3   3  -2   16.60    6.10
  -3  -3   2   16.30    5.00
  -3  -3   2   17.30    6.30
  -3  -3   2   17.60    2.50
  -3  -3   2   15.50    4.00
  -3  -3   2   15.40    4.40
  -3  -3   2   18.00    2.40
   2   3  -2  329.47   24.10
   2   3  -2  322.97   25.70
   2   3  -2  314.97   25.10
  -2  -3   2  390.56   26.80
  -2  -3   2  340.47   25.90
  -2  -3   2  370.06   23.70
  -2  -3   2  360.36   23.70
  -2  -3   2  330.17   24.10
  -2  -3   2  327.67   23.90
   1   3  -2  433.26   29.10
   1   3  -2  413.26   29.10
   1   3  -2  396.46   28.90
   1   3  -2  421.16   29.70
   1   3  -2  408.86   30.30
  -1  -3   2  429.86   29.60
  -1  -3   2  422.86   29.20
  -1  -3   2  465.65   29.20
   0   3  -2   33.50    4.20
   0   3  -2   41.00    4.60
   0   3  -2   41.50    4.70
   0  -3   2   35.70    4.70
   0  -3   2   33.60    4.30
   0  -3   2   50.59    5.00
  -1   3  -2  352.86   27.80
  -1   3  -2  373.26   28.20
  -1   3  -2  448.96   28.00
  -1   3  -2  392.86   27.90
   1  -3   2  408.96   27.80
   1  -3   2  387.06   28.10
   1  -3   2  446.56   27.80
  -2   3  -2  207.28   16.00
  -2   3  -2  201.68   15.30
  -2   3  -2  207.38   16.30
  -2   3  -2  204.98   18.10
  -2   3  -2  227.38   15.90
  -2   3  -2  203.08   15.30
   2  -3   2  212.38   14.90
   2  -3   2  201.08   16.00
   2  -3   2  232.18   16.20
   2  -3   2  210.58   16.10
   2  -3   2  207.48   15.00
   2  -3   2  228.08   15.90
  -3   3  -2   45.20    5.40
  -3   3  -2   54.39    7.70
  -3   3  -2   46.50    5.70
  -3   3  -2   51.49    6.50
  -3   3  -2   47.30    6.80
  -3   3  -2   48.30    7.50
  -3   3  -2   65.59    8.80
   3  -3   2   44.10    6.00
   3  -3   2   54.79    8.10
   3  -3   2   60.49    7.80
   3  -3   2   51.19    6.90
  -4   3  -2    8.70    5.70
  -4   3  -2    3.00    4.60
  -4   3  -2   13.10    8.30
  -4   3  -2   -1.10    2.90
  -4   3  -2    5.20    5.70
  -4   3  -2    2.70    2.70
  -4   3  -2    3.70    4.10
   4  -3   2    6.90    5.70
   4  -3   2    3.80    5.00
  -5   3  -2   19.40    6.20
  -5   3  -2   17.20    3.90
  -5   3  -2    8.70    3.50
   5  -3   2   15.10    6.50
   5  -3   2   25.90    7.70
  -6   3  -2   14.40    3.90
  -6   3  -2   20.90    6.40
  -6   3  -2   16.80    3.80
   6  -3   2   20.00    8.80
   6  -3   2   28.10    7.90
   5   2  -2   21.70    6.80
   5   2  -2   29.20   10.40
  -5  -2   2    9.50    5.00
  -5  -2   2   20.00    6.20
   4   2  -2  160.68   15.00
   4   2  -2  173.58   18.30
  -4  -2   2  173.88   13.70
  -4  -2   2  151.68   15.60
  -4  -2   2  174.18   15.40
  -4  -2   2  180.78   19.00
  -4  -2   2  179.88   14.40
  -4  -2   2  181.08   14.50
   3   2  -2   66.09    9.60
   3   2  -2   50.09    6.00
  -3  -2   2   38.00    3.80
  -3  -2   2   45.90    5.30
  -3  -2   2   41.40    6.00
  -3  -2   2   46.50    8.00
  -3  -2   2   38.60    5.40
  -3  -2   2   41.90    6.30
   2   2  -2  202.48   15.80
   2   2  -2  220.88   17.70
   2   2  -2  208.98   16.50
  -2  -2   2  222.88   16.60
  -2  -2   2  212.78   16.10
  -2  -2   2  233.98   14.90
  -2  -2   2  204.38   15.50
  -2  -2   2  212.68   14.90
  -2  -2   2  201.78   17.00
  -2  -2   2  210.68   15.50
   1   2  -2 8722.43  595.64
   1   2  -2 8615.94  596.14
   1   2  -2 8426.06  595.64
   1   2  -2 8676.73  595.94
  -1  -2   2 8450.65  596.04
  -1  -2   2 8853.21  595.64
  -1  -2   2 9999.00  595.74
  -1  -2   2 8949.90  595.94
   0   2  -2 2804.22  201.68
   0   2  -2 2905.71  201.78
   0  -2   2 3384.56  201.78
   0  -2   2 2862.11  201.48
  -1   2  -2 6350.66  417.86
  -1   2  -2 6381.06  417.66
  -1   2  -2 6105.49  417.76
  -1   2  -2 6134.09  417.76
  -1   2  -2 5753.12  417.66
  -1   2  -2 6174.68  417.66
   1  -2   2 6337.77  417.86
   1  -2   2 6247.38  417.76
   1  -2   2 5830.02  417.56
   1  -2   2 6203.78  417.86
   1  -2   2 6608.84  417.66
  -2   2  -2   97.39    9.10
  -2   2  -2  116.79    9.40
  -2   2  -2   96.29    8.10
  -2   2  -2  117.39    9.40
  -2   2  -2   94.79    9.30
  -2   2  -2  112.49    9.20
  -2   2  -2  107.49    8.10
   2  -2   2  111.19    9.70
   2  -2   2   99.69    8.80
   2  -2   2  107.59    9.60
   2  -2   2  116.29    9.40
  -3   2  -2   29.50    4.00
  -3   2  -2   44.80    7.90
  -3   2  -2   36.00    5.90
  -3   2  -2   38.80    6.10
  -3   2  -2   34.60    5.40
  -3   2  -2   35.90    5.40
  -3   2  -2   36.00    4.30
  -3   2  -2   32.20    5.60
   3  -2   2   37.40    6.00
   3  -2   2   40.10    5.80
   3  -2   2   33.10    5.60
   3  -2   2   37.40    9.50
  -4   2  -2    3.80    2.20
  -4   2  -2    0.80    5.40
  -4   2  -2    2.80    5.10
  -4   2  -2   17.90   12.60
  -4   2  -2    9.30    6.40
  -4   2  -2   13.80    5.20
  -4   2  -2    2.00    5.10
  -4   2  -2    6.30    2.20
   4  -2   2    5.00    6.20
   4  -2   2   17.90    5.30
  -5   2  -2   65.29    6.60
   5  -2   2   80.99   10.90
   5  -2   2   85.29   10.00
  -6   2  -2   11.50    3.20
  -6   2  -2    6.60    5.30
  -6   2  -2   10.50    3.30
   6  -2   2   16.90    7.60
   6  -2   2   12.10    8.30
   6   1  -2   15.60    7.30
  -6  -1   2    7.10    8.30
   5   1  -2   47.00    8.60
  -5  -1   2   41.90    4.90
  -5  -1   2   60.49   11.20
  -5  -1   2   34.10    7.40
  -5  -1   2   49.80    8.20
  -5  -1   2   46.90    4.90
   4   1  -2   37.50    9.80
   4   1  -2   34.40    6.80
   4   1  -2   22.40    6.70
  -4  -1   2   26.30    3.60
  -4  -1   2   25.90    6.30
  -4  -1   2   34.10    5.80
  -4  -1   2   19.70    6.50
  -4  -1   2   27.40    9.70
  -4  -1   2   37.70    5.90
  -4  -1   2   42.70    5.20
  -4  -1   2   27.50    3.60
   3   1  -2    5.50    7.30
   3   1  -2    9.40    4.50
   3   1  -2    3.20    3.70
  -3  -1   2    1.40    3.80
  -3  -1   2    2.00    3.20
  -3  -1   2    3.50    3.60
  -3  -1   2    5.70    1.70
  -3  -1   2   10.90    3.80
  -3  -1   2    4.60    5.00
  -3  -1   2    4.20    6.90
  -3  -1   2    7.40    1.80
   2   1  -2    8.50    2.90
   2   1  -2    5.80    5.90
   2   1  -2    2.00    3.40
  -2  -1   2    1.70    4.10
  -2  -1   2    6.30    1.60
  -2  -1   2    2.80    5.40
  -2  -1   2    8.20    3.20
  -2  -1   2    5.40    3.30
  -2  -1   2    5.40    1.60
  -2  -1   2    6.90    2.60
   1   1  -2 2231.58  151.08
   1   1  -2 2185.78  151.58
   1   1  -2 2147.69  150.88
   1   1  -2 2260.17  150.98
  -1  -1   2 2306.57  151.38
  -1  -1   2 2119.19  150.88
  -1  -1   2 2193.18  151.58
  -1  -1   2 2207.18  150.98
  -1  -1   2 2478.65  150.98
   0   1  -2  302.57   21.30
   0   1  -2  309.37   21.20
   0  -1   2  292.87   21.20
   0  -1   2  305.97   21.30
   0  -1   2  340.27   21.30
  -1   1  -2 4278.97  295.97
  -1   1  -2 4449.96  295.77
  -1   1  -2 4365.06  295.87
  -1   1  -2 4381.56  295.67
  -1   1  -2 4358.86  295.97
  -1   1  -2 4402.06  295.67
   1  -1   2 4311.87  295.87
   1  -1   2 4827.02  295.67
   1  -1   2 4189.48  295.97
   1  -1   2 4210.98  295.67
   1  -1   2 4286.97  295.87
   1  -1   2 4552.74  295.77
  -2   1  -2  243.08   18.20
  -2   1  -2  249.88   18.30
  -2   1  -2  247.68   18.40
  -2   1  -2  241.68   17.90
  -2   1  -2  239.28   19.00
  -2   1  -2  252.57   17.20
  -2   1  -2  246.18   18.20
  -2   1  -2  248.18   17.20
   2  -1   2  246.98   18.30
   2  -1   2  258.97   17.80
   2  -1   2  252.67   18.60
   2  -1   2  254.17   18.50
  -3   1  -2   31.50    3.50
  -3   1  -2   32.90    4.70
  -3   1  -2   30.90    5.60
  -3   1  -2   34.00    5.30
  -3   1  -2   33.70    7.80
  -3   1  -2   34.00    5.80
  -3   1  -2   33.40    5.80
  -3   1  -2   30.70    3.40
   3  -1   2   38.30    6.10
   3  -1   2   38.90    7.40
  -4   1  -2   34.60    4.10
  -4   1  -2   39.40    4.20
  -4   1  -2   40.00    5.80
  -4   1  -2   44.60    6.60
  -4   1  -2   64.09   10.20
  -4   1  -2   32.50    7.20
   4  -1   2   52.99    8.20
   4  -1   2   49.99    7.10
  -5   1  -2    2.80    4.30
  -5   1  -2   12.60    2.50
  -5   1  -2    6.80    2.40
   5  -1   2   15.80    6.60
   5  -1   2    9.00    7.10
  -6   1  -2   30.70    6.80
  -6   1  -2   31.20    3.90
  -6   1  -2   42.50    4.60
   6  -1   2   41.10    8.90
   6  -1   2   39.90   10.30
   6   0  -2  107.69   14.10
  -6   0   2  127.59   13.90
  -6   0   2  110.39    9.00
  -6   0   2   97.89    9.20
   5   0  -2   11.40    6.70
   5   0  -2   10.60    6.20
  -5   0   2    7.70    4.70
  -5   0   2   16.00    6.20
  -5   0   2   17.00    3.30
  -5   0   2   13.50    7.40
   4   0  -2   15.50    4.90
   4   0  -2   19.40    6.80
   4   0  -2   18.20    6.10
  -4   0   2   14.80    4.10
  -4   0   2   16.70    4.30
  -4   0   2   15.50    2.70
  -4   0   2   24.00    8.50
  -4   0   2   13.70    7.80
  -4   0   2   14.70    2.90
  -4   0   2   12.30    5.60
  -4   0   2   21.00    5.20
   3   0  -2  288.17   23.70
   3   0  -2  303.17   21.00
   3   0  -2  277.67   22.90
   3   0  -2  260.97   20.10
  -3   0   2  278.37   20.00
  -3   0   2  280.57   22.30
  -3   0   2  278.67   20.20
  -3   0   2  274.77   19.50
  -3   0   2  265.77   19.40
  -3   0   2  260.77   21.40
  -3   0   2  272.97   20.50
  -3   0   2  298.47   21.40
   2   0  -2  186.38   14.10
   2   0  -2  184.18   14.40
   2   0  -2  181.98   13.80
   2   0  -2  189.08   16.10
  -2   0   2  199.68   13.60
  -2   0   2  181.88   14.10
  -2   0   2  197.68   14.80
  -2   0   2  186.28   13.40
  -2   0   2  191.88   14.80
  -2   0   2  199.68   13.40
  -2   0   2  181.38   15.70
  -2   0   2  185.68   13.80
   1   0  -2  809.22   54.59
   1   0  -2  785.42   54.79
   1   0  -2  820.02   54.59
   1   0  -2  834.82   55.39
   1   0  -2  773.72   54.49
   1   0  -2  743.03   54.49
  -1   0   2  872.31   54.69
  -1   0   2  789.62   55.39
  -1   0   2  871.51   55.29
  -1   0   2  803.02   54.89
  -1   0   2  816.02   54.69
  -1   0   2  745.23   54.39
   0   0  -2 1666.13  110.29
   0   0  -2 1613.54  110.29
   0   0  -2 1596.64  110.19
   0   0   2 1674.03  110.29
   0   0   2 1547.45  110.19
   0   0   2 1694.83  110.29
  -1   0  -2 1026.90   72.59
  -1   0  -2 1098.29   72.29
  -1   0  -2 1125.79   72.19
  -1   0  -2 1047.30   72.79
   1   0   2 1028.40   72.59
   1   0   2 1101.89   71.99
   1   0   2 1031.50   72.69
   1   0   2 1099.29   72.09
   1   0   2 1039.70   72.69
  -2   0  -2  235.68   16.30
  -2   0  -2  221.58   17.10
  -2   0  -2  239.08   17.10
  -2   0  -2  235.28   16.80
  -2   0  -2  223.78   17.30
  -2   0  -2  217.58   17.90
   2   0   2  227.38   17.40
   2   0   2  217.98   17.30
   2   0   2  231.68   17.00
  -3   0  -2   30.60    5.10
  -3   0  -2   23.40    5.60
  -3   0  -2   23.60    4.60
  -3   0  -2   12.00    3.70
  -3   0  -2   21.70    5.50
  -3   0  -2   10.70    7.30
   3   0   2   18.50    5.60
  -4   0  -2   11.80    5.20
  -4   0  -2   16.50    4.80
  -4   0  -2   17.50    8.10
  -4   0  -2   18.40    5.40
  -4   0  -2   16.70    5.80
  -4   0  -2   11.90    4.00
   4   0   2   18.50    6.60
   4   0   2   14.00    6.70
   4   0   2   15.90    6.00
  -5   0  -2    0.80    4.20
   5   0   2    1.60    7.40
   5   0   2   -4.30    6.20
  -6   0  -2  114.69   12.00
   6  -1  -2   17.20    7.50
   6  -1  -2   21.10    7.50
  -6   1   2   10.50    3.60
  -6   1   2   19.70    3.60
  -6   1   2    8.20    6.80
   5  -1  -2  187.98   15.30
   5  -1  -2  167.28   16.60
   5  -1  -2  189.38   16.40
  -5   1   2  173.48   13.20
  -5   1   2  140.49   14.30
  -5   1   2  170.28   12.90
  -5   1   2  203.58   17.00
  -5   1   2  135.59   13.90
   4  -1  -2    7.50    4.90
   4  -1  -2   20.00    5.90
   4  -1  -2    8.10    6.10
  -4   1   2   12.90    4.20
  -4   1   2   11.40    3.30
  -4   1   2   15.30    5.40
  -4   1   2   13.80    3.10
  -4   1   2   20.00    9.30
  -4   1   2    8.70    8.20
  -4   1   2   18.20    4.20
  -4   1   2   20.50    5.80
   3  -1  -2   56.59    7.30
   3  -1  -2   73.39    7.90
   3  -1  -2   54.19    7.90
  -3   1   2   58.59    6.10
  -3   1   2   65.59    5.70
  -3   1   2   66.09    6.70
  -3   1   2   65.09    8.00
  -3   1   2   55.89    8.50
  -3   1   2   64.79    9.10
  -3   1   2   56.69    8.70
   2  -1  -2   74.19    7.90
   2  -1  -2   61.49    9.70
   2  -1  -2   83.39    6.00
   2  -1  -2   75.69    6.00
   2  -1  -2   92.99    8.20
   2  -1  -2   84.79    7.30
   2  -1  -2   78.19    7.40
  -2   1   2   81.79    6.70
  -2   1   2   80.79    8.20
  -2   1   2   81.99    7.70
  -2   1   2   77.69    6.70
  -2   1   2   70.69   10.10
   1  -1  -2   34.60    4.70
   1  -1  -2   42.80    6.90
   1  -1  -2   45.50    5.80
   1  -1  -2   49.40    5.30
   1  -1  -2   45.60    4.60
  -1   1   2   44.80    5.30
  -1   1   2   42.50    5.30
  -1   1   2   37.70    5.30
  -1   1   2   47.80    6.40
   0  -1  -2   -0.50    1.90
   0  -1  -2   -0.60    2.00
   0  -1  -2    1.40    2.10
   0   1   2    2.10    1.90
   0   1   2   -0.60    1.80
   0   1   2    1.20    2.10
  -1  -1  -2  236.88   18.30
  -1  -1  -2  241.98   18.50
  -1  -1  -2  211.68   18.40
  -1  -1  -2  256.87   17.70
  -1  -1  -2  287.27   17.50
  -1  -1  -2  262.87   17.80
   1   1   2  254.47   17.50
   1   1   2  254.27   18.90
   1   1   2  262.37   17.40
  -2  -1  -2   68.89    8.80
  -2  -1  -2   69.49    7.90
  -2  -1  -2   67.39    7.10
  -2  -1  -2   61.19    8.40
  -2  -1  -2   68.79    5.10
  -2  -1  -2   72.39    7.30
  -2  -1  -2   65.19    5.10
   2   1   2   72.89    8.50
   2   1   2   68.79    8.10
  -3  -1  -2  520.45   36.20
  -3  -1  -2  517.15   36.20
  -3  -1  -2  497.35   36.90
  -3  -1  -2  510.45   36.50
  -3  -1  -2  548.95   37.10
  -3  -1  -2  508.75   37.40
   3   1   2  476.25   36.90
   3   1   2  556.04   37.30
  -4  -1  -2   16.00    7.70
  -4  -1  -2   18.80    4.80
  -4  -1  -2   17.50    5.00
  -4  -1  -2   31.80    8.30
  -4  -1  -2   15.20    5.10
   4   1   2   26.90    7.30
   4   1   2   20.90    6.60
  -5  -1  -2   -0.10    4.30
  -6  -1  -2   86.49   10.20
   6  -2  -2   47.10   10.10
   6  -2  -2   66.99    9.80
   6  -2  -2   56.49    9.90
  -6   2   2   53.59    9.30
  -6   2   2   45.10    6.40
   5  -2  -2  181.58   15.90
   5  -2  -2  154.48   14.70
   5  -2  -2  146.79   16.10
  -5   2   2  155.48   12.50
  -5   2   2  153.48   12.90
  -5   2   2  162.88   16.40
   4  -2  -2   15.40    5.00
   4  -2  -2    7.00    5.60
   4  -2  -2   15.40    6.30
  -4   2   2   27.00    5.70
  -4   2   2   10.30    3.10
  -4   2   2   13.70    3.70
  -4   2   2   18.70    6.10
   3  -2  -2  385.16   29.30
   3  -2  -2  417.16   29.10
   3  -2  -2  386.46   28.40
   3  -2  -2  390.66   28.50
  -3   2   2  422.16   28.20
  -3   2   2  422.26   30.70
  -3   2   2  363.26   28.30
  -3   2   2  391.16   29.70
  -3   2   2  417.16   28.00
   2  -2  -2  269.67   21.50
   2  -2  -2  276.47   19.70
   2  -2  -2  275.27   20.00
   2  -2  -2  291.67   20.10
   2  -2  -2  275.97   20.50
  -2   2   2  257.97   19.90
  -2   2   2  288.67   21.10
  -2   2   2  291.47   20.10
  -2   2   2  296.07   20.50
   1  -2  -2  232.38   17.00
   1  -2  -2  233.68   17.50
   1  -2  -2  241.88   17.00
   1  -2  -2  246.78   17.20
  -1   2   2  229.78   17.80
  -1   2   2  244.78   17.60
  -1   2   2  234.88   17.10
  -1   2   2  232.88   17.00
   0  -2  -2   23.70    3.80
   0  -2  -2   23.40    3.70
   0  -2  -2   18.60    3.40
   0   2   2   21.80    4.00
   0   2   2   23.40    3.40
   0   2   2   20.80    3.70
  -1  -2  -2  177.88   13.90
  -1  -2  -2  208.38   13.90
  -1  -2  -2  182.58   14.60
  -1  -2  -2  217.18   13.90
  -1  -2  -2  204.08   13.80
   1   2   2  162.18   13.90
   1   2   2  195.78   13.60
   1   2   2  198.58   13.60
  -2  -2  -2   43.70    6.30
  -2  -2  -2   40.70    4.20
  -2  -2  -2   44.10    6.40
  -2  -2  -2   37.80    4.50
  -2  -2  -2   43.50    5.50
  -2  -2  -2   52.49    5.20
   2   2   2   45.80    6.40
   2   2   2   54.89    6.70
  -3  -2  -2  119.29   11.50
  -3  -2  -2  101.29   11.00
  -3  -2  -2  117.29   10.50
  -3  -2  -2  113.79   11.50
  -3  -2  -2  108.89    9.90
   3   2   2  101.49   11.90
  -4  -2  -2   82.29    9.40
  -4  -2  -2   67.29   10.10
  -4  -2  -2   88.59   12.20
  -4  -2  -2   73.49   11.10
  -4  -2  -2   98.09   10.20
  -4  -2  -2   83.19    8.90
   4   2   2   89.99   11.20
  -5  -2  -2    2.30    4.30
   5   2   2   20.70    7.30
  -6  -2  -2   35.20    6.30
   6  -3  -2   51.69   10.30
   6  -3  -2   45.00    9.60
   6  -3  -2   51.49    9.20
  -6   3   2   27.80    7.80
  -6   3   2   40.50    6.00
  -6   3   2   50.69    9.40
   5  -3  -2  112.99   12.20
   5  -3  -2   63.09   14.80
   5  -3  -2   91.29   11.40
  -5   3   2   90.29    9.10
  -5   3   2   97.79    9.00
  -5   3   2   94.59   13.10
   4  -3  -2   59.19   11.80
   4  -3  -2   49.00    6.80
   4  -3  -2   38.90    8.10
  -4   3   2   48.10    6.10
  -4   3   2   47.50    8.40
  -4   3   2   43.90    5.70
  -4   3   2   40.10    7.70
   3  -3  -2   23.50    5.00
   3  -3  -2   15.90    2.50
   3  -3  -2   17.50    4.50
   3  -3  -2   22.20    5.70
   3  -3  -2   14.30    2.40
   3  -3  -2    7.40    3.50
  -3   3   2   11.00    3.80
  -3   3   2   19.80    3.50
  -3   3   2   18.30    6.70
  -3   3   2   20.40    3.50
  -3   3   2   12.50    5.10
   2  -3  -2  660.63   47.00
   2  -3  -2  670.53   46.40
   2  -3  -2  699.23   46.00
   2  -3  -2  617.54   45.90
   2  -3  -2  704.73   45.90
   2  -3  -2  681.13   46.20
  -2   3   2  639.24   47.40
  -2   3   2  662.73   47.20
  -2   3   2  699.93   47.70
  -2   3   2  720.43   46.40
  -2   3   2  597.44   46.10
   1  -3  -2   40.60    5.70
   1  -3  -2   44.90    5.80
   1  -3  -2   44.10    5.30
   1  -3  -2   37.90    4.80
  -1   3   2   46.60    6.10
  -1   3   2   42.80    6.00
  -1   3   2   36.20    4.70
  -1   3   2   40.50    4.90
   0  -3  -2 1247.48   85.09
   0  -3  -2 1232.88   85.19
   0  -3  -2 1234.08   85.09
   0   3   2 1152.28   84.99
   0   3   2 1286.87   85.09
   0   3   2 1345.27   85.29
  -1  -3  -2  743.63   51.59
  -1  -3  -2  824.32   51.79
  -1  -3  -2  805.52   51.69
   1   3   2  656.83   51.39
   1   3   2  757.42   51.49
   1   3   2  744.93   51.39
  -2  -3  -2   30.60    3.60
  -2  -3  -2   35.30    5.20
  -2  -3  -2   39.50    6.00
  -2  -3  -2   26.70    4.10
  -2  -3  -2   26.60    4.70
  -2  -3  -2   30.30    3.80
  -2  -3  -2   28.10    3.90
   2   3   2   28.50    6.20
   2   3   2   29.30    5.60
  -3  -3  -2  149.19   13.00
  -3  -3  -2  133.29   10.00
  -3  -3  -2  140.29   10.20
  -3  -3  -2  123.99   11.20
  -3  -3  -2  145.29   12.20
  -3  -3  -2  127.39   12.60
   3   3   2  131.69   12.90
   3   3   2  131.19   13.10
  -4  -3  -2    8.60    4.50
  -4  -3  -2   18.10    6.80
  -4  -3  -2   10.50    4.30
  -4  -3  -2   -3.80    4.00
  -4  -3  -2    6.10    2.40
  -4  -3  -2   18.50    5.60
  -4  -3  -2    6.90    1.90
   4   3   2    3.30    6.90
  -5  -3  -2   15.30    4.90
   5   3   2   15.10   10.90
  -6  -3  -2   19.50    5.20
   6  -4  -2   11.70    6.30
   6  -4  -2   13.70    6.60
   6  -4  -2   10.00    7.30
  -6   4   2    5.50    3.80
  -6   4   2   -5.90    6.20
   5  -4  -2   58.29   10.00
   5  -4  -2   70.39    9.20
   5  -4  -2   57.19    8.50
  -5   4   2   47.70    7.00
  -5   4   2   53.99    6.80
  -5   4   2   53.89   10.00
   4  -4  -2   88.79   10.60
   4  -4  -2  109.39   12.30
   4  -4  -2   94.39   10.50
   4  -4  -2   86.79   10.50
  -4   4   2   96.89   12.40
  -4   4   2   90.79    9.30
  -4   4   2   85.99   11.40
  -4   4   2   82.69    8.80
   3  -4  -2   15.70    3.70
   3  -4  -2    7.30    4.80
   3  -4  -2   13.30    5.70
   3  -4  -2   14.40    3.10
   3  -4  -2   16.20    4.70
   3  -4  -2   12.60    3.00
  -3   4   2   17.70    3.90
  -3   4   2   15.30    5.50
  -3   4   2   15.20    5.10
  -3   4   2   14.70    5.80
  -3   4   2   15.30    4.10
   2  -4  -2   32.90    5.60
   2  -4  -2   34.40    4.70
   2  -4  -2   38.90    4.80
   2  -4  -2   38.60    5.50
  -2   4   2   34.20    5.30
  -2   4   2   37.10    7.50
  -2   4   2   42.90    5.50
  -2   4   2   33.50    6.60
  -2   4   2   38.00    4.90
   1  -4  -2  148.39   11.50
   1  -4  -2  138.19   12.60
   1  -4  -2  152.08   11.70
   1  -4  -2  144.79   12.10
  -1   4   2  130.29   11.50
  -1   4   2  143.19   12.40
  -1   4   2  147.49   11.70
   0  -4  -2  100.39    9.30
   0  -4  -2   98.79    9.00
   0  -4  -2  113.19    9.00
   0   4   2  120.09    9.70
   0   4   2   91.39    8.90
   0   4   2  108.99    9.10
  -1  -4  -2   21.70    3.60
  -1  -4  -2   21.70    3.70
  -1  -4  -2   19.20    3.70
   1   4   2   22.60    3.60
   1   4   2   25.10    4.20
   1   4   2   24.40    4.40
   1   4   2   18.80    3.50
  -2  -4  -2   76.89    8.20
  -2  -4  -2   95.09    7.60
  -2  -4  -2   86.59    7.20
  -2  -4  -2   85.89    7.80
   2   4   2   67.09    9.00
   2   4   2   81.49   10.40
  -3  -4  -2    8.50    2.50
  -3  -4  -2    8.90    4.00
  -3  -4  -2    8.30    4.00
  -3  -4  -2   14.80    3.90
  -3  -4  -2    9.70    5.30
  -3  -4  -2    6.60    3.10
  -3  -4  -2   13.30    5.50
   3   4   2   11.10    6.40
   3   4   2    4.00    5.80
  -4  -4  -2   11.70    4.70
  -4  -4  -2    0.20    2.30
  -4  -4  -2    9.40    6.20
  -4  -4  -2   -0.30    4.20
  -4  -4  -2    4.30    2.80
   4   4   2    2.30    6.70
  -5  -4  -2   47.90    6.60
  -5  -4  -2   72.69    8.50
  -5  -4  -2   70.09    6.00
   5   4   2   80.29   11.10
  -6  -4  -2   -4.40    4.20
   6   4   2   21.00    7.90
   6  -5  -2    1.10    6.10
   6  -5  -2   19.90    7.50
   6  -5  -2   29.80    7.60
  -6   5   2   17.50    4.90
  -6   5   2   18.70    7.60
   5  -5  -2   54.59    8.80
   5  -5  -2   63.49    8.90
   5  -5  -2   48.50    9.50
  -5   5   2   50.29    7.20
  -5   5   2   44.20    9.10
   4  -5  -2   26.50    7.40
   4  -5  -2   25.40    6.60
   4  -5  -2   36.30    6.50
  -4   5   2   27.50    5.50
  -4   5   2   21.90    4.80
  -4   5   2   23.10    7.00
   3  -5  -2   40.50    6.10
   3  -5  -2   31.90    4.50
   3  -5  -2   34.70    6.60
   3  -5  -2   33.30    6.10
   3  -5  -2   18.80    5.70
   3  -5  -2   29.70    5.80
  -3   5   2   38.70    7.80
  -3   5   2   30.70    5.10
  -3   5   2   40.40    6.00
  -3   5   2   43.70    5.50
  -3   5   2   32.60    6.80
   2  -5  -2   44.90    6.30
   2  -5  -2   58.99    7.20
   2  -5  -2   56.39    7.50
   2  -5  -2   52.79    6.70
  -2   5   2   53.49    7.30
  -2   5   2   52.79    7.70
  -2   5   2   52.69    7.30
  -2   5   2   63.99    8.90
  -2   5   2   51.69    6.70
   1  -5  -2   73.39    7.40
   1  -5  -2   63.39    7.40
   1  -5  -2   72.99    8.10
   1  -5  -2   79.39    7.80
  -1   5   2   58.99    7.70
  -1   5   2   64.89    7.30
  -1   5   2   71.79    8.70
   0  -5  -2   98.39    9.40
   0  -5  -2   92.39    9.00
   0  -5  -2  110.89    8.90
   0  -5  -2  110.39    9.40
   0   5   2  103.79   10.00
   0   5   2   97.99    9.30
   0   5   2  112.99    9.50
  -1  -5  -2   24.00    4.40
  -1  -5  -2   29.00    4.30
  -1  -5  -2   29.90    4.50
   1   5   2   33.80    4.30
   1   5   2   30.10    4.10
   1   5   2   30.90    5.00
   1   5   2   30.60    4.90
  -2  -5  -2  141.89   11.50
  -2  -5  -2  158.88   12.00
  -2  -5  -2  144.29   12.40
  -2  -5  -2  154.68   14.00
   2   5   2  144.89   10.60
   2   5   2  160.08   10.80
   2   5   2  134.49   13.00
   2   5   2  139.19   14.50
  -3  -5  -2   80.59   10.40
  -3  -5  -2   85.09   12.20
  -3  -5  -2   87.19    7.90
  -3  -5  -2   88.59    8.50
  -3  -5  -2   81.39    8.30
  -3  -5  -2   77.19    7.50
   3   5   2   77.59   11.20
   3   5   2   85.19   11.00
  -4  -5  -2   64.69    7.40
  -4  -5  -2   47.10    5.70
  -4  -5  -2   43.70    5.20
  -4  -5  -2   43.10    5.80
  -4  -5  -2   46.00    7.70
   4   5   2   26.80    8.30
  -5  -5  -2   88.49    9.40
  -5  -5  -2   66.19    7.50
  -5  -5  -2   84.49    9.20
  -5  -5  -2   89.89    7.70
   5   5   2   91.29   13.00
   6   5   2   13.30    7.60
   6  -6  -2    8.20    6.70
   5  -6  -2   15.00   13.80
   5  -6  -2   -0.30    6.30
   5  -6  -2    7.00    6.60
  -5   6   2   -4.50    5.40
  -5   6   2   -0.40    4.50
   4  -6  -2  141.69   11.50
   4  -6  -2  133.39   11.50
   4  -6  -2  182.58   15.40
   4  -6  -2  162.38   14.40
   4  -6  -2  153.08   14.90
  -4   6   2  183.08   17.00
  -4   6   2  178.58   14.30
   3  -6  -2   93.69    9.20
   3  -6  -2  101.29   11.10
   3  -6  -2   90.29    9.00
   3  -6  -2  103.29   11.10
   3  -6  -2   98.29   10.80
   3  -6  -2   90.09   10.70
  -3   6   2   98.99    9.70
  -3   6   2  110.89   10.40
  -3   6   2  114.49   17.30
  -3   6   2   90.79   12.70
  -3   6   2   73.79   10.40
   2  -6  -2   -1.60    3.90
   2  -6  -2   -2.90    3.00
   2  -6  -2    4.00    2.70
   2  -6  -2    0.40    3.50
  -2   6   2   -2.30    4.40
  -2   6   2    4.60    5.80
  -2   6   2    5.00    3.50
  -2   6   2    1.60    3.90
   1  -6  -2   38.30    5.20
   1  -6  -2   30.80    5.00
   1  -6  -2   38.70    5.30
  -1   6   2   38.10    6.50
  -1   6   2   36.10    4.90
  -1   6   2   29.40    5.50
   0  -6  -2   45.60    5.90
   0  -6  -2   36.80    5.40
   0  -6  -2   50.69    6.50
   0  -6  -2   35.80    5.30
   0   6   2   38.50    5.70
   0   6   2   32.00    5.20
   0   6   2   37.30    6.40
  -1  -6  -2  247.48   19.00
  -1  -6  -2  263.57   19.60
  -1  -6  -2  248.48   19.50
   1   6   2  237.38   19.20
   1   6   2  258.97   19.00
   1   6   2  296.17   20.20
   1   6   2  255.67   19.00
  -2  -6  -2  414.16   28.70
  -2  -6  -2  382.26   28.20
  -2  -6  -2  441.46   28.80
   2   6   2  366.96   27.40
   2   6   2  398.96   30.20
   2   6   2  401.16   27.60
   2   6   2  378.86   28.80
  -3  -6  -2   54.29    6.20
  -3  -6  -2   46.90    7.10
  -3  -6  -2   51.29    6.90
  -3  -6  -2   50.59    6.80
  -3  -6  -2   53.79    6.50
   3   6   2   53.19    8.90
   3   6   2   50.99   10.00
  -4  -6  -2    2.40    3.90
  -4  -6  -2    7.70    3.90
  -4  -6  -2    5.20    3.00
  -4  -6  -2    8.20    3.60
   4   6   2    7.50    7.50
   4   6   2   16.00    8.20
  -5  -6  -2  165.98   14.10
  -5  -6  -2  165.88   15.50
  -5  -6  -2  174.68   14.70
   5   6   2  180.48   18.40
   5  -7  -2   14.30    6.20
   5  -7  -2    7.80    6.00
   5  -7  -2    6.20    6.50
  -5   7   2   -1.00    6.50
   4  -7  -2  123.89   10.60
   4  -7  -2  127.09   10.70
   4  -7  -2  143.79   13.90
   4  -7  -2  150.28   13.80
   4  -7  -2  129.09   14.20
  -4   7   2  141.79   16.60
  -4   7   2  149.88   13.60
   3  -7  -2   27.80    6.60
   3  -7  -2   24.90    5.10
   3  -7  -2   25.10    4.80
   3  -7  -2   32.00    6.80
   3  -7  -2   26.10    6.50
  -3   7   2   27.70    6.50
  -3   7   2   27.30    7.20
  -3   7   2   39.50    9.00
   2  -7  -2    2.90    4.50
   2  -7  -2    1.10    2.70
   2  -7  -2    7.30    4.20
  -2   7   2    3.10    3.80
  -2   7   2    8.20    4.80
  -2   7   2   -2.10    4.80
   1  -7  -2    4.40    4.10
   1  -7  -2    5.70    3.80
   1  -7  -2    7.10    4.20
   1  -7  -2   10.10    2.60
  -1   7   2    9.20    5.20
  -1   7   2   10.10    4.60
  -1   7   2    4.50    2.80
   0  -7  -2  230.68   18.60
   0  -7  -2  234.78   18.10
   0  -7  -2  257.47   18.40
   0  -7  -2  219.88   17.30
   0   7   2  217.18   18.00
   0   7   2  254.27   18.40
   0   7   2  250.87   19.40
  -1  -7  -2   56.19    7.50
  -1  -7  -2   51.69    7.60
  -1  -7  -2   52.19    6.60
   1   7   2   62.59    8.70
   1   7   2   49.40    6.70
   1   7   2   48.80    8.40
   1   7   2   52.49    6.60
  -2  -7  -2    3.30    2.70
  -2  -7  -2    2.70    3.30
  -2  -7  -2   -6.00    3.60
  -2  -7  -2    1.10    3.60
   2   7   2   -0.70    3.00
   2   7   2    1.60    1.90
   2   7   2    8.10    5.50
   2   7   2   -0.90    6.60
  -3  -7  -2   39.20    6.00
  -3  -7  -2   46.00    6.10
  -3  -7  -2   33.00    5.50
   3   7   2   42.10    9.40
   3   7   2   44.10    7.20
  -4  -7  -2   15.50    4.50
  -4  -7  -2   14.60    4.70
  -4  -7  -2   14.30    5.60
  -4  -7  -2   23.80    4.50
   4   7   2   14.20    8.10
   4   7   2   11.90    6.10
  -5  -7  -2   42.20    6.10
  -5  -7  -2   40.80    5.30
  -5  -7  -2   47.70    6.30
   5   7   2   59.09   11.30
   5  -8  -2    6.30    6.30
   5  -8  -2   12.50    6.80
   5  -8  -2   24.00    7.70
  -5   8   2   20.60    5.80
  -5   8   2   11.50    7.60
   4  -8  -2   88.79   11.30
   4  -8  -2   74.79    7.00
   4  -8  -2   65.79   15.60
   4  -8  -2   55.79    7.20
   4  -8  -2   76.69   11.20
  -4   8   2   59.59   10.70
  -4   8   2   75.49    9.90
   3  -8  -2   18.50    5.90
   3  -8  -2   17.50    4.80
   3  -8  -2   16.30    6.80
  -3   8   2   19.20    7.20
  -3   8   2    8.80    5.40
   2  -8  -2   33.60    5.40
   2  -8  -2   37.50    6.40
  -2   8   2   17.50    6.70
  -2   8   2   32.90    6.90
   1  -8  -2   19.90    4.70
   1  -8  -2   13.50    4.20
   1  -8  -2   11.60    4.60
   1  -8  -2   15.30    5.10
  -1   8   2   11.00    4.50
  -1   8   2   14.00    5.60
  -1   8   2    9.60    5.80
   0  -8  -2  114.29   10.00
   0  -8  -2  124.89   11.10
   0  -8  -2  131.59   11.60
   0  -8  -2  112.19   11.60
   0   8   2  103.39   10.30
   0   8   2  130.99   11.70
   0   8   2  129.19   12.80
  -1  -8  -2  421.96   30.50
  -1  -8  -2  471.15   31.00
  -1  -8  -2  395.36   29.30
  -1  -8  -2  410.66   31.00
   1   8   2  423.56   30.50
   1   8   2  418.76   30.70
  -2  -8  -2   48.80    6.30
  -2  -8  -2   44.50    6.40
  -2  -8  -2   52.59    7.00
   2   8   2   51.19    9.90
   2   8   2   47.00    7.30
   2   8   2   41.50    6.00
   2   8   2   49.50    6.20
  -3  -8  -2   -5.20    4.60
  -3  -8  -2   10.60    4.50
  -3  -8  -2    5.30    3.40
   3   8   2    4.00    5.30
   3   8   2   -0.80    6.70
  -4  -8  -2    0.10    3.80
  -4  -8  -2    2.80    3.70
  -4  -8  -2  -10.00    4.20
   4   8   2   -0.50    6.00
   4   8   2    0.80    7.70
  -5  -8  -2    9.20    4.30
   5   8   2   23.70    8.60
   5  -9  -2   -1.20    6.00
   5  -9  -2    8.40    6.90
   5  -9  -2    9.00    7.40
  -5   9   2    4.80    6.90
   4  -9  -2   18.60    5.70
   4  -9  -2   32.20    7.30
   4  -9  -2   38.60    8.20
   4  -9  -2   28.70    4.80
   4  -9  -2   23.50    7.90
  -4   9   2   27.90    7.00
  -4   9   2   27.90    8.80
   3  -9  -2   23.50    5.30
   3  -9  -2   17.90    6.30
   3  -9  -2   22.50    7.50
  -3   9   2   12.10    7.70
  -3   9   2   14.70    7.70
   2  -9  -2   22.50    5.50
   2  -9  -2   18.50    5.20
  -2   9   2   17.50    6.80
  -2   9   2   10.70    6.30
   1  -9  -2    3.70    3.90
   1  -9  -2   -2.70    4.80
  -1   9   2    3.20    5.30
  -1   9   2   -4.30    5.10
   0  -9  -2  103.59   11.00
   0  -9  -2  111.59    9.40
   0  -9  -2  119.59   11.30
   0   9   2  117.09   12.80
   0   9   2   85.79   10.00
   0   9   2  113.99   11.40
  -1  -9  -2  234.08   19.80
  -1  -9  -2  267.37   19.80
   1   9   2  253.77   19.20
   1   9   2  246.58   19.00
   1   9   2  224.58   18.90
  -2  -9  -2   23.60    5.60
  -2  -9  -2    8.10    4.80
   2   9   2   14.80    3.80
   2   9   2   18.90    8.40
   2   9   2   19.20    3.30
   2   9   2   24.20    5.30
  -3  -9  -2   45.50    6.80
   3   9   2   53.79   10.60
  -4  -9  -2    6.90    4.70
   4   9   2   13.80    6.20
   4   9   2    3.30    7.10
   4 -10  -2   12.20    4.20
   4 -10  -2   15.00   11.70
   4 -10  -2   15.30    6.70
   4 -10  -2    2.70    5.80
  -4  10   2    8.80    8.00
  -4  10   2   13.80    6.10
   3 -10  -2    4.10    6.80
   3 -10  -2    5.50    4.90
   3 -10  -2    2.90    4.50
  -3  10   2    1.20    6.70
  -3  10   2    4.60    5.80
   2 -10  -2   39.60    6.60
   2 -10  -2   34.40    6.20
  -2  10   2   36.80    7.90
  -2  10   2   45.90    9.80
   1 -10  -2   22.20    4.70
   1 -10  -2   17.20    5.80
  -1  10   2   13.40    6.50
  -1  10   2   16.30    6.90
   0 -10  -2   11.10    3.60
   0 -10  -2   10.60    5.70
   0  10   2    7.40    6.10
   0  10   2   20.60    6.30
  -1 -10  -2   27.70    6.20
   1  10   2   25.20    4.90
   1  10   2   35.80    6.40
   1  10   2   36.00    6.50
  -2 -10  -2    7.30    5.30
   2  10   2   -1.60    2.60
   2  10   2   12.10    5.10
   2  10   2    3.10    8.40
   2  10   2    2.20    3.00
  -3 -10  -2   60.39    8.50
   3  10   2   59.99   11.50
   3  10   2   68.39    9.80
  -4 -10  -2   19.80    8.80
   4  10   2   24.60    8.60
   4  10   2   27.00    7.00
   4 -11  -2   61.49   10.20
   3 -11  -2   46.40    8.70
   3 -11  -2   36.90    8.10
   3 -11  -2   31.10    6.80
  -3  11   2   32.70    9.20
  -3  11   2   45.30    8.50
   2 -11  -2    5.40    5.00
   2 -11  -2   24.70    5.10
  -2  11   2   16.00    6.60
  -2  11   2   12.00    7.10
   1 -11  -2   12.00    4.40
  -1  11   2   -0.20    5.20
  -1  11   2   -1.30    6.00
   0 -11  -2    1.90    5.40
   0 -11  -2   12.80    3.20
   0  11   2    5.70    6.50
   0  11   2    3.60    5.90
  -1 -11  -2   35.20    7.50
   1  11   2   42.20    7.40
   1  11   2   53.29   10.80
  -2 -11  -2   10.10    5.70
   2  11   2   22.70    9.10
   2  11   2   10.30    3.70
   2  11   2   -1.10    3.60
   2  11   2   22.30    8.80
  -3 -11  -2   41.00    6.70
   3  11   2   31.40    8.70
   3 -12  -2   14.00    5.20
   3 -12  -2    6.70    5.20
   3 -12  -2   21.70    7.60
  -3  12   2   25.40    7.50
  -3  12   2   25.00    8.50
   2 -12  -2   22.10    5.40
   2 -12  -2   14.50    5.00
  -2  12   2    7.10    6.20
  -2  12   2   13.40    7.90
   1 -12  -2    3.10    3.90
   1 -12  -2    9.90    4.40
  -1  12   2   10.90    6.50
  -1  12   2    8.40    6.60
   0  12   2   95.69   14.00
   0  12   2   96.19   11.70
  -1 -12  -2    6.70    5.00
   1  12   2    9.70    9.70
   1  12   2    7.80    4.90
   1  12   2    6.90    7.40
  -2 -12  -2   -5.70    5.10
   2  12   2    7.70    7.40
   2  12   2  -13.10    4.50
   2  12   2   -5.70    3.40
   1 -13  -2    6.70    4.00
   1 -13  -2   10.40    4.70
  -1  13   2   11.70    6.70
  -1  13   2   20.10    7.60
   0  13   2   29.00    6.80
   1  13   2    7.50    5.90
   1  13   2   25.40    5.10
   1  13   2   24.10    7.80
   2  14  -3   -2.90    7.50
   2  14  -3   15.70   10.20
   1  14  -3   20.90   11.90
   1  14  -3   28.50    7.20
   1  14  -3   19.30    8.20
  -1 -14   3   24.70    5.80
   0  14  -3   11.20    6.40
   0  14  -3   11.70    6.70
   0 -14   3    4.20    4.80
  -1  14  -3   29.40    7.80
  -1  14  -3   13.00    6.80
   1 -14   3   17.90    5.70
  -2  14  -3   18.30    7.00
  -2  14  -3   21.60    8.60
   2 -14   3   15.80    5.40
   2 -14   3   15.30    7.50
   3  13  -3   56.99    9.90
   3  13  -3   80.79   13.80
  -3 -13   3   55.29    7.70
   2  13  -3   56.19   16.70
   2  13  -3   37.70    6.40
   2  13  -3   47.30   11.00
  -2 -13   3   52.49    8.00
   1  13  -3   21.10    7.50
   1  13  -3   23.90    7.80
  -1 -13   3   17.00    5.00
   0  13  -3   28.30    7.00
   0  13  -3   36.00    7.70
   0 -13   3   23.70    6.10
  -1  13  -3   20.60    7.20
  -1  13  -3   12.10    6.60
   1 -13   3   18.60    6.00
  -2  13  -3    9.60    5.90
  -2  13  -3    1.30    6.60
   2 -13   3    0.80    4.40
   2 -13   3   -9.10    6.40
  -3  13  -3   14.60    6.20
  -3  13  -3    7.50    7.10
   3 -13   3    8.10    6.60
   3 -13   3   16.60    5.10
   3  12  -3   23.20   11.20
   3  12  -3    4.00    6.80
  -3 -12   3    0.50    4.00
   2  12  -3    3.70    3.90
   2  12  -3   19.40   10.20
   2  12  -3   11.10    4.30
   2  12  -3   11.90    7.60
  -2 -12   3   17.40    5.30
   1  12  -3   21.10    7.90
   1  12  -3   18.10    5.80
  -1 -12   3   13.90    4.90
   0  12  -3   33.50    7.80
   0  12  -3   24.10    6.80
   0 -12   3   15.70    5.80
  -1  12  -3   27.40    8.00
  -1  12  -3   40.90    7.50
   1 -12   3   21.00    6.00
  -2  12  -3   11.10    7.80
  -2  12  -3   15.10    6.60
   2 -12   3   27.20    7.30
   2 -12   3   17.10    4.80
  -3  12  -3   13.80    5.60
  -3  12  -3   12.10    7.50
   3 -12   3   20.90    8.90
   3 -12   3    8.80    5.00
   3 -12   3   17.90    7.40
  -4  12  -3   13.00    6.00
  -4  12  -3    6.30    6.90
   4 -12   3   11.40    4.90
   4 -12   3   15.40    6.50
   4 -12   3    7.90    7.60
   4  11  -3   37.60    8.90
   4  11  -3   46.30   12.70
  -4 -11   3   22.70    7.60
   3  11  -3   37.20   11.10
  -3 -11   3   27.70    5.40
   2  11  -3   16.20    4.90
   2  11  -3   10.10    7.20
   2  11  -3   25.10   10.30
  -2 -11   3   17.60    5.10
   1  11  -3   -3.50    3.60
   1  11  -3    4.70    6.80
   1  11  -3    3.40    4.80
  -1 -11   3    4.20    4.10
   0  11  -3   97.39   11.80
   0  11  -3   78.39   10.50
   0 -11   3   70.69    9.70
  -1  11  -3   89.79   13.10
  -1  11  -3   88.19   11.30
   1 -11   3   80.39   10.10
  -2  11  -3    2.00    3.30
  -2  11  -3   -4.00    6.70
  -2  11  -3   -1.40    6.30
   2 -11   3   -0.10    4.30
   2 -11   3   -2.60    6.20
  -3  11  -3    4.50    6.50
  -3  11  -3    4.90    5.60
   3 -11   3    4.80    6.30
   3 -11   3    7.10    4.50
   3 -11   3   14.00    7.70
  -4  11  -3   26.00    7.70
  -4  11  -3   51.49   10.60
  -4  11  -3   52.09    8.60
   4 -11   3   43.30    9.10
   4 -11   3   27.90    6.60
   4 -11   3   54.19    9.60
   4 -11   3   55.69    6.80
   4  10  -3   58.99   21.10
   4  10  -3   36.20    9.20
   3  10  -3   14.80    9.40
   3  10  -3   21.20    8.00
  -3 -10   3   18.20    4.50
   2  10  -3   32.60    8.40
   2  10  -3   46.60    6.20
   2  10  -3   39.00    5.20
   2  10  -3   42.30   10.80
  -2 -10   3   38.50    6.10
   1  10  -3   19.40    3.90
   1  10  -3   17.80    5.20
   1  10  -3   25.60    7.00
  -1 -10   3   20.30    4.90
   0  10  -3   71.19    9.00
   0  10  -3   51.59    7.00
   0  10  -3   65.39    8.30
   0 -10   3   49.20    7.30
  -1  10  -3  186.88   18.30
  -1  10  -3  188.28   16.30
   1 -10   3  183.38   15.70
   1 -10   3  190.18   16.30
  -2  10  -3   32.70    7.10
  -2  10  -3   33.00    8.00
  -2  10  -3   36.20    4.90
   2 -10   3   25.30    5.70
   2 -10   3   37.80    5.90
   2 -10   3   40.70    7.80
  -3  10  -3   33.10    8.30
  -3  10  -3   33.60    6.70
  -3  10  -3   19.40    8.20
   3 -10   3   41.30    8.90
   3 -10   3   24.20    4.90
   3 -10   3   31.30    5.70
  -4  10  -3   13.10    7.00
  -4  10  -3    9.90    5.20
  -4  10  -3   15.70    5.70
   4 -10   3    3.50    7.00
   4 -10   3   11.10    3.30
   4 -10   3    5.50    7.10
   4 -10   3    5.50    3.50
  -5  10  -3   10.80    4.60
  -5  10  -3   11.30    7.50
   5 -10   3    3.80    7.50
   5 -10   3    8.00    7.20
   5   9  -3   18.30   12.10
   5   9  -3   12.50    7.20
  -5  -9   3    6.80    3.60
   4   9  -3   49.60   13.30
   4   9  -3   29.60    8.50
  -4  -9   3   48.40    6.30
   3   9  -3   12.00    6.90
   3   9  -3   17.00    9.70
  -3  -9   3    7.10    3.70
  -3  -9   3   16.40    4.20
   2   9  -3   10.20    8.80
   2   9  -3    0.10    6.40
   2   9  -3    3.00    4.70
   2   9  -3    4.80    2.50
  -2  -9   3    5.60    4.10
  -2  -9   3    1.50    3.40
  -2  -9   3    3.50    3.30
   1   9  -3   24.50    5.00
   1   9  -3   21.50    6.50
   1   9  -3   28.20    5.40
  -1  -9   3   18.00    5.30
  -1  -9   3   24.60    4.60
  -1  -9   3   18.20    4.60
   0   9  -3  165.08   13.40
   0   9  -3  155.88   13.60
   0   9  -3  133.19   11.90
   0  -9   3  126.39   14.10
   0  -9   3  164.48   12.90
   0  -9   3  138.59   12.50
  -1   9  -3   39.80    5.40
  -1   9  -3   54.59    7.40
  -1   9  -3   57.69    6.80
  -1   9  -3   54.19    8.30
   1  -9   3   51.59    7.30
   1  -9   3   56.09    7.40
   1  -9   3   58.79    7.10
  -2   9  -3    6.80    4.20
  -2   9  -3    4.60    5.80
  -2   9  -3    7.40    5.40
  -2   9  -3    7.60    4.50
   2  -9   3    7.70    4.40
   2  -9   3    3.30    6.00
   2  -9   3   10.10    4.10
   2  -9   3    5.00    4.50
  -3   9  -3    8.80    6.50
  -3   9  -3    5.30    4.80
  -3   9  -3    8.00    4.90
   3  -9   3    8.10    6.80
   3  -9   3    7.30    3.80
   3  -9   3    4.70    6.00
   3  -9   3   17.00    3.70
  -4   9  -3    2.80    4.80
  -4   9  -3    4.40    7.10
  -4   9  -3   11.60    5.30
   4  -9   3   -2.70    8.30
   4  -9   3    1.80    6.20
   4  -9   3    3.30    2.40
  -5   9  -3   11.00    4.80
  -5   9  -3   -4.40    6.40
   5  -9   3   14.60    6.70
   5  -9   3   20.10    7.80
   5   8  -3    0.90   11.80
   5   8  -3    4.50    6.50
  -5  -8   3   -7.90    3.60
  -5  -8   3    7.90    3.20
   4   8  -3   16.60   11.00
   4   8  -3   14.70    7.80
  -4  -8   3    5.60    3.90
   3   8  -3   46.10    9.90
   3   8  -3   37.00    8.50
  -3  -8   3   36.10    6.30
  -3  -8   3   43.00    5.50
  -3  -8   3   39.80    5.20
   2   8  -3    6.90    5.70
   2   8  -3    5.10    2.20
   2   8  -3    0.50    7.70
   2   8  -3    4.00    3.50
  -2  -8   3    6.30    4.30
  -2  -8   3    8.70    3.20
  -2  -8   3    4.10    3.20
   1   8  -3  148.19   13.20
   1   8  -3  122.59   11.50
   1   8  -3  143.69   12.00
  -1  -8   3  149.88   11.90
  -1  -8   3  133.49   12.70
  -1  -8   3  141.09   11.50
   0   8  -3   18.50    5.20
   0   8  -3   14.30    4.00
   0   8  -3   16.10    4.70
   0  -8   3   20.00    3.50
   0  -8   3   13.80    3.80
   0  -8   3   16.10    4.20
  -1   8  -3   16.40    3.90
  -1   8  -3   17.80    5.20
  -1   8  -3   16.70    5.80
  -1   8  -3   19.30    3.40
   1  -8   3   24.20    4.60
   1  -8   3   25.70    3.90
   1  -8   3   18.70    4.30
  -2   8  -3    5.60    4.90
  -2   8  -3    8.90    6.10
  -2   8  -3   11.90    5.80
  -2   8  -3   11.20    3.90
   2  -8   3    7.20    3.40
   2  -8   3   12.60    5.40
   2  -8   3   11.30    3.90
   2  -8   3    8.00    3.60
  -3   8  -3   70.79    8.80
  -3   8  -3   73.49    8.60
  -3   8  -3   56.19    7.70
  -3   8  -3   71.49    8.20
  -3   8  -3   66.69    9.80
   3  -8   3   69.49    9.90
   3  -8   3   64.59    6.70
   3  -8   3   68.39    9.10
   3  -8   3   63.79    7.40
   3  -8   3   59.29    8.40
  -4   8  -3   -0.90    4.30
  -4   8  -3    5.30    4.60
  -4   8  -3    0.20    6.30
   4  -8   3    2.30    2.00
   4  -8   3   -0.60    2.30
   4  -8   3   -2.70    6.90
   4  -8   3    9.60    6.80
  -5   8  -3    2.90    6.50
  -5   8  -3   16.80    7.30
  -5   8  -3    3.70    4.20
   5  -8   3    5.50    6.50
   5  -8   3   -7.10    6.60
   5   7  -3    4.90   10.80
  -5  -7   3   -1.00    2.90
  -5  -7   3   12.80    3.20
   4   7  -3   29.90    8.30
   4   7  -3   52.29   12.00
  -4  -7   3   34.30    6.30
  -4  -7   3   36.30    4.80
   3   7  -3   24.30    7.50
   3   7  -3   44.00    9.90
  -3  -7   3   29.70    5.30
  -3  -7   3   35.80    4.60
   2   7  -3   23.70    6.50
   2   7  -3   31.00    3.70
   2   7  -3   31.50    4.10
   2   7  -3   32.80    8.50
  -2  -7   3   21.10    5.00
  -2  -7   3   24.70    4.50
  -2  -7   3   34.00    4.50
   1   7  -3   12.10    5.10
   1   7  -3    6.70    3.10
   1   7  -3   14.30    3.90
  -1  -7   3    7.60    3.20
  -1  -7   3    6.80    3.70
  -1  -7   3    5.20    3.90
   0   7  -3   66.99    7.90
   0   7  -3   89.69    8.50
   0   7  -3   69.29    8.70
   0  -7   3   75.39    7.30
   0  -7   3   83.49    8.60
   0  -7   3  105.19    8.30
  -1   7  -3    7.40    4.10
  -1   7  -3    5.20    3.30
  -1   7  -3    6.70    4.50
  -1   7  -3    5.80    2.40
   1  -7   3    4.00    3.60
   1  -7   3    6.70    3.30
   1  -7   3    2.40    3.80
  -2   7  -3   66.79    9.60
  -2   7  -3   53.89    7.50
  -2   7  -3   53.89    7.10
  -2   7  -3   55.59    7.30
   2  -7   3   61.49    6.80
   2  -7   3   65.39    7.80
   2  -7   3   54.89    6.60
   2  -7   3   60.29    7.20
  -3   7  -3   71.79    9.70
  -3   7  -3   82.39    9.30
  -3   7  -3   83.59    9.70
  -3   7  -3   75.99   11.00
  -3   7  -3   77.89    8.60
   3  -7   3   79.49    7.80
   3  -7   3   81.79   11.10
   3  -7   3   71.39    9.00
   3  -7   3   84.29    7.10
   3  -7   3   60.79    8.00
  -4   7  -3    6.70    4.20
  -4   7  -3    1.50    5.80
  -4   7  -3    0.50    4.10
  -4   7  -3    1.00    4.10
   4  -7   3    0.20    5.50
   4  -7   3    3.90    6.50
   4  -7   3    5.60    4.30
  -5   7  -3   -7.40    6.60
  -5   7  -3    2.00    6.10
  -5   7  -3    8.70    4.40
   5  -7   3    0.80    7.00
   5  -7   3    7.90    6.20
   6  -7   3   -0.50    6.40
   6   6  -3   36.90   12.60
  -6  -6   3   23.40    4.10
  -6  -6   3   24.70    6.40
   5   6  -3    6.00   12.20
  -5  -6   3   -4.50    4.90
  -5  -6   3    2.00    2.80
  -5  -6   3    4.60    2.70
   4   6  -3   20.70    7.40
   4   6  -3   26.30   11.10
  -4  -6   3   25.60    3.70
  -4  -6   3   17.20    5.60
  -4  -6   3   24.40    4.00
  -4  -6   3   20.90    4.70
   3   6  -3   33.00    9.10
   3   6  -3   28.90    7.00
  -3  -6   3   26.10    4.60
  -3  -6   3   20.70    5.10
  -3  -6   3   24.00    3.80
  -3  -6   3   31.70    4.20
  -3  -6   3   15.00    5.10
   2   6  -3   39.10    8.80
   2   6  -3   31.70    4.40
   2   6  -3   41.80    4.50
  -2  -6   3   32.20    6.20
  -2  -6   3   39.30    5.10
  -2  -6   3   38.70    4.90
   1   6  -3   93.89    7.80
   1   6  -3   79.79    7.60
   1   6  -3   84.89    9.20
  -1  -6   3   95.19    7.80
  -1  -6   3   83.99    7.60
  -1  -6   3   65.59    8.20
   0   6  -3  203.68   15.40
   0   6  -3  206.58   15.50
   0   6  -3  196.98   14.50
   0   6  -3  221.08   15.70
   0  -6   3  206.88   16.20
   0  -6   3  203.28   15.40
  -1   6  -3   24.80    4.30
  -1   6  -3   28.50    5.20
  -1   6  -3   21.10    4.20
  -1   6  -3   33.50    4.80
   1  -6   3   24.60    4.20
   1  -6   3   21.50    4.80
   1  -6   3   29.40    4.20
   1  -6   3   38.90    5.60
  -2   6  -3   18.20    5.80
  -2   6  -3   12.60    4.60
  -2   6  -3   13.80    4.70
   2  -6   3   18.80    4.40
   2  -6   3   23.90    3.90
   2  -6   3   21.40    3.70
   2  -6   3   30.60    5.70
  -3   6  -3  613.94   48.00
  -3   6  -3  748.73   49.00
  -3   6  -3  678.33   47.40
  -3   6  -3  721.63   47.60
   3  -6   3  682.83   47.80
   3  -6   3  668.13   46.70
   3  -6   3  647.54   46.60
   3  -6   3  629.94   48.00
   3  -6   3  718.83   48.10
  -4   6  -3   13.10    5.30
  -4   6  -3    5.10    5.10
  -4   6  -3    4.10    5.70
  -4   6  -3   -3.40    4.00
   4  -6   3   -3.80    3.30
   4  -6   3    0.90    6.20
   4  -6   3    9.10    6.20
  -5   6  -3   -2.50    4.00
  -5   6  -3    4.90    5.90
  -5   6  -3   -0.90    5.90
   5  -6   3   12.00    7.40
   5  -6   3    2.20    7.00
  -6   6  -3    2.10    4.20
  -6   6  -3    4.40    5.70
   6  -6   3    2.10    6.50
   6  -6   3    6.20    7.70
   6   5  -3   22.80   10.30
  -6  -5   3   15.60    5.90
  -6  -5   3   12.10    3.20
   5   5  -3   73.29   16.40
  -5  -5   3   44.10    4.70
  -5  -5   3   34.40    4.70
  -5  -5   3   33.70    7.00
  -5  -5   3   29.30    6.30
  -5  -5   3   27.90    5.90
   4   5  -3   28.10   10.60
   4   5  -3   23.60    5.30
   4   5  -3   14.60    7.40
  -4  -5   3   28.80    4.90
  -4  -5   3   23.40    4.90
  -4  -5   3   16.90    3.30
  -4  -5   3   10.70    7.10
  -4  -5   3   22.40    3.50
   3   5  -3   32.20    4.60
   3   5  -3   25.10    6.70
   3   5  -3   35.70    9.00
  -3  -5   3   29.60    4.40
  -3  -5   3   35.80    4.50
  -3  -5   3   27.80    5.50
  -3  -5   3   29.20    5.50
  -3  -5   3   30.90    4.00
  -3  -5   3   26.80    4.50
   2   5  -3   13.40    2.40
   2   5  -3   12.00    5.50
   2   5  -3   15.90    2.90
   2   5  -3   14.20    2.40
   2   5  -3   22.70    7.00
  -2  -5   3   18.70    3.30
  -2  -5   3   13.50    3.20
  -2  -5   3   11.70    4.80
   1   5  -3  482.05   33.00
   1   5  -3  486.25   33.60
   1   5  -3  411.66   33.00
  -1  -5   3  446.56   33.00
  -1  -5   3  557.54   33.30
   0   5  -3   52.79    5.10
   0   5  -3   43.90    5.80
   0   5  -3   53.39    5.90
   0   5  -3   50.49    5.40
   0  -5   3   55.69    6.70
   0  -5   3   52.89    5.60
  -1   5  -3   97.39    9.70
  -1   5  -3   97.29    8.50
  -1   5  -3   94.49    8.70
  -1   5  -3  102.99    8.80
   1  -5   3   85.59    9.30
   1  -5   3   99.09    9.20
   1  -5   3   88.29    8.50
   1  -5   3  114.89    8.40
  -2   5  -3   28.70    4.60
  -2   5  -3   28.80    4.20
  -2   5  -3   21.80    4.10
  -2   5  -3   36.20    5.30
  -2   5  -3   26.10    5.10
   2  -5   3   27.70    6.30
   2  -5   3   30.30    6.70
   2  -5   3   23.00    3.90
   2  -5   3   22.40    4.50
   2  -5   3   28.40    3.90
  -3   5  -3  285.47   22.00
  -3   5  -3  292.07   20.50
  -3   5  -3  269.87   20.50
  -3   5  -3  273.37   20.40
  -3   5  -3  296.27   23.10
   3  -5   3  265.57   21.10
   3  -5   3  266.67   19.40
   3  -5   3  263.97   19.50
   3  -5   3  289.47   21.70
   3  -5   3  279.87   21.20
  -4   5  -3   77.89   10.30
  -4   5  -3   85.29   11.20
  -4   5  -3   73.59    8.60
   4  -5   3   85.09   10.90
   4  -5   3   70.39    9.00
   4  -5   3   94.89   11.70
  -5   5  -3   17.60    8.70
  -5   5  -3   13.80    4.60
  -5   5  -3   19.70    5.80
  -5   5  -3   26.70    4.70
   5  -5   3   29.80    8.00
  -6   5  -3   19.10    7.20
  -6   5  -3   21.30    5.00
   6  -5   3   33.50    8.10
   6  -5   3   39.30    9.30
   6   4  -3   12.40   11.00
  -6  -4   3    1.90    4.70
  -6  -4   3    8.50    2.60
   5   4  -3   55.09   12.70
   5   4  -3   35.40    7.20
  -5  -4   3   30.60    6.30
  -5  -4   3   33.10    3.90
  -5  -4   3   27.70    5.60
  -5  -4   3   31.80    7.20
  -5  -4   3   31.40    7.70
  -5  -4   3   29.30    4.60
   4   4  -3  259.97   22.60
   4   4  -3  236.18   18.50
  -4  -4   3  251.17   21.40
  -4  -4   3  244.78   18.90
  -4  -4   3  240.78   18.20
  -4  -4   3  235.18   17.10
  -4  -4   3  222.98   17.10
  -4  -4   3  234.28   18.00
   3   4  -3   37.60    9.20
   3   4  -3   21.20    4.70
   3   4  -3   25.50    6.70
  -3  -4   3   32.80    7.90
  -3  -4   3   25.60    5.10
  -3  -4   3   32.10    3.70
  -3  -4   3   27.20    5.30
  -3  -4   3   27.90    5.40
  -3  -4   3   30.20    3.60
  -3  -4   3   24.30    4.20
   2   4  -3  922.61   66.09
   2   4  -3  936.91   66.59
   2   4  -3  893.31   65.09
  -2  -4   3  981.00   65.99
  -2  -4   3 1054.59   65.29
  -2  -4   3  951.20   65.19
   1   4  -3  200.68   14.40
   1   4  -3  179.78   14.40
   1   4  -3  187.18   14.10
   1   4  -3  197.08   15.20
   1   4  -3  216.48   16.20
  -1  -4   3  205.78   14.50
  -1  -4   3  228.18   14.60
  -1  -4   3  187.38   15.00
   0   4  -3  189.78   12.70
   0   4  -3  156.18   12.30
   0   4  -3  158.78   12.10
   0  -4   3  172.58   12.40
   0  -4   3  162.48   13.00
  -1   4  -3   66.59    6.20
  -1   4  -3   71.39    6.40
  -1   4  -3   66.89    7.30
  -1   4  -3   70.69    6.90
   1  -4   3   57.19    6.90
   1  -4   3   67.09    6.70
   1  -4   3   58.39    6.00
   1  -4   3   71.39    6.10
  -2   4  -3  148.49   12.20
  -2   4  -3  138.79   12.60
  -2   4  -3  141.19   13.30
  -2   4  -3  162.88   12.30
  -2   4  -3  169.48   12.80
  -2   4  -3  166.98   12.20
   2  -4   3  172.98   13.40
   2  -4   3  152.08   12.60
   2  -4   3  159.88   11.70
   2  -4   3  154.58   11.80
   2  -4   3  171.78   12.90
  -3   4  -3    1.40    3.00
  -3   4  -3    6.20    4.10
  -3   4  -3    5.50    2.90
  -3   4  -3    3.40    3.70
  -3   4  -3    3.60    4.90
  -3   4  -3    1.40    4.10
   3  -4   3    5.00    3.10
   3  -4   3    6.40    5.00
   3  -4   3    7.10    4.60
  -4   4  -3  121.19   12.30
  -4   4  -3  115.99   10.40
  -4   4  -3  137.39   14.90
  -4   4  -3  124.19   12.30
  -4   4  -3  115.19   10.10
  -4   4  -3  122.29   11.70
   4  -4   3  109.09   12.30
   4  -4   3  128.39   13.50
   4  -4   3  109.39   11.20
  -5   4  -3   12.30    5.60
  -5   4  -3   17.00    3.90
  -5   4  -3   10.20    7.80
   5  -4   3   20.30    8.00
   5  -4   3   11.00    6.60
  -6   4  -3    5.40    6.10
  -6   4  -3    3.80    3.50
   6  -4   3   12.80    6.60
   6  -4   3   13.30    8.40
  -6  -3   3    4.50    5.00
   5   3  -3   10.00    6.40
   5   3  -3   22.90   11.30
  -5  -3   3    4.30    5.10
  -5  -3   3   15.10    2.70
  -5  -3   3   19.80    4.60
  -5  -3   3   18.70    3.00
  -5  -3   3   23.80    5.40
   4   3  -3  441.06   32.90
   4   3  -3  399.56   29.90
  -4  -3   3  367.86   28.40
  -4  -3   3  424.06   31.80
  -4  -3   3  411.06   29.50
  -4  -3   3  401.86   29.20
  -4  -3   3  412.96   28.40
  -4  -3   3  439.26   30.90
  -4  -3   3  408.76   29.80
   3   3  -3   82.29   12.50
   3   3  -3   62.19    8.50
  -3  -3   3   71.69    8.00
  -3  -3   3   74.59    7.40
  -3  -3   3   72.39    7.50
  -3  -3   3   74.09    6.20
  -3  -3   3   68.49   10.40
  -3  -3   3   73.49    8.60
  -3  -3   3   74.59    6.10
   2   3  -3  245.88   17.60
   2   3  -3  239.28   19.70
   2   3  -3  228.08   18.60
  -2  -3   3  238.38   17.00
  -2  -3   3  216.38   17.10
  -2  -3   3  236.88   19.40
  -2  -3   3  253.77   17.00
  -2  -3   3  270.47   18.60
   1   3  -3  428.76   29.10
   1   3  -3  395.06   29.10
   1   3  -3  429.66   29.20
   1   3  -3  426.06   29.60
   1   3  -3  412.26   30.40
  -1  -3   3  401.06   29.20
  -1  -3   3  462.05   29.20
  -1  -3   3  428.06   29.50
   0   3  -3  272.67   20.60
   0   3  -3  278.47   20.70
   0  -3   3  308.67   20.60
   0  -3   3  295.07   21.00
   0  -3   3  279.87   20.60
   0  -3   3  326.87   20.70
  -1   3  -3   63.39    5.70
  -1   3  -3   50.79    6.30
  -1   3  -3   56.59    6.00
  -1   3  -3   40.40    5.30
  -1   3  -3   70.49    6.40
   1  -3   3   47.40    5.30
   1  -3   3   40.10    5.80
   1  -3   3   71.19    6.40
   1  -3   3   78.69    7.10
   1  -3   3   71.99    5.40
  -2   3  -3  990.60   65.19
  -2   3  -3  981.40   64.79
  -2   3  -3  967.80   64.89
  -2   3  -3  839.82   65.09
  -2   3  -3  908.61   64.79
  -2   3  -3 1003.90   65.29
   2  -3   3  991.20   65.19
   2  -3   3  992.90   65.39
   2  -3   3  914.71   65.09
   2  -3   3  958.30   64.49
   2  -3   3  906.81   64.49
  -3   3  -3   19.90    4.70
  -3   3  -3   23.00    4.10
  -3   3  -3   17.80    3.40
  -3   3  -3   16.30    5.20
  -3   3  -3   17.50    4.60
  -3   3  -3   17.20    3.10
  -3   3  -3   16.10    4.70
   3  -3   3   10.70    3.10
   3  -3   3   17.30    5.30
   3  -3   3   13.80    4.90
  -4   3  -3   68.89    7.30
  -4   3  -3   67.89   10.10
  -4   3  -3   70.99    7.00
  -4   3  -3   96.79   12.90
  -4   3  -3   69.69   10.30
  -4   3  -3   68.79    9.10
   4  -3   3   90.29   11.40
   4  -3   3   80.79   10.00
  -5   3  -3   63.89    6.80
  -5   3  -3   54.19    6.40
  -5   3  -3   57.09    8.20
   5  -3   3   68.09   10.50
   5  -3   3   61.39    9.50
  -6   3  -3    2.80    3.30
  -6   3  -3   -1.50    4.60
  -6   3  -3   -5.70    3.60
   6  -3   3    0.60    7.50
   6  -3   3    3.90    6.50
   6   2  -3    1.80    7.00
  -6  -2   3    4.00    5.60
  -6  -2   3    2.40    2.70
  -6  -2   3    1.80    2.70
   5   2  -3   41.70   11.00
   5   2  -3   32.20    7.70
  -5  -2   3   16.40    5.00
  -5  -2   3   30.90    3.80
  -5  -2   3   32.10    3.90
  -5  -2   3   29.30    7.60
  -5  -2   3   39.80    7.40
   4   2  -3  101.59   15.10
   4   2  -3   82.79   10.80
  -4  -2   3   84.49    9.80
  -4  -2   3   91.39    7.30
  -4  -2   3   85.59    8.50
  -4  -2   3   85.49    9.30
  -4  -2   3  106.79   13.10
  -4  -2   3   91.79   10.60
  -4  -2   3   84.69    7.30
   3   2  -3    1.70    7.50
   3   2  -3    5.90    4.70
  -3  -2   3   10.10    3.60
  -3  -2   3    8.70    6.40
  -3  -2   3    9.00    3.70
  -3  -2   3    6.50    4.20
  -3  -2   3    5.10    2.30
  -3  -2   3   13.30    3.10
  -3  -2   3    9.90    2.40
   2   2  -3  187.88   16.30
   2   2  -3  204.18   14.40
  -2  -2   3  160.98   18.10
  -2  -2   3  171.18   19.80
  -2  -2   3  207.78   13.50
  -2  -2   3  192.88   13.50
  -2  -2   3  185.48   14.10
  -2  -2   3  186.08   13.60
  -2  -2   3  176.78   14.10
   1   2  -3 4302.07  297.57
   1   2  -3 4412.26  297.67
   1   2  -3 4225.28  298.17
  -1  -2   3 4351.86  297.67
  -1  -2   3 4820.52  297.77
  -1  -2   3 4358.46  297.87
   0   2  -3  160.18   11.90
   0   2  -3  181.18   12.20
   0   2  -3  164.08   12.10
   0  -2   3  166.58   11.90
   0  -2   3  163.78   12.20
  -1   2  -3 2424.36  165.78
  -1   2  -3 2293.87  165.68
  -1   2  -3 2542.45  165.78
  -1   2  -3 2430.76  165.98
  -1   2  -3 2434.96  165.88
   1  -2   3 2377.26  165.68
   1  -2   3 2366.46  165.78
   1  -2   3 2680.33  165.68
   1  -2   3 2542.45  165.58
   1  -2   3 2458.85  165.98
   1  -2   3 2423.96  165.78
  -2   2  -3  810.82   53.09
  -2   2  -3  754.92   52.59
  -2   2  -3  719.13   52.49
  -2   2  -3  766.12   53.59
  -2   2  -3  828.22   53.69
  -2   2  -3  783.82   52.89
   2  -2   3  760.72   52.79
   2  -2   3  755.72   53.09
   2  -2   3  774.32   53.29
   2  -2   3  763.72   52.89
  -3   2  -3    6.60    4.50
  -3   2  -3    6.70    2.40
  -3   2  -3    9.80    2.60
  -3   2  -3   10.50    4.10
  -3   2  -3    7.30    4.30
  -3   2  -3   13.30    3.60
  -3   2  -3    7.70    5.90
   3  -2   3    0.50    4.30
   3  -2   3    5.20    5.00
   3  -2   3    7.70    3.00
  -4   2  -3   36.70    4.40
  -4   2  -3   38.80   11.40
  -4   2  -3   36.50    4.60
  -4   2  -3   41.70    7.90
  -4   2  -3   37.00    5.90
  -4   2  -3   45.30    6.70
  -4   2  -3   41.60    6.90
   4  -2   3   45.50    8.10
   4  -2   3   40.70    6.80
  -5   2  -3   27.70    3.80
  -5   2  -3   30.50    6.10
  -5   2  -3   39.60    5.10
   5  -2   3   34.00    7.90
   5  -2   3   40.90    8.90
  -6   2  -3   -0.40    4.80
  -6   2  -3    2.60    3.00
   6  -2   3   10.50    8.40
   6  -2   3    5.30    7.00
   6   1  -3   74.89   10.30
  -6  -1   3   62.99    9.80
  -6  -1   3   56.99    6.20
  -6  -1   3   50.09    6.10
   5   1  -3  173.98   16.30
  -5  -1   3  166.28   13.60
  -5  -1   3  150.48   13.90
  -5  -1   3  163.58   12.40
  -5  -1   3  179.88   16.20
  -5  -1   3  157.38   12.40
   4   1  -3   14.10    6.10
   4   1  -3   15.30    4.70
   4   1  -3   10.40    9.50
  -4  -1   3   11.50    2.80
  -4  -1   3   24.30    8.40
  -4  -1   3   20.80    5.20
  -4  -1   3   19.00    4.50
  -4  -1   3   16.50    6.40
  -4  -1   3   13.00    2.80
  -4  -1   3    6.10    4.70
   3   1  -3   14.50    7.60
   3   1  -3   10.60    3.70
   3   1  -3   10.80    5.10
  -3  -1   3   17.40    4.30
  -3  -1   3   14.90    2.80
  -3  -1   3   14.80    5.80
  -3  -1   3   11.60    4.70
  -3  -1   3   14.60    4.00
  -3  -1   3    9.60    3.60
  -3  -1   3   18.60    3.40
  -3  -1   3   19.30    2.60
   2   1  -3   99.19    8.20
   2   1  -3  111.89    9.40
   2   1  -3  107.59   11.70
  -2  -1   3  121.29   11.20
  -2  -1   3  104.79   12.10
  -2  -1   3  101.59    8.10
  -2  -1   3  115.59    8.00
  -2  -1   3   86.09    8.50
  -2  -1   3   99.49    9.00
  -2  -1   3  106.99    8.00
   1   1  -3 1336.97   95.49
   1   1  -3 1451.65   95.59
   1   1  -3 1385.26   96.29
  -1  -1   3 1376.26   96.09
  -1  -1   3 1398.06   95.59
  -1  -1   3 1518.45   95.59
   0   1  -3  618.34   43.10
   0   1  -3  611.74   42.90
   0   1  -3  646.84   43.10
   0  -1   3  704.93   43.10
   0  -1   3  612.24   43.00
   0  -1   3  608.54   43.10
   0  -1   3  622.84   42.90
  -1   1  -3 5775.12  389.06
  -1   1  -3 6072.89  388.86
  -1   1  -3 5540.95  389.06
  -1   1  -3 5372.16  388.66
  -1   1  -3 6016.20  388.86
   1  -1   3 6466.85  388.86
   1  -1   3 5732.43  388.86
   1  -1   3 5710.13  388.66
   1  -1   3 5600.24  388.96
   1  -1   3 5563.24  388.76
   1  -1   3 5568.64  389.06
  -2   1  -3  251.97   16.20
  -2   1  -3  171.88   19.80
  -2   1  -3  245.58   17.30
  -2   1  -3  217.48   16.40
  -2   1  -3  231.98   18.10
  -2   1  -3  240.18   16.10
   2  -1   3  234.48   17.60
   2  -1   3  224.58   16.20
   2  -1   3  228.48   17.30
   2  -1   3  229.38   17.20
  -3   1  -3   29.50    7.10
  -3   1  -3   28.70    3.30
  -3   1  -3   30.10    5.60
  -3   1  -3   27.60    5.40
  -3   1  -3   27.90    5.40
  -3   1  -3   27.20    3.60
  -3   1  -3   31.00    5.70
  -3   1  -3   26.20    4.50
   3  -1   3   37.60    5.70
   3  -1   3   34.80    6.00
   3  -1   3   28.00    6.40
  -4   1  -3   -0.20    3.90
  -4   1  -3    5.90    4.90
  -4   1  -3    9.80    6.90
  -4   1  -3    0.40    4.80
  -4   1  -3    6.80    5.50
  -4   1  -3    4.80    2.20
  -4   1  -3    5.80    2.30
  -4   1  -3    0.30    6.40
   4  -1   3   12.20    6.30
   4  -1   3    4.70    4.90
   4  -1   3    1.60    5.60
  -5   1  -3   14.40    4.40
  -5   1  -3   12.80    2.90
  -5   1  -3   15.60    2.90
   5  -1   3   14.00    8.20
   5  -1   3   13.80    7.10
  -6   1  -3   20.90    3.40
  -6   1  -3   18.30    5.70
   6  -1   3   41.70    9.40
   6   0  -3  104.89   12.10
  -6   0   3  109.29   12.70
  -6   0   3   77.29    7.30
  -6   0   3   58.99    7.70
   5   0  -3   98.89   12.90
  -5   0   3   85.19    9.30
  -5   0   3  104.49   12.40
  -5   0   3   79.59    7.90
  -5   0   3   83.79    8.30
  -5   0   3   81.29    8.90
   4   0  -3   49.60    6.90
   4   0  -3   56.29   10.60
   4   0  -3   52.79    7.80
  -4   0   3   66.99   10.80
  -4   0   3   44.20    8.20
  -4   0   3   50.59    6.30
  -4   0   3   50.79    7.00
  -4   0   3   44.40    5.60
  -4   0   3   51.49    8.00
  -4   0   3   49.30    5.50
   3   0  -3   56.29    7.60
   3   0  -3   66.89    8.70
   3   0  -3   60.69    7.00
   3   0  -3   68.39   10.50
  -3   0   3   69.29    6.30
  -3   0   3   62.29    8.50
  -3   0   3   75.99    7.90
  -3   0   3   60.29    5.90
  -3   0   3   66.29    8.50
  -3   0   3   50.09    6.10
  -3   0   3   64.89    6.60
  -3   0   3   73.29    8.80
   2   0  -3  670.83   48.30
   2   0  -3  663.13   48.20
   2   0  -3  724.33   48.80
   2   0  -3  742.73   48.00
   2   0  -3  637.24   47.90
   2   0  -3  722.03   49.80
  -2   0   3  701.63   48.10
  -2   0   3  732.13   48.30
  -2   0   3  690.83   48.30
  -2   0   3  729.23   48.70
  -2   0   3  762.02   49.50
  -2   0   3  718.73   50.59
   1   0  -3 1240.78   82.79
   1   0  -3 1189.18   83.29
   1   0  -3 1211.68   82.59
   1   0  -3 1206.48   82.69
  -1   0   3 1162.88   83.09
  -1   0   3 1197.28   82.69
  -1   0   3 1273.07   82.79
  -1   0   3 1268.77   83.29
   0   0  -3 1305.27   93.99
   0   0  -3 1311.87   93.99
   0   0  -3 1406.56   94.19
   0   0  -3 1367.96   94.19
   0   0   3 1347.07   93.99
   0   0   3 1400.26   94.09
   0   0   3 1487.75   94.19
   0   0   3 1491.25   94.19
  -1   0  -3  327.37   23.10
  -1   0  -3  324.17   23.50
  -1   0  -3  357.46   23.10
  -1   0  -3  312.17   23.60
   1   0   3  345.17   23.00
   1   0   3  318.07   23.80
   1   0   3  357.86   22.90
   1   0   3  313.17   23.90
  -2   0  -3   96.99   12.80
  -2   0  -3  106.69   11.10
  -2   0  -3  124.09    8.60
  -2   0  -3  107.79   11.90
  -2   0  -3  120.39   10.00
  -2   0  -3  114.99    8.70
  -2   0  -3  119.79    8.70
   2   0   3  118.59   10.40
   2   0   3  111.89   10.70
   2   0   3  120.59   10.50
  -3   0  -3   69.09    8.50
  -3   0  -3   64.39    8.70
  -3   0  -3   72.29    6.90
  -3   0  -3   59.79    5.60
  -3   0  -3   66.39    8.10
  -3   0  -3   69.69    5.70
  -3   0  -3   69.79    9.60
  -3   0  -3   65.99    8.90
   3   0   3   72.19    9.10
   3   0   3   74.69    9.70
   3   0   3   85.19   13.00
  -4   0  -3   32.20    7.60
  -4   0  -3   42.50    9.10
  -4   0  -3   25.00    3.20
  -4   0  -3   18.90    4.40
  -4   0  -3   21.00    8.60
  -4   0  -3   25.60    5.30
  -4   0  -3   26.90    6.10
   4   0   3   27.10    7.60
   4   0   3   35.00    6.60
   4   0   3   27.10    6.80
  -5   0  -3   26.80    5.70
   5   0   3   31.60    8.50
  -6   0  -3   53.29    7.40
   6  -1  -3   20.40    7.40
   6  -1  -3   15.30    7.50
  -6   1   3   13.50    3.80
  -6   1   3    8.60    6.20
  -6   1   3    5.80    4.20
   5  -1  -3   31.60    6.80
   5  -1  -3   39.20    8.50
  -5   1   3   37.90    8.20
  -5   1   3   34.40    5.20
  -5   1   3   30.80    4.80
   4  -1  -3   28.60    5.70
   4  -1  -3   28.60    6.40
   4  -1  -3   28.90    7.00
  -4   1   3   28.80    4.30
  -4   1   3   31.20    6.80
  -4   1   3   27.60    4.50
  -4   1   3   30.30    6.20
  -4   1   3   27.90    7.10
   3  -1  -3  168.38   13.40
   3  -1  -3  174.18   16.60
   3  -1  -3  173.58   14.70
   3  -1  -3  179.98   13.80
  -3   1   3  183.68   16.50
  -3   1   3  160.68   13.20
  -3   1   3  184.08   15.30
  -3   1   3  179.68   14.10
  -3   1   3  161.08   13.10
   2  -1  -3  206.98   14.00
   2  -1  -3  200.68   15.60
   2  -1  -3  190.28   14.20
   2  -1  -3  213.78   15.10
   2  -1  -3  173.08   13.90
   2  -1  -3  190.88   16.90
   2  -1  -3  208.48   14.40
  -2   1   3  189.88   14.40
  -2   1   3  195.48   15.60
  -2   1   3  189.68   14.40
  -2   1   3  198.68   15.00
   1  -1  -3   26.40    5.10
   1  -1  -3   11.90    3.30
   1  -1  -3   16.90    2.90
   1  -1  -3   17.00    3.10
  -1   1   3   15.30    3.10
  -1   1   3   13.40    3.40
  -1   1   3   17.80    4.70
  -1   1   3   16.60    3.10
   0  -1  -3   15.80    3.40
   0  -1  -3   14.80    3.60
   0  -1  -3   18.00    3.50
   0  -1  -3   13.90    3.40
   0   1   3   16.60    3.20
   0   1   3   16.10    3.10
   0   1   3   16.20    3.70
  -1  -1  -3   53.09    5.70
  -1  -1  -3   56.89    6.40
  -1  -1  -3   47.90    6.60
  -1  -1  -3   54.99    5.20
  -1  -1  -3   49.99    5.20
   1   1   3   48.40    7.00
   1   1   3   60.99    4.70
   1   1   3   55.49    5.00
  -2  -1  -3   53.09    7.60
  -2  -1  -3   47.50    4.80
  -2  -1  -3   43.10    7.50
  -2  -1  -3   49.60    4.80
  -2  -1  -3   53.89    6.20
   2   1   3   49.99    6.60
   2   1   3   52.99    7.00
  -3  -1  -3  326.47   24.20
  -3  -1  -3  333.97   23.60
  -3  -1  -3  330.97   23.00
  -3  -1  -3  341.27   23.10
  -3  -1  -3  339.97   25.10
  -3  -1  -3  321.47   25.30
  -3  -1  -3  326.47   24.60
   3   1   3  330.97   25.10
   3   1   3  346.97   25.40
  -4  -1  -3   23.60    5.70
  -4  -1  -3   29.20    6.80
  -4  -1  -3   24.70    7.90
  -4  -1  -3   20.40    4.40
  -4  -1  -3   35.40    7.60
   4   1   3   16.10    6.90
   4   1   3   31.40    7.60
   5   1   3   13.50    7.90
  -6  -1  -3   26.80    5.80
   6  -2  -3   19.70    8.70
   6  -2  -3   27.70    7.80
  -6   2   3   23.70    4.40
  -6   2   3    8.80    6.30
   5  -2  -3   16.50    5.60
   5  -2  -3   14.50    7.70
   5  -2  -3    7.00    5.40
  -5   2   3    9.60    3.20
  -5   2   3    6.50    6.10
  -5   2   3    1.80    4.00
   4  -2  -3   -0.30    4.40
   4  -2  -3    2.90    5.80
   4  -2  -3   -0.60    5.10
  -4   2   3    2.30    5.20
  -4   2   3   -3.40    5.60
  -4   2   3   -7.00    8.70
  -4   2   3    8.10    5.10
  -4   2   3    4.60    3.40
  -4   2   3    2.40    3.00
   3  -2  -3   77.49    8.10
   3  -2  -3   74.79    8.00
   3  -2  -3   64.09    8.60
   3  -2  -3   81.59    9.60
  -3   2   3   75.49    7.60
  -3   2   3   85.09   10.00
  -3   2   3   78.69    7.20
  -3   2   3   75.29    7.60
  -3   2   3   66.49   10.90
   2  -2  -3  220.68   16.90
   2  -2  -3  251.47   17.30
   2  -2  -3  258.07   17.00
   2  -2  -3  248.28   17.90
   2  -2  -3  232.48   18.30
   2  -2  -3  231.38   16.90
  -2   2   3  231.68   17.60
  -2   2   3  243.28   18.50
  -2   2   3  218.68   19.40
  -2   2   3  227.38   17.40
  -2   2   3  225.68   17.20
   1  -2  -3   66.59    6.60
   1  -2  -3   69.99    6.60
   1  -2  -3   78.19    7.30
   1  -2  -3   69.59    7.30
  -1   2   3   63.09    6.60
  -1   2   3   65.29    8.00
  -1   2   3   79.39    7.40
  -1   2   3   71.69    6.90
   0  -2  -3  304.87   23.00
   0  -2  -3  324.07   23.00
   0  -2  -3  321.47   23.10
   0   2   3  358.96   23.20
   0   2   3  334.67   23.10
   0   2   3  314.37   23.00
  -1  -2  -3 1043.40   74.69
  -1  -2  -3 1017.30   75.09
  -1  -2  -3 1097.79   74.69
  -1  -2  -3 1134.79   74.49
   1   2   3 1067.09   74.49
   1   2   3 1058.89   74.49
   1   2   3 1257.77   74.59
  -2  -2  -3    7.50    4.40
  -2  -2  -3    5.40    2.40
  -2  -2  -3    2.80    2.00
  -2  -2  -3    3.40    3.50
  -2  -2  -3    0.40    2.20
  -2  -2  -3    7.40    4.00
   2   2   3    0.10    4.80
  -3  -2  -3  107.99   11.30
  -3  -2  -3  120.29   11.50
  -3  -2  -3   99.99   10.70
  -3  -2  -3  107.19    8.60
  -3  -2  -3  112.69    8.50
  -3  -2  -3  116.09   10.10
   3   2   3  101.49   11.70
  -4  -2  -3  123.29    9.90
  -4  -2  -3  116.39    9.90
  -4  -2  -3  129.79   12.30
  -4  -2  -3  150.68   13.60
  -4  -2  -3  140.29   11.30
  -4  -2  -3  131.49   12.20
  -4  -2  -3  148.19   13.50
   4   2   3  122.19   14.10
  -5  -2  -3   32.30    6.70
   5   2   3   33.10    9.00
  -6  -2  -3   26.90    5.40
   6  -3  -3   30.80    6.70
   6  -3  -3   16.40    7.80
   6  -3  -3   31.60   13.00
  -6   3   3   15.30    4.60
  -6   3   3   19.10    6.90
   5  -3  -3   78.49   10.80
   5  -3  -3   85.59   12.50
   5  -3  -3   80.49    9.30
  -5   3   3   72.99   11.00
  -5   3   3   78.89    9.10
  -5   3   3   75.39    8.60
   4  -3  -3   53.89    7.00
   4  -3  -3   45.10    7.10
   4  -3  -3   53.89    8.10
  -4   3   3   45.20    5.60
  -4   3   3   51.59   12.00
  -4   3   3   43.60    8.20
  -4   3   3   44.70    7.70
  -4   3   3   40.40    6.50
   3  -3  -3   11.00    4.00
   3  -3  -3   23.00    4.50
   3  -3  -3   26.70    4.80
   3  -3  -3   16.80    5.50
   3  -3  -3   16.00    2.90
   3  -3  -3   23.00    3.20
  -3   3   3   22.20    5.70
  -3   3   3   27.60    4.40
  -3   3   3   27.30    4.70
  -3   3   3   17.80    3.80
  -3   3   3   21.70    6.50
   2  -3  -3  257.87   19.70
   2  -3  -3  254.17   20.80
   2  -3  -3  288.47   20.40
   2  -3  -3  279.57   19.80
  -2   3   3  294.47   21.40
  -2   3   3  271.07   19.90
  -2   3   3  284.37   20.20
  -2   3   3  265.87   21.60
   1  -3  -3  125.19   10.20
   1  -3  -3  114.19   10.00
   1  -3  -3  119.69    9.80
   1  -3  -3  122.89   10.60
  -1   3   3  119.19   10.80
  -1   3   3  118.49   11.10
  -1   3   3  117.39   10.10
  -1   3   3  124.59   10.70
   0  -3  -3  840.02   60.59
   0  -3  -3  887.31   60.79
   0  -3  -3  876.91   60.69
   0   3   3  971.20   60.79
   0   3   3  840.52   60.59
   0   3   3  891.01   60.59
  -1  -3  -3 1464.95   97.99
  -1  -3  -3 1437.26   98.09
  -1  -3  -3 1364.16   97.99
  -1  -3  -3 1452.85   99.19
   1   3   3 1401.86   97.89
   1   3   3 1607.64   98.19
   1   3   3 1362.76   97.79
  -2  -3  -3   20.00    4.70
  -2  -3  -3   24.20    5.20
  -2  -3  -3   22.90    3.50
  -2  -3  -3   26.00    3.90
  -2  -3  -3   23.20    4.80
  -2  -3  -3   28.10    3.60
   2   3   3   27.50   11.00
  -3  -3  -3  110.69   10.60
  -3  -3  -3   97.29   11.40
  -3  -3  -3  104.59    8.60
  -3  -3  -3   99.09   11.30
  -3  -3  -3  105.29    8.80
  -3  -3  -3  102.19    8.40
  -3  -3  -3  103.99    9.80
   3   3   3  104.09   12.10
  -4  -3  -3   33.90    5.90
  -4  -3  -3   33.10    4.20
  -4  -3  -3   37.10    6.30
  -4  -3  -3   54.69    8.00
  -4  -3  -3   40.10    4.30
  -4  -3  -3   23.80    5.00
   4   3   3   38.50    8.80
  -5  -3  -3   14.10    3.10
  -5  -3  -3   21.10    6.20
  -5  -3  -3   18.40    2.90
   5   3   3   20.80    8.20
  -6  -3  -3   41.50    6.10
   6   3   3   47.90   10.20
   6  -4  -3   -5.80    5.70
   6  -4  -3   13.30    7.90
   6  -4  -3    5.30    6.20
  -6   4   3    9.80    4.10
  -6   4   3    2.70    7.10
   5  -4  -3   40.20    9.00
   5  -4  -3   33.00    7.50
   5  -4  -3   43.70    6.50
  -5   4   3   33.20    6.30
  -5   4   3   28.80    7.30
  -5   4   3   36.60    9.80
   4  -4  -3   44.50    6.80
   4  -4  -3   37.60   11.20
   4  -4  -3   38.10    7.50
  -4   4   3   43.20    6.40
  -4   4   3   41.00    5.60
  -4   4   3   36.10    7.60
   3  -4  -3   93.29    9.30
   3  -4  -3  115.49   10.10
   3  -4  -3  102.59   10.80
   3  -4  -3   89.89    8.20
   3  -4  -3   89.19    8.10
   3  -4  -3   83.09   10.20
  -3   4   3   83.19    9.00
  -3   4   3   91.59   11.00
  -3   4   3   92.89    9.60
  -3   4   3   99.59   11.70
  -3   4   3  106.79    8.90
   2  -4  -3  143.99   12.40
   2  -4  -3  155.78   12.40
   2  -4  -3  158.68   13.00
   2  -4  -3  165.68   14.10
  -2   4   3  155.88   14.80
  -2   4   3  148.69   12.70
  -2   4   3  162.88   13.50
  -2   4   3  167.38   14.10
   1  -4  -3  110.69    9.70
   1  -4  -3  105.29    9.20
   1  -4  -3   86.09    9.00
   1  -4  -3   94.79    8.80
  -1   4   3   87.19    8.70
  -1   4   3   98.49    9.20
  -1   4   3   97.39    9.80
  -1   4   3   89.09    9.90
   0  -4  -3  145.99   11.60
   0  -4  -3  122.79   11.30
   0  -4  -3  146.19   11.60
   0   4   3  137.49   11.60
   0   4   3  135.19   11.60
   0   4   3  152.08   12.00
  -1  -4  -3  111.09    9.70
  -1  -4  -3  118.99    9.50
  -1  -4  -3  108.49    9.50
   1   4   3  124.99    9.90
   1   4   3  104.49    9.30
   1   4   3  109.09    9.20
  -2  -4  -3   97.39    9.50
  -2  -4  -3  105.79    8.60
  -2  -4  -3  102.59    8.90
  -2  -4  -3   97.79    8.30
   2   4   3   79.19    9.20
   2   4   3   99.49   11.70
  -3  -4  -3  105.69    9.40
  -3  -4  -3   98.99    8.80
  -3  -4  -3  106.79    8.80
  -3  -4  -3  111.89   12.10
  -3  -4  -3   88.99    8.30
  -3  -4  -3   75.19   10.90
   3   4   3  104.89   12.60
  -4  -4  -3  152.88   12.30
  -4  -4  -3  154.58   13.10
  -4  -4  -3  186.68   12.80
  -4  -4  -3  162.38   14.00
  -4  -4  -3  165.18   15.30
   4   4   3  143.19   16.70
  -5  -4  -3    9.10    4.00
  -5  -4  -3    8.50    3.00
  -5  -4  -3    3.70    3.70
  -5  -4  -3   11.80    3.00
   5   4   3    3.60    7.90
  -6  -4  -3   -7.40    3.80
   6   4   3   13.00    7.60
   6  -5  -3   -2.50    6.80
   6  -5  -3    3.40    6.20
   6  -5  -3    3.10    5.70
  -6   5   3   13.70    4.80
  -6   5   3   -1.90    6.70
   5  -5  -3   21.10    4.90
   5  -5  -3   24.00    6.80
   5  -5  -3   18.10    7.50
  -5   5   3   25.20    5.70
  -5   5   3   15.70    7.40
   4  -5  -3  193.78   15.60
   4  -5  -3  216.48   18.40
   4  -5  -3  238.58   19.10
   4  -5  -3  249.18   18.00
   4  -5  -3  186.98   15.60
  -4   5   3  237.88   17.70
  -4   5   3  243.48   18.20
  -4   5   3  263.27   20.60
   3  -5  -3  201.48   15.60
   3  -5  -3  197.38   16.50
   3  -5  -3  211.38   17.00
   3  -5  -3  209.28   16.10
   3  -5  -3  176.58   15.40
   3  -5  -3  199.58   17.20
  -3   5   3  203.18   17.50
  -3   5   3  219.28   18.40
  -3   5   3  187.68   16.00
  -3   5   3  220.48   16.60
   2  -5  -3   15.30    4.10
   2  -5  -3   14.10    4.80
   2  -5  -3   17.30    4.10
   2  -5  -3   13.40    3.90
  -2   5   3   22.70    4.10
  -2   5   3   22.60    6.50
  -2   5   3   15.80    4.70
  -2   5   3   11.30    4.90
   1  -5  -3    6.50    3.50
   1  -5  -3    4.40    3.60
   1  -5  -3    3.30    3.40
   1  -5  -3    2.00    3.00
  -1   5   3    5.30    4.20
  -1   5   3    3.20    2.60
  -1   5   3    8.40    5.10
  -1   5   3    5.50    3.80
   0  -5  -3  150.58   13.20
   0  -5  -3  184.88   15.60
   0  -5  -3  151.38   12.80
   0   5   3  145.99   12.90
   0   5   3  179.98   13.70
   0   5   3  169.48   13.10
  -1  -5  -3    7.70    3.40
  -1  -5  -3    9.60    4.30
  -1  -5  -3    4.30    3.30
   1   5   3    0.10    3.50
   1   5   3    2.80    3.10
   1   5   3    1.70    3.20
  -2  -5  -3   56.39    6.90
  -2  -5  -3   75.29    7.40
  -2  -5  -3   73.29    8.10
  -2  -5  -3   70.19    7.30
   2   5   3   61.39    6.10
   2   5   3   64.69    5.50
   2   5   3   84.09   10.10
  -3  -5  -3  168.48   13.40
  -3  -5  -3  172.08   13.80
  -3  -5  -3  157.98   14.70
  -3  -5  -3  188.08   13.60
  -3  -5  -3  183.88   13.70
   3   5   3  158.78   14.70
   3   5   3  159.98   16.90
  -4  -5  -3  108.79   11.20
  -4  -5  -3  115.39   10.80
  -4  -5  -3  119.09   10.00
  -4  -5  -3  144.79   10.50
   4   5   3  113.49   14.80
  -5  -5  -3  -15.60    8.90
  -5  -5  -3    6.30    3.00
  -5  -5  -3    2.70    2.90
  -5  -5  -3    2.30    3.50
  -5  -5  -3    2.00    3.50
   5   5   3   -6.20    7.50
   5  -6  -3   21.00    5.40
   5  -6  -3   12.80    7.10
  -5   6   3   21.00    6.00
  -5   6   3   13.30    7.70
   4  -6  -3   34.60    7.70
   4  -6  -3   31.30    6.40
   4  -6  -3   20.80    6.70
   4  -6  -3   23.60    5.40
  -4   6   3   36.60    8.40
  -4   6   3   24.00    6.20
   3  -6  -3   70.59    7.80
   3  -6  -3   69.19    8.20
   3  -6  -3   81.59   10.80
   3  -6  -3   66.89   10.00
   3  -6  -3   89.29   10.40
  -3   6   3   84.09   11.60
  -3   6   3   83.79    8.70
  -3   6   3   73.59    9.80
  -3   6   3   80.99   12.50
   2  -6  -3    2.40    3.40
   2  -6  -3    7.80    4.20
   2  -6  -3    5.70    4.50
   2  -6  -3    3.80    3.90
  -2   6   3   -4.70    4.30
  -2   6   3    3.90    3.40
  -2   6   3    4.00    4.30
  -2   6   3    3.20    6.10
   1  -6  -3   55.69    6.20
   1  -6  -3   43.20    5.80
   1  -6  -3   55.29    7.40
   1  -6  -3   49.20    6.40
  -1   6   3   47.50    5.80
  -1   6   3   45.80    7.30
  -1   6   3   59.39    7.50
   0  -6  -3   64.69    7.40
   0  -6  -3   69.59    7.80
   0  -6  -3   61.89    7.00
   0  -6  -3   60.89    8.00
   0   6   3   70.49    8.90
   0   6   3   62.89    7.60
   0   6   3   80.49    8.10
  -1  -6  -3   14.10    4.00
  -1  -6  -3    6.50    3.50
  -1  -6  -3   16.20    4.20
   1   6   3   10.00    4.30
   1   6   3   15.90    3.70
   1   6   3   10.80    5.50
  -2  -6  -3  446.06   31.40
  -2  -6  -3  472.45   31.60
  -2  -6  -3  430.66   33.10
  -2  -6  -3  427.76   31.30
   2   6   3  411.96   33.00
   2   6   3  428.46   30.30
   2   6   3  446.06   30.50
  -3  -6  -3   11.60    4.10
  -3  -6  -3   16.40    3.60
  -3  -6  -3   17.40    4.20
  -3  -6  -3   16.30    4.40
   3   6   3   11.50    7.70
   3   6   3   13.80    5.00
  -4  -6  -3    5.30    4.30
  -4  -6  -3   -2.40    3.90
  -4  -6  -3    7.90    3.10
  -4  -6  -3    8.40    4.00
   4   6   3    1.00    7.50
  -5  -6  -3   73.49    6.90
  -5  -6  -3   53.19    7.00
  -5  -6  -3   33.70    7.30
  -5  -6  -3   56.09    7.80
   5   6   3   74.49   11.30
   5  -7  -3    9.50    5.00
   5  -7  -3   -0.40    6.20
   5  -7  -3   -6.60    6.50
  -5   7   3    0.30    5.00
  -5   7   3  -13.60    5.30
   4  -7  -3   63.89    9.40
   4  -7  -3   47.10    5.90
   4  -7  -3   65.49    8.50
   4  -7  -3   57.39    6.10
  -4   7   3   64.39    8.90
  -4   7   3   67.89   10.70
   3  -7  -3  140.89   13.60
   3  -7  -3  136.79   13.60
   3  -7  -3  133.09   13.30
   3  -7  -3  129.39   11.30
   3  -7  -3  118.49   11.70
  -3   7   3  158.48   15.60
  -3   7   3  122.09   15.10
  -3   7   3  128.69   13.20
   2  -7  -3   23.10    3.60
   2  -7  -3   17.40    5.30
   2  -7  -3   10.60    5.10
   2  -7  -3   14.00    5.20
  -2   7   3   11.70    4.40
  -2   7   3   11.30    5.30
  -2   7   3   13.80    7.90
  -2   7   3   13.10    6.00
   1  -7  -3  219.88   16.50
   1  -7  -3  184.18   16.80
   1  -7  -3  190.58   15.70
   1  -7  -3  206.78   19.40
  -1   7   3  198.48   17.50
  -1   7   3  218.08   17.00
  -1   7   3  207.18   18.00
   0  -7  -3  385.76   29.90
   0  -7  -3  391.26   31.00
   0  -7  -3  420.46   30.70
   0  -7  -3  467.45   31.20
   0   7   3  455.45   31.00
   0   7   3  409.56   30.50
   0   7   3  459.75   31.80
  -1  -7  -3   93.69    9.00
  -1  -7  -3   90.79    9.60
  -1  -7  -3   87.69    9.50
   1   7   3   88.99    9.10
   1   7   3   75.49    8.90
   1   7   3   94.89   10.30
  -2  -7  -3  133.39   13.20
  -2  -7  -3  129.39   11.90
  -2  -7  -3  133.09   11.90
  -2  -7  -3  128.89   11.50
   2   7   3  120.59    9.70
   2   7   3  121.89   10.40
   2   7   3  119.89   14.90
  -3  -7  -3   18.00    4.30
  -3  -7  -3    8.40    3.70
  -3  -7  -3   10.80    4.50
  -3  -7  -3   12.40    3.70
   3   7   3   11.80    4.90
   3   7   3   10.40    7.40
  -4  -7  -3   32.70    5.20
  -4  -7  -3   33.00    5.10
  -4  -7  -3   24.70    5.20
   4   7   3   29.40    9.40
  -5  -7  -3   31.00    5.20
   5   7   3   43.00    9.60
   5  -8  -3    7.30    5.40
   5  -8  -3   12.60    6.00
   5  -8  -3   17.60    6.90
  -5   8   3  -10.70    6.30
  -5   8   3    2.10    5.10
   4  -8  -3   32.70    7.50
   4  -8  -3   22.50    4.70
   4  -8  -3   34.90    7.30
   4  -8  -3   35.00    7.40
  -4   8   3   23.20    8.60
  -4   8   3   23.30    7.10
   3  -8  -3   15.50    4.00
   3  -8  -3   17.50    6.90
   3  -8  -3   14.30    4.50
   3  -8  -3   19.90    6.00
  -3   8   3   17.30    6.60
  -3   8   3    6.10    5.60
   2  -8  -3    5.00    4.70
   2  -8  -3    5.80    4.80
   2  -8  -3   11.90    3.90
  -2   8   3    8.00    6.70
  -2   8   3    4.40    5.50
  -2   8   3   10.00    6.10
   1  -8  -3    7.80    4.30
   1  -8  -3   -0.60    4.20
   1  -8  -3    5.10    4.00
   1  -8  -3    4.50    4.40
  -1   8   3   -2.20    4.80
  -1   8   3    9.70    4.30
  -1   8   3    2.00    4.90
   0  -8  -3  382.76   32.70
   0  -8  -3  413.86   29.60
   0  -8  -3  439.36   30.80
   0   8   3  379.56   31.90
   0   8   3  436.56   31.70
   0   8   3  445.56   30.80
  -1  -8  -3   42.70    5.00
  -1  -8  -3   44.40    6.40
  -1  -8  -3   40.90    6.90
  -1  -8  -3   40.90    6.30
   1   8   3   42.20    7.10
   1   8   3   33.60    5.90
   1   8   3   28.40    6.00
  -2  -8  -3   54.39    6.70
  -2  -8  -3   34.30    6.10
  -2  -8  -3   52.09    7.20
   2   8   3   39.50    8.10
   2   8   3   51.39    9.40
   2   8   3   36.60    4.50
  -3  -8  -3   15.30    4.00
  -3  -8  -3   20.20    4.70
  -3  -8  -3    5.80    4.30
   3   8   3   10.40    4.70
  -4  -8  -3   16.20    4.40
  -4  -8  -3    8.90    4.30
   4   8   3   14.60    8.60
   4  -9  -3    3.40    5.20
   4  -9  -3    6.90    6.50
   4  -9  -3    3.30    6.10
   4  -9  -3    7.90    5.80
   4  -9  -3    8.40    4.00
  -4   9   3    1.10    5.30
  -4   9   3    5.60    6.90
   3  -9  -3   10.90    4.60
   3  -9  -3   16.90   11.10
   3  -9  -3   15.00    5.70
  -3   9   3   24.50    7.20
  -3   9   3   18.70    7.40
   2  -9  -3   53.19    7.80
  -2   9   3   96.69   15.60
  -2   9   3   64.59   10.30
  -2   9   3   76.99    9.80
   1  -9  -3   17.40    5.80
   1  -9  -3   18.50    4.70
  -1   9   3   17.60    6.10
  -1   9   3   15.20    6.60
   0  -9  -3   46.40    7.40
   0  -9  -3   41.30    6.90
   0  -9  -3   59.69    6.70
   0   9   3   35.60    7.70
   0   9   3   32.10    6.00
   0   9   3   38.10    7.00
  -1  -9  -3    3.00    4.70
  -1  -9  -3   16.00    3.60
  -1  -9  -3    2.30    4.30
   1   9   3    3.70    4.60
   1   9   3    2.00    3.50
  -2  -9  -3   12.40    5.30
  -2  -9  -3    4.10    4.00
   2   9   3    5.90    7.30
   2   9   3    3.10    2.70
   2   9   3    8.00    3.40
  -3  -9  -3   -1.60    5.20
  -3  -9  -3   11.40    4.70
   3   9   3   10.90    8.10
  -4  -9  -3   11.10    4.90
   4   9   3   26.60    9.20
   4 -10  -3   21.20    7.80
   4 -10  -3   26.40    5.90
   4 -10  -3   24.20    6.80
   4 -10  -3    8.20    5.10
  -4  10   3   12.60    8.10
  -4  10   3   10.50    6.80
   3 -10  -3   19.20    6.30
   3 -10  -3    9.80    4.60
   3 -10  -3   18.20    7.40
  -3  10   3   14.40    7.50
  -3  10   3   32.10    7.30
   2 -10  -3   19.80    5.70
  -2  10   3   11.20    7.60
  -2  10   3   20.60    7.50
  -2  10   3    9.00    6.80
   1 -10  -3   17.10    4.70
  -1  10   3   15.80    7.30
  -1  10   3   24.40    8.90
   0 -10  -3   15.40    3.70
   0 -10  -3   11.90    5.60
   0  10   3   10.60    6.50
   0  10   3   14.50    6.20
  -1 -10  -3    8.60    4.80
   1  10   3   -2.20    3.20
   1  10   3   20.20    5.60
  -2 -10  -3   12.80    6.40
   2  10   3   14.70    3.80
   2  10   3   16.70    3.60
   2  10   3    3.90    8.00
  -3 -10  -3   18.50    6.60
   3  10   3   17.60    7.60
   4  10   3    6.30    7.20
   3 -11  -3   16.90    5.20
   3 -11  -3    8.80    5.20
   3 -11  -3   -2.20    6.70
  -3  11   3   17.60    7.00
  -3  11   3   11.30    7.60
   2 -11  -3    3.80    4.70
   2 -11  -3   14.50    5.10
  -2  11   3    6.10    5.90
  -2  11   3    6.20    6.90
   1 -11  -3   10.20    4.50
   1 -11  -3   14.20    6.00
  -1  11   3    4.60    6.00
  -1  11   3    7.70    6.30
   0 -11  -3   47.20    6.50
   0 -11  -3   35.80    8.20
   0  11   3   49.30    8.20
   0  11   3   40.90    8.40
  -1 -11  -3   61.69    8.70
   1  11   3   59.59    8.60
  -2 -11  -3   29.50    6.70
   2  11   3   29.40    9.60
   2  11   3   26.00    5.00
  -3 -11  -3   12.20    5.60
   3  11   3   16.40    7.30
   2 -12  -3   16.00    5.20
   2 -12  -3    5.80    4.90
  -2  12   3   15.20    6.20
  -2  12   3    8.70    7.60
   1 -12  -3   37.70    5.70
  -1  12   3   26.20    7.90
  -1  12   3   22.70    7.70
   0 -12  -3   -0.40    5.70
   0  12   3    6.90    6.40
   0  12   3    0.10    5.50
  -1 -12  -3   13.10    6.20
   1  12   3    6.70    5.70
   1  12   3   23.80    8.80
  -2 -12  -3   15.40    6.60
   2  12   3   16.40    4.40
   2  12   3   -3.50    8.10
   1 -13  -3   -2.30    4.00
   0  13   3    7.40    6.80
   0  13   3   12.00    6.20
   1  13   3   -9.80    8.40
   0  15  -4   -5.90    6.10
   2  14  -4   15.00    7.00
   2  14  -4   26.20    9.70
  -2 -14   4   -0.10    4.10
   1  14  -4   39.20   13.30
   1  14  -4   50.39    9.50
   1  14  -4   65.69    9.10
  -1 -14   4   55.29    8.40
   0  14  -4   -2.70    6.30
   0  14  -4    6.40    5.60
   0 -14   4    2.90    4.10
  -1  14  -4    2.20    6.10
  -1  14  -4   10.20    5.90
   1 -14   4    0.00    4.60
   1 -14   4   -1.60    6.10
  -2  14  -4   -3.60    6.70
  -2  14  -4   11.70    7.60
  -2  14  -4   -0.40    6.10
   2 -14   4    8.40    6.40
   2 -14   4   13.30    5.10
   3  13  -4   48.20   10.10
   3  13  -4   50.69   12.00
  -3 -13   4   46.60    7.10
   2  13  -4   14.50    6.30
   2  13  -4    7.40   11.20
   2  13  -4    4.20    5.70
   2  13  -4   -5.50    3.70
  -2 -13   4    8.60    4.50
   1  13  -4   12.70    6.90
   1  13  -4   23.40    7.50
  -1 -13   4   19.90    5.30
   0  13  -4   58.09    9.40
   0  13  -4   67.39    9.70
   0 -13   4   57.69    8.50
  -1  13  -4   19.70    6.10
  -1  13  -4   22.70    7.60
   1 -13   4   16.20    5.70
  -2  13  -4    7.60    6.60
  -2  13  -4   10.40    7.50
   2 -13   4    4.80    4.70
   2 -13   4   -5.10    5.80
  -3  13  -4    7.50    7.60
  -3  13  -4    4.20    5.90
   3 -13   4    6.00    7.10
   3 -13   4   12.00    4.80
   3 -13   4   23.40    8.90
   3  12  -4   48.00   13.70
   3  12  -4   53.09    9.30
  -3 -12   4   36.70    6.10
   2  12  -4   21.30   11.50
   2  12  -4   12.40    4.80
   2  12  -4    3.10    7.00
  -2 -12   4    9.40    4.80
   1  12  -4   -1.60    5.30
   1  12  -4    5.20    6.70
  -1 -12   4   12.20    6.20
   0  12  -4   28.10    7.30
   0  12  -4   33.20    7.50
   0 -12   4   28.50    6.80
  -1  12  -4   80.69   10.90
  -1  12  -4   95.19   10.70
   1 -12   4   86.29   10.10
  -2  12  -4   -2.40    6.40
  -2  12  -4   -4.00    3.10
  -2  12  -4    2.20    6.20
   2 -12   4   -0.40    3.90
   2 -12   4   -8.30    5.70
  -3  12  -4   22.50    8.30
  -3  12  -4   15.00    5.60
   3 -12   4   21.00    5.70
   3 -12   4   19.90    7.80
   3 -12   4   21.90    8.60
  -4  12  -4    2.40    5.00
  -4  12  -4   12.20    7.80
   4 -12   4    9.30    6.40
   4 -12   4    1.20    6.90
   4 -12   4    7.40    8.90
   4  11  -4    6.60    6.80
   4  11  -4   12.90   12.00
  -4 -11   4    2.40    6.20
   3  11  -4    9.30    7.30
   3  11  -4   16.20   11.40
  -3 -11   4   10.20    4.30
   2  11  -4    7.30    3.80
   2  11  -4    0.90    9.70
   2  11  -4    0.80    6.50
   2  11  -4   -0.80    3.20
  -2 -11   4    1.60    4.10
   1  11  -4   12.50    4.50
   1  11  -4   12.40    6.50
   1  11  -4   19.30    5.30
  -1 -11   4   24.40    5.20
   0  11  -4   40.90    9.00
   0  11  -4   44.60    7.70
   0 -11   4   45.90    6.90
  -1  11  -4  327.37   24.60
  -1  11  -4  317.97   27.30
  -1  11  -4  333.07   25.50
   1 -11   4  317.17   24.90
  -2  11  -4    5.70    6.90
  -2  11  -4    6.00    3.50
  -2  11  -4    7.70    6.20
   2 -11   4    8.90    6.20
   2 -11   4    4.30    4.50
  -3  11  -4    6.10    6.60
  -3  11  -4    1.00    5.50
  -3  11  -4    3.10    4.20
   3 -11   4    0.60    4.10
   3 -11   4    0.10    7.30
   3 -11   4    7.40    6.80
  -4  11  -4   -1.40    5.00
  -4  11  -4    4.00    5.60
  -4  11  -4    5.80    6.80
   4 -11   4   11.10    6.20
   4 -11   4   -3.70    5.10
   4 -11   4    3.40    6.80
   4 -11   4    9.20    4.00
   4  10  -4   13.00    7.10
   4  10  -4   31.30   12.20
  -4 -10   4   11.90    4.30
   3  10  -4   26.50   11.40
   3  10  -4   16.00    8.40
  -3 -10   4   22.10    5.10
   2  10  -4   14.60    4.80
   2  10  -4   18.40   10.90
   2  10  -4    4.00    6.90
   2  10  -4   12.50    3.20
  -2 -10   4   16.20    4.70
   1  10  -4    5.60    3.00
   1  10  -4   12.10    5.00
   1  10  -4   10.50    6.20
  -1 -10   4    6.70    3.90
   0  10  -4   76.29   10.90
   0  10  -4   78.39    9.00
   0  10  -4   88.79   10.10
   0 -10   4   92.39    9.60
  -1  10  -4  174.08   17.20
  -1  10  -4  189.18   15.60
   1 -10   4  169.08   14.60
   1 -10   4  158.98   14.10
  -2  10  -4   -1.10    3.20
  -2  10  -4    8.10    6.10
  -2  10  -4   -6.20    4.90
   2 -10   4    0.30    4.10
   2 -10   4   -7.80    5.50
   2 -10   4    0.40    3.60
  -3  10  -4   -1.00    6.40
  -3  10  -4   10.60    5.80
  -3  10  -4   15.50    5.70
   3 -10   4    5.10    7.10
   3 -10   4   11.10    4.60
  -4  10  -4   43.60    6.40
  -4  10  -4   38.50    7.20
  -4  10  -4   49.99    9.70
   4 -10   4   43.30    9.80
   4 -10   4   34.80    5.20
   4 -10   4   42.00    5.50
   4 -10   4   50.49    8.60
  -5  10  -4    3.40    6.60
  -5  10  -4    3.30    4.20
   5 -10   4    5.30    6.60
   5 -10   4   12.80    7.60
   5   9  -4   25.10   12.00
   4   9  -4   18.50    7.50
   4   9  -4   31.70   11.50
  -4  -9   4    3.70    5.10
  -4  -9   4   17.70    4.20
   3   9  -4   22.40    7.70
   3   9  -4   21.20   10.30
  -3  -9   4   13.40    4.10
  -3  -9   4   28.30    4.90
   2   9  -4   17.10    9.70
   2   9  -4   20.80    7.90
   2   9  -4   14.30    3.20
   2   9  -4   17.60    7.00
  -2  -9   4   15.60    4.10
  -2  -9   4   17.50    4.90
  -2  -9   4   12.30    4.50
   1   9  -4  117.29   10.80
   1   9  -4  126.89   11.80
   1   9  -4  109.99   10.20
  -1  -9   4   92.99   11.30
  -1  -9   4   99.09    9.80
  -1  -9   4  111.69   10.30
   0   9  -4   61.99    7.60
   0   9  -4   51.39    7.30
   0   9  -4   54.79    6.20
   0  -9   4   67.99    7.70
   0  -9   4   58.39    7.00
   0  -9   4   50.59    7.70
  -1   9  -4   53.49    6.90
  -1   9  -4   46.70    5.70
  -1   9  -4   56.89    8.40
  -1   9  -4   64.49    7.90
   1  -9   4   49.99    7.70
   1  -9   4   66.89    8.50
   1  -9   4   62.19    7.40
  -2   9  -4   63.79    8.60
  -2   9  -4   68.99   10.10
  -2   9  -4   80.29    9.20
  -2   9  -4   78.89    9.90
   2  -9   4   67.99    9.70
   2  -9   4   84.59    8.70
   2  -9   4   86.19   10.90
   2  -9   4   84.09    8.70
  -3   9  -4    3.60    4.90
  -3   9  -4    6.70    4.90
  -3   9  -4    0.00    6.00
  -3   9  -4    1.30    7.40
   3  -9   4    9.60    6.60
   3  -9   4    3.60    6.10
   3  -9   4    3.90    3.50
   3  -9   4    4.70    2.90
  -4   9  -4    3.60    4.50
  -4   9  -4    5.10    5.10
  -4   9  -4   -3.20    6.10
   4  -9   4    6.40    7.80
   4  -9   4    0.80    2.10
   4  -9   4   -8.10    5.60
   4  -9   4    4.40    3.10
  -5   9  -4   19.10    5.10
  -5   9  -4    9.90    6.90
  -5   9  -4    0.80    6.00
   5  -9   4   13.40    6.80
   5  -9   4   -2.70    6.70
   5   8  -4    6.50   10.80
  -5  -8   4    8.40    3.40
  -5  -8   4    2.50    4.00
   4   8  -4   35.90    8.90
   4   8  -4   81.49   13.80
  -4  -8   4   53.99    6.70
  -4  -8   4   53.29    6.60
   3   8  -4   42.50   10.40
   3   8  -4   20.30    7.10
  -3  -8   4   28.70    5.00
  -3  -8   4   34.40    9.00
  -3  -8   4   24.90    4.30
   2   8  -4   16.30    6.20
   2   8  -4   17.50    2.90
   2   8  -4   18.90    4.00
   2   8  -4   22.90    9.20
  -2  -8   4   17.20    3.80
  -2  -8   4   17.90    4.70
  -2  -8   4   20.50    4.30
   1   8  -4  140.79   12.70
   1   8  -4  152.48   11.90
   1   8  -4  128.59   11.40
  -1  -8   4  147.89   11.70
  -1  -8   4  135.39   11.40
  -1  -8   4  114.79   12.10
   0   8  -4   35.50    6.30
   0   8  -4   58.09    6.70
   0   8  -4   46.60    6.00
   0  -8   4   52.49    6.60
   0  -8   4   56.29    6.70
   0  -8   4   44.70    5.30
  -1   8  -4    7.70    4.80
  -1   8  -4    9.20    4.60
  -1   8  -4    4.30    2.50
  -1   8  -4    2.00    3.40
   1  -8   4    9.90    3.70
   1  -8   4    5.50    3.20
   1  -8   4    8.50    5.10
   1  -8   4    8.50    2.60
  -2   8  -4  186.68   15.60
  -2   8  -4  189.68   17.20
  -2   8  -4  179.78   15.00
  -2   8  -4  162.48   16.70
   2  -8   4  181.18   15.50
   2  -8   4  200.58   15.10
   2  -8   4  203.48   16.20
   2  -8   4  182.08   14.80
  -3   8  -4   75.29    9.30
  -3   8  -4   64.29    8.70
  -3   8  -4   76.09    9.50
  -3   8  -4   75.69   10.40
  -3   8  -4   79.99    8.40
   3  -8   4   77.59    8.00
   3  -8   4   73.89    7.30
   3  -8   4   60.79    9.30
   3  -8   4   81.69   10.50
   3  -8   4   85.69   10.00
  -4   8  -4   12.50    6.70
  -4   8  -4   10.00    4.60
  -4   8  -4   19.70    5.30
   4  -8   4   12.30    2.60
   4  -8   4    5.50    6.90
   4  -8   4   10.60    2.30
  -5   8  -4    7.40    4.40
  -5   8  -4    2.20    6.60
   5  -8   4    4.30    7.40
   5  -8   4    6.30    6.50
   5   7  -4   23.50   11.00
  -5  -7   4   14.20    3.30
  -5  -7   4    9.20    3.60
  -5  -7   4   -4.50    4.50
   4   7  -4   33.80   11.70
   4   7  -4   29.00    8.00
  -4  -7   4   16.80    5.40
  -4  -7   4   30.50    4.60
  -4  -7   4   28.60    4.50
   3   7  -4   17.70    9.10
   3   7  -4   13.50    6.70
  -3  -7   4   20.40    6.40
  -3  -7   4   19.60    3.80
  -3  -7   4   16.20    5.20
   2   7  -4   11.60    5.80
   2   7  -4   17.40    8.50
   2   7  -4   13.70    3.30
   2   7  -4   16.30    3.10
  -2  -7   4   11.50    3.50
  -2  -7   4   21.80    4.90
   1   7  -4   64.39    7.00
   1   7  -4   74.69    7.70
   1   7  -4   80.09    9.00
  -1  -7   4   85.99    7.60
  -1  -7   4   66.89    8.20
  -1  -7   4   73.09    7.50
   0   7  -4  160.78   12.60
   0   7  -4  157.18   13.50
   0   7  -4  168.98   13.40
   0   7  -4  171.48   13.90
   0  -7   4  175.88   13.10
   0  -7   4  179.68   14.50
   0  -7   4  191.88   13.80
  -1   7  -4   62.79    7.80
  -1   7  -4   60.29    9.20
  -1   7  -4   66.89    7.40
  -1   7  -4   55.49    6.20
   1  -7   4   66.89    8.30
   1  -7   4   77.69    8.60
   1  -7   4   59.99    6.90
   1  -7   4   75.09    7.20
  -2   7  -4   86.49    9.50
  -2   7  -4   94.09    9.60
  -2   7  -4   87.19   11.20
   2  -7   4   91.09    8.70
   2  -7   4  111.99   10.90
   2  -7   4   78.89    9.50
   2  -7   4   96.99    8.60
  -3   7  -4   59.99    7.60
  -3   7  -4   55.49    7.30
  -3   7  -4   57.09    8.70
   3  -7   4   49.80    6.90
   3  -7   4   60.79    8.80
   3  -7   4   50.79    6.60
   3  -7   4   58.49    5.90
   3  -7   4   54.09    8.10
  -4   7  -4   18.50    6.00
  -4   7  -4   15.70    4.90
  -4   7  -4   14.40    6.50
  -4   7  -4   23.10    5.20
   4  -7   4   19.80    6.60
   4  -7   4   17.60    7.00
  -5   7  -4   32.80    7.60
  -5   7  -4   28.20    5.70
  -5   7  -4   32.80    8.90
   5  -7   4   32.10    8.30
   5  -7   4   32.60    8.00
   6   6  -4   13.80   12.10
  -6  -6   4   13.60    6.20
   5   6  -4   13.40   11.10
  -5  -6   4   11.80    3.00
  -5  -6   4   14.50    3.00
   4   6  -4   56.09    8.40
   4   6  -4   68.99   12.50
  -4  -6   4   70.19    7.60
  -4  -6   4   49.99    6.20
  -4  -6   4   50.19    6.20
  -4  -6   4   55.99    7.70
   3   6  -4   11.30    6.20
   3   6  -4    6.00    3.80
   3   6  -4   17.60    8.90
  -3  -6   4   13.40    4.90
  -3  -6   4   11.70    3.10
  -3  -6   4   13.70    3.90
  -3  -6   4   13.80    3.20
   2   6  -4   22.30    6.10
   2   6  -4   26.80    3.60
   2   6  -4   26.80    7.90
   2   6  -4   23.30    3.40
  -2  -6   4   25.00    3.90
  -2  -6   4   23.80    4.10
  -2  -6   4   25.80    5.20
   1   6  -4    4.80    4.40
   1   6  -4   10.00    3.40
   1   6  -4    8.40    2.80
  -1  -6   4    8.50    3.20
  -1  -6   4   12.50    3.30
  -1  -6   4   13.70    3.30
   0   6  -4  624.34   42.80
   0   6  -4  602.44   42.00
   0   6  -4  588.04   42.20
   0  -6   4  562.84   43.10
   0  -6   4  704.03   42.80
   0  -6   4  607.54   42.60
  -1   6  -4    5.80    3.80
  -1   6  -4    4.40    2.90
  -1   6  -4    4.70    3.70
  -1   6  -4    5.60    3.30
   1  -6   4    4.70    2.70
   1  -6   4    3.50    3.40
   1  -6   4    3.40    2.70
   1  -6   4    2.80    3.70
  -2   6  -4   50.79    6.00
  -2   6  -4   55.09    6.90
  -2   6  -4   65.19    8.00
  -2   6  -4   57.39    6.50
  -2   6  -4   50.69    7.00
   2  -6   4   46.40    6.00
   2  -6   4   66.09    8.20
   2  -6   4   64.19    8.20
   2  -6   4   60.69    6.20
   2  -6   4   50.59    7.40
  -3   6  -4  383.96   29.20
  -3   6  -4  420.06   29.40
  -3   6  -4  411.46   29.40
  -3   6  -4  404.66   29.00
  -3   6  -4  434.76   30.70
   3  -6   4  397.06   28.40
   3  -6   4  423.66   30.40
   3  -6   4  408.86   28.40
   3  -6   4  375.56   29.60
   3  -6   4  405.56   29.80
  -4   6  -4   14.20    5.90
  -4   6  -4   24.80    6.00
  -4   6  -4   17.30    4.80
   4  -6   4   22.50    6.90
   4  -6   4    6.30    3.60
   4  -6   4    8.00    5.60
  -5   6  -4   30.60    7.30
  -5   6  -4   30.00    5.20
  -5   6  -4    2.60    8.70
   5  -6   4   34.60    7.80
   5  -6   4   39.40    9.40
  -6   6  -4    6.00    8.30
  -6   6  -4   11.60    4.70
   6  -6   4    0.40    6.40
   6  -6   4   20.10    9.00
   6   5  -4   12.90   11.20
  -6  -5   4    2.10    2.80
  -6  -5   4   -7.50    4.70
   5   5  -4   31.90    6.60
   5   5  -4   31.90   13.50
  -5  -5   4   21.80    6.80
  -5  -5   4   25.60    4.40
  -5  -5   4   16.60    3.50
  -5  -5   4   30.00    4.30
   4   5  -4   44.50    6.50
   4   5  -4   67.49   12.40
  -4  -5   4   44.30    5.30
  -4  -5   4   57.09    7.60
  -4  -5   4   57.59    7.00
  -4  -5   4   45.30    5.70
   3   5  -4   88.69   13.30
   3   5  -4   63.69    7.90
  -3  -5   4   69.99    8.70
  -3  -5   4   76.49    8.70
  -3  -5   4   81.79    7.40
  -3  -5   4   75.99    7.00
  -3  -5   4   80.89    7.10
   2   5  -4  149.19   12.30
   2   5  -4  176.48   12.10
   2   5  -4  170.98   14.10
   2   5  -4  157.08   12.10
   2   5  -4  144.49   18.00
  -2  -5   4  160.68   12.80
  -2  -5   4  180.18   12.70
  -2  -5   4  179.28   14.10
   1   5  -4   27.80    3.90
   1   5  -4   21.70    3.80
   1   5  -4   21.50    4.90
  -1  -5   4   26.90    3.90
  -1  -5   4   17.40    4.60
  -1  -5   4   23.40    4.60
   0   5  -4  121.59    9.50
   0   5  -4  142.79   10.20
   0   5  -4  111.79    9.70
   0  -5   4   98.99   10.40
   0  -5   4  141.79   10.00
   0  -5   4  116.99   10.80
  -1   5  -4   12.00    3.10
  -1   5  -4   14.10    3.70
  -1   5  -4   10.80    3.90
  -1   5  -4    6.10    3.80
   1  -5   4   12.20    4.00
   1  -5   4   15.60    5.70
   1  -5   4   11.20    3.70
   1  -5   4    6.20    2.90
  -2   5  -4  192.58   13.50
  -2   5  -4  193.58   14.60
  -2   5  -4  165.78   14.00
  -2   5  -4  161.78   14.00
  -2   5  -4  156.28   15.20
   2  -5   4  187.48   13.50
   2  -5   4  223.98   15.60
   2  -5   4  172.38   13.50
   2  -5   4  204.08   14.70
   2  -5   4  158.68   14.20
  -3   5  -4   61.39    7.40
  -3   5  -4   82.39    7.90
  -3   5  -4   77.49    8.10
  -3   5  -4   66.39    7.60
  -3   5  -4   76.29    7.30
  -3   5  -4   60.09    8.20
   3  -5   4   66.89    9.70
   3  -5   4   71.79    8.30
   3  -5   4   62.69    6.00
   3  -5   4   61.49    7.60
   3  -5   4   65.09    5.70
  -4   5  -4   23.50    4.10
  -4   5  -4   20.60    5.70
  -4   5  -4   12.60    4.40
  -4   5  -4   25.20    6.60
   4  -5   4   22.90    6.40
   4  -5   4   16.10    4.30
   4  -5   4   19.20    6.80
  -5   5  -4   15.30    8.40
  -5   5  -4   13.80    5.70
  -5   5  -4   15.30    4.10
   5  -5   4   17.10    7.10
   5  -5   4   19.40    8.80
  -6   5  -4    7.50    4.20
  -6   5  -4   14.90    6.30
   6  -5   4   10.80    7.90
   6  -5   4    7.80    8.10
   6   4  -4    9.00   11.00
  -6  -4   4    2.60    5.40
  -6  -4   4   -6.60    2.90
  -6  -4   4   10.80    3.00
   5   4  -4    2.20    6.40
  -5  -4   4    5.30    4.20
  -5  -4   4    4.80    2.80
  -5  -4   4    7.10    2.70
  -5  -4   4   17.90    4.10
  -5  -4   4    0.40    6.00
   4   4  -4  101.79   10.40
   4   4  -4   96.59   15.70
  -4  -4   4   86.89   10.00
  -4  -4   4   97.59    8.90
  -4  -4   4   88.09    7.90
  -4  -4   4   87.79    8.10
  -4  -4   4  114.19   13.60
   3   4  -4  270.67   22.30
   3   4  -4  266.77   19.30
  -3  -4   4  261.27   18.40
  -3  -4   4  236.58   19.40
  -3  -4   4  255.77   19.70
  -3  -4   4  249.08   21.40
  -3  -4   4  263.37   18.50
  -3  -4   4  259.97   18.60
   2   4  -4 1868.11  127.69
   2   4  -4 1858.31  128.99
   2   4  -4 1785.42  127.39
   2   4  -4 1914.31  127.39
  -2  -4   4 1914.91  127.79
  -2  -4   4 1990.20  127.89
  -2  -4   4 1865.11  128.39
   1   4  -4  194.78   15.40
   1   4  -4  160.58   13.00
   1   4  -4  178.48   13.30
  -1  -4   4  166.28   13.30
  -1  -4   4  198.18   13.40
  -1  -4   4  180.88   13.80
   0   4  -4  213.98   16.90
   0   4  -4  231.48   17.10
   0  -4   4  270.67   17.00
   0  -4   4  230.78   16.90
   0  -4   4  218.18   17.30
   0  -4   4  245.18   16.80
  -1   4  -4  156.38   12.30
  -1   4  -4  128.19   11.50
  -1   4  -4  158.18   11.90
   1  -4   4  144.99   12.20
   1  -4   4  163.18   12.00
   1  -4   4  173.48   11.70
   1  -4   4  149.19   11.70
  -2   4  -4  276.77   17.70
  -2   4  -4  213.38   17.00
  -2   4  -4  208.78   17.40
  -2   4  -4  197.38   17.70
  -2   4  -4  258.17   16.80
  -2   4  -4  185.58   16.80
   2  -4   4  192.88   17.30
   2  -4   4  274.57   17.60
   2  -4   4  271.37   18.00
   2  -4   4  205.18   16.50
   2  -4   4  264.67   16.60
  -3   4  -4   14.60    4.00
  -3   4  -4   13.20    4.50
  -3   4  -4   16.30    3.80
  -3   4  -4   18.00    3.70
  -3   4  -4   21.10    5.70
  -3   4  -4   15.00    3.80
   3  -4   4   25.20    5.80
   3  -4   4   11.50    3.60
   3  -4   4   21.10    5.10
  -4   4  -4   14.60    4.30
  -4   4  -4   38.40    8.20
  -4   4  -4   21.40    7.00
  -4   4  -4   15.00    5.80
  -4   4  -4   22.30    4.10
  -4   4  -4   28.50    6.00
   4  -4   4   21.40    6.90
   4  -4   4   17.70    3.60
   4  -4   4   19.80    6.10
  -5   4  -4   25.80    4.30
  -5   4  -4   24.90    6.20
  -5   4  -4   22.70    8.60
  -5   4  -4   23.40    4.30
   5  -4   4   14.50    7.70
   5  -4   4    7.10   10.50
  -6   4  -4   21.30    4.70
  -6   4  -4   23.10    6.00
   6  -4   4   51.59    9.60
   6  -4   4   30.10    8.00
   6   3  -4   14.60    7.20
  -6  -3   4   10.40    6.20
  -6  -3   4   10.70    3.20
   5   3  -4    1.80    6.40
   5   3  -4    0.10   11.40
  -5  -3   4    2.10    3.40
  -5  -3   4   -3.70    4.80
  -5  -3   4    6.40    2.80
  -5  -3   4   11.70    5.40
  -5  -3   4    9.50    2.80
   4   3  -4  163.58   15.00
   4   3  -4  200.78   19.70
  -4  -3   4  190.68   17.40
  -4  -3   4  172.78   14.40
  -4  -3   4  171.38   15.90
  -4  -3   4  163.38   13.40
  -4  -3   4  182.08   13.20
  -4  -3   4  160.68   13.10
  -4  -3   4  172.18   14.40
   3   3  -4   -0.90    4.20
   3   3  -4    6.30    7.70
  -3  -3   4    8.10    6.30
  -3  -3   4    0.50    2.30
  -3  -3   4    4.10    2.30
  -3  -3   4    6.80    4.40
  -3  -3   4    4.10    2.80
  -3  -3   4    5.00    4.30
   2   3  -4  332.57   22.80
   2   3  -4  325.57   25.50
   2   3  -4  316.87   22.80
   2   3  -4  345.87   23.70
  -2  -3   4  323.97   23.00
  -2  -3   4  363.26   23.40
  -2  -3   4  335.87   23.30
  -2  -3   4  339.07   24.30
  -2  -3   4  307.27   24.90
   1   3  -4   92.79   10.40
   1   3  -4   88.19    7.40
   1   3  -4   91.09    7.60
  -1  -3   4   98.99    7.60
  -1  -3   4   99.29    8.50
  -1  -3   4   85.59    7.60
   0   3  -4   46.50    5.00
   0   3  -4   49.70    5.40
   0  -3   4   57.59    5.20
   0  -3   4   46.30    5.10
   0  -3   4   50.59    5.10
  -1   3  -4  276.57   19.90
  -1   3  -4  293.87   19.90
  -1   3  -4  267.77   19.80
  -1   3  -4  267.87   19.80
   1  -3   4  259.47   19.60
   1  -3   4  317.87   19.70
   1  -3   4  265.47   19.90
   1  -3   4  283.57   20.20
   1  -3   4  274.87   19.90
  -2   3  -4 1042.60   77.99
  -2   3  -4 1139.49   77.49
  -2   3  -4 1138.79   77.49
  -2   3  -4 1158.88   77.79
  -2   3  -4 1110.09   77.89
  -2   3  -4 1169.78   77.49
   2  -3   4 1202.38   77.19
   2  -3   4 1118.59   77.59
   2  -3   4 1143.29   77.99
   2  -3   4 1148.89   77.79
   2  -3   4 1133.09   77.19
  -3   3  -4   49.50    5.90
  -3   3  -4   49.60    6.70
  -3   3  -4   51.19    7.10
  -3   3  -4   51.19    6.30
  -3   3  -4   63.39    7.70
  -3   3  -4   53.49    7.50
  -3   3  -4   57.39    7.90
   3  -3   4   63.09    8.00
   3  -3   4   54.79    7.40
   3  -3   4   48.20    6.00
  -4   3  -4    7.60    5.30
  -4   3  -4   19.10    7.60
  -4   3  -4    2.90    3.20
  -4   3  -4   -0.90    5.20
  -4   3  -4    6.30    2.90
  -4   3  -4    2.80    4.80
  -4   3  -4    0.50    4.10
   4  -3   4    2.00    5.40
   4  -3   4   12.70    6.10
  -5   3  -4   24.00    4.40
  -5   3  -4   22.60    5.50
  -5   3  -4   27.10    4.20
  -5   3  -4   -9.80   12.40
   5  -3   4   23.90    7.10
   5  -3   4   38.00    8.50
  -6   3  -4   -7.40    4.40
  -6   3  -4    4.80    3.50
   6  -3   4   -4.50    7.40
   6  -3   4    2.30    6.60
   6   2  -4   23.40    8.80
  -6  -2   4   29.00    4.30
  -6  -2   4   18.50    4.00
  -6  -2   4   28.30    7.40
   5   2  -4    8.80    7.00
   5   2  -4   13.30   10.30
  -5  -2   4   13.30    3.20
  -5  -2   4   10.30    3.90
  -5  -2   4   13.60    2.90
  -5  -2   4    5.70    3.80
  -5  -2   4    8.20    5.50
   4   2  -4  172.98   19.50
   4   2  -4  167.98   16.20
  -4  -2   4  197.88   15.30
  -4  -2   4  183.78   16.50
  -4  -2   4  178.08   14.90
  -4  -2   4  184.98   14.00
  -4  -2   4  232.08   19.00
  -4  -2   4  166.88   13.80
  -4  -2   4  187.98   13.80
   3   2  -4   73.19    9.00
   3   2  -4   90.59   12.90
  -3  -2   4   69.99    7.80
  -3  -2   4   81.29    6.80
  -3  -2   4   74.39    6.80
  -3  -2   4   70.49    9.10
  -3  -2   4   75.49    9.70
  -3  -2   4   77.29    6.90
  -3  -2   4   83.69    8.00
   2   2  -4  611.24   39.50
   2   2  -4  562.74   40.80
   2   2  -4  586.44   38.60
   2   2  -4  512.05   38.50
  -2  -2   4  557.64   40.50
  -2  -2   4  534.35   39.00
  -2  -2   4  573.14   39.80
  -2  -2   4  545.85   38.50
  -2  -2   4  589.54   39.00
  -2  -2   4  603.44   39.00
   1   2  -4  106.29   10.40
   1   2  -4   96.69    8.10
   1   2  -4  110.09    8.40
  -1  -2   4  116.29    8.40
  -1  -2   4  102.39    8.40
   0   2  -4  186.38   13.70
   0   2  -4  172.88   13.50
   0   2  -4  175.48   13.20
   0  -2   4  173.68   13.40
   0  -2   4  173.48   13.40
   0  -2   4  219.38   13.70
   0  -2   4  201.38   13.80
  -1   2  -4  897.21   65.39
  -1   2  -4  993.60   65.39
  -1   2  -4  934.21   65.59
  -1   2  -4  928.41   65.49
   1  -2   4  958.00   65.59
   1  -2   4  959.60   65.19
   1  -2   4  937.01   65.19
   1  -2   4  985.00   65.49
   1  -2   4  927.31   65.19
   1  -2   4 1078.89   65.29
  -2   2  -4  296.37   23.10
  -2   2  -4  308.77   22.30
  -2   2  -4  311.87   22.40
  -2   2  -4  334.37   22.40
  -2   2  -4  323.17   23.10
  -2   2  -4  290.97   23.30
   2  -2   4  319.17   23.40
   2  -2   4  337.47   23.20
   2  -2   4  342.07   21.90
   2  -2   4  325.47   22.30
   2  -2   4  304.17   21.90
   2  -2   4  320.67   22.80
  -3   2  -4   18.60    3.80
  -3   2  -4   24.10    6.40
  -3   2  -4   28.60    5.20
  -3   2  -4   21.80    4.80
  -3   2  -4   23.30    3.60
  -3   2  -4   24.60    5.80
  -3   2  -4   20.10    3.40
   3  -2   4   23.10    5.20
   3  -2   4   14.50    5.60
   3  -2   4   18.80    5.20
  -4   2  -4   19.50    3.50
  -4   2  -4   19.00    5.70
  -4   2  -4   10.50    6.00
  -4   2  -4   25.50    5.70
  -4   2  -4   13.00    4.50
  -4   2  -4   21.30    6.20
  -4   2  -4   26.10    6.20
   4  -2   4   25.40    6.80
   4  -2   4   14.10    5.90
  -5   2  -4   55.99    5.80
  -5   2  -4   42.40    6.70
  -5   2  -4   44.30    5.80
   5  -2   4   47.10    8.50
   5  -2   4   62.49   10.40
  -6   2  -4   -1.90    3.50
  -6   2  -4   -1.20    3.10
  -6   2  -4    2.50    4.60
   6  -2   4    9.10    7.80
   6  -2   4   -3.20    6.50
   6   1  -4   34.70    9.30
  -6  -1   4   52.69    5.80
  -6  -1   4   41.50    5.50
  -6  -1   4   36.70    7.20
  -6  -1   4   54.49    9.40
   5   1  -4   18.20   10.50
   5   1  -4   23.20    7.70
  -5  -1   4   19.30    4.00
  -5  -1   4   20.10    6.60
  -5  -1   4   17.80    3.60
  -5  -1   4   16.90    4.70
   4   1  -4   82.39    9.30
   4   1  -4  103.29   14.20
   4   1  -4   74.89    9.80
  -4  -1   4   82.39    7.20
  -4  -1   4   73.39    7.70
  -4  -1   4   84.39    8.30
  -4  -1   4   78.89   10.90
  -4  -1   4   82.69    7.70
   3   1  -4   61.19   10.10
   3   1  -4   58.29    7.00
   3   1  -4   40.40    6.10
  -3  -1   4   45.80    6.70
  -3  -1   4   52.89    7.60
  -3  -1   4   46.60    6.80
  -3  -1   4   45.40    5.30
  -3  -1   4   54.99    7.40
  -3  -1   4   45.90    5.30
  -3  -1   4   50.89    5.20
  -3  -1   4   36.90    5.80
   2   1  -4  140.59   11.20
   2   1  -4  112.69    9.30
   2   1  -4  133.19   13.40
   2   1  -4  136.79    9.50
   2   1  -4  120.49    9.50
  -2  -1   4  122.39    9.70
  -2  -1   4  129.29   11.60
  -2  -1   4  127.69   12.70
  -2  -1   4  142.89   10.00
  -2  -1   4  133.39   10.00
   1   1  -4   11.30    5.10
   1   1  -4    9.20    2.30
   1   1  -4   13.40    2.80
  -1  -1   4   15.50    4.80
  -1  -1   4    8.60    2.70
  -1  -1   4    9.80    2.50
   0   1  -4  147.79   10.70
   0   1  -4  126.29   10.20
   0   1  -4  136.99   10.20
   0   1  -4  123.59   10.20
   0  -1   4  134.89   10.30
   0  -1   4  156.48   10.50
   0  -1   4  127.39   10.40
  -1   1  -4  415.96   29.60
  -1   1  -4  401.96   29.20
  -1   1  -4  414.46   29.50
   1  -1   4  398.16   28.70
   1  -1   4  430.26   29.10
   1  -1   4  441.16   29.60
   1  -1   4  472.25   29.20
   1  -1   4  405.96   29.60
  -2   1  -4 1704.33  112.79
  -2   1  -4 1607.64  112.49
  -2   1  -4 1646.94  113.39
  -2   1  -4 1785.32  112.79
  -2   1  -4 1617.64  113.49
   2  -1   4 1648.14  113.29
   2  -1   4 1648.83  113.49
   2  -1   4 1656.03  113.19
  -3   1  -4   29.10    6.80
  -3   1  -4   25.60    3.60
  -3   1  -4   27.40    5.30
  -3   1  -4   27.10    3.40
  -3   1  -4   19.70    5.80
  -3   1  -4   28.10    5.20
  -3   1  -4   30.70    6.00
  -3   1  -4   28.10    3.50
   3  -1   4   29.60    5.80
   3  -1   4   34.70    6.00
   3  -1   4   24.90    6.30
  -4   1  -4   26.70    4.80
  -4   1  -4   29.40    4.00
  -4   1  -4   44.80    8.30
  -4   1  -4   50.09    9.70
  -4   1  -4   44.80    6.70
  -4   1  -4   39.20    6.80
  -4   1  -4   36.00    4.60
  -4   1  -4   33.20    6.90
   4  -1   4   40.10    7.20
   4  -1   4   39.30    7.80
   4  -1   4   37.90    7.20
  -5   1  -4   57.39    5.90
  -5   1  -4   53.69    5.90
  -5   1  -4   49.70    7.60
   5  -1   4   64.79   10.80
   5  -1   4   78.69    9.80
  -6   1  -4   -4.00    3.90
  -6   1  -4    6.50    3.50
  -6   1  -4    9.80    2.90
   6  -1   4    4.60    7.90
   6   0  -4   37.10    9.20
  -6   0   4   47.40    6.00
  -6   0   4   45.30    9.10
   5   0  -4   39.70    9.00
   5   0  -4   30.20    6.60
  -5   0   4   34.20    5.00
  -5   0   4   31.20    5.80
  -5   0   4   29.30    4.80
  -5   0   4   41.20    8.00
   4   0  -4   29.80    9.30
   4   0  -4   30.10    6.90
   4   0  -4   26.30    5.50
  -4   0   4   26.40    5.30
  -4   0   4   22.80    4.30
  -4   0   4   23.00    6.30
  -4   0   4   21.50    7.00
  -4   0   4   27.00    6.70
  -4   0   4   24.60    4.00
   3   0  -4   71.19    7.20
   3   0  -4   67.39    9.30
   3   0  -4   84.59   11.60
  -3   0   4   72.29    7.00
  -3   0   4   68.09   10.30
  -3   0   4   75.89    8.40
  -3   0   4   67.99    9.30
  -3   0   4   64.99    7.00
  -3   0   4   69.49    7.90
  -3   0   4   77.49    6.60
   2   0  -4  317.47   25.70
   2   0  -4  390.56   25.90
   2   0  -4  383.46   26.80
   2   0  -4  355.56   25.70
   2   0  -4  383.26   28.20
  -2   0   4  409.66   27.50
  -2   0   4  388.36   26.20
  -2   0   4  376.26   26.20
  -2   0   4  360.46   27.70
   1   0  -4  111.89    9.00
   1   0  -4  114.19   11.20
   1   0  -4  130.39    9.30
  -1   0   4  117.19   10.00
  -1   0   4  107.79    9.20
  -1   0   4  113.49    9.20
   0   0  -4  353.96   26.90
   0   0  -4  392.56   27.00
   0   0  -4  375.16   27.00
   0   0   4  361.76   26.80
   0   0   4  401.36   26.90
   0   0   4  420.36   26.90
   0   0   4  394.46   26.80
  -1   0  -4   70.59    6.60
  -1   0  -4   73.99    6.50
  -1   0  -4   62.39    7.30
  -1   0  -4   71.89    7.50
   1   0   4   71.39    7.80
   1   0   4   80.49    6.20
   1   0   4   78.19    6.40
   2   0   4  169.18   13.30
   2   0   4  141.39   13.50
   2   0   4  158.08   13.20
  -3   0  -4   90.19    7.70
  -3   0  -4   89.99    9.30
  -3   0  -4   91.09    7.50
  -3   0  -4   95.29    7.60
  -3   0  -4   88.69   10.10
  -3   0  -4   79.39   10.70
  -3   0  -4   94.39    9.90
   3   0   4  106.59   11.10
   3   0   4   95.29   10.50
   3   0   4   91.89   10.40
  -4   0  -4   88.69    8.30
  -4   0  -4   92.39    9.70
  -4   0  -4   83.19   10.80
  -4   0  -4  102.69   12.50
  -4   0  -4   71.09    7.20
  -4   0  -4   87.29    7.10
  -4   0  -4   83.09    9.90
   4   0   4   72.79   11.20
   4   0   4   84.19   12.60
   4   0   4   92.69   11.50
  -5   0  -4   12.60    3.90
  -5   0  -4   13.60    2.80
  -5   0  -4   16.40    3.10
   5   0   4   21.30    8.10
   5   0   4   17.30    7.50
  -6   0  -4   21.40    4.90
   6  -1  -4   64.79   10.50
   6  -1  -4   63.29    9.20
  -6   1   4   33.40    6.80
  -6   1   4   58.49    7.00
  -6   1   4   44.10    9.00
   5  -1  -4   32.60    8.60
   5  -1  -4   39.30    7.50
  -5   1   4   45.80    9.00
  -5   1   4   50.29    6.30
  -5   1   4   46.90    6.30
   4  -1  -4    6.90    5.00
   4  -1  -4    6.40    5.30
   4  -1  -4    2.50    6.20
  -4   1   4    3.70    5.00
  -4   1   4    2.00    6.00
  -4   1   4    0.00    5.40
  -4   1   4    2.40    3.20
  -4   1   4    5.10    3.10
   3  -1  -4  125.79   10.10
   3  -1  -4  115.99   10.00
   3  -1  -4  121.99   11.80
   3  -1  -4  122.69   14.10
  -3   1   4  125.89   12.10
  -3   1   4  106.59   10.10
  -3   1   4  113.19    9.80
  -3   1   4  124.99   12.80
  -3   1   4  108.59   11.00
   2  -1  -4  286.97   21.70
   2  -1  -4  345.57   22.70
   2  -1  -4  315.27   21.80
   2  -1  -4  298.87   21.40
   2  -1  -4  292.27   24.40
   2  -1  -4  300.07   21.70
  -2   1   4  312.77   22.10
  -2   1   4  310.57   22.20
  -2   1   4  297.87   23.80
  -2   1   4  332.37   23.40
   1  -1  -4   33.20    5.70
   1  -1  -4   32.80    4.10
   1  -1  -4   27.80    4.10
   1  -1  -4   28.60    4.50
  -1   1   4   27.70    4.00
  -1   1   4   26.50    4.20
  -1   1   4   28.30    4.00
  -1   1   4   28.40    5.30
   0  -1  -4  835.02   61.99
   0  -1  -4  874.61   61.99
   0  -1  -4  910.81   62.09
   0   1   4  927.61   61.99
   0   1   4  914.11   61.99
   0   1   4  981.60   61.99
  -1  -1  -4  378.96   27.60
  -1  -1  -4  370.56   28.20
  -1  -1  -4  372.86   27.90
  -1  -1  -4  423.66   27.60
  -1  -1  -4  354.86   27.00
   1   1   4  383.36   28.20
   1   1   4  417.86   27.50
   1   1   4  441.26   27.00
   1   1   4  408.16   27.30
  -2  -1  -4   78.49    8.90
  -2  -1  -4   72.39    8.30
  -2  -1  -4   78.89    6.90
  -2  -1  -4   82.59    6.90
  -2  -1  -4   74.89    8.60
   2   1   4   82.19    9.60
   2   1   4   78.09    9.20
  -3  -1  -4  101.69   10.90
  -3  -1  -4  105.89    8.40
  -3  -1  -4  102.49   10.90
  -3  -1  -4  115.09    8.50
  -3  -1  -4  107.39   10.20
  -3  -1  -4   97.09    8.40
  -3  -1  -4   97.69   11.30
   3   1   4  119.99   11.80
   3   1   4  105.89   11.20
  -4  -1  -4   48.30    6.20
  -4  -1  -4   62.39    6.80
  -4  -1  -4   69.99   10.20
  -4  -1  -4   63.89   10.70
  -4  -1  -4   65.59    6.10
  -4  -1  -4   63.69    7.60
  -4  -1  -4   70.79    8.70
   4   1   4   77.59   10.40
   4   1   4   71.99    9.90
  -5  -1  -4   36.10    5.10
  -5  -1  -4   34.00    4.10
  -5  -1  -4   37.40    4.70
   5   1   4   35.00    8.40
  -6  -1  -4    9.60    4.50
   6  -2  -4   35.20    7.60
   6  -2  -4   33.90    8.90
  -6   2   4   14.10    6.90
  -6   2   4   32.60    5.40
   5  -2  -4  100.99   19.10
   5  -2  -4  143.59   11.70
   5  -2  -4  122.59   12.50
  -5   2   4  132.79   14.60
  -5   2   4  115.29   11.20
  -5   2   4  100.09   13.40
   4  -2  -4   18.30    4.60
   4  -2  -4   16.90    4.90
   4  -2  -4   14.70    7.00
  -4   2   4   23.20    8.50
  -4   2   4    7.90    4.80
  -4   2   4   10.20    5.90
  -4   2   4   11.30    6.40
  -4   2   4   20.30    4.10
   3  -2  -4   44.60    4.90
   3  -2  -4   47.80    6.80
   3  -2  -4   51.19    6.60
   3  -2  -4   63.69    7.40
  -3   2   4   44.60    7.20
  -3   2   4   59.39    8.50
  -3   2   4   51.49    6.80
  -3   2   4   49.60    5.90
   2  -2  -4  107.19    9.10
   2  -2  -4  118.59   10.40
   2  -2  -4  118.49   10.60
   2  -2  -4   94.89   11.90
   2  -2  -4  101.79    9.00
   2  -2  -4  111.29    8.40
  -2   2   4   94.09   11.60
  -2   2   4  109.19   10.60
  -2   2   4  101.79    9.20
  -2   2   4  109.79    9.70
   1  -2  -4   19.10    3.60
   1  -2  -4   14.30    3.70
   1  -2  -4   14.70    4.70
   1  -2  -4   16.20    3.60
  -1   2   4   19.10    3.50
  -1   2   4   12.10    4.90
  -1   2   4   16.00    3.50
  -1   2   4   11.70    3.60
   0  -2  -4  411.86   29.90
   0  -2  -4  426.56   30.00
   0  -2  -4  432.26   30.00
   0  -2  -4  397.76   29.80
   0   2   4  434.26   29.90
   0   2   4  483.75   30.00
   0   2   4  397.86   29.80
  -1  -2  -4  221.08   16.10
  -1  -2  -4  198.48   16.70
  -1  -2  -4  202.38   15.90
  -1  -2  -4  219.18   15.50
   1   2   4  219.78   15.70
   1   2   4  240.38   15.50
   1   2   4  204.18   15.60
  -2  -2  -4   68.99    8.30
  -2  -2  -4   66.99    5.20
  -2  -2  -4   42.80    6.90
  -2  -2  -4   50.19    7.30
  -2  -2  -4   59.79    6.10
  -2  -2  -4   52.59    6.00
   2   2   4   61.29    9.00
  -3  -2  -4   73.69    8.60
  -3  -2  -4   61.39    8.80
  -3  -2  -4   67.69    6.80
  -3  -2  -4   66.59    6.30
  -3  -2  -4   87.79   13.50
  -3  -2  -4   81.99    8.50
  -3  -2  -4   73.59    6.50
  -3  -2  -4   67.79    6.50
   3   2   4   73.79   10.50
  -4  -2  -4  138.69   10.90
  -4  -2  -4  143.89   12.40
  -4  -2  -4  125.29   10.60
  -4  -2  -4  128.89   13.60
  -4  -2  -4  137.79   10.50
   4   2   4  130.69   14.40
  -5  -2  -4   10.10    3.40
  -5  -2  -4   25.40    5.10
  -5  -2  -4   12.70    2.70
  -6  -2  -4   -6.90    6.20
   6   2   4   10.70    7.60
   6  -3  -4   49.30    8.50
   6  -3  -4   24.80    8.80
  -6   3   4   34.90    6.00
  -6   3   4   38.30    9.30
   5  -3  -4   27.30    8.10
   5  -3  -4   50.69    6.40
   5  -3  -4   40.90    7.70
  -5   3   4   32.80    9.20
  -5   3   4   32.30    5.50
  -5   3   4   49.00    6.60
   4  -3  -4   19.50    5.40
   4  -3  -4   19.20    4.40
   4  -3  -4   23.00    6.90
  -4   3   4   20.80    5.10
  -4   3   4   18.20    6.90
  -4   3   4   19.40    4.40
   3  -3  -4  152.18   13.70
   3  -3  -4  149.69   13.60
   3  -3  -4  136.99   11.50
   3  -3  -4  147.89   12.80
   3  -3  -4  145.09   12.10
  -3   3   4  177.38   14.80
  -3   3   4  150.88   12.40
  -3   3   4  157.38   14.40
  -3   3   4  147.99   12.80
   2  -3  -4    6.40    4.20
   2  -3  -4    7.00    3.50
   2  -3  -4    8.80    3.40
   2  -3  -4    7.10    4.50
  -2   3   4    9.10    4.30
  -2   3   4    7.00    3.50
  -2   3   4   12.50    6.90
  -2   3   4    4.70    3.00
   1  -3  -4    9.30    4.30
   1  -3  -4   13.80    3.80
   1  -3  -4    7.40    3.40
   1  -3  -4   10.10    3.60
  -1   3   4    3.70    3.50
  -1   3   4   12.20    3.40
  -1   3   4    9.90    5.20
  -1   3   4    7.30    3.80
   0  -3  -4  886.21   62.29
   0  -3  -4  896.91   62.29
   0  -3  -4  866.61   62.19
   0   3   4  860.11   62.69
   0   3   4 1012.20   62.39
   0   3   4  906.81   62.19
  -1  -3  -4  313.57   22.20
  -1  -3  -4  288.07   23.00
  -1  -3  -4  290.57   22.50
  -1  -3  -4  320.37   22.70
   1   3   4  315.07   22.20
   1   3   4  336.57   22.20
   1   3   4  317.17   22.20
  -2  -3  -4   91.29   10.20
  -2  -3  -4   93.29   10.20
  -2  -3  -4   98.89    9.10
  -2  -3  -4   98.99    8.80
  -2  -3  -4  109.59    8.10
   2   3   4   97.09    7.30
   2   3   4   92.59   11.60
   2   3   4   94.99    7.30
  -3  -3  -4   82.19    8.10
  -3  -3  -4   88.09    8.30
  -3  -3  -4   84.99    7.70
  -3  -3  -4  108.69   11.50
  -3  -3  -4   82.39    9.50
  -3  -3  -4   91.49    9.00
   3   3   4   92.19   11.90
  -4  -3  -4  278.17   21.80
  -4  -3  -4  281.77   19.80
  -4  -3  -4  277.57   19.70
  -4  -3  -4  254.97   21.50
  -4  -3  -4  250.47   19.60
  -4  -3  -4  281.17   19.50
   4   3   4  262.77   23.10
  -5  -3  -4    3.50    3.30
  -5  -3  -4    6.30    2.90
  -5  -3  -4    9.50    2.70
  -5  -3  -4    4.50    3.30
  -5  -3  -4    7.00    6.30
   5   3   4    6.60    7.90
  -6  -3  -4   -8.50    3.80
   6   3   4   17.30    8.00
   6  -4  -4    3.60    5.80
   6  -4  -4   13.50    6.70
   6  -4  -4   11.20    7.40
  -6   4   4    2.30    7.30
  -6   4   4   13.60    5.20
   5  -4  -4   12.30    4.70
   5  -4  -4    9.50    6.40
   5  -4  -4    8.80    7.10
  -5   4   4    7.10    6.00
  -5   4   4   15.50    4.90
   4  -4  -4   16.60    7.00
   4  -4  -4   25.50    4.70
   4  -4  -4   12.70    6.00
  -4   4   4   25.80    5.30
  -4   4   4   15.40    6.10
  -4   4   4   21.20    5.00
   3  -4  -4  218.78   17.60
   3  -4  -4  213.38   19.30
   3  -4  -4  243.58   17.90
   3  -4  -4  246.08   18.50
   3  -4  -4  235.18   19.10
  -3   4   4  250.77   18.90
  -3   4   4  232.18   18.50
  -3   4   4  258.57   20.40
  -3   4   4  253.37   20.30
   2  -4  -4   91.39   10.00
   2  -4  -4   95.69    8.90
   2  -4  -4  104.49   10.50
   2  -4  -4  102.99    9.00
  -2   4   4   89.59    9.20
  -2   4   4   90.49   11.10
  -2   4   4   95.29    9.60
  -2   4   4  104.19   11.20
   1  -4  -4    7.20    4.10
   1  -4  -4   -0.40    3.10
   1  -4  -4    4.50    3.60
  -1   4   4    7.90    4.70
  -1   4   4    5.40    4.50
  -1   4   4    1.30    2.90
  -1   4   4    5.10    3.70
   0  -4  -4  220.18   17.00
   0  -4  -4  217.88   16.90
   0  -4  -4  227.08   17.20
   0   4   4  243.48   17.20
   0   4   4  226.98   16.90
   0   4   4  211.08   16.90
  -1  -4  -4  184.88   15.40
  -1  -4  -4  203.58   14.40
  -1  -4  -4  189.58   14.70
  -1  -4  -4  170.38   14.50
   1   4   4  219.18   14.60
   1   4   4  156.58   14.00
   1   4   4  186.48   14.20
  -2  -4  -4   89.99    7.70
  -2  -4  -4   84.49    7.70
  -2  -4  -4   89.19    8.20
  -2  -4  -4   82.79    8.70
   2   4   4   73.49    6.70
   2   4   4   75.29    6.40
   2   4   4   78.19   11.70
  -3  -4  -4  124.29    9.80
  -3  -4  -4  103.09   11.30
  -3  -4  -4  107.39   11.60
  -3  -4  -4  129.19   10.70
  -3  -4  -4  112.89    9.80
  -3  -4  -4  121.69   10.40
   3   4   4  104.79   13.50
  -4  -4  -4  215.88   18.10
  -4  -4  -4  236.68   16.30
  -4  -4  -4  199.58   15.90
  -4  -4  -4  202.28   19.90
  -4  -4  -4  210.38   15.80
   4   4   4  191.98   19.50
  -5  -4  -4   57.39    9.60
  -5  -4  -4   32.00    4.90
  -5  -4  -4   39.30    5.30
  -5  -4  -4   36.10    5.00
  -5  -4  -4   34.10    5.00
   5   4   4   47.90    9.60
   5  -5  -4   12.80    6.50
   5  -5  -4   -2.20    4.00
   5  -5  -4   -4.00    6.60
  -5   5   4   -0.20    5.80
  -5   5   4    1.80    4.90
   4  -5  -4   58.69    6.10
   4  -5  -4   62.89    6.10
   4  -5  -4   82.79   10.20
   4  -5  -4   77.99   10.20
  -4   5   4   79.59   11.60
  -4   5   4   78.19    9.10
   3  -5  -4  350.76   27.50
   3  -5  -4  385.86   28.20
   3  -5  -4  390.56   27.60
   3  -5  -4  380.36   28.50
  -3   5   4  418.66   29.70
  -3   5   4  355.56   28.20
  -3   5   4  385.86   29.90
  -3   5   4  395.36   28.50
   2  -5  -4    4.90    3.90
   2  -5  -4    9.90    3.70
   2  -5  -4    9.00    4.40
   2  -5  -4   17.50    5.00
  -2   5   4    7.30    6.50
  -2   5   4   16.00    4.00
  -2   5   4   14.80    5.10
  -2   5   4   12.80    4.60
   1  -5  -4  121.29   10.50
   1  -5  -4  100.69   10.40
   1  -5  -4  123.49   10.90
   1  -5  -4  103.99   10.00
  -1   5   4  111.09   10.80
  -1   5   4  105.79   10.40
  -1   5   4  110.29    9.50
  -1   5   4  110.49   11.20
   0  -5  -4  118.59   10.10
   0  -5  -4  110.29   10.60
   0  -5  -4  120.89   10.70
   0   5   4  101.49   10.20
   0   5   4  126.09   11.20
   0   5   4  125.49   10.70
  -1  -5  -4    1.10    3.20
  -1  -5  -4    3.20    3.50
  -1  -5  -4   12.30    3.60
   1   5   4    6.70    3.40
   1   5   4    5.90    3.60
   1   5   4    3.60    2.90
  -2  -5  -4   55.19    7.50
  -2  -5  -4   59.29    7.40
  -2  -5  -4   51.99    6.10
  -2  -5  -4   61.99    6.70
   2   5   4   68.79   10.20
   2   5   4   43.40    4.70
   2   5   4   45.00    5.50
  -3  -5  -4   48.10    6.10
  -3  -5  -4   40.80   10.20
  -3  -5  -4   43.80    7.10
   3   5   4   51.69    9.10
  -4  -5  -4  116.29   13.40
  -4  -5  -4  107.19    9.90
   4   5   4  133.89   17.00
  -5  -5  -4   34.80    5.30
  -5  -5  -4   49.80    7.10
  -5  -5  -4   32.50    5.20
  -5  -5  -4   41.20    5.60
   5   5   4   46.70   10.30
   5  -6  -4    4.50    4.30
   5  -6  -4    3.70    6.50
   5  -6  -4   14.00    9.40
  -5   6   4   -2.60    5.70
   4  -6  -4   40.40    5.90
   4  -6  -4   40.60    8.00
   4  -6  -4   39.50    5.00
   4  -6  -4   37.10    8.80
  -4   6   4   31.90    9.40
  -4   6   4   45.90    8.10
   3  -6  -4   85.59   10.80
   3  -6  -4  112.09   15.20
   3  -6  -4   78.29   10.50
   3  -6  -4   64.19    8.30
  -3   6   4   78.39   10.10
  -3   6   4   87.19   12.20
  -3   6   4   92.29   12.10
   2  -6  -4   68.09    9.50
   2  -6  -4   78.99    8.70
   2  -6  -4   81.49    9.20
   2  -6  -4   72.09    7.70
  -2   6   4   69.49    8.80
  -2   6   4   85.49    9.60
  -2   6   4   73.79   11.50
  -2   6   4   74.99   10.70
   1  -6  -4  253.17   19.30
   1  -6  -4  247.38   20.20
   1  -6  -4  281.77   19.70
   1  -6  -4  254.37   18.90
  -1   6   4  228.68   19.60
  -1   6   4  242.38   19.10
  -1   6   4  254.77   20.50
  -1   6   4  260.17   19.70
   0  -6  -4    9.50    4.50
   0  -6  -4    4.60    3.30
   0  -6  -4   15.30    4.50
   0   6   4    6.10    4.40
   0   6   4   11.00    4.70
   0   6   4   13.30    3.60
  -1  -6  -4   50.99    6.70
  -1  -6  -4   49.80    7.00
  -1  -6  -4   48.50    6.50
   1   6   4   50.29    6.50
   1   6   4   47.70    6.70
   1   6   4   52.39    6.30
  -2  -6  -4  551.64   41.90
  -2  -6  -4  592.84   40.90
  -2  -6  -4  587.94   41.00
  -2  -6  -4  623.34   41.30
   2   6   4  585.84   40.20
   2   6   4  553.64   40.00
   2   6   4  567.94   42.90
  -3  -6  -4   21.90    4.70
  -3  -6  -4   27.70    4.90
  -3  -6  -4   24.70    4.40
   3   6   4   19.20    8.50
  -4  -6  -4   20.40    4.40
  -4  -6  -4   18.00    6.10
  -4  -6  -4   16.00    4.40
  -4  -6  -4   19.90    4.30
   4   6   4   26.00    8.50
  -5  -6  -4    8.20    3.70
  -5  -6  -4   -8.00    4.00
  -5  -6  -4    4.40    3.60
   5   6   4    5.80    7.80
   5  -7  -4    7.20    6.50
   5  -7  -4   -6.00    4.80
   5  -7  -4    8.20    6.60
  -5   7   4   -8.20    5.40
  -5   7   4    9.50    5.10
   4  -7  -4    4.90    6.40
   4  -7  -4    4.10    3.20
   4  -7  -4    4.40    4.00
   4  -7  -4    6.80    2.80
   4  -7  -4    5.40    6.00
  -4   7   4   12.70    6.00
  -4   7   4   10.50    6.90
   3  -7  -4   81.49   10.10
   3  -7  -4   87.49   10.90
   3  -7  -4   76.39    9.80
  -3   7   4   95.89   12.40
  -3   7   4   76.79   10.20
  -3   7   4   63.09   10.30
   2  -7  -4   50.89    7.10
   2  -7  -4   37.30    8.40
   2  -7  -4   44.70    6.50
   2  -7  -4   44.10    7.30
  -2   7   4   39.90    8.00
  -2   7   4   37.90    7.50
  -2   7   4   57.79    9.10
   1  -7  -4  112.09   14.00
   1  -7  -4  122.59   11.90
   1  -7  -4  143.79   12.10
   1  -7  -4  127.79   11.80
  -1   7   4  124.69   11.20
  -1   7   4  124.29   13.30
  -1   7   4  115.99   11.80
  -1   7   4  139.09   12.40
   0  -7  -4  354.66   27.60
   0  -7  -4  410.46   28.10
   0  -7  -4  385.56   28.10
   0  -7  -4  363.76   26.90
   0   7   4  397.76   28.60
   0   7   4  394.46   27.90
   0   7   4  327.97   27.20
  -1  -7  -4   65.99    8.20
  -1  -7  -4   70.09    8.20
  -1  -7  -4   67.09    7.70
   1   7   4   75.99    9.20
   1   7   4   62.49    8.00
   1   7   4   59.09    8.20
  -2  -7  -4  295.87   21.50
  -2  -7  -4  312.37   21.60
  -2  -7  -4  273.27   21.10
   2   7   4  290.27   20.40
   2   7   4  224.98   21.00
   2   7   4  278.27   24.30
  -3  -7  -4   25.60    4.90
  -3  -7  -4   20.90    4.70
  -3  -7  -4   26.80    5.40
  -3  -7  -4   27.00    4.60
   3   7   4   41.40    9.90
  -4  -7  -4   15.90    4.90
  -4  -7  -4   18.30    4.50
  -4  -7  -4   10.30    4.60
   4   7   4   27.00    8.40
  -5  -7  -4    2.30    3.80
  -5  -7  -4   14.10    4.60
   5   7   4   26.00    8.70
   5  -8  -4    7.00    5.30
   5  -8  -4    7.90    6.50
   5  -8  -4    5.10    6.60
  -5   8   4   -1.00    7.00
  -5   8   4   13.80    5.90
   4  -8  -4    2.80    5.60
   4  -8  -4   20.80    6.90
   4  -8  -4   18.30    4.50
   4  -8  -4   16.50    7.20
   4  -8  -4   17.90    5.00
  -4   8   4   21.70    8.00
  -4   8   4   15.90    6.60
   3  -8  -4    5.40    6.20
   3  -8  -4   -0.40    5.40
   3  -8  -4   -4.40    3.80
   3  -8  -4    0.20    3.90
  -3   8   4   -0.70    5.50
  -3   8   4    4.70    6.00
   2  -8  -4   19.70    5.50
   2  -8  -4   24.90    6.50
  -2   8   4   20.30    6.00
  -2   8   4   14.90    6.60
  -2   8   4   27.70    6.80
   1  -8  -4   65.39    8.10
   1  -8  -4   60.69    8.00
   1  -8  -4   46.00    7.40
  -1   8   4   57.19    7.40
  -1   8   4   56.79    8.20
  -1   8   4   45.30    8.40
   0  -8  -4  120.89   13.10
   0  -8  -4  149.29   13.60
   0  -8  -4  151.28   14.60
   0   8   4  146.69   13.30
   0   8   4  139.99   14.10
   0   8   4  127.49   12.30
  -1  -8  -4   24.20    5.50
  -1  -8  -4   22.40    6.00
   1   8   4   22.40    5.40
   1   8   4   15.90    5.00
   1   8   4   15.10    4.20
  -2  -8  -4   13.50    4.60
   2   8   4   12.90    2.90
   2   8   4   18.20    3.60
   2   8   4   21.40    8.40
  -3  -8  -4   28.80    5.60
  -3  -8  -4    9.50    4.30
  -3  -8  -4   19.00    4.10
   3   8   4   21.00    8.50
  -4  -8  -4   -5.90    4.50
  -4  -8  -4   11.30    4.80
   4   8   4   -1.80    7.40
   4  -9  -4   21.00    6.60
   4  -9  -4   19.80    4.70
   4  -9  -4   18.70    7.00
   4  -9  -4   27.20    6.10
  -4   9   4   25.00    6.50
  -4   9   4   23.40    9.00
   3  -9  -4    9.30    4.70
   3  -9  -4    2.30    6.50
   3  -9  -4    4.00    5.40
  -3   9   4    1.70    6.10
  -3   9   4   13.30    6.40
   2  -9  -4   16.60    5.50
   2  -9  -4   18.10    5.80
  -2   9   4    7.60    6.30
  -2   9   4   -0.70    7.80
   1  -9  -4   54.89    7.20
   1  -9  -4   49.99    7.90
  -1   9   4   59.69    9.00
  -1   9   4   53.79    7.70
  -1   9   4   41.90    8.60
   0  -9  -4    8.90    4.10
   0  -9  -4   -3.20    4.60
   0   9   4    0.30    5.10
   0   9   4    5.00    5.40
  -1  -9  -4   26.80    4.50
  -1  -9  -4   23.20    6.20
  -1  -9  -4   19.70    5.40
   1   9   4   22.10    4.40
   1   9   4   12.90    5.80
   1   9   4   32.60    6.20
  -2  -9  -4   48.40    7.60
  -2  -9  -4   40.20    6.50
   2   9   4   34.00    4.80
   2   9   4   46.40    5.70
   2   9   4   57.09   11.10
  -3  -9  -4   28.40    6.20
  -3  -9  -4   24.80    4.30
  -3  -9  -4    8.10    5.50
   3   9   4   40.10    9.10
   4   9   4   41.10   10.20
   4 -10  -4   34.70    7.90
   4 -10  -4   22.90    6.80
   4 -10  -4   30.10    6.70
  -4  10   4   35.90   10.10
  -4  10   4   46.40    8.50
   3 -10  -4   12.10    5.00
   3 -10  -4    5.30    5.10
   3 -10  -4    2.70    6.80
  -3  10   4    4.20    6.20
  -3  10   4    8.30    5.90
   2 -10  -4    5.80    4.90
  -2  10   4   -1.20    6.30
  -2  10   4    7.00    6.60
  -2  10   4   -2.00    5.30
   1 -10  -4   12.60    4.40
   1 -10  -4   13.90    6.50
  -1  10   4   17.20    6.20
  -1  10   4    3.50    9.40
   0 -10  -4   28.50    4.60
   0 -10  -4   24.40    6.30
   0  10   4   18.60    6.80
   0  10   4   25.90    6.80
  -1 -10  -4   46.20    7.90
  -1 -10  -4   46.60    6.40
   1  10   4   55.39    7.90
  -2 -10  -4   64.49    8.70
   2  10   4   43.10    5.80
   2  10   4   55.99    6.40
   2  10   4   51.89   10.20
  -3 -10  -4    1.10    4.30
   3  10   4    3.20    7.70
   3 -11  -4   -2.60    6.50
   3 -11  -4    0.60    5.50
   3 -11  -4    5.40    4.70
  -3  11   4    7.00    6.40
  -3  11   4   -4.10    6.80
   2 -11  -4   31.20    6.00
  -2  11   4   26.70    7.50
  -2  11   4   48.40    8.30
   1 -11  -4    5.60    4.10
   1 -11  -4    7.80    5.60
  -1  11   4   11.10    6.50
  -1  11   4    7.10    6.80
  -1  11   4    5.70    5.50
   0 -11  -4    1.60    3.30
   0 -11  -4   -3.90    4.70
   0  11   4    8.50    5.70
   0  11   4   -2.90    5.80
  -1 -11  -4   49.80    7.70
   1  11   4   36.00    8.80
  -2 -11  -4   10.40    5.70
   2  11   4   11.20    8.40
   2  11   4   17.70    4.50
   2 -12  -4   15.70    5.40
   2 -12  -4   23.90    6.20
  -2  12   4   29.30    7.20
  -2  12   4   21.20    8.50
   1 -12  -4   17.00    4.40
   1 -12  -4    3.40    5.50
  -1  12   4    8.90    6.60
  -1  12   4    6.80    7.50
   0 -12  -4    3.90    6.30
   0 -12  -4   16.30    3.80
   0  12   4   14.30    5.70
   0  12   4   18.90    7.00
  -1 -12  -4   33.70    7.70
   1  12   4   25.80    9.40
   1  12   4   35.30    7.10
   0  15  -5   17.40    6.60
  -1  15  -5   29.60    7.40
   1 -15   5   10.30    6.70
   2  14  -5   -5.90    4.00
   2  14  -5   24.20   15.00
   2  14  -5    2.10   10.60
  -2 -14   5    6.70    4.70
   1  14  -5   36.10    7.20
   1  14  -5   16.90    6.80
  -1 -14   5   23.50    5.90
   0  14  -5   17.30    6.80
   0  14  -5   27.30    6.40
   0 -14   5   17.80    5.70
  -1  14  -5    0.80    6.20
  -1  14  -5   16.30    5.40
   1 -14   5    1.30    4.60
   1 -14   5    6.90    5.90
  -2  14  -5   32.20    8.40
   2 -14   5   32.60    7.20
   2 -14   5   21.90    5.80
   3  13  -5    8.90    7.40
   3  13  -5    9.50   11.60
  -3 -13   5    0.60    3.80
   2  13  -5   18.20   11.40
   2  13  -5    0.70    4.50
   2  13  -5    7.90    6.50
  -2 -13   5   12.20    4.60
   1  13  -5   21.40    6.80
   1  13  -5   14.80    7.00
  -1 -13   5   12.10    5.10
   0  13  -5   23.30    6.80
   0  13  -5   24.80    5.80
   0 -13   5   21.90    6.00
  -1  13  -5   12.30    4.90
  -1  13  -5   10.30    6.60
   1 -13   5    4.40    4.90
   1 -13   5    1.40    5.80
  -2  13  -5   26.40    8.20
  -2  13  -5   29.80    8.20
   2 -13   5   23.10    6.10
   2 -13   5   27.00    6.90
  -3  13  -5   18.20    6.40
  -3  13  -5   15.80    7.90
   3 -13   5   14.50    8.70
   3 -13   5   16.00    6.70
   3 -13   5   17.30    5.40
   3  12  -5   32.00   12.70
   3  12  -5   48.70    9.70
  -3 -12   5   36.20    6.40
   2  12  -5    8.40   11.60
   2  12  -5   14.70    7.00
   2  12  -5    4.40    4.70
   2  12  -5   -7.00    3.20
  -2 -12   5   13.20    4.60
   1  12  -5   13.80    6.20
   1  12  -5    2.60    5.20
  -1 -12   5    9.30    5.20
   0  12  -5   66.79    9.20
   0  12  -5   70.29    9.90
   0 -12   5   51.79    8.40
  -1  12  -5    7.20    4.70
  -1  12  -5    5.90    5.50
   1 -12   5   12.90    6.50
   1 -12   5   -0.20    3.70
  -2  12  -5    1.70    6.10
  -2  12  -5    4.20    3.40
  -2  12  -5   10.90    6.30
   2 -12   5    4.20    5.90
   2 -12   5   -3.90    4.30
  -3  12  -5   17.30    7.80
  -3  12  -5   18.00    6.10
   3 -12   5    4.90    6.50
   3 -12   5   11.40    5.50
   3 -12   5   13.40    8.00
  -4  12  -5    2.90    8.10
  -4  12  -5    4.60    5.70
   4 -12   5   13.30    5.50
   4 -12   5    0.40    7.80
   4 -12   5   13.80    6.00
   4  11  -5   13.90    6.90
   4  11  -5   22.00   12.40
   3  11  -5    4.80    6.50
   3  11  -5   31.20   21.10
  -3 -11   5    7.80    3.90
   2  11  -5   20.40    5.10
   2  11  -5   21.60    7.10
   2  11  -5   18.20    4.00
   2  11  -5   15.40   10.80
  -2 -11   5   17.10    5.10
   1  11  -5    5.00    5.90
   1  11  -5    0.70    4.00
   1  11  -5    0.10    4.80
  -1 -11   5    8.50    4.60
   0  11  -5   22.20    6.20
   0  11  -5   18.80    5.40
   0 -11   5   21.60    5.40
  -1  11  -5  192.18   17.00
   1 -11   5  189.28   16.20
   1 -11   5  193.78   17.10
  -2  11  -5   49.00    6.70
  -2  11  -5   67.99    9.60
  -2  11  -5   60.79    9.70
   2 -11   5   55.89    7.60
   2 -11   5   64.09    9.20
  -3  11  -5    6.00    5.10
  -3  11  -5   14.10    6.70
   3 -11   5    6.70    4.60
   3 -11   5    5.20    6.30
   3 -11   5   -4.50    6.00
  -4  11  -5   37.00    7.60
  -4  11  -5   30.80    8.20
   4 -11   5   22.40    7.50
   4 -11   5   24.10    4.60
   4 -11   5   18.50    8.10
   4  10  -5   32.40    8.30
   4  10  -5   49.99   12.60
  -4 -10   5   29.10    5.60
   3  10  -5   10.40    6.90
   3  10  -5  -14.20    9.80
  -3 -10   5   -0.70    3.40
   2  10  -5   67.59   10.20
   2  10  -5   80.09    8.60
   2  10  -5   63.99    6.90
   2  10  -5   92.29   14.60
  -2 -10   5   73.59    8.80
   1  10  -5   12.00    3.70
   1  10  -5    8.80    5.00
   1  10  -5    0.80   10.50
  -1 -10   5    9.20    4.20
   0  10  -5    4.50    4.60
   0  10  -5    7.00    5.30
   0  10  -5    1.90    3.60
   0 -10   5    0.50    4.20
  -1  10  -5   42.40    7.40
   1 -10   5   46.80    7.70
   1 -10   5   40.50    6.40
   1 -10   5   34.70    5.70
  -2  10  -5  111.19   11.70
  -2  10  -5  106.59   13.50
  -2  10  -5   87.59    9.20
   2 -10   5  116.99   12.20
   2 -10   5  102.29   10.50
   2 -10   5  105.89   10.20
  -3  10  -5   21.50    7.00
  -3  10  -5   15.00    6.30
   3 -10   5   20.20    3.90
   3 -10   5   28.90    9.80
   3 -10   5   33.60   14.20
   3 -10   5   21.00    5.10
  -4  10  -5    8.00    5.50
  -4  10  -5    9.30    4.80
  -4  10  -5   13.30    7.30
   4 -10   5   20.90    3.70
   4 -10   5   22.00    8.00
   4 -10   5   11.10    6.50
  -5  10  -5    5.70    6.10
  -5  10  -5   -3.70    4.70
   5 -10   5   -4.20    6.00
   5 -10   5    2.60    7.00
   5   9  -5   28.70   12.30
   4   9  -5   15.40   12.00
  -4  -9   5    6.10    4.60
  -4  -9   5   10.10    4.10
   3   9  -5    6.40    6.30
   3   9  -5   -4.60    9.70
  -3  -9   5    5.80    3.30
  -3  -9   5    4.70    3.50
   2   9  -5  104.09    9.10
   2   9  -5   92.79   13.00
   2   9  -5  131.39   17.40
   2   9  -5  120.69   10.20
  -2  -9   5  107.59   10.30
  -2  -9   5  108.19   10.70
   1   9  -5   26.30    6.00
   1   9  -5   49.90    6.30
   1   9  -5   35.50    5.50
  -1  -9   5   35.00    5.50
  -1  -9   5   21.50    5.40
  -1  -9   5   28.50    4.90
   0   9  -5   16.90    4.70
   0   9  -5   19.00    3.90
   0   9  -5   26.10    5.70
   0  -9   5   17.60    4.90
   0  -9   5   26.20    4.40
   0  -9   5   26.30    4.90
  -1   9  -5   12.70    5.70
  -1   9  -5    9.20    4.10
  -1   9  -5    7.50    3.30
  -1   9  -5    8.40    5.10
   1  -9   5    4.00    4.30
   1  -9   5   12.30    4.00
   1  -9   5   11.40    5.40
   1  -9   5   11.50    3.50
  -2   9  -5   37.70    6.70
  -2   9  -5   32.80    7.00
  -2   9  -5   28.90    7.60
   2  -9   5   32.90    7.20
   2  -9   5   39.80    5.90
   2  -9   5   39.60    6.20
   2  -9   5   26.70    5.70
  -3   9  -5   20.70    6.70
  -3   9  -5   18.80    5.70
  -3   9  -5   27.50    6.40
   3  -9   5   26.80    7.20
   3  -9   5   27.60    4.10
   3  -9   5   31.70    8.00
   3  -9   5   23.20    4.90
  -4   9  -5   28.20    7.70
  -4   9  -5   26.90    5.80
  -4   9  -5   17.00    5.60
   4  -9   5   26.00    3.70
   4  -9   5   27.50    7.40
   4  -9   5   31.80    8.70
   4  -9   5   20.70    3.50
  -5   9  -5    9.80    4.70
  -5   9  -5   -6.20    5.80
   5  -9   5   14.90    7.30
   5  -9   5    3.60    6.70
   5   8  -5   53.59   13.40
  -5  -8   5   53.69    6.40
   4   8  -5   36.80   11.20
  -4  -8   5   18.20    4.10
  -4  -8   5   19.00    4.60
  -4  -8   5   29.60    4.80
   3   8  -5   21.10    7.30
   3   8  -5   23.20   10.40
  -3  -8   5   22.70    4.50
  -3  -8   5   19.50    4.60
   2   8  -5   -1.90    8.90
   2   8  -5   -2.60    5.50
   2   8  -5    5.40    3.30
  -2  -8   5    3.70    3.40
  -2  -8   5   -0.20    3.80
  -2  -8   5   -0.70    3.30
   1   8  -5   93.89    9.60
   1   8  -5   83.89    9.00
   1   8  -5   69.99    8.20
  -1  -8   5   86.29    8.30
  -1  -8   5   79.59    8.60
  -1  -8   5   98.19    8.70
   0   8  -5   19.90    5.00
   0   8  -5   18.20    3.90
   0   8  -5   15.20    3.60
   0   8  -5   14.20    2.70
   0  -8   5   16.80    4.10
   0  -8   5   15.00    3.80
   0  -8   5   16.40    3.10
  -1   8  -5  135.89   12.80
  -1   8  -5  171.18   15.70
  -1   8  -5  171.68   14.20
   1  -8   5  197.38   14.70
   1  -8   5  158.48   12.90
   1  -8   5  197.78   13.80
   1  -8   5  155.58   14.00
  -2   8  -5  351.36   27.10
  -2   8  -5  374.66   28.40
  -2   8  -5  340.87   26.70
   2  -8   5  354.76   26.50
   2  -8   5  386.56   26.70
   2  -8   5  367.96   27.30
   2  -8   5  380.66   27.50
  -3   8  -5  145.39   13.60
  -3   8  -5  110.79   11.30
  -3   8  -5  103.99    9.90
  -3   8  -5  106.89   11.30
   3  -8   5  113.89   10.10
   3  -8   5  106.59   12.60
   3  -8   5  109.09   13.30
   3  -8   5  113.69    9.50
  -4   8  -5   11.70    6.60
  -4   8  -5   18.10    5.00
  -4   8  -5   19.70    6.20
   4  -8   5   12.80    7.60
   4  -8   5   11.70    2.40
   4  -8   5   12.10    7.90
   4  -8   5   14.60    2.60
  -5   8  -5   -0.50    4.30
  -5   8  -5   -2.20    5.20
  -5   8  -5  -11.40   11.20
   5  -8   5    5.50    7.20
   5  -8   5   14.30    6.60
   5   7  -5   72.89   14.20
  -5  -7   5   39.60    5.20
  -5  -7   5   50.89    5.70
  -5  -7   5   24.10    5.40
   4   7  -5    0.90    9.30
  -4  -7   5   11.80    3.50
  -4  -7   5    6.00    4.60
  -4  -7   5    3.80    3.20
  -4  -7   5    8.40    3.80
   3   7  -5   26.80    7.70
   3   7  -5   25.30    3.70
   3   7  -5   38.10   10.60
  -3  -7   5   38.60    5.10
  -3  -7   5   35.60    4.50
  -3  -7   5   26.90    6.80
  -3  -7   5   34.00    4.80
   2   7  -5   22.20    3.70
   2   7  -5   26.00    4.20
   2   7  -5   23.20    6.10
   2   7  -5   34.10   10.10
  -2  -7   5   27.60    4.30
  -2  -7   5   18.10    5.40
  -2  -7   5   19.70    3.80
   1   7  -5    5.50    4.50
   1   7  -5   10.70    3.10
  -1  -7   5    9.60    3.20
  -1  -7   5    5.40    3.10
  -1  -7   5   13.40    3.40
   0   7  -5   85.29    8.50
   0   7  -5  104.89    8.10
   0   7  -5  101.49    9.30
   0  -7   5   89.39    8.20
   0  -7   5   89.49    9.90
   0  -7   5  104.39    9.00
  -1   7  -5   15.20    3.00
  -1   7  -5   28.60    5.00
  -1   7  -5   17.40    4.80
  -1   7  -5   17.10    5.10
   1  -7   5   16.00    3.70
   1  -7   5   20.40    4.00
   1  -7   5   20.10    4.90
  -2   7  -5  460.85   31.80
  -2   7  -5  455.65   31.50
  -2   7  -5  393.56   31.40
  -2   7  -5  446.56   32.60
   2  -7   5  421.46   31.20
   2  -7   5  448.36   32.40
   2  -7   5  445.76   31.80
   2  -7   5  471.05   31.30
   2  -7   5  403.86   32.00
  -3   7  -5  174.28   14.10
  -3   7  -5  177.48   14.60
  -3   7  -5  172.48   15.00
  -3   7  -5  175.48   15.20
  -3   7  -5  182.28   16.70
   3  -7   5  177.38   16.40
   3  -7   5  172.98   15.70
   3  -7   5  196.68   13.50
   3  -7   5  172.58   15.20
   3  -7   5  165.38   13.80
  -4   7  -5   15.10    4.80
  -4   7  -5    5.50    5.90
  -4   7  -5   14.50    5.70
   4  -7   5    2.90    3.30
   4  -7   5    9.40    6.60
   4  -7   5    7.20    6.10
  -5   7  -5   17.80    4.90
  -5   7  -5   13.70    6.10
   5  -7   5   23.20    7.60
   5  -7   5   13.10    7.90
   5   6  -5   19.00   11.30
   5   6  -5   12.90    5.00
  -5  -6   5   20.90    3.50
  -5  -6   5   13.90    3.60
  -5  -6   5    4.50    3.90
   4   6  -5   -2.90    4.60
   4   6  -5   -0.90   10.00
  -4  -6   5    5.50    3.80
  -4  -6   5    4.20    3.30
  -4  -6   5    4.30    2.50
   3   6  -5  305.17   24.50
   3   6  -5  258.27   20.60
  -3  -6   5  269.37   21.50
  -3  -6   5  273.77   20.60
  -3  -6   5  305.57   20.80
  -3  -6   5  294.67   20.80
   2   6  -5    3.60    2.60
   2   6  -5   11.00    5.30
   2   6  -5    5.50    2.90
   2   6  -5    9.80    3.10
   2   6  -5    4.70    7.60
  -2  -6   5    8.00    3.20
  -2  -6   5   11.30    4.40
  -2  -6   5    6.40    2.90
   1   6  -5   33.40    4.60
   1   6  -5   38.60    5.30
   1   6  -5   45.00    5.90
  -1  -6   5   46.90    5.60
  -1  -6   5   36.20    4.90
  -1  -6   5   49.50    5.50
   0   6  -5  333.47   22.80
   0   6  -5  263.47   22.30
   0  -6   5  353.56   22.70
   0  -6   5  282.87   23.00
   0  -6   5  340.87   22.50
   0  -6   5  299.87   22.40
  -1   6  -5   26.30    5.30
  -1   6  -5   32.50    4.60
  -1   6  -5   41.80    6.40
  -1   6  -5   36.40    4.90
   1  -6   5   29.70    4.30
   1  -6   5   39.30    5.40
   1  -6   5   30.90    5.30
   1  -6   5   43.00    5.40
  -2   6  -5   21.60    5.10
  -2   6  -5   27.70    5.30
  -2   6  -5   29.00    5.10
  -2   6  -5   28.20    4.50
   2  -6   5   32.70    5.70
   2  -6   5   31.40    4.40
   2  -6   5   26.90    4.20
   2  -6   5   28.90    6.30
   2  -6   5   24.10    4.70
  -3   6  -5   44.40    6.30
  -3   6  -5   51.79    9.80
  -3   6  -5   25.40    6.70
  -3   6  -5   33.40    5.40
  -3   6  -5   68.19    7.40
   3  -6   5   49.60    7.90
   3  -6   5   48.20    5.30
   3  -6   5   51.59    7.40
   3  -6   5   32.80    5.70
   3  -6   5   52.49    4.70
  -4   6  -5   42.80    6.10
  -4   6  -5   48.50    6.90
  -4   6  -5   66.19    8.30
  -4   6  -5   49.90    7.90
   4  -6   5   44.70    8.00
   4  -6   5   39.10    8.20
   4  -6   5   43.70    5.90
  -5   6  -5   14.80    5.00
  -5   6  -5   25.00    8.80
  -5   6  -5   20.30    6.50
   5  -6   5   13.10    4.50
   5  -6   5   39.70    8.00
   5  -6   5   14.30    6.90
  -6   6  -5    3.80    4.90
  -6   6  -5    0.60    5.80
   6  -6   5   13.30    8.60
   6  -6   5    8.40    7.10
   6   5  -5   13.80   10.70
  -6  -5   5    3.10    5.50
  -6  -5   5    4.90    3.00
   5   5  -5   18.70   11.70
   5   5  -5   14.20    6.50
  -5  -5   5    4.70    5.20
  -5  -5   5    9.40    3.20
  -5  -5   5   17.40    4.00
  -5  -5   5    8.30    3.10
   4   5  -5   16.00   10.40
   4   5  -5    4.50    5.40
  -4  -5   5    8.90    3.60
  -4  -5   5   20.50    3.80
  -4  -5   5   11.30    3.20
  -4  -5   5   20.40    5.00
   3   5  -5  228.98   19.80
   3   5  -5  197.78   15.70
  -3  -5   5  190.78   15.20
  -3  -5   5  202.78   15.00
  -3  -5   5  206.28   15.30
  -3  -5   5  186.58   15.80
  -3  -5   5  208.38   16.40
   2   5  -5   94.49   12.80
   2   5  -5   74.29    7.50
   2   5  -5   95.79    7.80
   2   5  -5   98.49    8.30
  -2  -5   5   87.99    8.20
  -2  -5   5  107.49   10.00
  -2  -5   5  104.69    8.30
   1   5  -5  151.88   12.30
   1   5  -5  178.78   12.70
  -1  -5   5  161.98   13.00
  -1  -5   5  182.58   12.70
  -1  -5   5  146.39   12.50
   0   5  -5   95.49    8.40
   0   5  -5   84.39    8.00
   0  -5   5   85.69    8.00
   0  -5   5   97.79    8.20
   0  -5   5   69.59    9.20
   0  -5   5  104.39    8.20
  -1   5  -5   47.20    5.70
  -1   5  -5   32.80    4.70
   1  -5   5   31.10    5.00
   1  -5   5   38.40    4.60
   1  -5   5   38.60    4.80
   1  -5   5   48.20    6.40
  -2   5  -5  101.29   10.50
  -2   5  -5  130.89   11.10
  -2   5  -5  114.69   10.30
  -2   5  -5  117.39   10.00
  -2   5  -5  104.79   10.90
   2  -5   5  124.09    9.60
   2  -5   5  130.59   10.90
   2  -5   5  109.99    9.70
   2  -5   5  125.29   11.60
  -3   5  -5  248.78   17.40
  -3   5  -5  232.18   18.20
  -3   5  -5  221.28   18.10
  -3   5  -5  239.38   17.30
  -3   5  -5  197.28   18.20
  -3   5  -5  223.08   17.10
   3  -5   5  220.08   15.90
   3  -5   5  223.58   18.00
   3  -5   5  213.18   17.40
   3  -5   5  216.28   16.00
   3  -5   5  233.78   18.70
  -4   5  -5   21.70    4.50
  -4   5  -5   24.60    5.70
  -4   5  -5   23.60    6.40
  -4   5  -5   21.20    4.60
   4  -5   5   13.70    6.90
   4  -5   5   12.50    3.60
   4  -5   5   18.50    5.90
  -5   5  -5   51.49    7.00
  -5   5  -5   33.80   10.00
  -5   5  -5   54.89    7.80
  -5   5  -5   51.39    6.20
   5  -5   5   46.00    8.70
   5  -5   5   64.99   10.20
  -6   5  -5   17.10    6.50
  -6   5  -5   21.30    4.80
   6  -5   5   36.60    8.40
   6  -5   5   37.40    8.90
   6   4  -5   28.40    7.40
   6   4  -5   11.20   11.10
  -6  -4   5    4.40    5.20
  -6  -4   5   27.50    5.80
  -6  -4   5   14.90    6.40
   5   4  -5   22.80   11.30
   5   4  -5    8.00    6.80
  -5  -4   5   14.00    3.30
  -5  -4   5   16.60    6.50
  -5  -4   5   20.80    3.30
  -5  -4   5   10.10    4.10
   4   4  -5   26.60    6.10
   4   4  -5   10.70   10.10
  -4  -4   5   24.30    3.60
  -4  -4   5   17.00    3.70
  -4  -4   5   21.70    5.30
   3   4  -5  154.88   12.90
   3   4  -5  173.78   16.80
  -3  -4   5  154.68   12.00
  -3  -4   5  150.28   13.30
  -3  -4   5  147.19   15.60
  -3  -4   5  157.08   12.10
  -3  -4   5  162.48   11.80
  -3  -4   5  150.68   12.90
   2   4  -5 1371.86   89.39
   2   4  -5 1179.38   92.39
   2   4  -5 1349.27   89.59
  -2  -4   5 1412.86   89.79
  -2  -4   5 1188.98   89.09
  -2  -4   5 1363.16   90.29
  -2  -4   5 1348.86   90.39
   1   4  -5  116.29   11.50
   1   4  -5  103.79    8.80
   1   4  -5   87.69    8.40
  -1  -4   5   98.19    8.80
  -1  -4   5   98.39    9.40
  -1  -4   5  121.19    8.80
   0   4  -5   68.69    6.90
   0   4  -5   87.49    7.50
   0  -4   5   71.89    6.40
   0  -4   5   79.39    7.00
   0  -4   5   75.69    6.80
   0  -4   5   90.69    7.10
  -1   4  -5  191.88   16.00
  -1   4  -5  193.98   16.00
  -1   4  -5  230.78   16.10
   1  -4   5  227.78   16.50
   1  -4   5  235.48   16.00
   1  -4   5  212.18   16.30
   1  -4   5  194.08   15.70
   1  -4   5  232.58   15.70
  -2   4  -5  436.76   33.80
  -2   4  -5  503.65   33.70
  -2   4  -5  476.05   33.80
  -2   4  -5  517.25   34.00
  -2   4  -5  470.75   33.60
   2  -4   5  494.85   35.00
   2  -4   5  488.05   33.30
   2  -4   5  469.55   33.70
   2  -4   5  519.25   33.30
   2  -4   5  412.66   35.70
  -3   4  -5  127.59   10.80
  -3   4  -5  126.59   10.90
  -3   4  -5  130.79   11.50
  -3   4  -5  128.09   11.20
  -3   4  -5  128.79   11.70
  -3   4  -5  134.99   10.70
   3  -4   5  116.19   10.70
   3  -4   5  142.69   12.10
   3  -4   5  124.49   12.70
  -4   4  -5   63.99    9.10
  -4   4  -5   56.79    6.90
  -4   4  -5   58.39    9.70
  -4   4  -5   56.59    7.20
  -4   4  -5   57.99    7.50
   4  -4   5   57.19    9.30
   4  -4   5   59.29    8.50
   4  -4   5   52.09    6.30
  -5   4  -5    9.00    3.80
  -5   4  -5    5.80    4.60
  -5   4  -5    9.60    4.00
   5  -4   5   11.20    6.90
  -6   4  -5   11.40    5.20
  -6   4  -5   18.50    4.60
   6  -4   5   37.40    8.70
   6  -4   5   22.60    7.40
   6   3  -5   25.60   10.90
  -6  -3   5    1.50    3.60
  -6  -3   5   10.90    6.10
  -6  -3   5   21.30    6.10
   5   3  -5   33.20   15.30
   5   3  -5   34.10    7.60
  -5  -3   5   30.00    4.00
  -5  -3   5   25.40    4.60
  -5  -3   5   13.60    5.10
  -5  -3   5   24.40    6.90
  -5  -3   5   23.20    4.20
   4   3  -5  132.19   12.60
   4   3  -5  128.09   17.10
  -4  -3   5  112.69    9.90
  -4  -3   5  122.99   11.00
  -4  -3   5  136.39   13.50
  -4  -3   5  121.79    9.80
  -4  -3   5   96.79   15.90
  -4  -3   5  118.59    9.80
   3   3  -5   30.80    8.70
   3   3  -5   16.40    6.00
  -3  -3   5   21.10    4.20
  -3  -3   5   19.10    3.70
  -3  -3   5   22.70    3.90
  -3  -3   5   22.50    6.70
  -3  -3   5   20.60    3.10
  -3  -3   5   23.60    4.60
   2   3  -5  712.83   47.50
   2   3  -5  712.93   49.50
   2   3  -5  743.73   48.00
   2   3  -5  607.74   47.40
  -2  -3   5  638.24   48.90
  -2  -3   5  705.93   48.50
  -2  -3   5  706.63   47.80
  -2  -3   5  738.03   47.80
   1   3  -5  214.88   15.20
   1   3  -5  203.68   17.30
   1   3  -5  168.28   14.70
  -1  -3   5  224.88   15.10
  -1  -3   5  220.78   15.50
  -1  -3   5  204.28   15.00
   0   3  -5   64.79    6.30
   0   3  -5   76.29    6.70
   0   3  -5   69.99    6.00
   0  -3   5   65.79    6.20
   0  -3   5   58.59    6.40
   0  -3   5   85.09    6.50
  -1   3  -5 1410.36  101.79
  -1   3  -5 1571.94  101.89
  -1   3  -5 1466.35  101.79
   1  -3   5 1645.14  101.69
   1  -3   5 1528.45  101.79
   1  -3   5 1416.86  101.29
   1  -3   5 1513.85  101.89
   1  -3   5 1416.06  101.59
   1  -3   5 1511.55  101.79
  -2   3  -5 1110.89   84.69
  -2   3  -5 1323.87   84.59
  -2   3  -5 1231.28   84.19
  -2   3  -5 1247.78   84.29
  -2   3  -5 1141.69   84.49
  -2   3  -5 1197.88   84.89
   2  -3   5 1237.78   84.19
   2  -3   5 1230.38   84.49
   2  -3   5 1349.16   83.99
   2  -3   5 1315.97   84.19
   2  -3   5 1262.67   84.79
   2  -3   5 1179.68   83.89
  -3   3  -5   40.30    5.60
  -3   3  -5   44.40    5.90
  -3   3  -5   47.90    7.00
  -3   3  -5   43.50    5.40
  -3   3  -5   47.80    6.30
  -3   3  -5   48.10    6.30
   3  -3   5   47.60    7.30
   3  -3   5   51.59    7.20
   3  -3   5   37.40    5.20
  -4   3  -5   17.20    7.10
  -4   3  -5   17.50    7.40
  -4   3  -5   21.00    3.90
  -4   3  -5   26.60    4.40
  -4   3  -5   24.00    4.80
  -4   3  -5   22.40    8.10
   4  -3   5   21.60    6.50
   4  -3   5   16.50    6.90
  -5   3  -5    5.50    3.60
  -5   3  -5    4.80    3.50
  -5   3  -5    8.60    4.30
   5  -3   5   13.40    9.00
   5  -3   5    4.10   13.00
  -6   3  -5    1.30    4.30
  -6   3  -5    2.40    3.50
  -6   3  -5    8.70    3.80
   6  -3   5    3.10    6.30
   6  -3   5    8.10    8.30
   6   2  -5    3.30    7.90
  -6  -2   5    7.30    3.40
  -6  -2   5    1.30    5.50
   5   2  -5    9.20    7.20
   5   2  -5   23.00   16.10
  -5  -2   5   21.90    3.70
  -5  -2   5   22.10    4.00
  -5  -2   5   13.00    6.40
  -5  -2   5   11.60    4.30
   4   2  -5  118.19   16.40
   4   2  -5  133.29   13.00
  -4  -2   5  108.19   12.70
  -4  -2   5  125.79    9.90
  -4  -2   5  109.49    9.50
  -4  -2   5  119.09   10.40
  -4  -2   5  111.39    9.80
   3   2  -5   36.40    9.40
   3   2  -5   27.40    5.90
  -3  -2   5   33.50    5.60
  -3  -2   5   34.70    4.50
  -3  -2   5   34.70    6.30
  -3  -2   5   26.30    4.70
  -3  -2   5   30.30    4.30
  -3  -2   5   30.00    6.50
   2   2  -5  250.77   18.50
   2   2  -5  248.48   20.60
   2   2  -5  221.68   17.40
   2   2  -5  264.47   17.70
  -2  -2   5  269.77   17.90
  -2  -2   5  245.48   20.00
  -2  -2   5  254.67   19.00
  -2  -2   5  260.67   18.00
  -2  -2   5  228.88   17.60
   1   2  -5  644.64   46.50
   1   2  -5  688.03   45.70
   1   2  -5  608.14   45.50
  -1  -2   5  669.03   45.70
  -1  -2   5  712.23   45.60
   0   2  -5  192.78   15.30
   0   2  -5  217.18   15.40
   0  -2   5  197.58   15.20
   0  -2   5  205.28   15.00
   0  -2   5  208.78   15.20
   0  -2   5  242.98   15.40
  -1   2  -5  103.69    8.90
  -1   2  -5   95.79    8.30
  -1   2  -5  104.59    8.40
  -1   2  -5  100.39    9.00
   1  -2   5   79.19    7.90
   1  -2   5   93.49    8.00
   1  -2   5  110.79    8.70
   1  -2   5   99.19    9.10
   1  -2   5  117.49    8.10
  -2   2  -5  214.28   16.20
  -2   2  -5  175.68   14.70
  -2   2  -5  207.48   15.20
  -2   2  -5  189.88   16.30
  -2   2  -5  218.38   15.30
   2  -2   5  222.98   14.70
   2  -2   5  219.68   14.70
   2  -2   5  212.38   15.60
   2  -2   5  204.48   14.70
   2  -2   5  200.28   16.50
   2  -2   5  206.08   16.00
  -3   2  -5   15.00    3.30
  -3   2  -5   15.60    5.10
  -3   2  -5   20.00    4.40
  -3   2  -5   24.40    5.20
  -3   2  -5    9.40    3.00
  -3   2  -5    7.80    3.60
   3  -2   5   16.40    4.80
   3  -2   5   24.20    5.30
   3  -2   5   21.70    5.80
  -4   2  -5   17.20    4.00
  -4   2  -5   31.40   15.00
  -4   2  -5   26.60    5.90
  -4   2  -5   17.60    3.60
  -4   2  -5   16.00    3.80
  -4   2  -5   20.50    6.20
  -4   2  -5   13.30    6.40
   4  -2   5   16.60    6.30
   4  -2   5   30.50    7.40
   4  -2   5   21.70    6.20
  -5   2  -5   18.60    4.10
  -5   2  -5   20.70    3.70
  -5   2  -5   16.80    4.60
   5  -2   5   13.90   10.90
  -6   2  -5   12.70    4.40
  -6   2  -5    7.80    4.20
  -6   2  -5    7.60    4.10
   6  -2   5   17.10    8.30
   6  -2   5   11.00    7.50
   6   1  -5   11.60    8.00
  -6  -1   5   13.80    6.80
  -6  -1   5   12.70    3.60
  -6  -1   5   -2.70    4.40
   5   1  -5   21.50    8.20
  -5  -1   5   10.30    4.10
  -5  -1   5   10.10    6.20
  -5  -1   5   11.90    3.80
  -5  -1   5   13.00    3.60
   4   1  -5   64.49   12.10
   4   1  -5   44.10    8.40
   4   1  -5   56.99    7.40
  -4  -1   5   54.39    6.70
  -4  -1   5   60.79    6.70
  -4  -1   5   41.30    8.00
  -4  -1   5   51.19    6.00
   3   1  -5   23.20    5.80
   3   1  -5   17.30    3.60
   3   1  -5   16.70    8.10
  -3  -1   5   23.80    3.90
  -3  -1   5   16.60    4.50
  -3  -1   5   21.00    3.30
  -3  -1   5   11.70    4.80
  -3  -1   5   19.80    5.70
  -3  -1   5   17.40    3.40
   2   1  -5  149.49   12.10
   2   1  -5  161.98   10.90
   2   1  -5  125.19   10.20
   2   1  -5  131.79   10.60
   2   1  -5  152.28   14.70
  -2  -1   5  146.59   11.30
  -2  -1   5  137.09   13.20
  -2  -1   5  155.68   13.00
  -2  -1   5  149.39   11.20
   1   1  -5  295.47   24.50
   1   1  -5  346.57   24.70
   1   1  -5  408.16   25.80
  -1  -1   5  357.96   24.70
   0   1  -5  267.17   19.30
   0   1  -5  254.47   19.20
   0   1  -5  268.17   19.00
   0  -1   5  260.57   19.10
   0  -1   5  304.37   19.20
   0  -1   5  258.27   19.00
  -1   1  -5  130.19   10.90
  -1   1  -5  127.39   10.30
  -1   1  -5  132.59   10.70
  -1   1  -5  121.29   10.30
   1  -1   5  120.39   10.90
   1  -1   5  127.39    9.90
   1  -1   5  147.69   10.00
   1  -1   5  143.19   11.00
  -2   1  -5  162.38   13.60
  -2   1  -5  135.69   12.10
  -2   1  -5  163.28   13.40
   2  -1   5  165.08   13.10
   2  -1   5  174.68   11.50
   2  -1   5  173.98   13.40
   2  -1   5  146.59   11.40
   2  -1   5  172.08   14.00
  -3   1  -5    2.40    2.40
  -3   1  -5    2.40    2.80
  -3   1  -5    4.00    2.00
  -3   1  -5    4.30    5.50
  -3   1  -5    6.30    4.50
  -3   1  -5    2.20    3.50
  -3   1  -5    3.40    3.00
   3  -1   5    7.50    4.60
   3  -1   5    0.60    5.50
   3  -1   5    2.00    5.10
  -4   1  -5   15.00    3.30
  -4   1  -5   15.10    3.50
  -4   1  -5   29.10    7.50
  -4   1  -5   19.50    6.30
  -4   1  -5   24.00    8.10
  -4   1  -5   15.90    5.50
   4  -1   5   15.00    6.50
   4  -1   5   17.50    7.10
   4  -1   5   21.10    6.50
  -5   1  -5    7.90    3.60
  -5   1  -5   14.90    3.40
  -5   1  -5    9.20    3.20
  -6   1  -5    1.90    3.00
   6  -1   5    7.30    7.50
   6   0  -5   12.70    8.20
  -6   0   5    8.10    6.50
  -6   0   5   16.80    4.50
   5   0  -5   17.30    7.90
   5   0  -5   27.70    5.00
  -5   0   5   15.30    4.70
  -5   0   5   15.50    7.00
  -5   0   5   16.90    4.30
   4   0  -5   32.40    7.80
   4   0  -5   46.20    6.00
   4   0  -5   37.70   10.90
  -4   0   5   51.39    6.00
  -4   0   5   43.00    5.80
  -4   0   5   37.80    7.80
   3   0  -5  243.18   21.00
   3   0  -5  246.08   18.50
   3   0  -5  209.18   16.80
  -3   0   5  221.38   17.20
  -3   0   5  235.18   19.00
  -3   0   5  233.88   17.30
  -3   0   5  244.98   19.20
   2   0  -5  128.69    9.60
   2   0  -5  132.09   10.90
   2   0  -5  111.69    9.20
   2   0  -5  112.59    9.40
   2   0  -5  133.49   13.50
  -2   0   5  120.49   12.30
  -2   0   5  109.59   10.60
  -2   0   5  128.79   10.10
  -2   0   5  127.59   11.50
   1   0  -5  108.79    8.30
   1   0  -5   83.39    9.80
   1   0  -5   91.29    7.90
  -1   0   5   88.29    9.40
  -1   0   5   92.49    8.70
  -1   0   5   83.69    8.10
  -1   0   5   98.29    8.00
   0   0  -5  422.26   30.20
   0   0  -5  405.96   30.20
   0   0  -5  414.96   30.20
   0   0   5  415.26   30.00
   0   0   5  436.26   30.10
   0   0   5  461.65   30.10
   0   0   5  471.75   30.20
  -1   0  -5   20.50    3.70
  -1   0  -5   18.50    4.00
  -1   0  -5   15.80    4.20
  -1   0  -5   19.70    3.90
   1   0   5   25.60    3.20
   1   0   5   25.70    4.70
   1   0   5   24.90    3.50
  -2   0  -5  287.47   22.00
  -2   0  -5  303.67   21.10
  -2   0  -5  303.57   21.20
  -2   0  -5  276.87   22.20
   2   0   5  299.97   20.40
   2   0   5  286.87   22.00
   2   0   5  304.27   22.30
   2   0   5  299.27   20.30
  -3   0  -5   56.99    7.90
  -3   0  -5   59.69    6.20
  -3   0  -5   56.89    7.30
  -3   0  -5   53.69    7.70
  -3   0  -5   58.99    9.10
  -3   0  -5   62.99    6.10
   3   0   5   62.19    8.20
   3   0   5   75.29    9.80
  -4   0  -5  137.29   10.40
  -4   0  -5  150.28   14.80
  -4   0  -5  126.19   12.30
  -4   0  -5  120.89   10.60
   4   0   5  119.59   13.70
   4   0   5  168.58   15.40
  -5   0  -5   15.40    3.10
  -5   0  -5   21.20    3.50
  -5   0  -5   10.40    3.30
   5   0   5    8.30    8.40
   5   0   5   17.00    7.50
  -6   0  -5   12.90    3.30
  -6   0  -5   13.00    3.30
  -6   0  -5    2.70    3.30
   6  -1  -5   64.39    8.40
   6  -1  -5   51.89   10.30
  -6   1   5   61.19   10.20
  -6   1   5   50.09    6.80
   5  -1  -5   25.70    5.10
  -5   1   5   31.30    8.70
  -5   1   5   22.20    5.10
   4  -1  -5   17.00    9.30
   4  -1  -5   11.60    6.60
   4  -1  -5   18.90    5.00
  -4   1   5   22.00    4.30
  -4   1   5   12.50    4.50
  -4   1   5   18.60    6.60
   3  -1  -5  139.59   12.70
   3  -1  -5  126.49   10.80
   3  -1  -5  142.89   15.50
   3  -1  -5  139.19   10.20
   3  -1  -5  108.69    9.70
  -3   1   5  132.59   11.20
  -3   1   5  139.19   12.70
  -3   1   5  161.08   13.50
  -3   1   5  138.29   11.10
   2  -1  -5   82.69    8.00
   2  -1  -5   94.09   11.70
   2  -1  -5   90.09   11.60
   2  -1  -5   82.19    7.90
   2  -1  -5   99.99    7.80
  -2   1   5   88.29    8.30
  -2   1   5   82.19    8.50
  -2   1   5   90.09   10.60
  -2   1   5  106.69   10.70
   1  -1  -5  114.19    9.40
   1  -1  -5  100.89   10.90
   1  -1  -5  107.19    9.60
   1  -1  -5  122.79   10.20
  -1   1   5  112.59    9.50
  -1   1   5  134.29   10.30
  -1   1   5  106.79   10.80
  -1   1   5   92.89   11.20
   0  -1  -5  810.42   58.09
   0  -1  -5  863.41   58.19
   0  -1  -5  804.72   57.89
   0  -1  -5  806.42   58.09
   0   1   5  821.32   57.99
   0   1   5  924.81   57.99
   0   1   5  890.51   58.09
  -1  -1  -5  788.92   56.49
  -1  -1  -5  730.73   55.59
  -1  -1  -5  842.52   56.19
  -1  -1  -5  769.32   56.19
   1   1   5  816.52   55.89
   1   1   5  870.61   55.59
   1   1   5  835.32   56.59
   1   1   5  890.61   56.09
  -2  -1  -5   49.30    7.10
  -2  -1  -5   52.29    5.90
  -2  -1  -5   47.30    5.80
  -2  -1  -5   47.70    7.00
  -2  -1  -5   50.59    6.60
   2   1   5   51.69    4.40
   2   1   5   52.39    4.40
   2   1   5   65.39    7.70
  -3  -1  -5   84.29    7.60
  -3  -1  -5   86.49    7.70
  -3  -1  -5   80.69    9.60
  -3  -1  -5   72.39    9.00
  -3  -1  -5   92.29    9.10
  -3  -1  -5   79.39   10.30
   3   1   5   97.49   11.10
   3   1   5   84.89   10.80
  -4  -1  -5   46.10    5.40
  -4  -1  -5   40.20    5.60
  -4  -1  -5   47.60    7.00
  -4  -1  -5   59.69    9.10
   4   1   5   53.29    9.20
   4   1   5   53.49    9.50
  -5  -1  -5   18.40    3.60
  -5  -1  -5   15.10    3.10
   5   1   5   25.60    8.40
  -6  -1  -5    0.60    2.90
   6  -2  -5   25.50    6.10
   6  -2  -5   -1.90    7.60
  -6   2   5   10.90    6.80
  -6   2   5   11.70    4.40
   5  -2  -5   14.40    5.50
   5  -2  -5   17.20    7.30
  -5   2   5   10.60    4.30
  -5   2   5   13.60    4.70
  -5   2   5   10.60    6.20
   4  -2  -5    7.00    6.50
   4  -2  -5    1.30    4.40
   4  -2  -5    6.40    3.30
  -4   2   5    9.80    6.10
  -4   2   5   -4.00    4.10
  -4   2   5    1.20    3.10
   3  -2  -5   69.79    7.70
   3  -2  -5   61.09    6.70
   3  -2  -5   50.59    6.10
   3  -2  -5   74.59    6.60
   3  -2  -5   68.69    8.50
  -3   2   5   73.69    9.70
  -3   2   5   87.49    9.80
  -3   2   5   66.69    7.30
  -3   2   5   65.39    7.80
   2  -2  -5   22.00    6.80
   2  -2  -5   29.90    5.50
   2  -2  -5   26.40    6.10
   2  -2  -5   30.90    5.40
   2  -2  -5   34.70    4.60
   2  -2  -5   26.60    3.30
  -2   2   5   29.80    5.50
  -2   2   5   31.80    4.80
  -2   2   5   26.00    4.70
  -2   2   5   31.30    7.40
   1  -2  -5    7.60    4.80
   1  -2  -5    4.50    3.40
   1  -2  -5    9.30    3.40
   1  -2  -5    1.50    3.20
  -1   2   5    4.30    3.30
  -1   2   5    0.90    4.70
  -1   2   5    5.60    3.30
  -1   2   5    2.20    3.10
   0  -2  -5  264.17   19.90
   0  -2  -5  267.97   19.90
   0  -2  -5  261.37   20.00
   0  -2  -5  236.28   19.80
   0   2   5  272.67   19.80
   0   2   5  316.77   19.90
  -1  -2  -5  158.08   13.00
  -1  -2  -5  175.88   13.30
  -1  -2  -5  165.48   13.70
  -1  -2  -5  159.88   12.40
   1   2   5  164.78   12.50
   1   2   5  181.38   12.30
   1   2   5  157.98   12.70
  -2  -2  -5   12.30    3.70
  -2  -2  -5   22.90    4.20
  -2  -2  -5   18.30    5.50
  -2  -2  -5   18.00    4.00
   2   2   5   23.30    2.80
   2   2   5   24.90    3.30
   2   2   5   36.00    7.10
  -3  -2  -5  177.68   15.00
  -3  -2  -5  191.28   14.10
  -3  -2  -5  191.48   13.90
  -3  -2  -5  173.78   14.60
   3   2   5  170.48   16.50
  -4  -2  -5   66.99    6.40
  -4  -2  -5   60.49    7.70
  -4  -2  -5   48.60    6.60
  -4  -2  -5   55.59    8.50
   4   2   5   54.99    9.50
  -5  -2  -5   19.00    3.80
  -5  -2  -5   15.90    3.50
  -5  -2  -5   22.00    7.20
   5   2   5   26.20    8.60
  -6  -2  -5    0.80    3.30
   6   2   5    1.30    7.50
   6  -3  -5   23.10    6.70
  -6   3   5    5.10    4.40
  -6   3   5   14.50    7.00
   5  -3  -5   74.89   10.70
   5  -3  -5   89.99   11.70
   5  -3  -5   70.39    8.50
  -5   3   5   99.69   12.70
  -5   3   5   94.99   10.00
   4  -3  -5   -7.90    5.60
   4  -3  -5    7.80    4.70
   4  -3  -5    7.70    3.20
  -4   3   5    4.20    5.50
  -4   3   5    7.70    3.90
  -4   3   5    3.20    4.60
   3  -3  -5  208.58   18.80
   3  -3  -5  217.88   18.30
   3  -3  -5  220.28   16.30
   3  -3  -5  232.08   16.90
   3  -3  -5  241.18   18.80
  -3   3   5  223.48   17.90
  -3   3   5  228.28   19.00
  -3   3   5  231.28   19.20
  -3   3   5  226.48   17.60
   2  -3  -5   81.29    9.10
   2  -3  -5   58.49    7.30
   2  -3  -5   79.29    9.30
  -2   3   5   68.79    9.60
  -2   3   5   62.79    7.60
  -2   3   5   77.39    8.20
  -2   3   5   85.99    9.40
   1  -3  -5    8.80    3.50
   1  -3  -5    6.50    3.60
   1  -3  -5   11.00    3.80
  -1   3   5    4.50    3.60
  -1   3   5    8.30    3.10
  -1   3   5    7.70    4.50
  -1   3   5    6.70    5.50
   0  -3  -5   24.20    4.70
   0  -3  -5   26.40    4.50
   0  -3  -5   31.20    4.90
   0  -3  -5   27.70    4.40
   0   3   5   18.20    4.10
   0   3   5   27.50    4.50
   0   3   5   26.80    4.20
  -1  -3  -5  143.09   12.10
  -1  -3  -5  145.79   11.30
  -1  -3  -5  139.59   11.90
  -1  -3  -5  132.59   12.60
   1   3   5  149.69   11.60
   1   3   5  159.08   11.50
   1   3   5  143.69   11.30
  -2  -3  -5   19.10    3.80
  -2  -3  -5   18.40    4.00
  -2  -3  -5   21.80    4.80
  -2  -3  -5   17.40    2.90
  -2  -3  -5   20.60    4.10
   2   3   5   19.70    3.00
   2   3   5   17.00    2.70
   2   3   5   27.50    7.00
  -3  -3  -5  210.38   18.00
  -3  -3  -5  252.47   17.90
  -3  -3  -5  251.87   16.80
  -3  -3  -5  229.08   18.00
  -3  -3  -5  228.48   17.40
  -3  -3  -5  225.68   18.90
   3   3   5  235.18   20.10
  -4  -3  -5    5.60    5.60
  -4  -3  -5    2.20    2.10
  -4  -3  -5   -9.80    3.40
  -4  -3  -5    1.00    3.50
  -4  -3  -5   -1.40    2.00
  -4  -3  -5    2.80    4.60
   4   3   5   -6.20    6.10
  -5  -3  -5    3.00    3.00
  -5  -3  -5    9.70    6.30
  -5  -3  -5    5.70    3.20
   5   3   5   10.10    8.30
   6  -4  -5   -9.50    6.80
   6  -4  -5   18.40    7.20
   5  -4  -5   36.90    9.30
   5  -4  -5   48.20    8.90
   5  -4  -5   44.00    8.00
  -5   4   5   28.30    8.30
  -5   4   5   40.50    6.60
   4  -4  -5    6.90    3.20
   4  -4  -5    3.80    4.90
   4  -4  -5    8.40    2.20
   4  -4  -5    8.50    2.20
   4  -4  -5    9.40    6.70
  -4   4   5    5.20    5.80
  -4   4   5    5.20    5.90
  -4   4   5   10.20    5.20
   3  -4  -5   89.59    9.50
   3  -4  -5   85.39    7.70
   3  -4  -5   89.39   11.30
   3  -4  -5   70.79    7.80
   3  -4  -5   73.89    8.60
  -3   4   5   77.19   10.10
  -3   4   5   84.69   11.20
  -3   4   5  105.09   10.20
  -3   4   5   80.49   10.30
   2  -4  -5  157.28   13.60
   2  -4  -5  156.78   12.40
   2  -4  -5  135.59   11.90
   2  -4  -5  153.48   13.10
  -2   4   5  153.98   12.90
  -2   4   5  106.19   14.20
  -2   4   5  138.89   12.20
  -2   4   5  145.09   13.70
   1  -4  -5    7.10    4.30
   1  -4  -5    6.00    3.60
   1  -4  -5   11.50    3.90
  -1   4   5    8.30    4.20
  -1   4   5   -4.10    4.80
  -1   4   5    8.00    4.20
  -1   4   5   11.40    3.00
   0  -4  -5    8.10    3.60
   0  -4  -5    9.60    3.80
   0  -4  -5    7.90    3.20
   0   4   5    6.60    3.70
   0   4   5    5.30    3.30
   0   4   5    9.20    3.80
  -1  -4  -5   33.10    5.80
  -1  -4  -5   29.80    5.10
  -1  -4  -5   25.50    5.30
  -1  -4  -5   31.00    4.70
   1   4   5   34.00    4.60
   1   4   5   29.20    4.70
   1   4   5   36.40    4.80
  -2  -4  -5   53.49    7.30
  -2  -4  -5   51.89    6.50
  -2  -4  -5   59.79    6.00
  -2  -4  -5   56.09    8.30
   2   4   5   48.70    4.80
   2   4   5   51.99    5.50
  -3  -4  -5  138.59   11.90
  -3  -4  -5  151.98   12.90
  -3  -4  -5  123.99   12.10
  -3  -4  -5  144.29   11.00
  -3  -4  -5  158.68   15.90
   3   4   5  140.59   15.90
  -4  -4  -5  211.98   18.80
  -4  -4  -5  217.18   18.00
  -4  -4  -5  245.78   16.80
  -4  -4  -5  226.68   16.60
  -4  -4  -5  238.38   19.80
  -4  -4  -5  228.28   17.30
   4   4   5  227.58   21.30
  -5  -4  -5   17.10    4.20
  -5  -4  -5   19.70    5.10
  -5  -4  -5   15.60    7.20
   5   4   5   26.00    8.20
   5  -5  -5    3.20    3.90
   5  -5  -5    9.20    6.40
   5  -5  -5   12.20    7.40
  -5   5   5    7.40    6.60
  -5   5   5    4.90    4.80
   4  -5  -5   84.99    7.60
   4  -5  -5   90.99    8.00
   4  -5  -5   92.89   12.10
   4  -5  -5   81.79   11.10
   4  -5  -5   69.59    7.50
  -4   5   5   87.89   10.20
  -4   5   5   91.69   13.60
   3  -5  -5  203.78   17.80
   3  -5  -5  251.57   17.40
   3  -5  -5  242.38   18.30
   3  -5  -5  241.08   18.90
   3  -5  -5  242.68   19.50
  -3   5   5  215.68   18.40
  -3   5   5  235.68   19.20
  -3   5   5  249.28   20.80
   2  -5  -5  340.77   28.70
   2  -5  -5  325.47   25.50
   2  -5  -5  362.96   25.60
   2  -5  -5  366.16   26.00
  -2   5   5  363.86   26.10
  -2   5   5  296.47   27.30
  -2   5   5  382.66   27.20
  -2   5   5  333.07   27.30
   1  -5  -5  432.16   32.70
   1  -5  -5  455.35   31.90
   1  -5  -5  461.75   32.30
   1  -5  -5  447.06   32.00
  -1   5   5  478.95   33.00
  -1   5   5  453.55   32.00
  -1   5   5  417.36   32.10
  -1   5   5  433.66   32.20
   0  -5  -5    9.30    3.10
   0  -5  -5   18.40    4.50
   0  -5  -5   12.80    3.90
   0   5   5   19.30    4.70
   0   5   5   20.00    4.60
   0   5   5   10.00    3.80
  -1  -5  -5   40.50    5.80
  -1  -5  -5   23.70    5.40
  -1  -5  -5   33.30    5.30
  -1  -5  -5   44.80    6.30
   1   5   5   43.10    5.30
   1   5   5   38.20    5.50
   1   5   5   33.00    5.30
  -2  -5  -5   63.09    7.40
  -2  -5  -5   66.19    7.00
  -2  -5  -5   69.39    8.80
  -2  -5  -5   56.99    7.20
   2   5   5   49.30    6.30
   2   5   5   56.79    5.20
  -3  -5  -5  162.68   13.40
  -3  -5  -5  146.39   13.60
  -3  -5  -5  166.48   13.00
  -3  -5  -5  189.18   14.20
   3   5   5  175.58   18.00
  -4  -5  -5   42.60    5.70
  -4  -5  -5   40.50    6.10
  -4  -5  -5   32.90    4.60
  -4  -5  -5   33.20    5.40
   4   5   5   43.00    9.40
  -5  -5  -5    3.80    4.10
  -5  -5  -5   15.80    3.90
   5   5   5   13.80    8.30
   5  -6  -5    6.90    6.60
   5  -6  -5    2.10    6.50
   5  -6  -5    9.60    4.60
  -5   6   5   -3.00    6.10
  -5   6   5    0.30    5.00
   4  -6  -5    2.00    5.90
   4  -6  -5    4.20    3.90
   4  -6  -5    6.10    6.30
   4  -6  -5    6.00    2.80
   4  -6  -5   -0.10    2.80
  -4   6   5   10.80    5.50
  -4   6   5    7.80    6.60
   3  -6  -5   38.70    6.10
   3  -6  -5   43.40    5.80
   3  -6  -5   34.70    6.70
   3  -6  -5   32.90    5.50
   3  -6  -5   44.60    7.40
  -3   6   5   29.20    6.60
  -3   6   5   27.90    7.50
  -3   6   5   33.00    9.30
   2  -6  -5   11.40    4.70
   2  -6  -5    9.00    5.70
   2  -6  -5    9.00    5.30
   2  -6  -5   16.70    5.50
  -2   6   5   21.10    7.40
  -2   6   5   22.90    6.20
  -2   6   5   16.80    5.60
  -2   6   5   13.20    4.60
   1  -6  -5  372.06   28.10
   1  -6  -5  382.56   27.00
   1  -6  -5  383.76   27.60
   1  -6  -5  364.66   29.60
  -1   6   5  360.66   26.70
  -1   6   5  380.26   28.50
  -1   6   5  335.07   27.50
  -1   6   5  388.86   27.80
   0  -6  -5   78.79    9.20
   0  -6  -5   86.39    9.30
   0   6   5   98.29    9.60
   0   6   5   83.89    9.90
   0   6   5   68.49    7.90
  -1  -6  -5  100.69   10.40
  -1  -6  -5   97.19    9.80
  -1  -6  -5   97.69   12.90
  -1  -6  -5  114.99    9.90
   1   6   5   85.79    9.50
   1   6   5  100.69    9.80
   1   6   5   95.79   12.30
  -2  -6  -5   97.69   10.30
  -2  -6  -5  111.09    9.70
  -2  -6  -5  109.69    9.90
  -2  -6  -5   98.89   11.60
   2   6   5   95.59   14.20
   2   6   5   91.59    8.00
   2   6   5   99.29    9.00
  -3  -6  -5   90.49    8.60
  -3  -6  -5   82.19    8.60
  -3  -6  -5   66.99    9.00
  -3  -6  -5   91.29    9.40
   3   6   5  125.09   14.40
  -4  -6  -5    6.20    4.20
  -4  -6  -5    3.40    3.30
  -4  -6  -5   10.40    5.00
  -4  -6  -5   10.60    4.40
   4   6   5   -8.70    7.60
  -5  -6  -5   17.00    3.70
  -5  -6  -5   27.90    4.80
   5   6   5   16.50    8.60
   5  -7  -5   -4.90    6.30
   5  -7  -5   16.10    7.10
   5  -7  -5    5.70    4.50
  -5   7   5   12.80    7.60
  -5   7   5    5.20    5.30
   4  -7  -5   16.40    4.40
   4  -7  -5   20.80    4.60
   4  -7  -5   29.40    5.10
   4  -7  -5   28.70    7.70
   4  -7  -5   30.40    7.00
  -4   7   5   35.30    7.10
  -4   7   5   23.60    8.00
   3  -7  -5   13.40    5.60
   3  -7  -5   11.70    4.80
   3  -7  -5    8.80    3.90
  -3   7   5    9.40    6.30
  -3   7   5   21.30    7.20
  -3   7   5    7.40    6.00
   2  -7  -5   19.30    5.20
   2  -7  -5   30.30    5.20
   2  -7  -5   22.70    6.10
  -2   7   5   27.90    7.30
  -2   7   5   23.60    5.80
  -2   7   5   20.90    6.10
   1  -7  -5   77.49    9.50
   1  -7  -5   96.09    9.70
   1  -7  -5   57.39    8.00
   1  -7  -5   73.89    9.70
  -1   7   5   48.90    7.70
  -1   7   5   70.79   10.20
  -1   7   5   63.79    8.90
  -1   7   5   88.39   10.80
   0  -7  -5   21.90    5.00
   0  -7  -5   27.00    5.40
   0  -7  -5   17.10    5.70
   0   7   5   11.70    5.20
   0   7   5   12.80    4.50
   0   7   5   13.00    5.20
  -1  -7  -5    2.60    3.40
  -1  -7  -5    3.60    4.00
  -1  -7  -5    3.80    4.70
   1   7   5    7.50    3.70
   1   7   5    2.80    4.10
   1   7   5    7.30    4.70
  -2  -7  -5   18.10    4.80
  -2  -7  -5   11.90    4.00
   2   7   5   10.50    2.70
   2   7   5   11.80    3.80
   2   7   5    7.80    7.90
  -3  -7  -5    7.90    4.30
  -3  -7  -5   16.10    4.90
  -3  -7  -5    9.10    3.90
   3   7   5   20.50    8.90
  -4  -7  -5    0.30    3.80
  -4  -7  -5   10.80    4.10
  -4  -7  -5    6.40    4.90
   4   7   5    8.30    8.10
   4  -8  -5    8.40    5.20
   4  -8  -5   26.30    5.50
   4  -8  -5   22.60    6.80
   4  -8  -5   28.70    7.70
   4  -8  -5   25.90    4.70
  -4   8   5   33.20    9.00
  -4   8   5   29.30    6.80
   3  -8  -5    3.30    5.90
  -3   8   5    3.00    5.90
  -3   8   5    9.40    6.00
   2  -8  -5    7.90    5.00
   2  -8  -5    0.90    5.60
  -2   8   5    6.40    6.10
  -2   8   5    7.80    5.10
  -2   8   5    6.30    5.60
   1  -8  -5  121.09   11.60
   1  -8  -5  112.09   11.20
  -1   8   5   88.99   12.80
  -1   8   5  115.99   12.20
  -1   8   5  102.49    9.80
   0  -8  -5   52.69    8.20
   0  -8  -5   64.69    8.40
   0  -8  -5   57.29    7.90
   0   8   5   45.80    7.40
   0   8   5   50.59    8.00
   0   8   5   68.19    9.80
  -1  -8  -5    8.60    4.80
  -1  -8  -5   -0.30    6.40
   1   8   5   -0.90    4.50
   1   8   5    3.50    4.00
   1   8   5    3.50    4.70
  -2  -8  -5   29.20    5.90
  -2  -8  -5   49.10    7.30
   2   8   5   40.60    4.80
   2   8   5   40.60    5.00
   2   8   5   45.90   12.50
  -3  -8  -5   68.59    8.10
  -3  -8  -5   55.59    8.40
  -3  -8  -5   86.19    9.50
   3   8   5   94.29   13.10
  -4  -8  -5   -1.40    4.90
  -4  -8  -5  -11.50    5.20
   4   8   5    1.20    7.50
   4  -9  -5   48.70    7.20
   4  -9  -5   38.40    8.30
   4  -9  -5   49.60    8.10
   4  -9  -5   52.79    7.40
  -4   9   5   49.99   10.30
  -4   9   5   46.20    9.00
   3  -9  -5   13.90    4.70
   3  -9  -5   17.90    6.00
  -3   9   5    7.90    7.40
  -3   9   5   16.80    6.60
   2  -9  -5   -3.10    5.30
   2  -9  -5   12.80    4.80
  -2   9   5   13.90    6.70
  -2   9   5    4.70    6.20
  -2   9   5   -1.30    5.70
   1  -9  -5  -11.80    7.30
   1  -9  -5   14.30    4.50
  -1   9   5    8.00    4.40
  -1   9   5    4.80    5.90
   0  -9  -5   17.60    4.70
   0  -9  -5   15.10    6.40
   0   9   5   14.30    5.90
   0   9   5   15.20    5.90
  -1  -9  -5   13.90    4.30
  -1  -9  -5   11.70    5.70
  -1  -9  -5    3.20    5.70
   1   9   5    4.10    3.10
   1   9   5   10.80    6.10
   1   9   5    7.40    5.10
  -2  -9  -5   21.30    6.10
  -2  -9  -5   38.90    8.90
   2   9   5   35.70    4.60
   2   9   5   25.80    4.40
   2   9   5   26.80    9.60
  -3  -9  -5   20.10    6.00
  -3  -9  -5   12.00    4.50
   3   9   5   18.50    9.20
   3 -10  -5    7.70    5.40
   3 -10  -5   -0.50    4.30
   3 -10  -5    3.20    6.30
  -3  10   5   -7.90    5.80
  -3  10   5    6.40    6.00
   2 -10  -5   36.10    7.70
   2 -10  -5   36.30    6.20
  -2  10   5   30.70    7.50
  -2  10   5   22.20    8.20
  -2  10   5   34.20    7.80
   1 -10  -5   -0.90    4.50
   1 -10  -5    0.10    5.20
  -1  10   5    1.60    5.90
  -1  10   5    3.10    4.60
  -1  10   5   13.70    6.40
   0 -10  -5    7.40    6.00
   0 -10  -5   12.80    4.20
   0  10   5   15.80    6.40
   0  10   5   18.70    6.30
  -1 -10  -5   54.29    8.40
  -1 -10  -5   51.09    7.30
   1  10   5   69.09    9.00
  -2 -10  -5   36.10    7.20
  -2 -10  -5   21.60    5.60
   2  10   5   28.00    5.20
   2  10   5   23.10    8.30
  -3 -10  -5    3.10    5.00
   3  10   5   17.80    8.90
   3 -11  -5   13.10    7.20
   2 -11  -5   30.30    6.70
  -2  11   5   30.00    9.20
   1 -11  -5    8.10    6.40
   1 -11  -5   31.60    5.30
  -1  11   5   26.40    7.50
  -1  11   5   19.40    7.60
   0 -11  -5    7.30    6.00
   0 -11  -5    2.50    4.00
   0  11   5    5.20    6.40
   0  11   5    3.20    5.60
  -1 -11  -5   56.29    8.50
  -1 -11  -5   47.20    6.70
   1  11   5   48.30    7.80
  -2 -11  -5   16.20    6.00
   2  11   5   17.90    7.80
   2  11   5    8.90    4.00
   1 -12  -5   26.50    5.30
   1 -12  -5   24.60    7.40
  -1  12   5   26.40    7.30
  -1  12   5   25.80    8.00
   0 -12  -5    0.10    6.10
   0 -12  -5    1.10    3.50
   0  12   5    7.10    5.80
   0  12   5    1.50    6.00
   0  15  -6   29.20    6.00
   0 -15   6    5.00    6.30
   1 -15   6   -8.90    5.40
   2  14  -6    6.70    5.00
   2  14  -6   16.60    7.30
   2  14  -6   16.10   11.90
  -2 -14   6    1.90    4.30
   1  14  -6   31.80    7.40
   1  14  -6   32.00    7.80
  -1 -14   6   29.70    6.30
   0  14  -6   45.00    8.60
   0  14  -6   50.29    9.20
   0 -14   6   36.80    7.30
  -1  14  -6   24.10    8.20
   1 -14   6   17.70    6.70
   1 -14   6    9.90    5.00
  -2  14  -6   -3.30    6.60
   2 -14   6    3.90    5.90
   2 -14   6    5.00    4.70
   3  13  -6   43.30   12.70
   3  13  -6   37.20    8.10
  -3 -13   6   20.50    5.60
   2  13  -6   22.50    6.80
   2  13  -6   20.70   13.10
   2  13  -6   10.60    5.30
  -2 -13   6   20.00    4.80
   1  13  -6   12.60    5.60
  -1 -13   6   -0.60    4.60
   0  13  -6   10.80    6.30
   0  13  -6   13.10    4.50
   0 -13   6   15.40    5.40
  -1  13  -6   25.50    8.00
   1 -13   6   21.80    5.90
   1 -13   6   33.70    7.40
  -2  13  -6   71.49   10.90
   2 -13   6   74.79    9.90
   2 -13   6   76.89   11.10
  -3  13  -6   11.70    6.10
  -3  13  -6    7.10    6.80
   3 -13   6   14.30    8.40
   3 -13   6    5.60    6.30
   3 -13   6    9.60    5.20
   3  12  -6    6.90   11.90
   3  12  -6    5.70   12.20
  -3 -12   6   12.00    4.50
   2  12  -6   -0.70    3.60
   2  12  -6   14.60   16.50
   2  12  -6    2.40    4.90
   2  12  -6   18.40    6.40
  -2 -12   6    3.20    4.00
   1  12  -6   40.00    6.90
   1  12  -6   33.90    7.20
  -1 -12   6   38.40    6.50
   0  12  -6    4.20    5.80
   0  12  -6    4.20    4.30
   0 -12   6    1.00    4.60
  -1  12  -6    0.60    2.40
  -1  12  -6    8.80    6.00
   1 -12   6    3.70    5.90
   1 -12   6    6.30    4.10
  -2  12  -6  161.98   15.30
  -2  12  -6  114.79   12.10
   2 -12   6  162.88   14.10
   2 -12   6  168.28   15.20
  -3  12  -6   24.00    6.30
  -3  12  -6   26.10    8.60
   3 -12   6   25.80    5.80
   3 -12   6   18.10    7.70
   3 -12   6   18.10    7.20
  -4  12  -6   11.10    5.40
  -4  12  -6    0.10    6.20
   4 -12   6    2.40    7.70
   4 -12   6    8.20    6.40
   4 -12   6   15.80    4.40
   4  11  -6    8.10   11.10
  -4 -11   6   11.60    4.30
   3  11  -6   12.30   10.10
   3  11  -6   -3.70    6.00
  -3 -11   6   -1.50    3.60
   2  11  -6    6.10    6.30
   2  11  -6    1.40   11.60
   2  11  -6   10.50    4.70
   2  11  -6   12.10    3.20
  -2 -11   6    6.80    4.40
   1  11  -6   11.60    5.80
   1  11  -6   16.30    5.40
   1  11  -6    7.80    4.10
  -1 -11   6    8.50    4.20
   0  11  -6    4.00    4.40
   0  11  -6    2.20    5.20
   0 -11   6    9.30    4.70
  -1  11  -6   52.29    5.90
  -1  11  -6   77.99   10.20
   1 -11   6   78.49    8.90
  -2  11  -6   49.30    9.70
  -2  11  -6   66.49   14.30
  -2  11  -6   52.39    7.50
   2 -11   6   66.39    8.30
   2 -11   6   65.79    9.50
  -3  11  -6   -0.70    7.50
  -3  11  -6    5.40    5.00
   3 -11   6    8.90    7.20
   3 -11   6    4.80    4.60
   3 -11   6    3.10    6.10
  -4  11  -6    5.80    4.80
  -4  11  -6   -9.20    5.90
   4 -11   6    6.60    6.00
   4 -11   6   -0.50    3.30
   4 -11   6   -7.20    4.90
   4 -11   6   11.60    7.70
   4  10  -6   12.70   10.70
  -4 -10   6    2.60    5.20
  -4 -10   6    8.40    4.00
   3  10  -6    6.60    6.30
   3  10  -6   11.90   10.10
  -3 -10   6   11.60    4.30
   2  10  -6   45.90   13.60
   2  10  -6   37.30    6.20
   2  10  -6   29.90    4.70
   2  10  -6   44.40    7.70
  -2 -10   6   45.50    6.30
   1  10  -6   24.00    4.20
   1  10  -6    9.40    5.90
   1  10  -6   23.40    5.70
  -1 -10   6   21.70    4.90
   0  10  -6    7.50    4.30
   0  10  -6    0.60    5.10
   0  10  -6   11.50    4.00
   0 -10   6    0.20    3.90
  -1  10  -6   34.40    7.30
   1 -10   6   48.60    7.60
   1 -10   6   44.10    6.70
  -2  10  -6   20.30    6.80
  -2  10  -6   19.40    4.10
  -2  10  -6   22.60    6.40
   2 -10   6   27.30    4.80
   2 -10   6   20.20    5.40
   2 -10   6   36.90    7.10
  -3  10  -6   -2.00    5.80
  -3  10  -6    0.00    4.50
   3 -10   6   -3.40    7.10
   3 -10   6    4.70    3.30
   3 -10   6    2.70   10.00
   3 -10   6    6.60    4.20
  -4  10  -6    4.20    8.80
  -4  10  -6    8.90    5.20
   4 -10   6   17.70    7.90
   4 -10   6   27.70    7.30
   4 -10   6   10.30    3.30
   4 -10   6    3.20    3.20
   5 -10   6    8.90    7.10
   5   9  -6   56.99   14.50
  -5  -9   6   49.30    6.80
   4   9  -6   11.40   10.40
  -4  -9   6   11.20    3.90
  -4  -9   6    9.70    4.30
   3   9  -6   21.30   11.00
  -3  -9   6   12.10    4.20
   2   9  -6   58.99   13.20
   2   9  -6   50.89    5.80
   2   9  -6   47.20    7.80
   2   9  -6   58.49    7.50
  -2  -9   6   45.50    5.90
  -2  -9   6   56.39    7.30
   1   9  -6   12.10    4.70
   1   9  -6    8.00    4.00
   1   9  -6   11.00    5.10
  -1  -9   6   14.80    4.30
  -1  -9   6    4.80    3.60
   0   9  -6   12.40    4.90
   0   9  -6    2.10    2.90
   0   9  -6    6.90    2.20
   0   9  -6   10.20    3.50
   0  -9   6    8.40    3.30
   0  -9   6   11.20    4.10
   0  -9   6    8.60    3.90
  -1   9  -6   60.99    6.40
  -1   9  -6   64.19    7.70
  -1   9  -6   68.19    8.90
   1  -9   6   63.79    9.00
   1  -9   6   50.49    6.80
   1  -9   6   57.59    7.10
   1  -9   6   47.40    7.10
  -2   9  -6   10.90    5.60
  -2   9  -6   15.50    4.70
  -2   9  -6   12.60    6.10
   2  -9   6    8.90    4.70
   2  -9   6   10.60    4.50
   2  -9   6    7.60    5.00
   2  -9   6   15.20    6.20
  -3   9  -6   17.90    6.80
  -3   9  -6   14.10    5.80
  -3   9  -6    8.30    6.60
   3  -9   6    2.80    4.60
   3  -9   6   13.20    4.20
   3  -9   6   13.80    3.30
   3  -9   6   17.50    6.20
   3  -9   6   16.80    7.50
  -4   9  -6   28.60    7.80
  -4   9  -6   35.40    7.70
  -4   9  -6   35.60    6.50
   4  -9   6   45.90    9.00
   4  -9   6   42.60    8.30
   4  -9   6   33.50    4.40
   4  -9   6   38.40    5.00
  -5   9  -6   14.80    5.70
  -5   9  -6   24.00    7.00
   5  -9   6   30.20    8.90
   5  -9   6   27.20    7.50
   5   8  -6   23.80   11.40
  -5  -8   6   17.40    4.00
  -4  -8   6   15.00    4.10
  -4  -8   6    0.90    3.40
  -4  -8   6    7.60    3.80
   3   8  -6    8.40    9.90
  -3  -8   6    4.00    5.90
  -3  -8   6    7.30    3.60
  -3  -8   6   11.00    4.00
   2   8  -6   40.90   11.10
   2   8  -6   30.50    4.20
   2   8  -6   24.20    8.30
  -2  -8   6   29.10    4.70
  -2  -8   6   33.30    5.30
   1   8  -6    9.40    4.50
   1   8  -6    5.20    4.50
   1   8  -6   12.80    3.70
  -1  -8   6    7.20    3.30
  -1  -8   6   13.80    4.00
  -1  -8   6   11.50    3.60
   0   8  -6   -1.10    4.30
   0   8  -6    2.60    2.60
   0  -8   6    1.00    3.00
   0  -8   6    2.60    2.90
   0  -8   6    4.60    2.30
   0  -8   6    2.40    5.10
  -1   8  -6  142.79   11.90
  -1   8  -6  122.69   11.20
  -1   8  -6  147.09   12.80
   1  -8   6  140.69   11.20
   1  -8   6  133.99   12.50
   1  -8   6  141.99   12.60
   1  -8   6  154.88   12.20
  -2   8  -6  362.76   26.90
  -2   8  -6  308.37   25.40
  -2   8  -6  346.57   25.90
  -2   8  -6  339.67   25.70
   2  -8   6  336.07   25.90
   2  -8   6  395.16   27.10
   2  -8   6  322.07   25.20
   2  -8   6  360.66   25.30
   2  -8   6  341.77   26.00
  -3   8  -6   10.50    5.70
  -3   8  -6    1.00    4.80
  -3   8  -6    3.70    5.00
   3  -8   6    5.10    6.50
   3  -8   6    6.30    2.90
   3  -8   6    1.70    5.30
   3  -8   6    0.30    3.40
  -4   8  -6   16.40    6.20
  -4   8  -6    9.00    5.50
  -4   8  -6   17.20    7.20
   4  -8   6    7.50    4.10
   4  -8   6   19.50   11.00
   4  -8   6   24.40    2.80
   4  -8   6   18.70    2.70
   4  -8   6    9.00    6.60
  -5   8  -6   12.30    6.60
  -5   8  -6   10.00    6.00
   5  -8   6    1.40    6.70
   5  -8   6   14.20    7.80
   5   7  -6   30.50    5.40
   5   7  -6   59.09   13.70
  -5  -7   6   29.80    4.60
  -5  -7   6   36.50    5.00
  -5  -7   6   20.00    4.60
   4   7  -6   21.70   11.50
   4   7  -6   23.00    4.50
  -4  -7   6   27.60    4.40
  -4  -7   6   24.40    4.70
  -4  -7   6   15.50    5.60
  -4  -7   6   21.50    7.20
   3   7  -6   76.09   13.20
   3   7  -6   64.19    6.60
  -3  -7   6   68.19    7.60
  -3  -7   6   63.79    9.00
  -3  -7   6   65.89    8.70
  -3  -7   6   70.59    7.30
   2   7  -6   34.20    4.30
   2   7  -6   47.30    5.40
   2   7  -6   48.50   11.00
   2   7  -6   28.40    4.80
  -2  -7   6   38.10    5.20
  -2  -7   6   43.10    5.40
  -2  -7   6   44.20    6.60
   1   7  -6   14.90    3.60
   1   7  -6   25.70    4.80
  -1  -7   6   13.60    3.60
  -1  -7   6   19.70    4.20
  -1  -7   6   20.80    3.90
   0   7  -6   35.10    5.50
   0   7  -6   25.60    4.30
   0  -7   6   22.70    4.70
   0  -7   6   25.80    4.50
   0  -7   6   26.80    4.80
   0  -7   6   24.00    3.70
  -1   7  -6   11.60    4.40
  -1   7  -6    7.20    2.60
  -1   7  -6   12.10    3.90
   1  -7   6   17.70    3.90
   1  -7   6    9.30    4.50
   1  -7   6    7.00    4.10
   1  -7   6    7.80    3.20
  -2   7  -6  163.78   14.30
  -2   7  -6  171.38   15.60
  -2   7  -6  174.68   14.60
  -2   7  -6  183.48   14.80
   2  -7   6  163.08   15.10
   2  -7   6  180.08   15.20
   2  -7   6  175.48   15.70
   2  -7   6  194.48   14.00
   2  -7   6  178.78   14.00
  -3   7  -6   16.80    5.40
  -3   7  -6   20.20    4.20
  -3   7  -6   12.00    5.00
  -3   7  -6   14.80    4.90
   3  -7   6   16.80    6.70
   3  -7   6   26.20    6.50
   3  -7   6   22.60    3.30
   3  -7   6   17.00    4.00
   3  -7   6   17.80    4.70
  -4   7  -6   12.50    4.80
  -4   7  -6    4.00    5.80
  -4   7  -6    2.70    5.30
   4  -7   6    7.40    5.70
   4  -7   6   -2.70    3.10
   4  -7   6   15.80    7.30
  -5   7  -6   32.30    7.00
  -5   7  -6   41.80    6.30
   5  -7   6   27.10    9.10
   5  -7   6   24.40    7.60
   5   6  -6   25.40   12.10
   5   6  -6   25.30    6.70
  -5  -6   6   23.10    4.00
   4   6  -6   15.30   10.50
   4   6  -6   16.00    5.40
  -4  -6   6    9.50    3.60
  -4  -6   6   11.30    3.50
  -4  -6   6   10.70    4.80
   3   6  -6  612.24   43.70
   3   6  -6  544.05   40.30
  -3  -6   6  589.04   40.50
  -3  -6   6  605.64   41.60
  -3  -6   6  543.15   39.90
  -3  -6   6  589.54   40.70
   2   6  -6    6.90    2.90
   2   6  -6    6.50    3.60
   2   6  -6    3.10    8.10
   2   6  -6   10.60    3.50
  -2  -6   6   12.90    4.90
  -2  -6   6    5.30    4.70
  -2  -6   6    9.20    3.20
   1   6  -6   17.80    4.10
   1   6  -6   14.80    3.30
  -1  -6   6   17.30    4.40
  -1  -6   6    8.10    4.30
  -1  -6   6   20.90    3.70
   0   6  -6  147.89   12.20
   0   6  -6  126.79   11.60
   0  -6   6  145.19   11.60
   0  -6   6  143.89   11.60
   0  -6   6  166.18   11.90
   0  -6   6  140.39   12.50
  -1   6  -6   83.29    8.00
  -1   6  -6   89.19    8.70
   1  -6   6   90.39    8.30
   1  -6   6   91.69    8.20
   1  -6   6   97.09    8.90
   1  -6   6   69.39    9.10
  -2   6  -6    5.00    4.10
  -2   6  -6   -2.30    4.60
  -2   6  -6    7.40    4.10
  -2   6  -6   15.20    3.90
   2  -6   6   -2.60    4.80
   2  -6   6    7.40    3.20
   2  -6   6    1.80    3.10
   2  -6   6    3.10    4.20
   2  -6   6    8.10    3.70
  -3   6  -6   87.99    9.30
  -3   6  -6   89.99   10.30
  -3   6  -6  111.59   10.00
  -3   6  -6   81.89    9.20
  -3   6  -6   73.89   10.00
   3  -6   6   89.19    7.40
   3  -6   6   95.59   11.50
   3  -6   6   91.79    8.10
   3  -6   6  112.19   11.00
   3  -6   6   71.19    9.70
  -4   6  -6    4.40    6.40
  -4   6  -6    1.40    4.50
  -4   6  -6    6.70    4.20
  -4   6  -6    5.10    4.00
   4  -6   6    2.10    6.00
   4  -6   6    6.60    6.50
   4  -6   6    0.00    2.60
  -5   6  -6   25.20    5.90
  -5   6  -6   30.10    5.50
   5  -6   6   13.40    5.60
   5  -6   6   27.20    7.30
   5  -6   6   36.70    8.90
   6  -6   6   20.70    7.90
   6   5  -6   -0.60    6.50
   6   5  -6   22.70   11.50
  -6  -5   6    1.60    3.10
  -6  -5   6    4.80    6.30
   5   5  -6    9.90    6.40
   5   5  -6    8.70   10.30
  -5  -5   6    7.80    4.70
  -5  -5   6   14.60    6.30
  -5  -5   6    1.00    3.40
  -5  -5   6    5.70    2.80
  -5  -5   6    5.10    3.40
   4   5  -6   -5.10    5.60
   4   5  -6   -3.90    9.60
  -4  -5   6    5.80    3.20
  -4  -5   6    3.90    2.90
  -4  -5   6   20.70    4.50
   3   5  -6  664.93   47.40
   3   5  -6  639.24   44.50
  -3  -5   6  623.84   43.80
  -3  -5   6  653.33   45.30
  -3  -5   6  645.54   44.50
  -3  -5   6  589.34   44.60
  -3  -5   6  665.23   44.50
   2   5  -6   66.39   10.50
   2   5  -6   38.60    5.60
   2   5  -6   49.40    5.70
  -2  -5   6   54.09    7.60
  -2  -5   6   45.70    5.60
  -2  -5   6   53.59    6.10
   1   5  -6    3.40    2.60
   1   5  -6    2.40    3.00
  -1  -5   6    4.70    3.50
  -1  -5   6    2.30    2.80
  -1  -5   6    5.10    2.30
  -1  -5   6    1.00    2.60
   0   5  -6   52.39    6.70
   0   5  -6   47.60    6.10
   0  -5   6   52.79    6.50
   0  -5   6   65.89    6.40
   0  -5   6   45.00    5.90
   0  -5   6   62.59    6.30
  -1   5  -6  122.99   10.40
  -1   5  -6  101.09    9.70
   1  -5   6  126.39   10.20
   1  -5   6  108.49   10.40
   1  -5   6  129.79   11.20
   1  -5   6  135.79    9.80
   1  -5   6  108.79    9.70
  -2   5  -6   45.80    6.40
  -2   5  -6   53.59    9.50
  -2   5  -6   50.59    6.80
  -2   5  -6   46.00    7.00
  -2   5  -6   53.49    6.70
   2  -5   6   43.10    5.80
   2  -5   6   53.99    7.20
   2  -5   6   51.59    5.70
   2  -5   6   47.60    6.50
   2  -5   6   56.19    6.70
  -3   5  -6  127.59   12.40
  -3   5  -6  131.19   11.80
  -3   5  -6  136.79   12.30
   3  -5   6  138.29   11.60
   3  -5   6  136.09   13.00
   3  -5   6  139.19   10.40
   3  -5   6  133.59   10.10
   3  -5   6  144.49   13.60
  -4   5  -6    5.10    3.80
  -4   5  -6    6.50    3.70
  -4   5  -6    4.10    6.10
   4  -5   6    0.20    2.40
   4  -5   6    2.60    5.80
   4  -5   6    8.00    6.40
  -5   5  -6    0.90    4.20
  -5   5  -6    9.40    4.60
  -5   5  -6    6.70    4.40
   5  -5   6   12.90    7.50
   5  -5   6    7.50    6.50
  -6   5  -6   -2.90    4.70
  -6   5  -6    9.60    4.10
   6  -5   6   15.70    7.30
   6  -5   6   13.20    8.60
   6   4  -6    2.60   10.80
   6   4  -6   11.00    7.30
  -6  -4   6    5.30    5.60
  -6  -4   6   11.70    3.50
   5   4  -6   30.80    7.60
   5   4  -6   24.90   11.00
  -5  -4   6    8.90    4.60
  -5  -4   6   21.10    3.90
  -5  -4   6   19.80    6.40
  -5  -4   6    8.20    3.70
  -5  -4   6   17.90    3.70
   4   4  -6    0.20    5.60
   4   4  -6   -1.80   10.00
  -4  -4   6    2.40    2.60
  -4  -4   6    7.30    3.30
  -4  -4   6    6.60    3.00
  -4  -4   6   13.60    4.30
   3   4  -6  766.32   50.69
  -3  -4   6  701.43   48.70
  -3  -4   6  684.03   47.80
  -3  -4   6  613.84   50.99
  -3  -4   6  707.03   47.80
  -3  -4   6  667.43   47.00
  -3  -4   6  697.03   48.80
   2   4  -6   36.80    5.50
   2   4  -6   45.40    8.90
   2   4  -6   36.20    4.40
   2   4  -6   37.20    5.10
  -2  -4   6   44.20    6.50
  -2  -4   6   40.70    5.10
  -2  -4   6   32.50    4.70
   1   4  -6    9.20    6.90
   1   4  -6    1.50    2.30
   1   4  -6    4.40    3.20
  -1  -4   6    2.10    2.70
  -1  -4   6    4.70    3.60
  -1  -4   6    0.70    2.90
  -1  -4   6    3.20    2.00
   0   4  -6   76.29    7.80
   0   4  -6   81.79    8.10
   0  -4   6   91.09    7.60
   0  -4   6   86.09    7.90
   0  -4   6  100.29    7.80
  -1   4  -6   67.69    7.00
  -1   4  -6   72.49    9.10
  -1   4  -6   52.69    6.30
   1  -4   6   59.79    7.20
   1  -4   6   69.89    6.50
   1  -4   6   58.49    7.70
   1  -4   6   64.19    7.90
   1  -4   6   49.80    6.60
  -2   4  -6  161.28   13.20
  -2   4  -6  163.38   13.80
  -2   4  -6  179.28   14.00
  -2   4  -6  158.28   13.30
  -2   4  -6  161.48   13.40
   2  -4   6  182.08   14.10
   2  -4   6  186.78   12.80
   2  -4   6  160.88   12.80
   2  -4   6  182.48   12.70
   2  -4   6  167.68   14.30
   2  -4   6  154.28   13.00
  -3   4  -6    2.80    3.60
  -3   4  -6    3.50    5.10
  -3   4  -6    3.30    3.10
  -3   4  -6    6.80    4.80
  -3   4  -6    9.00    3.40
   3  -4   6   -0.40    4.80
   3  -4   6    4.50    2.40
   3  -4   6    4.30    1.80
   3  -4   6    1.00    4.90
   3  -4   6    2.40    1.40
  -4   4  -6   62.39   12.10
  -4   4  -6   68.79    7.80
  -4   4  -6   74.89    7.20
  -4   4  -6   60.59    8.00
   4  -4   6   72.69    9.10
   4  -4   6   47.80    6.10
   4  -4   6   69.19   10.00
  -5   4  -6   35.40    5.90
  -5   4  -6   30.70    5.50
  -5   4  -6   31.10    5.20
   5  -4   6   23.00    8.20
   5  -4   6   32.80    7.50
  -6   4  -6   10.90    4.80
  -6   4  -6   17.30    4.80
   6  -4   6   33.30    9.50
   6  -4   6   11.90    6.90
   6   3  -6   17.60   11.20
   6   3  -6   19.10    8.10
  -6  -3   6   12.90    6.00
  -6  -3   6  -11.00    4.60
  -6  -3   6    7.40    3.30
   5   3  -6   11.80   10.60
   5   3  -6    3.50    6.90
  -5  -3   6    8.30    3.00
  -5  -3   6   -5.80    8.00
  -5  -3   6    4.40    4.20
  -5  -3   6   11.10    3.50
   4   3  -6  100.49   14.40
   4   3  -6   77.09    9.30
  -4  -3   6   70.49    7.30
  -4  -3   6   76.39   11.20
  -4  -3   6   79.09    7.90
  -4  -3   6   60.69    7.60
   3   3  -6   11.20    4.90
   3   3  -6   27.30    8.80
  -3  -3   6   18.10    4.80
  -3  -3   6   15.10    5.60
  -3  -3   6   17.30    3.50
  -3  -3   6   17.50    3.40
  -3  -3   6   16.80    3.90
   2   3  -6   51.69    6.10
   2   3  -6   47.50    5.30
   2   3  -6   36.80    4.80
   2   3  -6   48.20    9.10
  -2  -3   6   46.10    5.70
  -2  -3   6   40.60    5.40
  -2  -3   6   49.90    6.80
   1   3  -6   12.60    7.20
   1   3  -6   14.10    3.10
   1   3  -6   14.80    3.60
  -1  -3   6   10.80    3.40
  -1  -3   6   13.90    3.30
   0   3  -6    3.00    2.60
   0   3  -6    5.30    3.10
   0   3  -6    1.80    4.10
   0  -3   6    3.50    2.40
   0  -3   6    4.20    3.30
   0  -3   6    2.90    2.50
   0  -3   6    4.90    3.10
  -1   3  -6  656.53   47.70
  -1   3  -6  704.73   47.70
  -1   3  -6  691.03   47.60
   1  -3   6  650.63   47.40
   1  -3   6  649.93   47.40
   1  -3   6  704.13   47.80
   1  -3   6  757.42   47.50
   1  -3   6  705.53   47.70
  -2   3  -6 1225.48   86.89
  -2   3  -6 1304.07   86.89
  -2   3  -6 1225.08   87.09
  -2   3  -6 1157.78   87.29
   2  -3   6 1302.27   88.49
   2  -3   6 1275.07   86.59
   2  -3   6 1286.67   86.49
   2  -3   6 1407.46   86.49
   2  -3   6 1285.67   87.39
   2  -3   6 1245.58   86.39
  -3   3  -6  175.18   12.50
  -3   3  -6  128.89   11.40
  -3   3  -6  148.79   12.60
  -3   3  -6  144.69   12.70
  -3   3  -6  149.19   11.90
  -3   3  -6  157.18   12.00
   3  -3   6  139.19   13.90
   3  -3   6  133.59   10.90
   3  -3   6  150.58   12.50
   3  -3   6  147.39   13.20
  -4   3  -6   59.49    7.40
  -4   3  -6   64.99    7.40
  -4   3  -6   60.09    7.40
  -4   3  -6   72.79   11.00
   4  -3   6   75.19   10.20
   4  -3   6   72.09   10.10
  -5   3  -6   14.20    4.10
  -5   3  -6   19.40    4.30
  -5   3  -6   23.60    3.80
   5  -3   6   20.50    7.20
   5  -3   6   24.50    7.60
  -6   3  -6    5.70    5.20
  -6   3  -6   -2.70    3.60
   6  -3   6    4.90    7.10
   6  -3   6   14.50    8.50
   6   2  -6    9.10    8.50
  -6  -2   6   15.00    3.90
  -6  -2   6   19.40    6.70
  -6  -2   6    8.20    4.40
   5   2  -6   20.50    8.40
   5   2  -6   25.90   11.30
  -5  -2   6   19.60    4.30
  -5  -2   6   21.30    4.70
  -5  -2   6   14.90    4.10
   4   2  -6   20.30    6.70
   4   2  -6   29.80   10.60
  -4  -2   6   12.70    5.90
  -4  -2   6   19.40    4.40
  -4  -2   6   21.60    4.10
  -4  -2   6   22.10    3.90
   3   2  -6   13.20    8.70
   3   2  -6   18.80    5.40
  -3  -2   6   11.00    3.30
  -3  -2   6   19.30    5.60
  -3  -2   6    7.70    5.40
  -3  -2   6   10.40    3.30
  -3  -2   6   14.30    4.10
  -3  -2   6   11.50    3.00
   2   2  -6   97.49   12.80
   2   2  -6   98.59    7.80
   2   2  -6  108.09    9.50
   2   2  -6   77.29    7.20
  -2  -2   6   97.19    8.20
  -2  -2   6   85.89    8.00
  -2  -2   6   87.49   10.70
  -2  -2   6   80.29    7.10
   1   2  -6  292.87   20.90
   1   2  -6  249.78   20.60
   1   2  -6  319.57   22.30
  -1  -2   6  324.37   20.90
  -1  -2   6  288.77   20.00
  -1  -2   6  261.27   21.20
   0   2  -6   61.39    5.80
   0   2  -6   58.49    6.30
   0   2  -6   56.19    6.00
   0  -2   6   56.69    5.90
   0  -2   6   48.70    5.80
   0  -2   6   70.79    6.00
   0  -2   6   48.00    5.70
  -1   2  -6   70.59    7.20
  -1   2  -6   70.49    7.80
  -1   2  -6   69.39    8.00
   1  -2   6   73.09    8.10
   1  -2   6   66.49    6.60
   1  -2   6   67.59    7.70
   1  -2   6   74.89    6.80
  -2   2  -6  224.78   19.20
  -2   2  -6  240.18   19.10
  -2   2  -6  238.28   18.30
  -2   2  -6  260.97   18.30
   2  -2   6  234.68   17.60
   2  -2   6  269.47   17.70
   2  -2   6  267.77   18.60
  -3   2  -6   12.10    3.50
  -3   2  -6    8.90    5.20
  -3   2  -6   14.40    4.10
  -3   2  -6    9.70    3.30
  -3   2  -6    9.50    4.40
  -3   2  -6    8.50    2.20
   3  -2   6   20.10    5.40
   3  -2   6   17.30    5.20
   3  -2   6   14.00    5.80
  -4   2  -6   53.49    6.30
  -4   2  -6   45.60    5.70
  -4   2  -6   48.70    5.90
  -4   2  -6   45.90   15.10
   4  -2   6   49.60    8.80
   4  -2   6   55.79    8.10
   4  -2   6   62.09    8.30
  -5   2  -6   12.50    3.90
  -5   2  -6   13.10    4.30
  -5   2  -6   12.10    3.40
   5  -2   6   15.60    7.80
   5  -2   6   29.40    7.90
  -6   2  -6    5.80    3.40
  -6   2  -6   10.30    3.80
   6  -2   6   21.50    7.90
   6   1  -6   22.80    7.90
  -6  -1   6    8.40    3.80
  -6  -1   6    6.30    5.80
   5   1  -6    8.20    7.50
   5   1  -6    0.30    9.70
  -5  -1   6    0.10    6.60
  -5  -1   6   -3.80    3.50
  -5  -1   6   10.50    3.60
   4   1  -6  151.88   14.80
   4   1  -6  149.19   18.50
   4   1  -6  142.79   11.50
  -4  -1   6  150.38   12.20
  -4  -1   6  145.79   15.20
  -4  -1   6  144.99   11.40
   3   1  -6   14.80    8.40
   3   1  -6   12.90    2.30
   3   1  -6   11.40    1.80
   3   1  -6   12.90    3.10
   3   1  -6    5.90    5.30
  -3  -1   6   14.60    5.10
  -3  -1   6   11.20    5.00
  -3  -1   6   12.10    3.90
  -3  -1   6   12.00    3.50
   2   1  -6    7.60    2.50
   2   1  -6    6.10    6.60
   2   1  -6   11.70    4.60
   2   1  -6    5.10    3.00
  -2  -1   6    6.60    5.70
  -2  -1   6    5.00    3.00
  -2  -1   6    5.20    4.50
  -2  -1   6    4.80    3.00
   1   1  -6  511.35   39.20
   1   1  -6  583.94   40.70
   1   1  -6  611.94   40.00
   1   1  -6  539.45   39.90
  -1  -1   6  617.04   40.00
  -1  -1   6  552.24   39.90
  -1  -1   6  619.54   40.50
   0   1  -6  102.89    9.10
   0   1  -6  102.29    9.10
   0   1  -6  111.79    9.00
   0   1  -6  117.79    9.40
   0  -1   6  105.39    9.00
   0  -1   6  127.59    9.20
   0  -1   6  106.69    9.00
  -1   1  -6   92.09   11.10
  -1   1  -6  107.49    9.30
  -1   1  -6  102.39   10.00
  -1   1  -6  110.69   10.00
   1  -1   6   99.99    8.70
   1  -1   6  116.89    8.90
   1  -1   6  105.99   10.10
   1  -1   6  112.29    8.00
  -2   1  -6   42.20    6.90
  -2   1  -6   52.49    6.90
  -2   1  -6   43.60    5.60
  -2   1  -6   41.00    5.70
   2  -1   6   52.09    6.60
   2  -1   6   54.39    8.10
   2  -1   6   45.70    4.70
   2  -1   6   55.39   10.50
   2  -1   6   43.20    4.60
  -3   1  -6   98.69    9.60
  -3   1  -6  102.19    8.90
  -3   1  -6  101.59   11.40
  -3   1  -6  101.49    9.00
  -3   1  -6   96.39   10.00
  -3   1  -6  105.19   10.40
   3  -1   6  114.19   11.80
   3  -1   6   95.49   10.60
   3  -1   6  106.89   11.10
  -4   1  -6   66.19   10.30
  -4   1  -6   51.99    6.80
  -4   1  -6   53.69    6.70
   4  -1   6   61.09    9.40
   4  -1   6   60.39    8.90
   4  -1   6   58.09    8.80
  -5   1  -6   19.70    4.20
  -5   1  -6   19.40    3.80
   5  -1   6   19.80    7.70
   5  -1   6   11.70    7.00
  -6   1  -6   10.70    5.80
   6  -1   6   11.00    8.90
   6   0  -6   -3.20    7.90
  -6   0   6    2.60    6.00
  -6   0   6   11.00    4.10
   5   0  -6   -0.50   12.00
   5   0  -6    0.50    3.60
  -5   0   6   -5.20    3.50
  -5   0   6   -2.60    5.50
  -5   0   6   -4.10    3.40
   4   0  -6   85.79    7.90
   4   0  -6   94.59   14.80
   4   0  -6   87.79   10.50
  -4   0   6  100.59   12.40
  -4   0   6   84.29    8.60
  -4   0   6   86.49    9.20
   3   0  -6   12.20    2.30
   3   0  -6   12.70    3.50
   3   0  -6   20.70    3.00
   3   0  -6   11.10    5.60
   3   0  -6   21.40    8.40
  -3   0   6   10.20    3.80
  -3   0   6   21.10    6.20
  -3   0   6   10.10    4.70
  -3   0   6   14.00    3.90
   2   0  -6  208.58   15.80
   2   0  -6  187.18   15.20
   2   0  -6  225.48   17.00
   2   0  -6  226.88   16.00
   2   0  -6  224.68   18.70
  -2   0   6  205.48   17.90
  -2   0   6  209.78   16.20
  -2   0   6  233.18   17.60
  -2   0   6  228.98   16.30
   1   0  -6   78.79   10.80
   1   0  -6  108.29    8.80
  -1   0   6   97.39    9.10
  -1   0   6   96.29    8.50
  -1   0   6   87.69    8.30
  -1   0   6   87.29    9.80
   0   0  -6  102.29    9.20
   0   0  -6   92.89    9.40
   0   0  -6  107.89    9.60
   0   0  -6  101.69    9.30
   0   0  -6   99.99    9.20
   0   0   6  114.89    8.90
   0   0   6  105.19    9.10
   0   0   6  107.29    9.90
   0   0   6  116.69    9.00
  -1   0  -6    6.80    3.30
  -1   0  -6    4.10    4.20
  -1   0  -6    8.90    3.60
  -1   0  -6    6.40    4.20
   1   0   6    7.30    2.90
   1   0   6    4.70    2.60
   1   0   6    4.90    4.20
   1   0   6    9.10    1.70
  -2   0  -6  140.99   12.60
  -2   0  -6  127.89   12.60
  -2   0  -6  144.79   11.30
  -2   0  -6  127.79   11.20
   2   0   6  152.58   10.40
   2   0   6  134.89   12.60
   2   0   6  143.39   12.70
   2   0   6  135.09   10.30
  -3   0  -6  235.38   17.00
  -3   0  -6  236.18   17.10
  -3   0  -6  217.98   18.60
  -3   0  -6  225.38   18.00
  -3   0  -6  216.48   19.30
  -3   0  -6  216.88   18.10
   3   0   6  230.48   18.80
   3   0   6  246.38   19.30
  -4   0  -6   46.20    8.70
  -4   0  -6   37.20    5.10
  -4   0  -6   32.20    4.90
   4   0   6   39.70    8.50
   4   0   6   40.00    8.00
  -5   0  -6   11.20    3.40
  -5   0  -6   10.30    3.30
   5   0   6    6.40    6.50
   5   0   6   13.10    8.50
   6  -1  -6   48.80    7.10
   6  -1  -6   43.90   10.50
  -6   1   6   54.09   10.40
  -6   1   6   48.90    7.00
   5  -1  -6    9.70    7.30
   5  -1  -6    3.00    3.70
  -5   1   6    7.00    3.70
  -5   1   6    5.00    4.10
  -5   1   6    6.80    6.60
   4  -1  -6   79.99    7.80
   4  -1  -6   99.59   13.50
   4  -1  -6   83.19   11.30
  -4   1   6   71.69   10.40
  -4   1   6   65.99    8.80
  -4   1   6   73.59    8.10
   3  -1  -6   20.00    5.70
   3  -1  -6   17.50    4.10
   3  -1  -6    9.00    2.60
   3  -1  -6   17.30    8.70
   3  -1  -6   13.10    3.20
  -3   1   6   32.90    6.30
  -3   1   6   17.70    4.60
  -3   1   6   14.60    3.90
  -3   1   6   16.70    5.50
   2  -1  -6    3.60    3.40
   2  -1  -6   11.30    3.00
   2  -1  -6    8.20    6.90
   2  -1  -6    5.00    4.90
  -2   1   6   12.40    3.90
  -2   1   6   12.40    6.00
  -2   1   6   10.00    4.20
  -2   1   6   17.20    3.90
   1  -1  -6   87.09   10.20
   1  -1  -6   87.19    8.40
   1  -1  -6   96.09    8.50
  -1   1   6   90.99    8.90
  -1   1   6   77.49    9.20
  -1   1   6   84.69    8.30
  -1   1   6   82.69    8.10
   0  -1  -6  468.75   34.60
   0  -1  -6  474.15   34.20
   0  -1  -6  451.85   34.30
   0  -1  -6  501.85   34.70
   0   1   6  525.55   34.50
   0   1   6  554.44   34.40
   0   1   6  471.05   34.40
  -1  -1  -6  184.28   15.80
  -1  -1  -6  197.78   16.00
  -1  -1  -6  194.18   15.40
  -1  -1  -6  204.08   15.40
   1   1   6  203.98   14.90
   1   1   6  217.18   15.10
   1   1   6  200.38   14.30
   1   1   6  208.88   16.30
  -2  -1  -6   77.29    9.20
  -2  -1  -6   68.19    8.00
  -2  -1  -6   79.19    7.70
  -2  -1  -6   67.69    7.10
  -2  -1  -6   74.79    8.70
   2   1   6   76.99   11.40
   2   1   6   66.09    6.10
   2   1   6   72.59    9.80
   2   1   6   74.49    6.20
  -3  -1  -6  377.86   32.00
  -3  -1  -6  376.26   27.60
  -3  -1  -6  415.26   30.00
  -3  -1  -6  381.76   27.60
  -3  -1  -6  392.56   28.80
   3   1   6  393.36   29.40
   3   1   6  377.76   29.20
  -4  -1  -6  127.59   11.20
  -4  -1  -6  132.59   11.20
  -4  -1  -6  135.09   13.90
   4   1   6  165.18   16.20
   4   1   6  119.89   14.70
  -5  -1  -6    3.20    3.20
  -5  -1  -6    7.50    3.70
   5   1   6   15.20    8.90
  -6  -1  -6   -5.10    3.20
   6   1   6   14.90    7.70
   6  -2  -6   19.40    8.80
  -6   2   6   34.80    8.50
  -6   2   6   31.20    6.10
   5  -2  -6   44.80    9.20
   5  -2  -6   53.49    7.00
  -5   2   6   53.49    7.40
  -5   2   6   46.60    9.40
   4  -2  -6   13.30    5.00
   4  -2  -6   12.90    6.50
  -4   2   6    3.60    5.80
  -4   2   6   10.40    3.90
  -4   2   6    1.30    4.50
   3  -2  -6  149.29   13.50
   3  -2  -6  150.28   12.10
  -3   2   6  145.79   14.20
  -3   2   6  120.09   12.00
  -3   2   6  132.49   12.80
  -3   2   6  158.28   13.60
   2  -2  -6   32.80    4.70
   2  -2  -6   37.50    7.80
   2  -2  -6   44.20    6.30
   2  -2  -6   36.80    5.90
  -2   2   6   27.10    5.20
  -2   2   6   37.20    6.10
  -2   2   6   24.70    5.10
  -2   2   6   44.40    7.20
   1  -2  -6   72.39    7.90
   1  -2  -6   94.29   11.30
   1  -2  -6   75.89    8.50
   1  -2  -6   72.59    9.30
  -1   2   6   79.89    8.30
  -1   2   6   74.09    7.60
  -1   2   6   71.49    8.50
  -1   2   6   97.89   10.20
   0  -2  -6   42.30    5.80
   0  -2  -6   50.99    6.80
   0  -2  -6   46.20    6.10
   0  -2  -6   44.00    5.90
   0   2   6   51.49    6.10
   0   2   6   54.49    6.30
  -1  -2  -6  834.22   56.59
  -1  -2  -6  745.63   55.89
  -1  -2  -6  753.42   56.39
  -1  -2  -6  785.12   56.79
   1   2   6  876.81   56.29
   1   2   6  876.11   56.49
   1   2   6  850.11   55.89
  -2  -2  -6   97.29    9.30
  -2  -2  -6   90.19    9.00
  -2  -2  -6  108.59    9.80
  -2  -2  -6  104.29    9.30
   2   2   6  105.29    8.00
   2   2   6   91.69    7.80
  -3  -2  -6  478.15   31.20
  -3  -2  -6  431.26   32.50
  -3  -2  -6  403.26   31.20
  -3  -2  -6  443.06   31.00
   3   2   6  425.06   32.80
  -4  -2  -6   74.69   10.00
  -4  -2  -6   67.29    7.70
  -4  -2  -6   71.89    7.90
   4   2   6   72.29   10.80
  -5  -2  -6   16.50    4.30
  -5  -2  -6   22.70    7.20
  -5  -2  -6   19.30    4.00
   5   2   6   19.40    7.80
   6  -3  -6   -6.10    6.80
   6  -3  -6   -0.50    4.90
   5  -3  -6   39.50    6.40
   5  -3  -6   28.90    8.70
  -5   3   6   53.39    7.20
  -5   3   6   36.20    8.50
   4  -3  -6   22.70    2.90
   4  -3  -6    8.40    6.80
   4  -3  -6   25.40    3.00
   4  -3  -6   28.70    5.80
  -4   3   6   22.40    7.10
  -4   3   6   23.10    5.90
  -4   3   6   17.30    5.20
   3  -3  -6   73.69   10.30
   3  -3  -6   73.99    7.80
   3  -3  -6   87.09   10.90
   3  -3  -6   71.59    7.20
  -3   3   6   69.49    9.30
  -3   3   6   86.89    9.50
  -3   3   6   79.79   10.60
  -3   3   6   59.89   12.20
   2  -3  -6  289.07   22.00
   2  -3  -6  306.67   23.00
   2  -3  -6  295.17   21.60
   2  -3  -6  279.97   21.60
  -2   3   6  297.07   22.00
  -2   3   6  280.77   21.80
  -2   3   6  314.77   23.00
  -2   3   6  265.87   22.70
   1  -3  -6  141.69   12.50
   1  -3  -6  143.29   12.10
   1  -3  -6  136.69   12.10
  -1   3   6  127.49   12.10
  -1   3   6  137.59   12.10
  -1   3   6  167.18   14.10
  -1   3   6  142.59   11.40
   0  -3  -6    5.40    3.80
   0  -3  -6    0.30    4.00
   0  -3  -6    1.10    2.60
   0  -3  -6    4.50    3.20
   0   3   6    1.40    3.50
   0   3   6    3.60    3.30
   0   3   6    4.40    3.00
  -1  -3  -6   12.60    4.80
  -1  -3  -6   11.60    4.10
  -1  -3  -6    9.10    3.00
  -1  -3  -6   12.60    3.70
   1   3   6    6.90    3.00
   1   3   6    5.20    3.30
   1   3   6   15.30    3.20
  -2  -3  -6   39.90    5.20
  -2  -3  -6   44.10    6.40
  -2  -3  -6   37.50    5.90
  -2  -3  -6   36.40    4.40
   2   3   6   29.90    4.00
   2   3   6   36.50    4.80
  -3  -3  -6  148.49   15.80
  -3  -3  -6  114.49   11.10
   3   3   6  138.09   15.20
  -4  -3  -6  268.57   20.00
  -4  -3  -6  207.88   19.00
  -4  -3  -6  238.68   17.90
   4   3   6  238.98   21.30
  -5  -3  -6    7.30    4.20
  -5  -3  -6    7.70    6.00
  -5  -3  -6   10.50    4.50
   5   3   6   18.40    8.40
   5  -4  -6   15.90    5.60
   5  -4  -6    8.00    7.40
  -5   4   6    2.00    6.60
  -5   4   6    8.20    4.30
   4  -4  -6    6.00    2.50
   4  -4  -6   -0.10    6.40
   4  -4  -6    7.40    3.10
   4  -4  -6    1.40    5.20
   4  -4  -6    3.80    3.20
  -4   4   6    3.60    6.20
  -4   4   6    5.40    5.20
   3  -4  -6   39.00    5.00
   3  -4  -6   42.60    6.70
   3  -4  -6   33.30    4.80
   3  -4  -6   42.50    7.60
   3  -4  -6   40.20    5.60
  -3   4   6   32.60    5.90
  -3   4   6   51.79   11.80
  -3   4   6   49.50    8.10
  -3   4   6   39.60    7.20
   2  -4  -6  476.45   32.60
   2  -4  -6  464.15   33.80
   2  -4  -6  410.56   32.50
   2  -4  -6  449.26   32.50
  -2   4   6  402.36   33.40
  -2   4   6  433.06   32.80
  -2   4   6  504.05   33.80
  -2   4   6  458.55   34.20
   1  -4  -6   35.70    6.10
   1  -4  -6   39.00    6.00
   1  -4  -6   43.10    6.00
   1  -4  -6   33.10    5.20
  -1   4   6   36.70    6.10
  -1   4   6   31.60    5.10
  -1   4   6   38.70    6.20
  -1   4   6   43.30    6.70
   0  -4  -6   30.40    4.80
   0  -4  -6   27.00    5.30
   0  -4  -6   29.30    5.10
   0  -4  -6   28.10    4.80
   0   4   6   23.50    4.80
   0   4   6   28.40    5.20
   0   4   6   27.20    4.90
  -1  -4  -6    8.80    4.50
  -1  -4  -6   11.40    3.50
  -1  -4  -6   15.70    4.10
  -1  -4  -6   18.60    5.10
   1   4   6   11.10    3.80
   1   4   6   13.30    3.90
   1   4   6   13.90    3.40
  -2  -4  -6    6.60    4.50
  -2  -4  -6   10.40    2.90
  -2  -4  -6   15.90    4.60
  -2  -4  -6    8.20    3.70
   2   4   6    5.00    3.00
   2   4   6    8.10    2.00
  -3  -4  -6  182.68   15.70
  -3  -4  -6  224.58   16.50
  -3  -4  -6  197.88   14.50
   3   4   6  202.88   19.40
  -4  -4  -6    8.60    3.40
  -4  -4  -6    0.70    4.00
   4   4   6    7.40   12.90
  -5  -4  -6    4.20    3.80
  -5  -4  -6    3.70    3.90
   5   4   6   -1.50    7.10
   5  -5  -6   -0.30    3.50
   5  -5  -6    9.70    5.80
   5  -5  -6   -3.30    6.70
  -5   5   6   12.30    5.00
  -5   5   6   10.40    6.20
   4  -5  -6    7.60    6.20
   4  -5  -6    3.20    2.50
   4  -5  -6    4.40    2.40
   4  -5  -6    7.20    5.70
   4  -5  -6    4.70    3.20
  -4   5   6    3.00    6.00
  -4   5   6    9.50    5.10
   3  -5  -6   49.99    7.50
   3  -5  -6   45.20    6.00
   3  -5  -6   38.00    6.20
   3  -5  -6   36.40    5.60
   3  -5  -6   50.39    8.30
  -3   5   6   59.39    9.50
  -3   5   6   42.70    8.00
  -3   5   6   41.50    7.40
   2  -5  -6   41.20    6.50
   2  -5  -6   31.10    6.20
   2  -5  -6   27.20    6.50
   2  -5  -6   45.40    5.60
  -2   5   6   39.80    9.20
  -2   5   6   38.50    6.40
  -2   5   6   35.50    6.80
  -2   5   6   40.80    6.80
   1  -5  -6  371.66   26.70
   1  -5  -6  359.86   26.80
   1  -5  -6  373.26   27.40
   1  -5  -6  351.16   26.40
  -1   5   6  292.97   29.00
  -1   5   6  377.66   26.90
  -1   5   6  380.56   27.50
   0  -5  -6   38.30    6.00
   0  -5  -6   39.60    6.10
   0  -5  -6   45.60    6.70
   0   5   6   39.60    6.20
   0   5   6   44.50    5.80
   0   5   6   52.79    6.70
  -1  -5  -6   22.90    4.10
  -1  -5  -6   25.40    5.00
  -1  -5  -6   31.50    5.90
  -1  -5  -6   23.60    5.20
   1   5   6   19.00    4.60
   1   5   6   17.90    4.30
   1   5   6   21.20    4.10
  -2  -5  -6    0.30    5.10
  -2  -5  -6    5.40    4.40
  -2  -5  -6    1.60    3.00
   2   5   6    5.30    3.40
   2   5   6    4.70    2.10
  -3  -5  -6  400.26   31.00
  -3  -5  -6  460.45   31.70
  -3  -5  -6  441.16   30.30
   3   5   6  423.06   34.00
  -4  -5  -6   36.10    6.00
  -4  -5  -6   32.30    5.30
   4   5   6   41.90   10.60
  -5  -5  -6   19.10    4.50
   5   5   6   25.50    8.50
   5  -6  -6    1.00    5.70
   5  -6  -6   11.40    7.00
   5  -6  -6   -4.50    5.70
  -5   6   6    4.70    5.30
  -5   6   6    2.30    6.80
   4  -6  -6   -5.00    2.70
   4  -6  -6    2.20    6.70
   4  -6  -6   -0.10    3.20
   4  -6  -6    1.40    5.80
   4  -6  -6    1.80    2.40
  -4   6   6   14.00    6.20
  -4   6   6   -2.40    5.80
   3  -6  -6   22.90    6.70
   3  -6  -6   25.50    4.50
   3  -6  -6   24.60    4.60
   3  -6  -6   27.50    6.00
   3  -6  -6   18.60    6.70
  -3   6   6   24.50    6.30
  -3   6   6   14.00    6.70
  -3   6   6   37.00    8.10
   2  -6  -6    6.00    3.60
   2  -6  -6    9.20    5.70
   2  -6  -6   10.80    4.80
  -2   6   6    9.20    5.60
  -2   6   6    3.70    5.00
  -2   6   6   12.20    5.20
   1  -6  -6  392.76   29.60
   1  -6  -6  446.36   29.90
   1  -6  -6  391.26   29.20
  -1   6   6  373.26   28.50
  -1   6   6  425.76   29.80
  -1   6   6  415.36   30.40
  -1   6   6  366.26   29.30
   0  -6  -6   43.50    6.80
   0  -6  -6   25.80    5.40
   0   6   6   28.00    5.90
   0   6   6   30.10    8.10
   0   6   6   35.60    5.90
  -1  -6  -6    4.20    3.70
  -1  -6  -6   15.20    5.50
  -1  -6  -6   10.20    5.50
   1   6   6   16.40    4.80
   1   6   6   10.70    4.30
   1   6   6    6.40    3.80
  -2  -6  -6   65.09    8.70
  -2  -6  -6   59.89    7.50
  -2  -6  -6   57.79    7.60
   2   6   6   52.89    5.40
   2   6   6   69.59    8.70
  -3  -6  -6   51.59    6.60
  -3  -6  -6   39.80    5.70
  -4  -6  -6   14.50    4.20
  -4  -6  -6    5.30    2.90
   4   6   6   20.50    9.10
   5   6   6   10.60    8.20
   4  -7  -6   28.00    7.20
   4  -7  -6    9.60    4.30
   4  -7  -6   21.50    4.40
   4  -7  -6   17.70    4.20
   4  -7  -6   36.10   12.30
  -4   7   6   36.00    7.40
  -4   7   6   30.30    7.80
   3  -7  -6   45.10    7.70
   3  -7  -6   44.10    7.40
   3  -7  -6   41.20    6.20
  -3   7   6   43.20    8.40
  -3   7   6   50.79    8.70
  -3   7   6   47.70   10.80
   2  -7  -6    8.20    5.10
   2  -7  -6    3.30    4.70
  -2   7   6   11.90    5.30
  -2   7   6    4.30    4.70
  -2   7   6   12.20    5.90
   1  -7  -6   10.40    5.30
   1  -7  -6    8.30    5.00
   1  -7  -6   16.80    5.20
  -1   7   6   10.90    4.70
  -1   7   6    9.00    5.60
  -1   7   6    4.70    5.20
   0  -7  -6   41.50    6.30
   0  -7  -6   27.70    6.40
   0  -7  -6   37.40    8.00
   0   7   6   29.00    5.50
   0   7   6   35.40    6.80
   0   7   6   33.90    6.60
  -1  -7  -6   28.50    5.90
  -1  -7  -6   20.70    5.10
  -1  -7  -6   25.80    7.50
   1   7   6   21.60    5.40
   1   7   6   35.30    5.00
   1   7   6   27.50    6.00
  -2  -7  -6   26.50    5.10
  -2  -7  -6   31.50    6.50
   2   7   6   31.10    4.40
   2   7   6   28.50    4.00
  -3  -7  -6   -0.60    3.90
  -3  -7  -6    7.80    4.60
   3   7   6   -0.70    8.30
  -4  -7  -6    5.20    4.90
   4   7   6   30.50   10.40
   4  -8  -6   51.49    8.60
   4  -8  -6   30.20    7.50
   4  -8  -6   41.30    6.20
   4  -8  -6   32.90    5.80
  -4   8   6   30.00    9.30
  -4   8   6   45.10    8.00
   3  -8  -6   41.90   10.20
   3  -8  -6   57.79    8.50
  -3   8   6   62.69    9.20
  -3   8   6   53.19    9.90
   2  -8  -6    4.20    4.80
   2  -8  -6    6.50    5.20
  -2   8   6    2.30    5.00
  -2   8   6   12.30    6.10
  -2   8   6   -4.50    6.70
   1  -8  -6    9.30    5.20
   1  -8  -6    8.10    5.00
  -1   8   6   10.80    6.10
  -1   8   6    3.60    3.90
  -1   8   6    5.40    5.50
   0  -8  -6   11.20    4.80
   0  -8  -6    4.50    4.80
   0  -8  -6    6.20    5.20
   0   8   6    9.00    5.20
   0   8   6    9.60    5.80
  -1  -8  -6    8.40    4.30
  -1  -8  -6    8.60    5.10
   1   8   6   17.10    5.00
   1   8   6    6.20    3.70
   1   8   6   11.10    5.10
  -2  -8  -6   -1.20    4.30
  -2  -8  -6   -2.60    4.00
   2   8   6   -1.10    8.20
   2   8   6    2.90    2.70
  -3  -8  -6    9.30    5.10
  -3  -8  -6    0.40    7.10
  -3  -8  -6   -2.70    4.40
   3   8   6    5.70    8.50
  -4  -8  -6    6.80    5.00
   4   8   6   14.60    8.70
   4  -9  -6   15.50    6.60
   3  -9  -6   32.60    6.90
  -3   9   6   36.60    8.20
  -3   9   6   29.30    8.40
   2  -9  -6   10.20    5.10
   2  -9  -6   10.30    5.50
  -2   9   6    4.30    6.40
  -2   9   6    4.90    5.60
  -2   9   6    1.50    5.50
   1  -9  -6    8.40    4.90
   1  -9  -6    2.60    5.30
  -1   9   6    2.00    5.60
  -1   9   6    7.70    5.80
  -1   9   6    2.50    3.80
   0  -9  -6   16.30    6.20
   0  -9  -6   14.70    4.70
   0   9   6    8.50    5.40
   0   9   6   12.00    7.10
  -1  -9  -6   36.90    6.10
  -1  -9  -6   51.49    7.90
   1   9   6   43.30    7.80
   1   9   6   50.19    7.50
  -2  -9  -6   44.40    7.80
  -2  -9  -6   34.40    6.30
   2   9   6   36.90   11.00
   2   9   6   44.90    6.00
  -3  -9  -6   -7.70    6.00
  -3  -9  -6    2.70    4.30
   3   9   6   -1.10    8.70
   3 -10  -6   11.20    5.70
   3 -10  -6    8.60    4.70
  -3  10   6    7.70    5.90
  -3  10   6    0.20    6.70
   2 -10  -6   52.09    8.20
  -2  10   6   57.19    9.00
  -2  10   6   35.90    8.50
  -2  10   6   35.10    9.40
   1 -10  -6   18.10    5.70
   1 -10  -6   15.90    5.10
  -1  10   6   12.20    6.60
  -1  10   6   10.70    6.50
   0 -10  -6   44.30    6.10
   0 -10  -6   31.60    7.70
   0  10   6   31.30    8.10
   0  10   6   46.10    8.00
  -1 -10  -6   26.60    6.10
  -1 -10  -6   23.40    4.50
  -2 -10  -6   -2.40    4.20
  -2 -10  -6   -4.00    4.80
   2  10   6  -10.80    4.00
   2  10   6   -0.70    3.50
   2  10   6   16.90    8.10
   2 -11  -6   23.40    5.80
   2 -11  -6   20.10    6.80
  -2  11   6   23.90    7.60
  -2  11   6   33.60    7.30
   1 -11  -6   24.90    7.30
   1 -11  -6   35.70    5.90
  -1  11   6   38.60    8.30
  -1  11   6   31.30    7.90
   0 -11  -6   16.80    6.40
   0 -11  -6   16.70    4.20
   0  11   6   19.90    6.90
   0  11   6   21.10    6.40
  -1 -11  -6   66.09    9.80
  -1 -11  -6   66.39    8.10
   1  11   6   84.09   10.00
   0 -15   7    0.50    5.20
   1 -15   7   -6.00    5.20
   2  14  -7    2.20    5.20
   2  14  -7   -1.70   12.00
  -2 -14   7    8.70    4.10
   1  14  -7   17.80    6.90
   1  14  -7   24.90    6.20
  -1 -14   7   17.20    5.70
   0  14  -7    2.30    5.80
   0 -14   7    5.20    4.50
   0 -14   7   -4.10    5.40
  -1  14  -7   12.00    6.50
   1 -14   7   12.20    5.40
   1 -14   7   18.00    6.40
  -2  14  -7   41.40    8.80
   2 -14   7   41.90    7.30
   2 -14   7   51.09    9.00
   3  13  -7   62.79   15.00
  -3 -13   7   46.00    7.40
   2  13  -7    5.20    6.50
   2  13  -7    2.50    4.80
   2  13  -7    4.00   11.60
  -2 -13   7    5.40    4.40
   1  13  -7    4.40    5.20
   1  13  -7   15.50    6.40
  -1 -13   7    7.10    4.10
   0  13  -7    4.40    5.80
   0 -13   7   -0.50    4.20
   0 -13   7    5.80    6.60
  -1  13  -7    3.00    6.30
   1 -13   7    7.90    5.50
   1 -13   7    2.00    4.60
  -2  13  -7   68.79   10.60
   2 -13   7   78.29   10.80
   2 -13   7   74.79    9.60
  -3  13  -7   16.70    6.10
   3 -13   7   25.80    6.40
   3 -13   7   27.50    7.00
   3 -13   7   30.70    8.80
   3  12  -7   23.10   11.60
  -3 -12   7   19.90    5.00
   2  12  -7    2.40    4.80
   2  12  -7   17.00   12.30
  -2 -12   7   -4.90    3.40
   1  12  -7    1.10    5.20
   1  12  -7    7.40    4.80
  -1 -12   7    4.50    4.30
   0  12  -7    2.10    6.00
   0 -12   7   -3.30    5.50
   0 -12   7    1.00    4.40
  -1  12  -7   20.90    7.10
   1 -12   7   26.00    6.70
   1 -12   7   16.20    5.40
  -2  12  -7   90.79   12.10
  -2  12  -7  104.19   12.50
   2 -12   7  100.99   12.70
   2 -12   7   96.59   10.80
  -3  12  -7   45.40    9.80
  -3  12  -7   45.10    8.00
   3 -12   7   34.70    7.50
   3 -12   7   39.90    6.90
   3 -12   7   55.89    9.50
   4 -12   7   -4.40    6.90
   4 -12   7    9.80    5.90
   4  11  -7   11.20   10.90
  -4 -11   7   15.00    4.50
   3  11  -7    8.50   10.60
  -3 -11   7    0.10    4.10
   2  11  -7   49.40    6.50
   2  11  -7   77.89   15.70
   2  11  -7   71.69    8.30
  -2 -11   7   66.99    8.50
   1  11  -7   42.40    7.40
   1  11  -7   33.30    6.00
  -1 -11   7   48.60    7.00
   0  11  -7   10.80    5.40
   0 -11   7    7.10    5.00
   0 -11   7    4.80    4.40
  -1  11  -7   21.90    6.40
  -1  11  -7   10.60    2.90
   1 -11   7   13.40    5.90
   1 -11   7   16.40    5.00
  -2  11  -7   77.29   11.30
   2 -11   7   76.09   10.00
   2 -11   7   68.79    9.40
  -3  11  -7   18.80    6.00
   3 -11   7   14.00    6.90
   3 -11   7   21.60    8.30
   3 -11   7   18.60    5.40
  -4  11  -7   13.30    7.20
  -4  11  -7   15.70    5.60
   4 -11   7   14.80    6.90
   4 -11   7   17.40    7.90
   4 -11   7   16.60    4.00
   4  10  -7    4.00   11.10
  -4 -10   7   14.60    4.30
  -4 -10   7   13.80    4.70
   3  10  -7   15.00   16.30
  -3 -10   7   17.10    4.60
   2  10  -7   20.00    4.00
   2  10  -7   35.70    5.90
   2  10  -7   43.30   13.70
  -2 -10   7   32.00    5.60
   1  10  -7   52.49    7.10
   1  10  -7   62.19    7.90
  -1 -10   7   52.89    7.40
   0  10  -7   47.40    6.90
   0  10  -7   52.19    7.70
   0 -10   7   45.80    6.80
   0 -10   7   60.59    7.70
  -1  10  -7  400.16   28.20
  -1  10  -7  332.67   26.20
   1 -10   7  386.86   27.80
   1 -10   7  373.76   27.60
  -2  10  -7   14.30    6.10
  -2  10  -7   12.50    4.20
   2 -10   7   22.10    8.60
   2 -10   7   20.60    5.00
   2 -10   7    6.30    5.50
  -3  10  -7    8.20    7.10
  -3  10  -7    1.60    5.10
   3 -10   7    1.00    5.90
   3 -10   7    9.00    7.50
   3 -10   7    6.30    3.30
   3 -10   7   11.10    4.30
  -4  10  -7   19.00    7.30
  -4  10  -7   17.90    6.20
   4 -10   7   14.90    3.40
   4 -10   7    8.00    6.60
   4 -10   7   14.00    7.30
   5   9  -7   13.40   12.30
  -5  -9   7    9.70    4.20
   4   9  -7   82.69   14.80
  -4  -9   7   54.29    6.90
  -4  -9   7   46.20    6.00
   3   9  -7   16.40   11.00
  -3  -9   7   16.80    4.70
   2   9  -7   23.10   11.70
   2   9  -7   13.80    3.20
   2   9  -7   14.20    4.90
  -2  -9   7   21.80    4.20
  -2  -9   7   14.90    4.50
   1   9  -7    7.40    4.70
   1   9  -7    4.20    2.90
  -1  -9   7    6.70    4.00
  -1  -9   7    7.80    3.40
   0   9  -7   16.20    4.00
   0   9  -7   18.20    5.60
   0   9  -7   14.20    3.00
   0  -9   7   12.80    4.80
   0  -9   7    8.90    4.20
   0  -9   7   17.30    4.70
  -1   9  -7  127.89   12.50
  -1   9  -7  135.69   10.80
   1  -9   7  137.79   12.90
   1  -9   7  126.19   11.40
   1  -9   7  140.49   12.10
   1  -9   7  113.39   12.50
  -2   9  -7   67.69    7.80
  -2   9  -7   70.29    9.50
   2  -9   7   75.39   10.40
   2  -9   7   51.69    8.30
   2  -9   7   62.79    7.40
   2  -9   7   70.59    8.50
   2  -9   7   78.29    9.10
  -3   9  -7    0.50    5.30
  -3   9  -7   -1.50    4.90
   3  -9   7   -3.90    4.70
   3  -9   7   -3.90    6.30
   3  -9   7   -9.70    4.20
   3  -9   7    0.70    3.60
   3  -9   7    2.70    2.80
  -4   9  -7   33.50    7.50
  -4   9  -7   42.60    9.00
   4  -9   7   20.10    6.80
   4  -9   7   31.40    8.50
   4  -9   7   25.50    3.50
   4  -9   7   24.10    3.60
  -5   9  -7    8.90    8.60
  -5   9  -7    8.50    4.90
   5  -9   7    9.80    7.30
   5  -9   7    4.10    7.50
   5   8  -7   22.00   12.70
  -5  -8   7    8.80    3.20
  -5  -8   7   16.70    3.90
   4   8  -7  111.19   17.20
   4   8  -7   75.39   10.30
  -4  -8   7   75.89    8.10
  -4  -8   7   97.69    9.20
   3   8  -7   14.90    3.20
   3   8  -7    7.90   10.20
  -3  -8   7   13.90    6.10
  -3  -8   7   18.50    4.70
  -3  -8   7   20.00    4.20
   2   8  -7   25.30    3.90
   2   8  -7   40.30   12.20
   2   8  -7   23.50    4.90
  -2  -8   7   32.00    5.30
  -2  -8   7   29.40    6.60
  -2  -8   7   24.30    4.60
   1   8  -7   11.90    3.50
   1   8  -7   13.90    4.80
  -1  -8   7   16.20    4.30
  -1  -8   7    8.40    4.50
  -1  -8   7    9.40    5.80
   0   8  -7   60.09    7.40
   0   8  -7   47.20    5.60
   0  -8   7   50.69    6.90
   0  -8   7   52.99    7.00
   0  -8   7   53.49    6.00
  -1   8  -7   89.29    9.30
  -1   8  -7   73.59   10.30
  -1   8  -7   90.99   10.00
   1  -8   7   83.19    9.40
   1  -8   7  103.09   10.70
   1  -8   7   89.69    9.10
   1  -8   7   84.89    8.00
  -2   8  -7   97.69    9.80
  -2   8  -7   77.49    9.90
  -2   8  -7   84.09    8.80
   2  -8   7   88.29   11.50
   2  -8   7   71.59    9.30
   2  -8   7   98.79    8.90
   2  -8   7   69.19    8.00
   2  -8   7   92.89   10.40
  -3   8  -7   10.30    5.20
  -3   8  -7   15.50    5.80
   3  -8   7   13.00    3.00
   3  -8   7   12.10    6.00
   3  -8   7    5.00    3.60
   3  -8   7   12.50    4.10
   3  -8   7   10.40    6.40
  -4   8  -7   28.50    6.30
  -4   8  -7   28.60    6.80
   4  -8   7   24.00    7.30
   4  -8   7   27.50    3.60
   4  -8   7   27.70    8.90
   4  -8   7   24.10    3.10
   4  -8   7   14.10    5.00
  -5   8  -7    7.40    5.50
  -5   8  -7   -1.40    4.70
   5  -8   7   14.10    7.00
   5  -8   7   17.80    8.00
   5   7  -7   -0.80    4.20
   5   7  -7   20.50   10.50
  -5  -7   7   -4.40    3.00
  -5  -7   7    7.10    3.50
   4   7  -7   59.89    7.00
   4   7  -7   61.79   25.40
  -4  -7   7   54.99    6.00
  -4  -7   7   61.39    7.20
  -4  -7   7   45.60    7.30
  -4  -7   7   52.49    7.10
   3   7  -7  112.79   16.40
   3   7  -7  100.89    8.80
  -3  -7   7  100.79   11.30
  -3  -7   7  101.09    8.70
  -3  -7   7  105.49   11.00
  -3  -7   7  108.29    9.90
   2   7  -7   71.79    7.80
   2   7  -7   80.69    8.10
   2   7  -7   98.39   15.30
   2   7  -7   94.59    9.50
  -2  -7   7   86.29   10.10
  -2  -7   7   84.19    8.60
  -2  -7   7   80.89    8.50
   1   7  -7   16.20    4.50
   1   7  -7   16.50    3.40
  -1  -7   7   16.40    3.90
  -1  -7   7   17.70    3.80
  -1  -7   7   19.40    4.40
  -1  -7   7   14.60    4.20
   0   7  -7   40.80    6.10
   0   7  -7   34.40    4.80
   0  -7   7   48.80    5.80
   0  -7   7   47.30    5.50
   0  -7   7   37.30    4.70
   0  -7   7   33.90    5.70
  -1   7  -7  144.49   12.70
  -1   7  -7  135.49   11.40
  -1   7  -7  144.19   12.10
   1  -7   7  148.59   12.10
   1  -7   7  155.18   12.50
   1  -7   7  131.99   12.80
   1  -7   7  145.49   11.50
  -2   7  -7   31.50    5.60
  -2   7  -7   23.80    6.30
  -2   7  -7   27.40    5.50
   2  -7   7   23.20    4.60
   2  -7   7   28.90    4.70
   2  -7   7   32.00    6.70
   2  -7   7   23.30    5.20
   2  -7   7   29.40    5.70
  -3   7  -7   24.10    5.50
  -3   7  -7   17.70    4.80
  -3   7  -7   23.20    5.30
  -3   7  -7   12.80    5.60
   3  -7   7   16.70    6.20
   3  -7   7   18.10    4.20
   3  -7   7   24.40    3.70
   3  -7   7   24.60    4.20
   3  -7   7   16.70    7.10
  -4   7  -7   69.69    9.40
  -4   7  -7   55.89    7.90
   4  -7   7   44.60   12.90
  -5   7  -7   31.10    6.00
   5  -7   7   26.70    7.10
   5  -7   7   13.20    5.80
   5  -7   7   40.50    9.20
   5   6  -7    9.20    6.20
   5   6  -7   26.50   11.30
  -5  -6   7   17.00    4.00
  -5  -6   7   -5.90    4.60
  -5  -6   7    9.70    6.40
  -5  -6   7    6.80    3.10
  -5  -6   7   11.30    5.20
   4   6  -7   41.20   12.20
   4   6  -7   29.00    6.30
  -4  -6   7   32.70    5.90
  -4  -6   7   39.50    5.30
  -4  -6   7   23.50    3.50
  -4  -6   7   33.30    7.00
   3   6  -7  103.59   15.70
   3   6  -7  103.79   10.20
  -3  -6   7  100.39    9.80
  -3  -6   7   97.29    9.30
  -3  -6   7  105.39    8.00
   2   6  -7  375.66   30.20
   2   6  -7  365.36   26.80
   2   6  -7  410.16   27.20
  -2  -6   7  344.27   27.10
  -2  -6   7  390.46   27.40
  -2  -6   7  386.46   27.80
   1   6  -7   57.59    6.40
   1   6  -7   61.69    7.20
  -1  -6   7   63.79    7.20
  -1  -6   7   63.89    6.10
  -1  -6   7   53.99    6.70
  -1  -6   7   64.19    7.00
   0   6  -7   81.19    8.70
   0   6  -7  110.29    9.70
   0  -6   7  101.39    8.70
   0  -6   7   85.79    8.10
   0  -6   7   91.99    9.40
   0  -6   7  103.69    9.00
  -1   6  -7   43.60    5.90
  -1   6  -7   56.99    7.40
   1  -6   7   62.19    6.50
   1  -6   7   47.80    7.10
   1  -6   7   56.99    7.10
   1  -6   7   60.69    9.00
   1  -6   7   54.89    6.30
  -2   6  -7    6.90    3.50
  -2   6  -7    5.80    3.40
  -2   6  -7    7.90    4.20
  -2   6  -7    1.80    3.70
   2  -6   7    5.20    3.10
   2  -6   7    2.50    5.20
   2  -6   7    5.80    2.70
   2  -6   7    4.00    3.50
   2  -6   7    5.40    4.70
  -3   6  -7  117.69   12.10
  -3   6  -7  150.68   12.80
  -3   6  -7  114.49   12.40
  -3   6  -7  130.69   12.00
   3  -6   7  127.99   13.10
   3  -6   7  128.19   10.50
   3  -6   7  125.09   11.00
   3  -6   7  150.88   12.20
   3  -6   7  124.89   13.70
  -4   6  -7   43.80    6.00
  -4   6  -7   42.20    5.70
  -4   6  -7   38.60    6.20
   4  -6   7   17.90    7.70
   4  -6   7   26.30    7.00
   4  -6   7   27.90    4.50
  -5   6  -7   26.50    5.30
   5  -6   7    8.70    6.60
   5  -6   7   13.70    8.20
   5   5  -7   -0.20   11.00
   5   5  -7   20.50    6.80
  -5  -5   7   17.80    6.70
  -5  -5   7   12.90    4.50
  -5  -5   7    9.20    3.50
  -5  -5   7    2.50    3.60
   4   5  -7   26.70    6.30
   4   5  -7   35.30   11.40
  -4  -5   7   16.70    4.40
  -4  -5   7   24.50    5.00
  -4  -5   7   26.40    5.50
   3   5  -7   75.49    9.90
   3   5  -7   89.79   14.60
  -3  -5   7   88.89    8.40
  -3  -5   7   78.39    8.70
  -3  -5   7   88.79    9.20
  -3  -5   7   91.99    8.50
   2   5  -7   19.20    4.70
   2   5  -7   26.80    8.60
   2   5  -7   14.80    3.00
   2   5  -7   21.00    4.10
  -2  -5   7   27.10    5.40
  -2  -5   7   19.70    4.10
  -2  -5   7   21.90    3.60
   1   5  -7   80.59   11.80
   1   5  -7   71.39    7.40
   1   5  -7   59.19    6.80
  -1  -5   7   67.89    6.00
  -1  -5   7   77.79    7.80
  -1  -5   7   72.39    7.60
  -1  -5   7   61.79    7.20
   0   5  -7  530.55   34.70
   0   5  -7  404.36   33.30
   0  -5   7  473.75   33.00
   0  -5   7  531.05   33.90
   0  -5   7  475.05   32.70
   0  -5   7  452.85   33.40
  -1   5  -7   14.70    4.00
  -1   5  -7   12.70    4.10
  -1   5  -7   12.30    3.40
   1  -5   7   16.00    3.60
   1  -5   7   12.10    3.90
   1  -5   7   14.40    4.00
   1  -5   7   14.50    3.90
  -2   5  -7   15.10    3.60
  -2   5  -7   15.00    3.80
  -2   5  -7   11.10    4.30
  -2   5  -7   15.40    4.10
   2  -5   7   19.30    5.30
   2  -5   7   15.60    4.80
   2  -5   7   14.70    3.40
   2  -5   7    6.90    2.90
   2  -5   7   10.90    3.70
  -3   5  -7  439.36   30.90
  -3   5  -7  405.16   30.90
  -3   5  -7  477.15   31.60
  -3   5  -7  418.56   31.50
  -3   5  -7  442.96   31.00
   3  -5   7  423.46   32.20
   3  -5   7  413.86   31.90
   3  -5   7  424.66   29.80
   3  -5   7  440.76   29.90
   3  -5   7  408.36   31.50
  -4   5  -7   10.80    3.80
  -4   5  -7    9.90    4.10
  -4   5  -7   14.10    4.40
   4  -5   7    4.20    2.60
   4  -5   7   11.30    6.80
   4  -5   7    8.30    6.20
  -5   5  -7    5.60    3.60
  -5   5  -7    6.10    4.10
   5  -5   7    2.60    6.30
   5  -5   7    6.90    7.50
   6   4  -7    5.30   10.40
  -6  -4   7   11.80    3.80
  -6  -4   7   -6.70    5.80
   5   4  -7   11.70   11.20
   5   4  -7   14.00    7.70
  -5  -4   7    9.80    3.70
  -5  -4   7   14.80    4.70
  -5  -4   7   15.10    3.90
  -5  -4   7   15.30    5.90
   4   4  -7    3.40    5.70
   4   4  -7    5.70   10.20
  -4  -4   7    0.20    5.50
  -4  -4   7    6.10    3.80
  -4  -4   7    8.10    2.80
  -4  -4   7    4.20    3.20
   3   4  -7  434.56   31.10
   3   4  -7  479.05   34.40
  -3  -4   7  424.96   30.30
  -3  -4   7  442.76   31.60
  -3  -4   7  403.16   31.30
  -3  -4   7  413.56   30.50
   2   4  -7  184.98   15.70
   2   4  -7  212.48   19.60
   2   4  -7  214.58   16.90
   2   4  -7  247.48   16.30
  -2  -4   7  232.78   17.10
  -2  -4   7  207.08   16.20
  -2  -4   7  224.48   16.50
   1   4  -7   60.79    6.60
   1   4  -7   77.59   10.40
   1   4  -7   41.90    5.70
  -1  -4   7   45.40    6.10
  -1  -4   7   59.99    6.40
   0   4  -7    0.90    2.60
   0   4  -7    7.80    3.60
   0   4  -7    3.70    2.90
   0  -4   7    2.80    2.90
   0  -4   7    4.10    2.90
   0  -4   7    3.90    3.10
  -1   4  -7   76.19    7.70
  -1   4  -7   75.09    7.50
  -1   4  -7   76.39    8.00
   1  -4   7   86.19    7.40
   1  -4   7   74.39    7.30
   1  -4   7   84.39    8.60
   1  -4   7   78.89    7.70
   1  -4   7   75.39    7.90
  -2   4  -7   15.00    3.70
  -2   4  -7   16.10    4.60
   2  -4   7   13.50    3.30
   2  -4   7   15.10    4.60
   2  -4   7   12.90    3.20
   2  -4   7   11.90    5.30
   2  -4   7   15.50    3.60
   2  -4   7   15.90    3.50
  -3   4  -7  130.79   12.30
  -3   4  -7  126.29   11.30
  -3   4  -7  131.09   11.40
  -3   4  -7  117.99   12.40
   3  -4   7  128.29    9.50
   3  -4   7  126.29   13.20
   3  -4   7  132.29    9.60
   3  -4   7  129.19   12.80
   3  -4   7  127.19   10.10
   3  -4   7  141.59   11.50
  -4   4  -7    8.70    4.20
  -4   4  -7    9.60    3.50
  -4   4  -7    9.10    3.80
   4  -4   7    4.20    6.20
   4  -4   7    3.10    6.00
  -5   4  -7    4.40    3.20
  -5   4  -7    8.60    4.20
  -5   4  -7    8.30    3.90
   5  -4   7    3.90    6.30
   5  -4   7   10.60    7.50
  -6   4  -7    2.00    3.40
  -6   4  -7    4.80    4.80
   6  -4   7    3.70    7.70
   6  -4   7   24.90    7.50
   6   3  -7   23.60    8.10
   6   3  -7   20.40   10.40
  -6  -3   7   15.40    7.30
  -6  -3   7   12.40    4.00
   5   3  -7   22.40    7.40
   5   3  -7   17.90   11.30
  -5  -3   7   21.10    4.70
  -5  -3   7   13.50    4.20
  -5  -3   7   20.00    7.20
  -5  -3   7   24.50    4.20
   4   3  -7   28.90   11.00
   4   3  -7   15.80    6.30
  -4  -3   7   16.40    6.20
  -4  -3   7   23.30    4.40
  -4  -3   7   22.30    4.00
  -4  -3   7   23.50    4.40
   3   3  -7   93.99   14.10
   3   3  -7   99.99   10.60
   3   3  -7   96.59    7.00
  -3  -3   7   90.19    8.40
  -3  -3   7   86.19    8.00
  -3  -3   7   96.49   18.70
  -3  -3   7   74.69    9.50
   2   3  -7   42.80    5.50
   2   3  -7   31.90    4.20
   2   3  -7   49.60    9.10
  -2  -3   7   31.80    4.80
  -2  -3   7   30.20    4.90
   1   3  -7  334.97   23.40
   1   3  -7  353.66   25.50
   1   3  -7  268.57   23.00
  -1  -3   7  307.07   23.20
  -1  -3   7  361.96   23.40
   0   3  -7   33.90    4.90
   0   3  -7   40.90    5.30
   0   3  -7   38.40    5.00
   0  -3   7   36.80    4.70
   0  -3   7   37.70    5.10
   0  -3   7   43.30    5.90
   0  -3   7   42.10    5.50
  -1   3  -7   38.60    5.10
  -1   3  -7   34.80    4.60
  -1   3  -7   24.50    6.50
   1  -3   7   37.40    5.10
   1  -3   7   25.50    4.00
   1  -3   7   53.69    5.90
   1  -3   7   37.50    4.60
   1  -3   7   44.20    5.10
  -2   3  -7   34.40    5.50
  -2   3  -7   29.60    5.00
  -2   3  -7   31.90    6.20
  -2   3  -7   30.20    4.40
   2  -3   7   40.10    6.30
   2  -3   7   23.00    3.40
   2  -3   7   31.00    3.90
   2  -3   7   34.70    4.20
   2  -3   7   35.40    5.70
   2  -3   7   36.60    4.90
  -3   3  -7  182.18   14.80
  -3   3  -7  174.88   15.40
  -3   3  -7  143.39   13.80
  -3   3  -7  180.08   14.10
  -3   3  -7  166.28   13.30
   3  -3   7  159.68   15.20
   3  -3   7  177.38   14.60
   3  -3   7  141.49   11.70
   3  -3   7  171.18   13.70
  -4   3  -7   30.70    4.60
  -4   3  -7   34.00    4.80
  -4   3  -7   33.30    8.80
  -4   3  -7   30.00    5.40
   4  -3   7   29.80    7.00
   4  -3   7   35.70    7.00
   4  -3   7   24.70    7.90
  -5   3  -7    2.20    3.90
  -5   3  -7    4.90    2.50
  -5   3  -7    4.10    3.90
   5  -3   7    0.30    7.30
   5  -3   7    5.80    7.10
  -6   3  -7    3.70    4.20
   6  -3   7    1.80    6.50
   6  -3   7    8.90    8.30
   6   2  -7   -2.00    7.80
   6   2  -7   -4.20    9.70
  -6  -2   7    2.30    6.20
  -6  -2   7   12.30    4.10
   5   2  -7    9.00   11.40
   5   2  -7    9.20    8.20
  -5  -2   7   24.90    4.60
  -5  -2   7    9.70    5.80
  -5  -2   7   13.50    4.20
   4   2  -7   47.10   11.40
   4   2  -7   34.20    7.80
  -4  -2   7   35.30    7.60
  -4  -2   7   35.80    4.40
  -4  -2   7   33.50    5.50
  -4  -2   7   34.00    5.20
   3   2  -7   15.80    2.20
   3   2  -7   14.90    2.90
   3   2  -7   18.30    5.90
   3   2  -7   13.50    9.00
  -3  -2   7   13.50    5.60
  -3  -2   7   19.40    5.50
  -3  -2   7   16.60    3.70
  -3  -2   7   18.50    5.90
  -3  -2   7   17.40    4.80
   2   2  -7   22.50    4.00
   2   2  -7    9.50    7.80
   2   2  -7   31.00    6.30
  -2  -2   7   20.70    3.80
  -2  -2   7   25.70    4.20
  -2  -2   7   26.80    6.60
   1   2  -7   16.30    4.00
   1   2  -7   13.40    3.20
   1   2  -7   12.50    6.50
  -1  -2   7   16.50    2.70
  -1  -2   7   16.70    3.60
  -1  -2   7   12.30    3.50
   0   2  -7   28.60    4.80
   0   2  -7   30.90    4.20
   0   2  -7   28.20    4.60
   0  -2   7   31.60    4.40
   0  -2   7   35.20    4.60
   0  -2   7   38.00    4.50
  -1   2  -7   32.90    4.70
  -1   2  -7   31.50    5.30
  -1   2  -7   30.90    5.60
  -1   2  -7   34.90    5.00
   1  -2   7   37.80    5.40
   1  -2   7   35.80    5.20
   1  -2   7   36.30    4.40
  -2   2  -7   97.49    8.90
  -2   2  -7   96.49   10.10
  -2   2  -7   84.99   10.20
  -2   2  -7   99.99    9.00
   2  -2   7   94.99   10.60
   2  -2   7  106.59    8.20
   2  -2   7  112.39   10.30
   2  -2   7   86.89    7.90
   2  -2   7   96.29    9.70
  -3   2  -7   36.40    6.50
  -3   2  -7   30.30    5.10
  -3   2  -7   41.70    7.30
  -3   2  -7   28.70    7.50
  -3   2  -7   32.70    4.70
   3  -2   7   30.70    6.40
   3  -2   7   18.50    9.00
   3  -2   7   28.50    6.90
  -4   2  -7   13.00    4.00
  -4   2  -7   13.20    8.90
   4  -2   7   -3.40    6.60
   4  -2   7   11.30    6.40
   4  -2   7   -1.60    5.80
  -5   2  -7   57.19    6.50
  -5   2  -7   51.59    6.70
   5  -2   7   57.39    9.20
   5  -2   7   45.50    9.00
  -6   2  -7   -0.20    4.00
   6  -2   7    8.20    8.00
   6   1  -7   16.40    7.90
  -6  -1   7   16.10    6.90
  -6  -1   7    4.90    3.80
   5   1  -7   11.00    8.60
   5   1  -7    5.90   10.60
  -5  -1   7   10.40    4.10
  -5  -1   7   -1.50    5.50
   4   1  -7  105.59   12.40
   4   1  -7  108.99   16.40
  -4  -1   7  107.29   10.10
  -4  -1   7  118.79   13.30
  -4  -1   7   97.59   10.20
   3   1  -7    4.50    1.70
   3   1  -7   -0.90    7.80
   3   1  -7   10.80    5.80
   3   1  -7    3.10    2.70
  -3  -1   7    4.10    3.60
  -3  -1   7   11.50    5.30
  -3  -1   7    4.90    3.50
  -3  -1   7    6.70    5.00
   2   1  -7   71.69    7.20
   2   1  -7   83.79   13.40
   2   1  -7   64.59    9.00
   2   1  -7   61.29    8.80
  -2  -1   7   68.59    7.70
  -2  -1   7   65.99   10.10
  -2  -1   7   72.79    9.00
  -2  -1   7   72.09    8.00
   1   1  -7 1218.28   85.09
   1   1  -7 1103.59   84.39
   1   1  -7 1262.87   84.59
  -1  -1   7 1283.87   84.59
  -1  -1   7 1339.67   85.19
  -1  -1   7 1211.28   84.49
   0   1  -7   15.90    5.40
   0   1  -7   12.60    3.50
   0   1  -7   12.60    3.50
   0   1  -7    8.30    3.30
   0   1  -7   12.60    4.00
   0  -1   7   11.90    3.00
   0  -1   7   11.40    4.10
   0  -1   7   15.60    3.60
   0  -1   7   12.20    3.20
  -1   1  -7   17.90    4.30
  -1   1  -7   19.70    4.60
  -1   1  -7   15.10    3.90
  -1   1  -7   19.80    4.30
   1  -1   7   26.00    5.00
   1  -1   7   20.10    2.50
   1  -1   7   23.30    3.70
   1  -1   7   19.30    4.10
  -2   1  -7  125.69   12.00
  -2   1  -7  126.09   10.90
  -2   1  -7  131.99   11.10
  -2   1  -7  123.19   12.10
   2  -1   7  133.69   12.10
   2  -1   7  143.09   10.20
   2  -1   7  141.89   12.70
   2  -1   7  126.79   10.00
  -3   1  -7   26.70    6.10
  -3   1  -7   30.30    6.30
  -3   1  -7   25.80    4.50
  -3   1  -7   24.70    4.70
  -3   1  -7   25.50    5.70
   3  -1   7   22.70    6.40
   3  -1   7   16.60    5.70
   3  -1   7   31.60    6.60
  -4   1  -7   10.30    3.90
  -4   1  -7   -0.50    3.80
  -4   1  -7   12.40    7.20
   4  -1   7    5.10    6.10
   4  -1   7   11.40    7.00
  -5   1  -7   12.60    4.10
  -5   1  -7   13.00    4.30
   5  -1   7   17.40    7.50
   5  -1   7   15.80    7.50
  -6   1  -7    9.10    3.60
   6  -1   7    3.70    8.00
   6   0  -7    6.10    8.30
  -6   0   7    5.90    4.20
  -6   0   7   13.80    6.70
   5   0  -7    4.00    4.10
   5   0  -7   13.50    7.60
   5   0  -7   17.80   10.10
  -5   0   7    4.80    4.20
  -5   0   7    1.80    6.50
   4   0  -7  102.89   12.70
   4   0  -7  111.09   16.10
   4   0  -7  104.99    8.80
  -4   0   7   91.49   10.50
  -4   0   7  110.89   12.50
  -4   0   7  117.49   13.20
   3   0  -7   25.10    3.30
   3   0  -7   29.70    9.10
   3   0  -7   25.90    3.30
   3   0  -7   32.00    4.20
   3   0  -7   21.90    6.30
  -3   0   7   25.80    4.80
  -3   0   7   25.70    6.00
  -3   0   7   29.80    7.40
  -3   0   7   25.80    4.80
   2   0  -7   18.50    3.70
   2   0  -7   27.60   10.90
   2   0  -7   22.10    3.20
   2   0  -7   18.60    5.60
   2   0  -7   18.30    4.20
  -2   0   7   21.50    5.20
  -2   0   7   20.50    4.10
  -2   0   7   17.30    4.20
  -2   0   7   32.10    7.00
   1   0  -7   71.89   10.10
   1   0  -7   70.29    7.70
   1   0  -7   78.39    8.20
  -1   0   7   76.99    7.70
  -1   0   7   76.89    8.20
  -1   0   7   82.49    8.10
   0   0  -7  102.89    9.50
   0   0  -7   94.69    9.90
   0   0  -7   99.89    9.10
   0   0  -7  102.19    9.50
   0   0  -7  105.99    9.60
   0   0   7  113.49    9.20
   0   0   7  103.99    9.30
   0   0   7  108.49    9.20
   0   0   7  114.49    9.00
  -1   0  -7   13.80    4.60
  -1   0  -7   15.80    4.50
  -1   0  -7   15.90    3.90
  -1   0  -7   13.00    3.90
   1   0   7   18.50    4.80
   1   0   7   16.10    2.30
   1   0   7   15.20    3.40
   1   0   7   10.20    4.60
  -2   0  -7    4.30    3.20
  -2   0  -7    7.00    4.40
  -2   0  -7    3.40    3.60
  -2   0  -7    8.50    3.90
   2   0   7    1.40    2.40
   2   0   7   14.90    9.40
   2   0   7    6.00    5.10
   2   0   7   10.50    2.80
  -3   0  -7   76.09   10.60
  -3   0  -7   55.09    7.80
  -3   0  -7   71.19    7.60
  -3   0  -7   73.69    9.60
  -3   0  -7   81.79   10.20
   3   0   7   84.89   10.30
   3   0   7   65.39   10.30
  -4   0  -7   92.99   11.30
  -4   0  -7   62.29    8.20
  -4   0  -7   79.59    7.70
   4   0   7   77.39   10.50
   4   0   7   83.09   11.20
  -5   0  -7   26.70    4.40
   5   0   7   34.50    9.40
   5   0   7   22.60   12.40
   6   0   7   12.90    7.80
   6  -1  -7    4.00    5.40
   6  -1  -7   13.00    8.60
  -6   1   7   11.10    4.80
  -6   1   7   32.50    7.80
   5  -1  -7    6.20    7.40
   5  -1  -7    3.70    3.90
  -5   1   7   15.00    7.20
   4  -1  -7   67.09    6.50
   4  -1  -7   66.19    9.30
   4  -1  -7   70.49   12.40
  -4   1   7   62.09    8.00
  -4   1   7   47.70    6.90
  -4   1   7   54.09    9.50
   3  -1  -7    5.20    3.20
   3  -1  -7    9.10    5.50
   3  -1  -7    3.10    3.40
   3  -1  -7   15.30    8.10
   3  -1  -7    5.90    3.40
  -3   1   7    4.80    3.80
  -3   1   7    5.10    5.10
  -3   1   7   17.70    5.70
  -3   1   7    3.80    4.20
   2  -1  -7   28.80    8.00
   2  -1  -7   22.80    5.80
   2  -1  -7   23.70    4.50
   2  -1  -7   27.00    4.40
  -2   1   7   24.80    5.60
  -2   1   7   25.50    4.90
  -2   1   7   20.10    6.60
  -2   1   7   22.30    4.40
   1  -1  -7   32.20    4.10
   1  -1  -7   33.00    5.70
   1  -1  -7   47.30    7.10
   1  -1  -7   40.40    5.40
  -1   1   7   47.40    6.70
  -1   1   7   50.89    5.90
  -1   1   7   35.20    5.50
  -1   1   7   37.30    4.90
   0  -1  -7   69.89    7.70
   0  -1  -7   69.49    7.70
   0  -1  -7   64.89    7.80
   0  -1  -7   69.59    9.10
   0   1   7   75.69   10.00
   0   1   7   79.09    7.50
   0   1   7   85.99    7.40
  -1  -1  -7   36.30    5.60
  -1  -1  -7   35.30    5.80
  -1  -1  -7   46.00    6.40
  -1  -1  -7   47.60    6.30
   1   1   7   40.40    4.60
   1   1   7   39.20    5.10
   1   1   7   50.69    6.80
   1   1   7   44.90    5.20
  -2  -1  -7   88.29    8.70
  -2  -1  -7   78.09    9.20
  -2  -1  -7   88.49    8.80
  -2  -1  -7   86.69    9.00
   2   1   7   98.79    7.60
   2   1   7   89.99   10.70
   2   1   7   84.59    7.40
  -3  -1  -7   58.59    9.70
  -3  -1  -7   61.79    9.00
  -3  -1  -7   44.00    6.50
  -3  -1  -7   50.59    6.60
   3   1   7   67.29    9.30
   3   1   7   59.19    9.20
  -4  -1  -7   20.90    4.80
  -4  -1  -7   11.80    6.70
  -4  -1  -7   12.70    6.80
   4   1   7   30.10    7.60
   4   1   7   20.10    7.10
  -5  -1  -7   16.60    7.50
  -5  -1  -7    2.70    3.60
  -5  -1  -7    0.40    3.60
   5   1   7    4.10    7.40
   5  -2  -7    9.40    7.80
   5  -2  -7   10.40    4.30
  -5   2   7    6.80    4.20
  -5   2   7   10.60    7.00
   4  -2  -7   17.20    6.70
   4  -2  -7   20.20    2.70
   4  -2  -7   14.60    2.40
   4  -2  -7   24.80    5.00
  -4   2   7   19.30    7.00
  -4   2   7   19.80    5.40
   3  -2  -7   42.00    5.80
   3  -2  -7   38.90    5.20
   3  -2  -7   33.90    9.90
   3  -2  -7   56.69    6.80
   3  -2  -7   43.40    8.00
  -3   2   7   51.89    8.10
  -3   2   7   47.10    6.80
  -3   2   7   45.00    7.40
  -3   2   7   58.49    7.90
   2  -2  -7  119.89   12.50
   2  -2  -7   85.59    9.40
   2  -2  -7  104.79    9.90
   2  -2  -7   99.59   11.10
  -2   2   7   99.29   10.30
  -2   2   7   86.79    9.80
  -2   2   7  115.79   11.40
  -2   2   7  105.09   11.30
   1  -2  -7   51.09    7.00
   1  -2  -7   54.99    6.60
   1  -2  -7   40.00    5.50
   1  -2  -7   54.09    7.70
   1  -2  -7   51.39    6.60
  -1   2   7   52.09    5.80
  -1   2   7   57.29    7.70
  -1   2   7   45.00    7.70
  -1   2   7   57.69    6.70
   0  -2  -7   27.10    5.60
   0  -2  -7   33.80    4.50
   0  -2  -7   34.70    5.40
   0  -2  -7   29.20    4.90
   0   2   7   35.20    4.80
   0   2   7   32.10    4.90
   0   2   7   37.10    5.20
  -1  -2  -7   94.69   10.10
  -1  -2  -7   97.69    9.60
  -1  -2  -7  102.69   10.10
  -1  -2  -7   93.39    8.50
  -1  -2  -7   99.49   10.10
   1   2   7  106.09    9.50
   1   2   7  112.39    8.50
   1   2   7  102.69    8.70
  -2  -2  -7   36.60    6.10
  -2  -2  -7   36.80    5.60
  -2  -2  -7   41.40    5.90
  -2  -2  -7   40.80    5.50
   2   2   7   34.60    4.60
   2   2   7   36.10    4.90
  -3  -2  -7  347.37   23.70
  -3  -2  -7  291.17   23.50
  -3  -2  -7  351.56   24.00
  -3  -2  -7  280.07   26.50
   3   2   7  336.87   26.10
  -4  -2  -7   44.20    8.50
   4   2   7   60.09   10.10
  -5  -2  -7   53.89    7.20
  -5  -2  -7   48.60    8.20
  -5  -2  -7   69.39    8.20
   5   2   7   56.49   10.10
   5  -3  -7   43.40    9.20
   5  -3  -7   44.10    6.50
  -5   3   7   52.09    7.90
  -5   3   7   51.29    9.60
   4  -3  -7    6.50    6.90
   4  -3  -7    2.50    2.00
   4  -3  -7    9.30    4.30
  -4   3   7    3.90    4.60
  -4   3   7    2.00    6.60
   3  -3  -7   82.19    8.70
   3  -3  -7   91.19   11.70
   3  -3  -7  105.89    9.90
   3  -3  -7   73.49    8.00
  -3   3   7   93.19   11.70
  -3   3   7  110.19   18.20
  -3   3   7   86.59    9.60
  -3   3   7   87.09   10.50
   2  -3  -7 1305.17   96.99
   2  -3  -7 1458.75   98.29
   2  -3  -7 1427.66   96.99
   2  -3  -7 1430.86   96.99
  -2   3   7 1364.66   97.29
  -2   3   7 1481.95   97.99
  -2   3   7 1436.16   97.29
  -2   3   7 1405.46   99.89
   1  -3  -7   23.00    4.50
   1  -3  -7   32.70    4.70
   1  -3  -7   21.90    5.00
   1  -3  -7   26.60    5.10
  -1   3   7   20.40    6.10
  -1   3   7   18.10    5.00
  -1   3   7   18.90    4.80
  -1   3   7   20.70    3.80
   0  -3  -7    3.50    3.80
   0  -3  -7    6.70    2.80
   0  -3  -7    2.10    3.90
   0  -3  -7    1.30    3.30
   0   3   7    5.90    3.50
   0   3   7    3.50    3.80
   0   3   7    4.40    3.40
  -1  -3  -7    2.50    2.60
  -1  -3  -7    0.90    4.30
  -1  -3  -7   -0.50    3.40
  -1  -3  -7   -0.90    4.20
   1   3   7    2.80    3.60
   1   3   7    0.90    2.60
   1   3   7    2.90    3.00
  -2  -3  -7   32.10    4.10
  -2  -3  -7   41.20    6.00
  -2  -3  -7   33.40    5.40
  -2  -3  -7   40.50    7.20
  -2  -3  -7   41.30    6.40
   2   3   7   27.40    3.80
   2   3   7   39.60    4.70
  -3  -3  -7   71.89    8.10
  -3  -3  -7   68.39    8.70
   3   3   7   84.39   12.90
  -4  -3  -7   52.59    7.00
  -4  -3  -7   47.00    7.90
   4   3   7   53.69   12.00
  -5  -3  -7   40.50    5.90
  -5  -3  -7   29.80    5.90
   5   3   7   25.30    8.80
   5  -4  -7   10.20    4.80
   5  -4  -7    8.20    7.00
  -5   4   7   -2.10    6.30
  -5   4   7   13.30    5.00
   4  -4  -7   12.80    5.20
   4  -4  -7    6.30    6.10
   4  -4  -7    5.90    2.40
  -4   4   7   11.50    6.70
  -4   4   7    9.50    5.60
   3  -4  -7   28.30    5.40
   3  -4  -7   32.00    4.90
   3  -4  -7   41.50    7.00
   3  -4  -7   41.60    6.60
  -3   4   7   37.60    8.20
  -3   4   7   32.50    7.50
  -3   4   7   37.40    7.10
   2  -4  -7  269.87   21.60
   2  -4  -7  271.87   21.00
   2  -4  -7  283.97   22.50
   2  -4  -7  283.57   21.80
  -2   4   7  270.67   22.60
  -2   4   7  274.77   21.80
  -2   4   7  287.57   22.00
  -2   4   7  305.87   22.80
   1  -4  -7  219.68   18.00
   1  -4  -7  257.07   19.70
   1  -4  -7  236.98   18.60
   1  -4  -7  244.98   19.20
  -1   4   7  268.47   19.70
  -1   4   7  247.78   19.20
  -1   4   7  226.68   19.70
   0  -4  -7   33.20    5.20
   0  -4  -7   30.50    5.40
   0  -4  -7   21.60    5.50
   0  -4  -7   32.10    5.60
   0   4   7   28.00    4.70
   0   4   7   27.30    5.50
   0   4   7   33.30    5.40
  -1  -4  -7   15.30    3.50
  -1  -4  -7    7.50    4.50
  -1  -4  -7   19.50    5.40
  -1  -4  -7   14.70    4.40
   1   4   7    9.90    3.60
   1   4   7   13.10    4.30
   1   4   7   12.80    3.90
  -2  -4  -7   36.60    4.80
  -2  -4  -7   45.20    7.00
  -2  -4  -7   30.20    8.00
  -2  -4  -7   35.90    7.10
  -2  -4  -7   31.70    6.20
   2   4   7   38.40    4.80
   2   4   7   33.10    4.80
  -3  -4  -7  133.59   12.40
  -3  -4  -7  159.18   13.70
   3   4   7  154.38   16.90
  -4  -4  -7    5.90    4.70
  -4  -4  -7   -8.00    3.80
   4   4   7   15.90    8.70
   5   4   7   39.90    9.40
   5  -5  -7   56.79    8.70
   5  -5  -7   55.99    9.70
  -5   5   7   79.99    9.40
  -5   5   7   48.00   10.30
   4  -5  -7    8.20    5.90
   4  -5  -7    5.90    2.60
   4  -5  -7    6.20    3.40
   4  -5  -7    3.20    6.40
  -4   5   7   10.70    6.40
   3  -5  -7   79.09    9.40
   3  -5  -7   86.29    8.40
   3  -5  -7   87.79   11.10
   3  -5  -7   84.19    7.40
   3  -5  -7   91.39   10.70
  -3   5   7   84.79   11.90
  -3   5   7   73.19   10.40
  -3   5   7  105.89   11.60
   2  -5  -7   63.29    9.60
   2  -5  -7   90.39   10.40
   2  -5  -7   57.09    8.00
   2  -5  -7   55.69    8.20
  -2   5   7   72.69   10.40
  -2   5   7   81.69    9.90
  -2   5   7   72.39    9.00
   1  -5  -7   69.49    8.90
   1  -5  -7   79.19    8.40
   1  -5  -7   63.29    9.30
   1  -5  -7   61.19    8.30
  -1   5   7   75.99    9.70
  -1   5   7   66.69    8.30
  -1   5   7   64.39    8.50
  -1   5   7   55.69    7.10
   0  -5  -7   10.80    5.90
   0  -5  -7   13.90    4.60
   0  -5  -7   13.10    5.00
   0  -5  -7   17.30    5.10
   0   5   7   16.30    4.60
   0   5   7   12.10    3.30
   0   5   7   15.70    4.60
  -1  -5  -7   21.70    5.80
  -1  -5  -7   24.20    5.10
  -1  -5  -7   29.10    5.00
  -1  -5  -7   19.90    4.30
   1   5   7   22.30    4.50
   1   5   7   20.70    4.80
   1   5   7   24.90    5.00
  -2  -5  -7   11.00    4.40
  -2  -5  -7   13.30    5.00
  -2  -5  -7   11.70    3.50
   2   5   7    8.10    4.10
   2   5   7    5.20    2.10
  -3  -5  -7   84.59    7.30
  -3  -5  -7   84.49    9.90
   3   5   7  103.99   13.90
  -4  -5  -7   19.40    5.50
   4   5   7   20.20    9.50
  -5  -5  -7   23.40    5.30
   5   5   7   16.60    9.10
   5  -6  -7    0.60    6.30
   5  -6  -7    8.50    6.50
   4  -6  -7    2.10    6.50
   4  -6  -7   13.60    6.10
   4  -6  -7    9.40    3.20
   4  -6  -7   10.30    3.60
  -4   6   7    9.60    5.80
  -4   6   7   12.10    6.90
   3  -6  -7   -0.30    6.00
   3  -6  -7   14.00    5.00
   3  -6  -7   11.50    4.30
   3  -6  -7   10.40    3.60
  -3   6   7   11.50    6.90
  -3   6   7   21.50    5.50
  -3   6   7    9.40    7.20
   2  -6  -7   53.59    7.90
   2  -6  -7   56.79    8.10
  -2   6   7   67.09    8.80
  -2   6   7   55.69    7.90
  -2   6   7   53.79    9.00
   1  -6  -7   25.30    6.30
   1  -6  -7   42.10    7.10
   1  -6  -7   40.80    6.70
  -1   6   7   33.70    6.70
  -1   6   7   29.20    6.60
  -1   6   7   29.90    5.20
   0  -6  -7   79.29    8.70
   0  -6  -7   77.09    9.10
   0  -6  -7   74.29    9.30
   0   6   7   63.09    9.50
   0   6   7   93.19    9.60
   0   6   7   54.39    8.00
  -1  -6  -7   59.09    8.40
  -1  -6  -7   72.59    9.40
  -1  -6  -7   82.79   10.10
   1   6   7   77.79    8.70
   1   6   7   69.59    7.50
   1   6   7   79.89    9.20
  -2  -6  -7   62.69    7.30
  -2  -6  -7   71.59    9.10
   2   6   7   49.80    6.00
   2   6   7   63.99    7.00
  -3  -6  -7   37.60    5.50
  -3  -6  -7   33.80    6.60
   3   6   7   50.79   10.60
  -4  -6  -7   20.00    5.50
   4   6   7   36.40   10.20
   4  -7  -7   15.70    6.10
   4  -7  -7   -5.60    3.80
   4  -7  -7   16.90    6.70
   4  -7  -7    7.80    4.00
  -4   7   7    9.30    5.10
  -4   7   7    4.10    6.40
   3  -7  -7   50.99    7.80
   3  -7  -7   38.30    7.80
   3  -7  -7   58.39    7.20
  -3   7   7   52.09    9.10
  -3   7   7   42.20    8.90
   2  -7  -7   25.50    6.50
   2  -7  -7   19.10    6.20
  -2   7   7   29.50    7.50
  -2   7   7   35.00    6.50
  -2   7   7   30.10    9.70
   1  -7  -7    8.90    5.20
   1  -7  -7    7.60    5.10
  -1   7   7   -2.70    4.80
  -1   7   7    1.70    5.30
   0  -7  -7  127.79   12.90
   0  -7  -7  133.09   13.10
   0  -7  -7  131.19   12.70
   0   7   7  141.09   12.90
   0   7   7  121.69   13.10
  -1  -7  -7    6.80    4.90
  -1  -7  -7   15.90    4.70
   1   7   7   11.90    3.70
   1   7   7   13.30    5.00
   1   7   7   20.70    5.20
  -2  -7  -7   34.10    6.70
  -2  -7  -7   21.60    4.50
   2   7   7   20.70    3.70
   2   7   7   33.50    4.60
  -3  -7  -7   22.80    6.10
  -3  -7  -7    9.70    3.70
   3   7   7   38.30   10.30
   4   7   7   14.20    9.00
   4  -8  -7    6.70    4.10
   4  -8  -7    7.50    6.70
   4  -8  -7   24.90    7.10
   4  -8  -7    2.40    3.80
  -4   8   7   -0.10    6.70
  -4   8   7   20.10    6.50
   3  -8  -7   29.80    6.90
   3  -8  -7   23.80    6.50
  -3   8   7   25.90    7.30
  -3   8   7   20.00    7.40
   2  -8  -7   26.70    6.70
   2  -8  -7   40.00    6.80
  -2   8   7   34.10    7.40
  -2   8   7   24.30    6.40
  -2   8   7   24.70    7.10
   1  -8  -7   12.50    6.40
   1  -8  -7    6.10    5.00
  -1   8   7   14.50    6.30
  -1   8   7   11.20    5.50
   0  -8  -7   14.90    5.60
   0  -8  -7   11.10    5.30
   0   8   7   12.20    5.60
   0   8   7   10.80    5.60
  -1  -8  -7   17.30    5.60
  -1  -8  -7   25.30    6.40
   1   8   7   14.50    5.60
   1   8   7   17.80    5.30
   1   8   7   14.60    6.60
  -2  -8  -7    2.10    4.50
  -2  -8  -7   -8.50    4.00
   2   8   7    9.00    8.80
   2   8   7    3.30    2.70
  -3  -8  -7   50.79    7.90
   3   8   7   56.49   11.50
   3  -9  -7   17.90    5.60
   3  -9  -7    9.70    5.80
  -3   9   7   18.40    6.50
  -3   9   7   20.50    7.60
   2  -9  -7   12.50    6.70
   2  -9  -7    9.40    5.20
  -2   9   7    7.40    5.90
  -2   9   7   13.20    6.80
  -2   9   7   15.00    7.40
   1  -9  -7   -4.40    4.60
   1  -9  -7   18.40    5.20
  -1   9   7    7.80    5.30
  -1   9   7    7.40    6.10
   0  -9  -7   54.39    8.80
   0  -9  -7   50.99    6.60
   0   9   7   53.09    9.20
   0   9   7   53.69    8.30
  -1  -9  -7    4.70    4.80
  -1  -9  -7    9.60    6.10
   1   9   7    5.30    5.60
   1   9   7   15.90    6.30
  -2  -9  -7   37.60    7.90
  -2  -9  -7   76.29    9.30
   2   9   7   57.29    7.10
   2   9   7   59.29   12.00
  -3  -9  -7  -10.70    4.50
   3   9   7    8.80    8.50
   2 -10  -7    0.10    5.40
   2 -10  -7    4.50    5.10
  -2  10   7    1.20    6.30
  -2  10   7    4.80    5.40
   1 -10  -7   39.10    8.30
   1 -10  -7   47.50    6.90
  -1  10   7   48.50    9.70
  -1  10   7   54.39    9.10
   0 -10  -7    8.00    4.10
   0 -10  -7    2.10    5.20
   0  10   7    4.10    5.60
   0  10   7   -1.50    5.50
  -1 -10  -7   46.20    7.80
  -1 -10  -7   23.40    5.30
   1  10   7   35.40    7.00
  -2 -10  -7   22.20    6.40
   2  10   7   12.10    8.80
   2  10   7   13.30    4.40
   0 -11  -7    9.40    6.60
   0 -11  -7    6.40    4.10
   0 -15   8   -3.70    4.70
   2  14  -8   40.50   15.20
   2  14  -8   49.50   10.90
   1  14  -8    5.40    6.20
  -1 -14   8   13.60    4.40
  -1 -14   8    8.50    5.60
   0  14  -8    8.50    6.40
   0 -14   8   -0.30    5.20
   0 -14   8    8.50    4.90
  -1  14  -8    9.40    6.70
   1 -14   8    4.40    5.10
   1 -14   8    7.80    5.60
  -2  14  -8   22.90    7.20
   2 -14   8   37.70    7.20
   2 -14   8   31.40    7.80
   3  13  -8   37.60   13.90
   2  13  -8   25.90    6.30
   2  13  -8   26.30   13.10
  -2 -13   8   14.10    4.70
   1  13  -8   13.20    6.00
  -1 -13   8   12.50    4.60
  -1 -13   8   13.40    5.10
   0  13  -8   -4.60    5.70
   0 -13   8    2.40    5.20
   0 -13   8    7.20    4.30
  -1  13  -8    1.30    6.20
  -1  13  -8   -3.20    2.80
   1 -13   8   10.20    5.60
   1 -13   8   -0.40    4.10
  -2  13  -8   11.10    5.60
  -2  13  -8   34.50    7.80
   2 -13   8   32.90    6.40
   2 -13   8   27.60    6.70
  -3  13  -8   30.40    7.30
   3 -13   8   19.10    7.00
   3 -13   8   27.50    5.90
   3 -13   8   23.70    8.80
   3  12  -8   46.30   12.70
  -3 -12   8   29.20    5.70
   2  12  -8    9.30   13.00
   2  12  -8   -3.90    4.00
   2  12  -8   10.70    5.70
  -2 -12   8   10.30    4.40
   1  12  -8    2.80    4.90
  -1 -12   8   -3.20    4.10
  -1 -12   8  -11.40    4.80
   0  12  -8   45.10    9.00
   0 -12   8   38.40    7.00
   0 -12   8   39.00    7.30
  -1  12  -8    0.20    5.80
  -1  12  -8   -3.20    2.80
   1 -12   8   15.00    5.80
   1 -12   8    4.20    4.60
  -2  12  -8   59.49    9.10
   2 -12   8   55.99    7.70
   2 -12   8   48.80    8.80
  -3  12  -8   40.70    8.40
   3 -12   8   35.10    9.30
   3 -12   8   43.70    8.00
   3 -12   8   35.20    6.50
   4  11  -8   28.40   13.00
   3  11  -8    0.70   11.00
   3  11  -8    4.40    2.30
  -3 -11   8    1.20    4.40
   2  11  -8   11.00   13.70
   2  11  -8    2.70    3.50
   2  11  -8   14.00    5.30
  -2 -11   8   13.10    4.80
   1  11  -8   46.30    7.30
  -1 -11   8   39.00    6.60
  -1 -11   8   33.00    6.30
   0  11  -8   10.60    5.50
   0 -11   8    8.10    4.80
   0 -11   8    9.10    5.20
  -1  11  -8   15.80    5.90
  -1  11  -8    7.70    3.30
   1 -11   8    7.50    4.60
   1 -11   8   11.50    5.90
  -2  11  -8    3.00    4.00
  -2  11  -8   22.30    6.80
   2 -11   8   11.80    7.90
   2 -11   8    4.90    4.80
   2 -11   8   11.30    5.80
  -3  11  -8   42.50    8.00
   3 -11   8   25.40    6.20
   3 -11   8   47.00    8.90
   3 -11   8   31.40    7.30
  -4  11  -8   14.30    6.80
  -4  11  -8    9.60    5.80
   4 -11   8   14.90    7.80
   4 -11   8   17.80    6.30
   4 -11   8    8.90    3.70
   4  10  -8   30.90   12.30
  -4 -10   8   20.90    5.70
  -4 -10   8   15.00    4.40
   3  10  -8    4.00   11.80
   3  10  -8    8.20    2.60
   3  10  -8    1.00    2.20
  -3 -10   8    9.50    4.20
   2  10  -8   22.60   13.00
   2  10  -8   19.20    4.10
   2  10  -8   21.20    5.50
  -2 -10   8   17.80    5.20
   1  10  -8   83.69    9.20
   1  10  -8   36.80    6.30
  -1 -10   8   53.99    7.00
  -1 -10   8   55.79    7.60
   0  10  -8   21.60    6.20
   0  10  -8   17.60    3.00
   0 -10   8   11.30    4.90
   0 -10   8   15.10    5.00
  -1  10  -8  235.38   18.40
  -1  10  -8  242.78   20.50
   1 -10   8  247.38   19.80
   1 -10   8  277.07   20.20
  -2  10  -8   14.90    4.80
  -2  10  -8   18.60    5.90
   2 -10   8   17.10    7.50
   2 -10   8   15.20    4.90
   2 -10   8   15.20    6.10
  -3  10  -8    4.50    5.20
   3 -10   8    6.30    6.90
   3 -10   8   -0.20    5.60
   3 -10   8    4.10    4.30
   3 -10   8   -0.60    3.30
  -4  10  -8   14.90    6.00
  -4  10  -8    9.50    5.70
   4 -10   8   18.90    7.70
   4 -10   8    5.50    6.60
   4 -10   8    9.70    3.20
   4 -10   8   -0.20    3.50
   4   9  -8    8.40    3.10
   4   9  -8   11.80   12.10
  -4  -9   8   12.00    4.30
  -4  -9   8   11.90    4.10
   3   9  -8   16.80   15.70
   3   9  -8    9.00    2.10
   3   9  -8   12.10    2.50
  -3  -9   8    7.10    6.60
  -3  -9   8    9.50    3.80
  -3  -9   8   10.30    4.50
   2   9  -8   36.60   13.40
   2   9  -8   46.50    6.50
  -2  -9   8   38.50    6.30
   1   9  -8   -1.80    4.40
   1   9  -8    0.80    3.10
  -1  -9   8    0.30    4.50
  -1  -9   8    4.70    4.00
  -1  -9   8    1.50    3.80
  -1  -9   8    0.60    3.90
   0   9  -8   40.20    6.90
   0   9  -8   20.10    4.50
   0   9  -8   24.80    5.90
   0  -9   8   26.90    5.60
   0  -9   8   30.50    5.50
   0  -9   8   25.20    5.60
  -1   9  -8  282.77   19.60
  -1   9  -8  269.37   21.00
   1  -9   8  274.97   20.50
   1  -9   8  279.77   20.80
   1  -9   8  232.28   20.70
   1  -9   8  244.78   19.90
  -2   9  -8   81.49   10.10
  -2   9  -8   73.79   10.40
   2  -9   8   86.49   12.20
   2  -9   8   81.19   10.10
   2  -9   8   86.79    9.20
   2  -9   8   86.79   10.50
   2  -9   8   81.89    8.50
  -3   9  -8    1.10    4.70
   3  -9   8    8.20    3.20
   3  -9   8    2.70    5.70
   3  -9   8    1.90    4.00
  -4   9  -8   92.29   10.90
  -4   9  -8   66.69    9.70
   4  -9   8   87.29   12.20
   4  -9   8   72.99   10.70
   4  -9   8   73.19    6.80
  -5   9  -8    0.60    5.30
  -5   9  -8   -4.50    5.10
   5  -9   8    7.80    6.50
   5  -9   8   15.20    7.40
   5   8  -8   16.50   11.70
   5   8  -8   -5.20    4.30
  -5  -8   8    6.40    4.00
   4   8  -8  135.29   11.80
  -4  -8   8  169.18   12.70
  -4  -8   8  123.39   13.30
   3   8  -8    3.70    2.00
   3   8  -8   -0.80    1.70
   3   8  -8    6.10   10.70
   3   8  -8   -1.70    2.70
  -3  -8   8    5.40    3.70
  -3  -8   8   -1.10    5.40
  -3  -8   8    1.70    2.70
   2   8  -8    4.10    2.80
   2   8  -8    7.40    2.90
   2   8  -8    3.10   11.00
  -2  -8   8   10.40    3.30
  -2  -8   8    3.50    4.20
  -2  -8   8    1.30    4.00
   1   8  -8   13.60    4.90
   1   8  -8   13.10    3.70
  -1  -8   8   10.60    4.20
  -1  -8   8   12.60    4.20
  -1  -8   8   17.70    4.50
  -1  -8   8   22.10    4.30
   0   8  -8    1.40    2.20
   0   8  -8   -2.90    4.60
   0  -8   8    3.40    3.70
   0  -8   8   -1.50    2.80
   0  -8   8    2.50    6.50
   0  -8   8    2.50    2.80
  -1   8  -8  155.58   13.60
  -1   8  -8  137.59   13.60
  -1   8  -8  149.69   13.10
   1  -8   8  161.88   13.30
   1  -8   8  144.69   13.10
   1  -8   8  133.79   14.20
   1  -8   8  162.48   12.90
  -2   8  -8   42.70    5.80
  -2   8  -8   32.60    6.00
  -2   8  -8   33.00    6.50
   2  -8   8   34.70    5.40
   2  -8   8   21.60    5.40
   2  -8   8   33.00    4.60
   2  -8   8   43.40    6.80
   2  -8   8   35.30    7.80
  -3   8  -8    5.40    4.80
   3  -8   8   -1.40    2.30
   3  -8   8    3.20    3.50
   3  -8   8    0.00    3.20
   3  -8   8    4.00    6.70
   3  -8   8    5.30    5.40
  -4   8  -8  100.19   11.90
  -4   8  -8  135.29   12.70
   4  -8   8  132.09   14.30
   4  -8   8  135.49   13.90
   4  -8   8  114.49    8.90
   4  -8   8  115.29    8.90
   4  -8   8   92.99   10.90
  -5   8  -8    1.80    4.50
  -5   8  -8    3.20    4.60
   5  -8   8    3.90    6.70
   5  -8   8   11.30    6.40
   5   7  -8   14.90   11.70
   5   7  -8   12.10    5.20
  -5  -7   8    7.00    3.70
   4   7  -8   50.49    5.90
   4   7  -8   50.19   12.50
  -4  -7   8   34.00    6.60
  -4  -7   8   40.60    6.00
   3   7  -8   65.09   13.40
   3   7  -8   63.89    5.20
   3   7  -8   55.99    5.00
   3   7  -8   33.90    7.30
  -3  -7   8   54.59    7.00
  -3  -7   8   64.19    7.30
  -3  -7   8   70.09    9.60
   2   7  -8  128.79   10.90
   2   7  -8  110.69   10.60
   2   7  -8  140.69   17.20
  -2  -7   8  110.89    9.00
  -2  -7   8  112.89   12.20
  -2  -7   8  104.39   10.70
   1   7  -8   57.89    6.90
   1   7  -8   44.80    5.80
  -1  -7   8   44.60    6.50
  -1  -7   8   45.30    6.30
  -1  -7   8   40.90    5.70
  -1  -7   8   46.30    6.10
   0   7  -8    9.60    2.70
   0   7  -8   13.40    4.70
   0  -7   8   14.90    4.00
   0  -7   8   10.10    3.30
   0  -7   8   10.80    3.70
   0  -7   8   10.00    2.90
  -1   7  -8   61.39    7.10
  -1   7  -8   74.89    8.80
   1  -7   8   79.89    7.80
   1  -7   8   76.79   10.30
   1  -7   8   66.09    6.80
   1  -7   8   65.19    8.70
   1  -7   8   75.69    8.20
  -2   7  -8   19.50    4.60
  -2   7  -8   26.90    5.30
  -2   7  -8   26.70    5.90
   2  -7   8   24.40    4.50
   2  -7   8   23.90    5.40
   2  -7   8   19.50    6.70
   2  -7   8   24.30    5.90
   2  -7   8   26.40    4.80
  -3   7  -8   75.89    9.00
   3  -7   8   70.39    8.90
   3  -7   8   45.90    7.10
   3  -7   8   65.49    7.10
   3  -7   8   71.79   10.00
  -4   7  -8   42.80    6.60
  -4   7  -8   23.90    5.80
   4  -7   8   36.30    8.50
   4  -7   8   21.70    4.70
   4  -7   8   38.40    7.60
  -5   7  -8   43.60    6.80
  -5   7  -8   64.49    8.40
   5  -7   8   54.19    9.90
   5  -7   8   47.30    9.10
   5   6  -8    7.10    6.30
   5   6  -8   13.90   10.30
  -5  -6   8    5.60    6.50
  -5  -6   8   -2.00    3.20
  -4  -6   8   15.20    3.90
  -4  -6   8   19.30    4.80
  -4  -6   8   21.80    4.70
   3   6  -8  152.08   17.50
   3   6  -8  119.89    9.80
   3   6  -8  130.29   12.30
   3   6  -8  154.48   10.10
  -3  -6   8  110.39   13.60
  -3  -6   8  123.89   11.50
  -3  -6   8  148.69   13.30
   2   6  -8  614.94   42.10
   2   6  -8  651.83   45.20
   2   6  -8  532.35   41.90
   2   6  -8  640.94   42.60
  -2  -6   8  570.44   42.30
  -2  -6   8  609.74   42.70
  -2  -6   8  610.14   42.70
   1   6  -8   27.50    4.40
   1   6  -8   35.20    5.40
  -1  -6   8   34.80    5.30
  -1  -6   8   33.40    5.20
  -1  -6   8   30.00    4.80
  -1  -6   8   34.60    4.50
   0   6  -8   44.20    5.60
   0   6  -8   57.99    7.50
   0  -6   8   43.00    6.10
   0  -6   8   50.59    5.50
   0  -6   8   54.39    6.40
   0  -6   8   58.49    6.50
  -1   6  -8    3.60    4.40
  -1   6  -8    1.10    2.50
   1  -6   8    5.00    3.50
   1  -6   8    4.10    2.70
   1  -6   8    9.90    4.70
   1  -6   8    0.80    3.20
  -2   6  -8   10.60    3.60
  -2   6  -8   10.90    4.90
  -2   6  -8   11.40    3.80
  -2   6  -8   20.20    4.40
   2  -6   8   13.00    3.50
   2  -6   8   11.20    5.10
   2  -6   8    9.40    4.20
   2  -6   8   17.90    5.90
   2  -6   8   17.00    3.80
  -3   6  -8   56.19    7.20
  -3   6  -8   49.10    6.70
   3  -6   8   50.59    5.10
   3  -6   8   43.80    7.40
   3  -6   8   41.30    5.90
   3  -6   8   52.29    9.00
   3  -6   8   50.89    8.30
  -4   6  -8   43.70    8.10
  -4   6  -8   58.69    7.30
   4  -6   8   39.40    5.80
  -5   6  -8   10.20    4.40
  -5   6  -8    4.50    3.60
   5  -6   8    1.10    6.60
   5  -6   8    8.40    6.80
   5   5  -8   35.30   12.20
   5   5  -8   21.80    8.00
  -5  -5   8   21.10    4.30
  -5  -5   8   11.70    6.90
  -5  -5   8   21.10    5.00
   4   5  -8   18.00    6.00
   4   5  -8   21.90   11.30
  -4  -5   8   19.40    4.60
  -4  -5   8   16.20    4.00
  -4  -5   8   17.90    4.30
   3   5  -8  155.68   12.50
   3   5  -8  174.28   14.90
   3   5  -8  193.18   19.30
   3   5  -8  193.78   12.60
  -3  -5   8  157.18   13.80
  -3  -5   8  163.48   17.00
  -3  -5   8  183.78   14.50
   2   5  -8  146.89   13.00
   2   5  -8  174.58   14.10
   2   5  -8  178.08   18.20
   2   5  -8  175.98   13.70
  -2  -5   8  180.78   13.70
  -2  -5   8  168.08   14.50
  -2  -5   8  161.68   13.40
   1   5  -8   18.60    4.60
   1   5  -8   10.40    3.20
   1   5  -8   28.00    8.50
  -1  -5   8   18.90    4.10
  -1  -5   8   15.30    4.30
  -1  -5   8   17.30    3.90
  -1  -5   8   17.00    2.60
   0   5  -8  350.76   24.70
   0   5  -8  288.67   24.20
   0  -5   8  342.37   23.90
   0  -5   8  364.66   24.50
   0  -5   8  354.96   24.60
   0  -5   8  318.07   24.20
  -1   5  -8   57.89    7.30
  -1   5  -8   50.39    6.60
  -1   5  -8   44.80    5.80
   1  -5   8   49.30    5.90
   1  -5   8   54.69    8.00
   1  -5   8   54.19    7.30
   1  -5   8   55.39    6.30
   1  -5   8   48.30    6.60
  -2   5  -8    2.30    3.30
  -2   5  -8    1.20    3.20
  -2   5  -8    5.50    4.00
   2  -5   8    9.80    3.40
   2  -5   8    2.10    3.30
   2  -5   8   -1.90    4.80
   2  -5   8    8.00    3.20
   2  -5   8    1.80    4.50
  -3   5  -8  113.69   11.60
  -3   5  -8  100.89   11.60
  -3   5  -8  126.79   12.40
  -3   5  -8  144.69   12.50
   3  -5   8  143.49   12.80
   3  -5   8  124.09    9.90
   3  -5   8  125.49   13.80
   3  -5   8  114.09    9.90
   3  -5   8  124.59    9.50
  -4   5  -8   37.20    5.30
  -4   5  -8   22.50    5.60
   4  -5   8   27.60    8.00
   4  -5   8   27.90    7.20
   4  -5   8   17.60    4.60
  -5   5  -8   -2.30    3.90
   5  -5   8    6.20    6.00
   5  -5   8    6.60    7.80
   5   4  -8  -11.50    7.30
   5   4  -8    5.30   10.70
  -5  -4   8   -1.50    3.40
  -5  -4   8    2.80    3.80
  -5  -4   8   13.20    6.20
   4   4  -8   17.80    6.50
   4   4  -8   18.00   11.00
  -4  -4   8   11.20    4.20
  -4  -4   8   14.60    5.00
  -4  -4   8   16.80    3.80
  -4  -4   8    6.60    6.60
   3   4  -8    3.60    2.20
   3   4  -8    1.00    4.90
   3   4  -8    8.00    9.10
  -3  -4   8    9.20    3.10
  -3  -4   8    5.20    3.80
  -3  -4   8    9.40    3.10
  -3  -4   8   10.40    7.70
   2   4  -8   23.70    8.40
   2   4  -8   16.90    3.30
   2   4  -8   20.90    4.30
   2   4  -8   15.60    5.50
  -2  -4   8   18.10    4.20
  -2  -4   8   30.10    5.90
  -2  -4   8   16.60    3.90
   1   4  -8   12.70    3.20
   1   4  -8   16.20    8.30
   1   4  -8   18.80    4.40
  -1  -4   8   11.70    3.60
  -1  -4   8   10.40    3.40
   0   4  -8  109.19    9.60
   0   4  -8   80.89    8.90
   0   4  -8   92.29    8.50
   0  -4   8  114.39    8.80
   0  -4   8   88.29    9.00
   0  -4   8  104.69    9.10
   0  -4   8  112.19    9.30
  -1   4  -8   25.50    4.30
  -1   4  -8   17.50    4.00
  -1   4  -8   21.00    4.70
   1  -4   8   15.80    3.60
   1  -4   8   23.10    5.80
   1  -4   8   24.10    4.80
   1  -4   8   20.70    3.90
   1  -4   8   14.80    3.70
  -2   4  -8    1.80    3.20
  -2   4  -8    6.60    4.20
  -2   4  -8    6.30    3.60
   2  -4   8    4.20    3.50
   2  -4   8    6.40    2.70
   2  -4   8    1.50    3.00
   2  -4   8   10.20    5.00
   2  -4   8    5.30    2.30
   2  -4   8    1.50    4.30
  -3   4  -8  445.96   32.00
  -3   4  -8  417.36   32.60
  -3   4  -8  457.45   32.30
   3  -4   8  457.05   32.70
   3  -4   8  455.75   31.60
   3  -4   8  454.45   33.20
   3  -4   8  445.86   30.70
   3  -4   8  415.86   30.80
   3  -4   8  452.95   30.70
  -4   4  -8    8.30    4.50
  -4   4  -8   16.50    4.40
   4  -4   8    5.90    5.80
   4  -4   8    3.70    6.10
  -5   4  -8    2.10    4.20
   5  -4   8   -1.40    7.60
   5  -4   8   -1.00    6.20
   6   3  -8  -15.70    8.00
   5   3  -8   32.10   12.40
  -5  -3   8   33.20    5.10
  -5  -3   8   25.60    4.30
  -5  -3   8   24.60    7.70
   4   3  -8   17.50    7.10
   4   3  -8   24.60   10.90
  -4  -3   8   20.20    4.90
  -4  -3   8   21.00    3.10
  -4  -3   8   15.50    6.50
  -4  -3   8   27.70    7.30
   3   3  -8    2.10    5.50
   3   3  -8    5.50    1.70
   3   3  -8    1.70    2.60
   3   3  -8    0.70    8.80
  -3  -3   8   -7.10    7.00
  -3  -3   8   10.10    3.40
  -3  -3   8    8.60    6.60
  -3  -3   8   14.00    3.90
  -3  -3   8    7.50    5.70
   2   3  -8   56.79    6.50
   2   3  -8   74.99    7.60
   2   3  -8   81.89   11.50
   2   3  -8   79.59    9.20
  -2  -3   8   67.49    7.50
  -2  -3   8   69.59    7.40
   1   3  -8    8.30    4.30
   1   3  -8   16.60    7.50
   1   3  -8    9.40    3.40
  -1  -3   8   13.90    3.70
  -1  -3   8   13.70    3.10
  -1  -3   8   13.60    3.40
   0   3  -8  520.85   41.10
   0   3  -8  568.34   40.60
   0   3  -8  620.44   41.50
   0  -3   8  574.74   40.80
   0  -3   8  586.14   41.10
   0  -3   8  666.53   41.30
   0  -3   8  594.64   40.70
  -1   3  -8   28.10    5.10
  -1   3  -8   31.80    5.00
  -1   3  -8   33.40    4.80
   1  -3   8   42.40    5.30
   1  -3   8   23.60    3.80
   1  -3   8   35.80    5.40
   1  -3   8   32.60    5.50
   1  -3   8   34.80    4.50
  -2   3  -8   62.89    7.00
  -2   3  -8   55.29    6.80
  -2   3  -8   48.00    6.80
  -2   3  -8   54.89    6.50
   2  -3   8   65.59    7.80
   2  -3   8   54.29    5.90
   2  -3   8   50.39    7.10
   2  -3   8   44.50    4.60
   2  -3   8   60.59    8.20
  -3   3  -8  101.29   11.70
  -3   3  -8  113.99   10.80
  -3   3  -8  106.79   12.20
  -3   3  -8  113.69   10.50
   3  -3   8  123.69   11.20
   3  -3   8  118.39   12.90
   3  -3   8  111.49    8.30
   3  -3   8  112.99    8.40
   3  -3   8  119.39   12.20
  -4   3  -8   14.60    4.30
  -4   3  -8    3.60    7.00
  -4   3  -8   27.30    5.40
   4  -3   8    8.50    6.10
   4  -3   8   -0.40    6.80
   4  -3   8   21.20    6.10
  -5   3  -8   -0.20    3.70
  -5   3  -8    0.10    4.00
   5  -3   8   -5.10    6.20
   5  -3   8   10.50    7.30
   6   2  -8   29.60    8.80
   5   2  -8   10.30   10.60
   5   2  -8   17.60    7.70
  -5  -2   8    3.20    4.00
  -5  -2   8    8.00    6.70
   4   2  -8   26.70    7.30
   4   2  -8   32.50   11.10
  -4  -2   8   26.30    5.20
  -4  -2   8   17.40    4.20
  -4  -2   8   25.40    7.20
   3   2  -8   36.80    4.40
   3   2  -8   30.10   10.10
   3   2  -8   24.60    3.50
   3   2  -8   30.90    6.70
  -3  -2   8   32.50    5.30
  -3  -2   8   32.10    6.80
  -3  -2   8   31.70    5.30
  -3  -2   8   41.70    8.50
   2   2  -8  103.89    9.30
   2   2  -8  123.99   10.20
   2   2  -8  118.59   13.80
   2   2  -8  116.79   11.40
  -2  -2   8  102.89    9.90
  -2  -2   8  109.99   10.00
  -2  -2   8  118.69   11.70
   1   2  -8   69.29    6.60
   1   2  -8   93.39    8.60
   1   2  -8   82.49    8.40
   1   2  -8   80.69   11.20
  -1  -2   8   79.39    8.10
  -1  -2   8   82.09    7.10
  -1  -2   8   99.89    8.40
   0   2  -8   55.09    6.20
   0   2  -8   45.10    6.40
   0   2  -8   63.79    7.00
   0  -2   8   46.30    6.50
   0  -2   8   48.20    6.10
  -1   2  -8   18.90    4.80
  -1   2  -8   20.00    4.30
  -1   2  -8   24.20    4.70
  -1   2  -8   18.20    4.50
   1  -2   8   18.40    4.70
   1  -2   8   17.20    3.70
   1  -2   8   13.00    3.60
  -2   2  -8   61.39    7.40
  -2   2  -8   55.09    7.70
  -2   2  -8   54.09    7.80
  -2   2  -8   74.69    7.60
   2  -2   8   67.79    9.00
   2  -2   8   65.09    6.50
   2  -2   8   64.39    8.40
   2  -2   8   60.29    6.30
   2  -2   8   67.19    9.00
  -3   2  -8   53.99    8.30
  -3   2  -8   61.69    9.60
  -3   2  -8   64.89    7.80
  -3   2  -8   61.39    7.90
   3  -2   8   76.69    8.90
   3  -2   8   54.79    8.60
   3  -2   8   66.39    9.30
  -4   2  -8   21.10    5.10
  -4   2  -8   34.70    8.70
  -4   2  -8   22.00    4.50
   4  -2   8   22.20    6.70
   4  -2   8    9.60    6.30
   4  -2   8   25.40    6.40
  -5   2  -8   14.20    4.20
  -5   2  -8   19.80    4.70
   5  -2   8   13.40    7.10
   5  -2   8   12.70    7.90
   6   1  -8   -9.50    7.80
   5   1  -8   15.40    7.60
   5   1  -8    4.30   10.00
  -5  -1   8   10.70    6.50
  -5  -1   8   14.60    4.60
   4   1  -8    4.50    9.40
   4   1  -8    3.20    7.00
  -4  -1   8    7.90    3.80
  -4  -1   8    4.10    5.90
  -4  -1   8    6.20    3.90
   3   1  -8  118.49   15.60
   3   1  -8  103.19    9.10
   3   1  -8  125.49   10.00
   3   1  -8  123.89   12.40
  -3  -1   8  126.29   11.10
  -3  -1   8  135.79   15.00
  -3  -1   8  117.29   12.80
  -3  -1   8  115.99   10.70
   2   1  -8   21.40    3.90
   2   1  -8   30.40    8.40
   2   1  -8   25.20    5.90
   2   1  -8   26.40    4.90
  -2  -1   8   21.90    5.50
  -2  -1   8   36.90    5.20
  -2  -1   8   23.70    4.70
  -2  -1   8   26.10    6.90
   1   1  -8  418.46   30.20
   1   1  -8  435.86   29.40
   1   1  -8  378.36   29.10
   1   1  -8  359.56   28.30
  -1  -1   8  444.66   29.30
  -1  -1   8  426.06   29.70
  -1  -1   8  400.26   29.00
   0   1  -8   48.20    5.50
   0   1  -8   49.10    7.40
   0   1  -8   37.90    5.30
   0   1  -8   39.30    5.30
   0   1  -8   41.80    5.90
   0  -1   8   44.40    5.40
   0  -1   8   44.20    5.90
   0  -1   8   42.30    5.70
   0  -1   8   43.50    5.50
  -1   1  -8  161.68   13.60
  -1   1  -8  180.28   13.60
  -1   1  -8  151.08   13.20
  -1   1  -8  142.29   13.40
   1  -1   8  168.18   12.00
   1  -1   8  158.48   13.70
   1  -1   8  154.08   12.60
   1  -1   8  187.48   12.90
  -2   1  -8  154.48   12.20
  -2   1  -8  123.79   12.00
  -2   1  -8  135.89   12.30
  -2   1  -8  129.79   12.20
   2  -1   8  121.79   11.00
   2  -1   8  147.69   13.20
   2  -1   8  155.08   11.10
   2  -1   8  170.18   13.50
  -3   1  -8   22.70    5.90
  -3   1  -8   27.10    7.00
  -3   1  -8   21.10    6.40
  -3   1  -8   21.10    4.10
  -3   1  -8   17.70    5.10
   3  -1   8   20.90    6.80
   3  -1   8   19.30    6.50
  -4   1  -8    9.00    6.90
  -4   1  -8    3.60    3.50
  -4   1  -8    5.80    3.80
   4  -1   8    6.00    6.70
   4  -1   8    4.20    6.70
  -5   1  -8   48.70    6.60
  -5   1  -8   37.60    6.20
   5  -1   8   43.70    9.30
   5  -1   8   50.99    9.70
   5   0  -8    3.90    7.30
   5   0  -8    5.60    9.60
  -5   0   8    7.20    7.00
  -5   0   8    8.90    3.90
   4   0  -8   12.80   10.00
   4   0  -8   21.70    7.60
   4   0  -8   20.20    3.00
  -4   0   8   16.10    5.70
  -4   0   8   15.20    4.60
  -4   0   8   23.80    5.50
   3   0  -8    0.30    5.80
   3   0  -8   11.60    8.70
   3   0  -8    8.50    2.20
   3   0  -8    4.30    2.20
   3   0  -8    6.40    4.10
  -3   0   8    5.90    4.40
  -3   0   8   -5.40    9.30
  -3   0   8    5.70    5.00
  -3   0   8    4.80    4.50
   2   0  -8    0.60    3.00
   2   0  -8    9.30    5.40
   2   0  -8   -0.30    3.60
   2   0  -8    4.00    7.50
  -2   0   8    4.80    6.30
  -2   0   8    1.80    3.50
  -2   0   8    7.00    4.10
  -2   0   8    3.30    3.70
   1   0  -8   38.10    5.70
   1   0  -8   29.90    4.80
   1   0  -8   32.40    7.30
  -1   0   8   37.20    5.40
  -1   0   8   36.10    4.70
  -1   0   8   34.90    5.50
   0   0  -8  128.89   11.10
   0   0  -8  104.49   11.50
   0   0  -8  126.69   11.10
   0   0  -8  112.29   10.10
   0   0   8  122.09   10.40
   0   0   8  130.59   10.70
   0   0   8  123.79   10.80
   0   0   8  124.59   10.20
  -1   0  -8   14.00    4.50
  -1   0  -8   20.40    5.10
  -1   0  -8   22.00    5.10
  -1   0  -8   20.60    5.00
   1   0   8   32.30    6.10
   1   0   8   19.40    2.90
   1   0   8   21.20    3.90
   1   0   8   30.80    6.30
  -2   0  -8 1496.25  107.79
  -2   0  -8 1562.84  107.49
  -2   0  -8 1448.36  107.39
  -2   0  -8 1562.44  107.59
   2   0   8 1655.13  108.09
   2   0   8 1706.83  106.89
   2   0   8 1563.14  106.69
  -3   0  -8   59.09    9.20
  -3   0  -8   63.19    8.20
  -3   0  -8   63.99    9.60
  -3   0  -8   54.19    7.60
  -3   0  -8   72.59    9.80
   3   0   8   64.49    9.20
   3   0   8   74.69   10.10
  -4   0  -8    9.20    4.50
  -4   0  -8   22.30    6.70
   4   0   8    8.30    6.60
   4   0   8    6.90    6.80
  -5   0  -8   19.10    5.70
  -5   0  -8   37.30    5.50
   5   0   8   51.49    9.20
   5   0   8   41.20    9.10
   5  -1  -8    4.80    7.30
  -5   1   8   -2.40    6.40
  -5   1   8    1.00    3.80
   4  -1  -8    1.90    2.80
   4  -1  -8    2.10    1.60
   4  -1  -8   -3.20    6.40
   4  -1  -8    7.20    8.30
  -4   1   8   -1.60    5.90
  -4   1   8   -1.00    4.30
   3  -1  -8   52.99    6.20
   3  -1  -8   50.59    8.20
   3  -1  -8   43.20    5.60
   3  -1  -8   59.69   11.40
   3  -1  -8   51.09    5.50
  -3   1   8   52.69    6.60
  -3   1   8   53.19    8.50
  -3   1   8   69.29   12.60
  -3   1   8   47.30    7.10
   2  -1  -8   34.50    5.20
   2  -1  -8   37.60    6.80
   2  -1  -8   36.60    8.50
   2  -1  -8   35.40    5.60
  -2   1   8   22.90    6.00
  -2   1   8   35.40    5.70
  -2   1   8   30.10    5.70
  -2   1   8   37.20    7.90
   1  -1  -8   35.40    4.20
   1  -1  -8   43.40    7.60
   1  -1  -8   38.50    6.10
   1  -1  -8   44.70    5.60
  -1   1   8   38.30    5.20
  -1   1   8   43.10    5.80
   0  -1  -8   81.09    9.10
   0  -1  -8   84.59    8.30
   0  -1  -8   93.09    9.00
   0  -1  -8   96.09    9.50
   0   1   8   88.99    8.50
   0   1   8   94.49    8.80
   0   1   8  100.29    8.90
  -1  -1  -8   22.00    5.40
  -1  -1  -8   15.00    4.90
  -1  -1  -8   13.70    4.50
  -1  -1  -8   18.10    4.40
   1   1   8   17.90    3.00
   1   1   8   21.30    4.20
   1   1   8   22.30    3.60
  -2  -1  -8  216.08   16.70
  -2  -1  -8  194.88   16.90
  -2  -1  -8  205.88   16.60
  -2  -1  -8  200.08   16.50
   2   1   8  205.68   15.20
   2   1   8  220.28   18.30
   2   1   8  220.08   15.50
  -3  -1  -8   32.10    6.20
  -3  -1  -8   31.40    5.90
  -3  -1  -8   29.00    5.20
   3   1   8   36.10    8.10
   3   1   8   39.10    8.30
  -4  -1  -8    6.00    6.00
  -4  -1  -8   -0.10    5.40
  -4  -1  -8   10.00    4.60
   4   1   8   14.90    7.80
  -5  -1  -8   54.69    7.40
  -5  -1  -8   68.79    9.90
  -5  -1  -8   53.59    7.00
   5   1   8   68.59   11.10
   5  -2  -8    6.10    6.80
   5  -2  -8    8.90    4.00
  -5   2   8   -0.10    4.40
  -5   2   8   -0.40    6.30
   4  -2  -8   31.50    4.10
  -4   2   8   47.40   10.10
  -4   2   8   47.70    6.80
   3  -2  -8  157.38   12.30
   3  -2  -8  158.08   13.10
   3  -2  -8  129.69   12.40
   3  -2  -8  147.09   16.50
   3  -2  -8  153.48   15.10
  -3   2   8  155.68   14.40
  -3   2   8  147.89   13.70
  -3   2   8  183.58   16.00
  -3   2   8  174.98   15.80
   2  -2  -8   88.39   10.30
   2  -2  -8  115.29   13.00
   2  -2  -8  136.59   12.10
   2  -2  -8  103.09   10.70
  -2   2   8   86.29   11.10
  -2   2   8  128.39   12.00
  -2   2   8  131.39   12.60
  -2   2   8   98.99   11.50
   1  -2  -8  197.48   17.10
   1  -2  -8  187.98   15.10
   1  -2  -8  224.48   16.90
   1  -2  -8  218.28   16.10
  -1   2   8  221.38   16.90
  -1   2   8  209.58   16.50
  -1   2   8  199.28   15.80
   0  -2  -8   16.00    4.80
   0  -2  -8    6.80    3.20
   0  -2  -8   12.80    7.50
   0   2   8   18.40    3.60
   0   2   8   16.30    3.80
   0   2   8   17.70    4.30
  -1  -2  -8   16.10    4.60
  -1  -2  -8   18.90    5.50
  -1  -2  -8   28.30    4.50
  -1  -2  -8   15.60    4.80
   1   2   8   17.90    3.50
   1   2   8   19.30    4.00
   1   2   8   27.60    4.80
  -2  -2  -8   23.70    5.50
  -2  -2  -8   35.30    5.50
  -2  -2  -8   31.10    6.10
  -2  -2  -8   39.10    6.60
   2   2   8   37.90    4.70
   2   2   8   34.90    4.30
  -3  -2  -8   78.49    9.30
  -3  -2  -8   87.69    9.00
   3   2   8   71.79   11.00
  -4  -2  -8   39.10    6.20
  -4  -2  -8   52.29    8.40
  -4  -2  -8   61.39    7.60
   4   2   8   53.29    9.80
  -5  -2  -8   24.60   10.30
   5   2   8   14.80    8.00
   5  -3  -8   -3.60    5.80
   5  -3  -8    0.50    4.10
  -5   3   8   -2.10    4.40
  -5   3   8    3.60    6.20
   4  -3  -8    4.70    2.40
   4  -3  -8   11.90    3.80
   4  -3  -8   -0.30    6.60
  -4   3   8    6.80    5.90
  -4   3   8    4.10    4.90
   3  -3  -8    7.70    5.00
   3  -3  -8   19.40    6.20
   3  -3  -8    9.70    4.60
   3  -3  -8   16.90    3.60
  -3   3   8   20.30    7.20
  -3   3   8    9.70    5.40
  -3   3   8   10.20    5.80
   2  -3  -8   69.59    8.80
   2  -3  -8   69.09    9.70
   2  -3  -8   61.59    8.20
   2  -3  -8   63.89    7.20
  -2   3   8   81.59   11.00
  -2   3   8   70.59    8.50
  -2   3   8   70.29    8.90
  -2   3   8   66.19    9.80
   1  -3  -8   42.70    6.80
   1  -3  -8   43.20    6.30
   1  -3  -8   57.29    5.90
   1  -3  -8   48.10    7.20
  -1   3   8   50.59   10.00
  -1   3   8   65.49    8.50
  -1   3   8   51.89    7.20
  -1   3   8   61.59    7.20
   0  -3  -8   76.79    8.80
   0  -3  -8   78.59    8.60
   0  -3  -8   67.59    8.90
   0  -3  -8   72.59    8.10
   0   3   8   77.79    8.50
   0   3   8   72.49    7.40
   0   3   8   71.29    8.60
  -1  -3  -8    1.40    4.20
  -1  -3  -8    4.60    2.90
  -1  -3  -8    2.90    4.60
  -1  -3  -8    4.00    4.60
   1   3   8    3.70    3.00
   1   3   8    5.40    3.70
   1   3   8    4.70    3.20
  -2  -3  -8   48.30    7.20
  -2  -3  -8   40.60    7.30
  -2  -3  -8   34.20    6.10
  -2  -3  -8   34.90    6.00
   2   3   8   35.20    4.40
   2   3   8   49.60    5.60
  -3  -3  -8   41.70    6.70
  -3  -3  -8   39.40    6.20
   3   3   8   65.09   10.30
  -4  -3  -8   74.29    9.40
  -4  -3  -8   65.79    9.60
   4   3   8   87.29   12.70
  -5  -3  -8   -1.30    4.30
   5   3   8   12.50    8.20
   5  -4  -8   11.60    7.80
  -5   4   8   29.10    8.20
  -5   4   8   33.20    6.70
   4  -4  -8    5.10    6.80
   4  -4  -8    6.90    3.10
   4  -4  -8    5.80    4.00
  -4   4   8    7.40   10.20
  -4   4   8    5.70    6.30
   3  -4  -8   21.60    6.00
   3  -4  -8   10.20    6.10
   3  -4  -8   20.90    6.70
   3  -4  -8   11.70    4.90
  -3   4   8   22.10    6.90
  -3   4   8   15.10    6.10
  -3   4   8   22.90    6.30
   2  -4  -8  454.45   32.50
   2  -4  -8  504.35   35.90
   2  -4  -8  490.45   34.50
   2  -4  -8  423.26   34.00
   2  -4  -8  499.15   34.30
  -2   4   8  489.35   34.70
  -2   4   8  457.15   34.00
  -2   4   8  460.45   35.20
   1  -4  -8   10.20    4.00
   1  -4  -8    2.20    4.40
   1  -4  -8    8.70    4.50
  -1   4   8    3.60    5.00
  -1   4   8   10.60    4.40
  -1   4   8   14.60    5.00
  -1   4   8    4.90    4.30
   0  -4  -8   26.90    5.60
   0  -4  -8   21.60    6.10
   0  -4  -8   26.50    6.10
   0   4   8   27.10    5.20
   0   4   8   25.60    5.00
   0   4   8   25.40    5.40
  -1  -4  -8   17.20    4.60
  -1  -4  -8   17.30    4.40
  -1  -4  -8   23.00    4.90
  -1  -4  -8   24.10    5.90
   1   4   8   16.20    4.50
   1   4   8   22.50    4.50
   1   4   8   21.00    4.80
  -2  -4  -8   40.80    8.20
  -2  -4  -8   32.10    4.90
  -2  -4  -8   38.30    6.10
  -2  -4  -8   41.10    6.70
   2   4   8   53.89    5.70
   2   4   8   35.90    4.30
  -3  -4  -8   31.60    6.60
   3   4   8   25.00    9.60
  -4  -4  -8  146.39   13.20
   4   4   8  131.49   17.50
  -5  -4  -8   -8.40    4.30
   5   4   8    0.90    7.40
   5  -5  -8    7.90    6.10
   5  -5  -8   -1.90    4.40
  -5   5   8    5.50    5.20
  -5   5   8   -4.60    6.50
   4  -5  -8   24.70    6.80
   4  -5  -8   16.10    4.00
   4  -5  -8   29.40    7.40
  -4   5   8   33.50    6.80
  -4   5   8   25.00    7.90
   3  -5  -8    8.60    4.60
   3  -5  -8   24.80    8.60
   3  -5  -8    8.30    3.30
  -3   5   8   21.60    5.40
  -3   5   8    7.90    5.50
   2  -5  -8  112.39   11.60
   2  -5  -8   99.19   11.40
   2  -5  -8   90.39    8.80
  -2   5   8  117.59   12.30
  -2   5   8  103.09    9.90
  -2   5   8  111.59   11.60
   1  -5  -8   29.30    6.70
   1  -5  -8   21.40    5.70
   1  -5  -8   34.30    6.70
   1  -5  -8   26.20    4.50
  -1   5   8   23.50    5.70
  -1   5   8   23.70    5.90
   0  -5  -8   68.79    8.60
   0  -5  -8   58.29    8.50
   0  -5  -8   56.89    8.30
   0   5   8   59.19    7.70
   0   5   8   72.19    8.70
   0   5   8   62.79    8.60
  -1  -5  -8   97.49   10.70
  -1  -5  -8   85.79    9.30
  -1  -5  -8   80.09   10.50
   1   5   8   78.19    8.30
   1   5   8  106.39    9.70
   1   5   8   99.39    9.70
  -2  -5  -8   25.60    4.00
  -2  -5  -8   26.50    6.20
   2   5   8   26.80    4.70
  -3  -5  -8   36.70    6.90
   3   5   8   46.60   10.90
  -4  -5  -8    7.50    4.40
   4   5   8   25.00    8.80
   4  -6  -8   -5.10    5.90
   4  -6  -8   -0.20    5.50
  -4   6   8    1.40    6.60
  -4   6   8    6.80    5.60
   3  -6  -8   28.80    6.70
   3  -6  -8   28.10    4.00
   3  -6  -8   26.50    6.10
  -3   6   8   22.80    8.50
  -3   6   8   31.00    6.40
  -3   6   8   20.40    6.80
   2  -6  -8   53.69    7.70
   2  -6  -8   43.90    7.70
  -2   6   8   37.70    8.10
  -2   6   8   53.29    9.40
  -2   6   8   56.39    7.90
   1  -6  -8   30.70    6.40
   1  -6  -8   24.00    6.20
   1  -6  -8   23.20    6.40
   1  -6  -8   20.80    4.50
  -1   6   8   28.60    6.30
  -1   6   8   25.90    6.40
   0  -6  -8   82.29    9.70
   0  -6  -8   64.39    9.00
   0  -6  -8   93.19   10.60
   0   6   8   78.79   10.30
   0   6   8   96.99   10.50
  -1  -6  -8   -1.40    3.70
  -1  -6  -8   12.50    5.10
  -1  -6  -8    6.10    6.30
   1   6   8    8.80    4.60
   1   6   8    1.60    3.90
   1   6   8    2.70    3.40
  -2  -6  -8   29.90    4.80
  -2  -6  -8   39.80    7.20
   2   6   8   47.30    5.40
   2   6   8   39.70    4.80
  -3  -6  -8   -1.60    4.10
   3   6   8   -3.80    8.30
  -4  -6  -8   29.70    9.80
   4   6   8   27.00    9.80
   4  -7  -8   18.10    6.20
   4  -7  -8    6.40    4.70
   4  -7  -8   20.20    6.00
  -4   7   8    8.20    5.90
  -4   7   8    1.40    6.60
   3  -7  -8   11.70    5.40
   3  -7  -8   14.80    6.00
   3  -7  -8   17.30    4.10
  -3   7   8   16.40    6.10
  -3   7   8    3.30    5.90
   2  -7  -8   12.80    5.90
   2  -7  -8    9.80    5.50
  -2   7   8   15.80    5.40
  -2   7   8   13.30    6.60
  -2   7   8   12.50    7.30
   1  -7  -8   28.90    6.30
   1  -7  -8   22.30    6.50
   1  -7  -8   17.10    5.30
  -1   7   8   24.70    7.80
  -1   7   8   15.10    6.10
   0  -7  -8    3.30    4.60
   0   7   8   -1.20    4.70
   0   7   8    3.30    5.10
  -1  -7  -8   -1.10    3.90
  -1  -7  -8   20.40    9.30
   1   7   8    6.50    5.10
   1   7   8    4.60    3.70
   1   7   8    5.30    4.70
  -2  -7  -8    1.90    3.70
  -2  -7  -8    2.50    6.30
   2   7   8    5.80    3.10
  -3  -7  -8   21.30    5.80
  -3  -7  -8   10.30    4.30
   3   7   8   25.00    9.20
   3  -8  -8  105.79   11.70
   3  -8  -8  110.79   12.00
  -3   8   8   83.69   12.80
  -3   8   8  101.59   12.40
   2  -8  -8    4.90    5.80
   2  -8  -8   11.70    5.40
  -2   8   8    4.10    5.40
  -2   8   8   -0.20    5.90
  -2   8   8   11.70    5.60
   1  -8  -8   47.90    8.70
   1  -8  -8   41.90    7.60
   1  -8  -8   59.09    7.80
  -1   8   8   72.29    9.60
  -1   8   8   51.89    9.00
   0  -8  -8   45.30    8.50
   0  -8  -8   50.29    7.30
   0   8   8   46.30    8.10
   0   8   8   45.10    7.80
  -1  -8  -8    0.80    5.10
  -1  -8  -8    5.60    4.70
   1   8   8   11.90    5.70
   1   8   8   11.80    5.40
  -2  -8  -8   14.80    5.90
  -2  -8  -8   -3.20    4.70
   2   8   8   15.20    3.70
   2   8   8   -1.90    3.90
  -3  -8  -8   34.40    7.30
   3   8   8   25.40   10.20
   2  -9  -8   -4.80    5.00
   2  -9  -8   15.50    5.10
  -2   9   8    8.40    5.90
  -2   9   8    0.80    6.40
   1  -9  -8   17.70    6.70
   1  -9  -8   29.90    6.00
  -1   9   8   32.10    7.80
  -1   9   8   34.90    7.20
   0  -9  -8   60.29    9.50
   0  -9  -8   60.59    7.60
   0   9   8   49.70    9.50
   0   9   8   55.99    8.80
  -1  -9  -8   17.00    5.50
  -1  -9  -8   28.00    6.60
   1   9   8   31.20    6.60
   1   9   8   24.00    6.60
  -2  -9  -8   20.30    6.80
   2   9   8   28.20    4.70
   2   9   8   37.20   10.80
   1 -10  -8   34.70    7.70
   1 -10  -8   42.80    6.40
  -1  10   8   48.80    8.90
  -1  10   8   37.40    8.80
   0 -10  -8   44.30    6.50
   0 -10  -8   33.80    8.10
   0  10   8   41.00    7.30
  -1 -10  -8   11.90    5.90
  -1 -10  -8   15.20    5.10
   1  10   8    3.40    5.10
  -2 -14   9   -2.50    4.90
   1  14  -9    0.90   12.90
   1  14  -9    6.10    6.30
  -1 -14   9   -5.80    5.70
  -1 -14   9    7.40    4.40
   0  14  -9   21.10    7.60
   0 -14   9   11.00    5.30
   0 -14   9   11.40    5.00
  -1  14  -9    6.50    6.60
   1 -14   9    9.40    4.90
   1 -14   9   10.50    5.50
  -2  14  -9    2.10    6.60
   2 -14   9    3.20    5.40
   2 -14   9    0.50    8.10
   2 -14   9    9.20    5.70
   2  13  -9   10.70    5.50
   2  13  -9   23.70   12.90
  -2 -13   9   -5.60    4.70
  -2 -13   9   13.80    5.00
   1  13  -9   -2.20    5.60
  -1 -13   9    0.70    4.90
  -1 -13   9    3.00    4.30
   0  13  -9   15.60    7.10
   0 -13   9   10.10    5.30
   0 -13   9    3.70    4.40
  -1  13  -9    0.30    3.20
  -1  13  -9   -2.10    5.80
   1 -13   9   -0.40    4.80
   1 -13   9    6.70    4.80
  -2  13  -9  -18.10    6.90
  -2  13  -9   14.00    7.30
   2 -13   9   -3.90    7.10
   2 -13   9   15.20    6.40
   2 -13   9   17.70    5.30
  -3  13  -9   28.50    7.90
   3 -13   9   52.09    9.70
   3 -13   9   42.50    8.20
   3 -13   9   39.00    6.90
   3  12  -9   22.00   12.50
   3  12  -9   13.20    4.20
  -3 -12   9    9.30    4.60
   2  12  -9   13.60   13.30
   2  12  -9   -3.20    4.00
   2  12  -9   12.80    5.70
  -2 -12   9    1.90    4.60
  -2 -12   9    4.80    4.30
   1  12  -9   15.60    5.70
  -1 -12   9   10.50    4.90
  -1 -12   9   10.30    4.70
   0  12  -9  258.37   20.60
   0 -12   9  209.98   19.00
   0 -12   9  232.38   18.80
  -1  12  -9   -1.60    3.10
  -1  12  -9   -9.80    5.60
   1 -12   9    3.40    4.30
   1 -12   9    5.20    5.20
  -2  12  -9   13.20    6.30
  -2  12  -9   -3.10    4.30
   2 -12   9    3.20    5.50
   2 -12   9   15.40    5.10
   2 -12   9   11.60    8.00
  -3  12  -9   31.00    7.60
   3 -12   9   31.80    6.30
   3 -12   9   38.30    7.50
   3 -12   9   38.90    9.40
   4  11  -9    8.90   11.30
  -4 -11   9   14.40    4.80
   3  11  -9   19.70    4.50
   3  11  -9   38.10   13.10
   3  11  -9   -5.30    6.00
  -3 -11   9   18.70    5.00
   2  11  -9   15.80   12.60
   2  11  -9   16.60    5.60
  -2 -11   9    9.20    4.10
  -2 -11   9    9.40    5.10
   1  11  -9    6.10    5.50
  -1 -11   9    9.80    4.40
  -1 -11   9    9.70    7.40
   0  11  -9  129.69   13.70
   0  11  -9  111.49   11.40
   0 -11   9  143.99   12.60
   0 -11   9  138.49   13.40
  -1  11  -9   37.00    9.90
  -1  11  -9   22.30    4.80
   1 -11   9   33.40    6.70
   1 -11   9   33.60    7.00
  -2  11  -9    2.20    4.80
  -2  11  -9    6.00    6.50
   2 -11   9   17.00    8.30
   2 -11   9   19.40    6.70
   2 -11   9   21.20    7.10
  -3  11  -9    8.80    6.30
   3 -11   9   11.90    5.60
   3 -11   9    5.70    6.10
   3 -11   9   14.40    7.30
  -4  11  -9   11.30    5.70
   4 -11   9    7.40    3.20
   4 -11   9    8.20    6.10
   4 -11   9   11.10    7.70
   4  10  -9   16.40   12.50
  -4 -10   9   15.80    4.70
   3  10  -9    7.30    5.20
   3  10  -9    9.10   11.20
   3  10  -9   -2.30    2.90
  -3 -10   9    2.70    3.40
  -3 -10   9    5.10    4.30
   2  10  -9    1.30    4.80
   2  10  -9    9.60   16.70
   2  10  -9   -9.60    3.20
  -2 -10   9    8.50    4.30
  -2 -10   9   -0.30    3.60
   1  10  -9   20.80    5.10
   1  10  -9   24.40    5.90
  -1 -10   9   21.70    5.00
  -1 -10   9   33.90    6.10
   0  10  -9   33.20    7.10
   0  10  -9   34.50    4.60
   0 -10   9   35.70    6.50
   0 -10   9   27.40    5.90
  -1  10  -9   34.50    7.60
  -1  10  -9   41.50    5.40
   1 -10   9   34.50    6.40
   1 -10   9   40.20    6.70
  -2  10  -9    8.70    6.10
  -2  10  -9   -5.10    4.30
   2 -10   9   20.70    8.20
   2 -10   9   11.70    5.80
   2 -10   9    6.90    4.80
  -3  10  -9   15.20    6.50
   3 -10   9    6.30    7.40
   3 -10   9   10.10    3.80
   3 -10   9   14.00    4.80
   3 -10   9    9.40    6.00
  -4  10  -9   -2.60    5.00
   4 -10   9   -4.40    4.10
   4 -10   9    5.10    3.10
   4 -10   9    7.90    6.80
   4 -10   9   13.70    7.40
   4   9  -9   78.69    7.90
   3   9  -9   25.90    3.70
   3   9  -9   23.90    3.40
   3   9  -9   27.90   12.20
   3   9  -9   26.70    3.80
  -3  -9   9   25.50    5.60
   2   9  -9    3.00    2.90
   2   9  -9   11.00   12.10
   2   9  -9   13.40    5.00
   2   9  -9    6.80    2.80
  -2  -9   9   11.00    3.40
  -2  -9   9   10.80    4.30
  -2  -9   9    4.60    4.40
   1   9  -9   13.20    5.50
  -1  -9   9   12.30    4.10
  -1  -9   9    8.60    4.40
   0   9  -9   14.30    3.80
   0   9  -9    8.60    5.60
   0  -9   9    6.50    4.20
   0  -9   9   10.60    4.30
   0  -9   9    9.20    4.50
  -1   9  -9   68.39    8.70
  -1   9  -9   53.29    6.70
   1  -9   9   34.80    6.90
   1  -9   9   57.99    7.70
   1  -9   9   62.19    7.60
   1  -9   9   60.69    7.80
  -2   9  -9   43.30    6.70
  -2   9  -9   34.30    6.90
   2  -9   9   27.30    6.00
   2  -9   9   36.70    6.60
   2  -9   9   44.80    8.70
   2  -9   9   35.20    6.10
   2  -9   9   35.60    5.60
  -3   9  -9   19.70    6.30
   3  -9   9   10.60    4.90
   3  -9   9    9.30    9.90
   3  -9   9   10.80    4.60
   3  -9   9   23.40    6.70
   3  -9   9   20.20    7.50
  -4   9  -9   60.39    8.80
   4  -9   9   57.39   10.10
   4  -9   9   62.99    5.90
   4  -9   9   51.89    9.00
   5   8  -9    3.80    5.20
   5   8  -9   29.10   12.60
  -5  -8   9   19.80    4.50
   4   8  -9   68.69    7.90
   4   8  -9   93.69   16.20
  -4  -8   9   65.69    8.00
  -4  -8   9   50.69    8.10
   3   8  -9    7.40   11.10
   3   8  -9    4.40    2.60
   3   8  -9   -0.70    2.10
  -3  -8   9    3.00    5.00
  -3  -8   9    7.40    4.10
   2   8  -9    3.00   11.50
   2   8  -9    5.80    3.30
   2   8  -9    2.50    2.70
   2   8  -9    3.50    4.60
  -2  -8   9    6.80    4.20
  -2  -8   9    4.50    2.90
  -2  -8   9    4.50    3.90
   1   8  -9  112.79   10.20
   1   8  -9   61.29    7.20
  -1  -8   9   67.09    8.30
  -1  -8   9   83.29    7.50
  -1  -8   9   80.79    9.10
  -1  -8   9   63.99    9.50
  -1  -8   9   83.39    8.00
   0   8  -9    2.70    4.60
   0   8  -9    1.80    3.30
   0  -8   9    5.00    3.90
   0  -8   9    6.00    3.10
   0  -8   9    1.30    6.50
   0  -8   9    3.10    2.90
  -1   8  -9   10.70    5.50
   1  -8   9    7.80    3.70
   1  -8   9   10.00    6.30
   1  -8   9    6.10    4.10
   1  -8   9    6.30    4.60
   1  -8   9    5.50    3.10
  -2   8  -9   32.30    5.90
  -2   8  -9   20.50    6.10
   2  -8   9   25.80    6.00
   2  -8   9   23.30    7.30
   2  -8   9   19.60    4.90
   2  -8   9   14.50    5.20
  -3   8  -9    0.60    5.30
   3  -8   9    1.70    6.70
   3  -8   9   -3.90    3.10
   3  -8   9    2.00    5.60
   3  -8   9    5.00    3.50
   3  -8   9    4.70    2.80
  -4   8  -9   -1.20    4.60
   4  -8   9    1.30    6.90
   4  -8   9   -4.00    2.00
   4  -8   9    6.80    5.50
   4  -8   9    0.60    1.90
   4  -8   9   -9.00    5.50
  -5   8  -9   21.50    6.40
   5  -8   9   16.60    9.00
   5  -8   9   18.80    7.10
   5   7  -9   14.60    5.70
   5   7  -9   20.90   12.60
  -5  -7   9   -3.50    5.40
  -5  -7   9    9.20    4.00
   4   7  -9   91.39    9.00
   4   7  -9  107.99   17.10
  -4  -7   9   62.19    8.50
  -4  -7   9   71.99    8.90
   3   7  -9   50.19   12.40
   3   7  -9   29.90    4.40
   3   7  -9   47.00    4.80
   3   7  -9   40.20    6.40
  -3  -7   9   41.30    8.00
  -3  -7   9   32.70    7.00
  -3  -7   9   43.10    6.40
   2   7  -9   27.60    4.10
   2   7  -9   32.10    5.60
   2   7  -9   29.70   11.40
   2   7  -9   28.10    5.80
  -2  -7   9   37.10    6.40
  -2  -7   9   21.30    4.70
  -2  -7   9   28.50    5.40
   1   7  -9   67.59    7.00
   1   7  -9   68.59    8.80
  -1  -7   9   69.49    8.00
  -1  -7   9   61.49    7.80
  -1  -7   9   66.79    6.80
  -1  -7   9   64.59    6.60
   0   7  -9    3.00    4.50
   0   7  -9    4.40    2.60
   0  -7   9    2.70    3.30
   0  -7   9    4.00    3.50
   0  -7   9    1.90    4.90
   0  -7   9    7.60    3.60
  -1   7  -9    2.00    3.00
  -1   7  -9    3.40    4.70
   1  -7   9    2.40    3.80
   1  -7   9    0.70    3.60
   1  -7   9   -2.70    4.90
   1  -7   9    0.80    2.20
   1  -7   9    0.00    3.70
  -2   7  -9   70.29    8.70
  -2   7  -9   65.29    8.10
  -2   7  -9   47.30    6.70
   2  -7   9   47.40    6.20
   2  -7   9   62.09    7.90
   2  -7   9   49.50    7.30
   2  -7   9   58.39    7.20
   2  -7   9   64.79    9.00
  -3   7  -9   10.60    4.90
   3  -7   9   17.70    5.70
   3  -7   9   11.80    3.80
   3  -7   9   15.40    7.10
   3  -7   9    4.70    3.40
   3  -7   9   15.40    3.10
  -4   7  -9   34.60    6.30
   4  -7   9   28.80    7.40
   4  -7   9   19.70    4.40
   4  -7   9   36.60    8.60
  -5   7  -9    1.50    5.20
   5  -7   9    6.50    7.70
   5  -7   9    8.80    6.50
   5   6  -9    9.20    7.00
   5   6  -9    6.60   10.30
  -5  -6   9    6.90    4.10
  -5  -6   9    2.90    6.60
  -5  -6   9   10.60    3.80
   4   6  -9   65.69   13.50
   4   6  -9   65.99    8.60
  -4  -6   9   58.09    7.30
  -4  -6   9   46.70    6.40
   3   6  -9   20.90    6.00
   3   6  -9   19.00    2.90
   3   6  -9   14.30    2.80
   3   6  -9   11.70   10.40
  -3  -6   9   25.00    4.50
  -3  -6   9   29.20    5.10
  -3  -6   9   19.30    6.30
   2   6  -9  245.58   17.00
   2   6  -9  192.98   16.30
   2   6  -9  211.18   17.30
   2   6  -9  231.28   21.80
  -2  -6   9  209.48   16.80
  -2  -6   9  209.28   17.60
  -2  -6   9  196.58   17.00
   1   6  -9   19.50    3.90
   1   6  -9   29.10    5.30
   1   6  -9   31.60    9.70
  -1  -6   9   21.80    3.40
  -1  -6   9   23.80    4.90
  -1  -6   9   28.90    4.80
  -1  -6   9   30.70    5.30
   0   6  -9    4.60    2.00
   0   6  -9    6.40    4.40
   0  -6   9    7.10    2.50
   0  -6   9    7.30    3.90
   0  -6   9    5.20    3.30
   0  -6   9    6.90    4.90
   0  -6   9    3.80    3.50
  -1   6  -9   19.60    5.50
  -1   6  -9   22.70    4.30
   1  -6   9   28.60    4.10
   1  -6   9   25.80    5.00
   1  -6   9   18.00    4.40
   1  -6   9   28.90    4.50
   1  -6   9   29.80    5.90
  -2   6  -9   16.00    4.20
  -2   6  -9   18.30    4.70
  -2   6  -9   14.10    5.10
   2  -6   9   13.20    3.80
   2  -6   9   20.00    5.20
   2  -6   9   18.30    4.40
   2  -6   9   20.90    6.30
   2  -6   9   17.10    4.20
  -3   6  -9    7.70    4.20
  -3   6  -9    4.70    4.30
   3  -6   9    0.40    5.10
   3  -6   9    0.80    6.00
   3  -6   9    7.10    2.40
   3  -6   9    8.50    3.50
   3  -6   9   -0.50    2.20
  -4   6  -9   68.29    8.70
   4  -6   9   77.39    9.90
   4  -6   9   84.69   11.60
   4  -6   9   59.89    6.80
  -5   6  -9    3.80    4.30
   5  -6   9   11.50    6.90
   5  -6   9    6.00    7.80
   5   5  -9   29.80   10.80
   5   5  -9   20.30    9.90
  -5  -5   9   27.50    5.40
  -5  -5   9    9.70    6.80
  -5  -5   9   26.70    4.40
   4   5  -9   44.50    8.00
   4   5  -9   44.00   14.30
  -4  -5   9   39.60    6.20
  -4  -5   9   43.30    8.70
   3   5  -9   66.49   12.50
   3   5  -9   69.59    6.00
   3   5  -9   61.49    8.20
  -3  -5   9   59.69    6.80
  -3  -5   9   49.90    7.10
  -3  -5   9   61.29    9.30
  -3  -5   9   59.79    7.50
   2   5  -9  201.18   14.80
   2   5  -9  166.48   14.20
   2   5  -9  183.38   19.30
  -2  -5   9  180.88   14.70
  -2  -5   9  194.48   15.80
  -2  -5   9  177.98   14.80
   1   5  -9   31.60    4.70
   1   5  -9   50.49   10.70
   1   5  -9   33.90    5.80
  -1  -5   9   38.00    5.50
  -1  -5   9   46.30    7.50
  -1  -5   9   27.90    5.00
   0   5  -9   38.10    6.00
   0   5  -9   31.90    4.50
   0  -5   9   40.40    5.50
   0  -5   9   41.70    5.00
   0  -5   9   37.70    5.10
   0  -5   9   39.70    5.30
  -1   5  -9   24.00    5.30
  -1   5  -9   22.50    4.70
  -1   5  -9   28.20    4.70
   1  -5   9   28.90    4.10
   1  -5   9   20.80    4.10
   1  -5   9   30.30    5.90
   1  -5   9   27.80    5.50
   1  -5   9   25.50    4.70
  -2   5  -9   28.00    5.40
  -2   5  -9   16.40    4.10
  -2   5  -9   18.10    5.20
   2  -5   9   15.10    3.40
   2  -5   9   28.30    5.60
   2  -5   9   22.90    6.10
   2  -5   9   22.20    4.20
   2  -5   9   21.00    4.10
  -3   5  -9  248.58   19.00
  -3   5  -9  249.48   19.40
   3  -5   9  247.28   18.30
   3  -5   9  249.68   17.70
   3  -5   9  248.08   20.50
   3  -5   9  238.58   19.90
   3  -5   9  227.18   17.50
  -4   5  -9   49.99    7.30
   4  -5   9   48.60    9.60
   4  -5   9   51.09    8.90
  -5   5  -9    2.10    4.40
   5  -5   9    3.50    6.10
   5  -5   9    9.90    7.40
   5   4  -9   77.69   11.20
   5   4  -9   77.39   14.50
  -5  -4   9   67.69    8.00
  -5  -4   9   60.09   10.30
   4   4  -9   10.80    6.70
   4   4  -9   14.70   15.30
  -4  -4   9    6.20    4.40
  -4  -4   9   13.10    4.00
  -4  -4   9   33.60    9.80
  -4  -4   9   13.10    3.10
   3   4  -9   89.39    7.50
   3   4  -9   64.89    6.50
   3   4  -9   98.29   14.40
   3   4  -9   83.19   10.50
  -3  -4   9   78.79    7.00
  -3  -4   9   67.09    9.60
  -3  -4   9   78.29    8.20
  -3  -4   9   80.09    8.90
   2   4  -9  105.69   13.60
   2   4  -9  118.39    9.60
   2   4  -9   82.59    8.40
  -2  -4   9   88.79    8.90
  -2  -4   9   89.89    9.20
  -2  -4   9   89.39   10.10
   1   4  -9   13.50    3.70
   1   4  -9   10.80    4.70
   1   4  -9   16.50    8.60
  -1  -4   9   15.60    4.20
  -1  -4   9    9.00    3.30
  -1  -4   9   13.00    3.50
   0   4  -9   94.09    9.50
   0   4  -9   90.09    8.10
   0   4  -9   82.69    8.20
   0  -4   9   84.39    8.10
   0  -4   9   96.29    8.60
   0  -4   9   97.69    8.40
   0  -4   9   93.29    8.80
  -1   4  -9    1.70    4.00
  -1   4  -9    5.10    3.80
  -1   4  -9    2.70    3.30
   1  -4   9    4.50    3.10
   1  -4   9    5.00    3.20
   1  -4   9   -0.90    4.10
   1  -4   9    1.50    3.60
   1  -4   9    1.60    2.80
  -2   4  -9   49.00    6.80
  -2   4  -9   55.39    6.80
   2  -4   9   50.29    6.70
   2  -4   9   33.00    4.90
   2  -4   9   49.80    5.90
   2  -4   9   45.80    6.10
   2  -4   9   52.79    7.60
   2  -4   9   59.49    8.20
  -3   4  -9   30.90    5.50
  -3   4  -9   25.80    5.90
   3  -4   9   28.00    7.70
   3  -4   9   35.50    5.10
   3  -4   9   29.30    3.70
   3  -4   9   25.40    3.30
   3  -4   9   25.20    6.60
  -4   4  -9   85.79    9.80
  -4   4  -9   88.89    9.70
   4  -4   9   99.69    9.50
  -5   4  -9    3.80    4.30
   5  -4   9    9.90    7.20
   5  -4   9   10.20    6.90
   5   3  -9    4.00    7.30
   5   3  -9    8.20   10.70
  -5  -3   9    4.70    5.40
  -5  -3   9    7.50    4.00
   4   3  -9    5.20    6.50
   4   3  -9    4.30   10.10
  -4  -3   9    4.80    3.20
  -4  -3   9    3.20    4.10
  -4  -3   9    7.90    6.40
   3   3  -9   19.50    9.90
   3   3  -9   24.00    4.00
   3   3  -9   15.30    6.20
   3   3  -9   13.80    2.60
  -3  -3   9   15.20    4.50
  -3  -3   9   27.90    6.50
  -3  -3   9    2.40    5.80
  -3  -3   9   16.30    4.90
   2   3  -9  162.38   12.20
   2   3  -9  136.89   15.80
   2   3  -9  128.79   11.30
  -2  -3   9  130.99   11.70
  -2  -3   9  136.09   11.90
   1   3  -9    9.30    3.30
   1   3  -9    5.80    7.10
   1   3  -9   11.80    4.40
  -1  -3   9    9.30    3.70
  -1  -3   9   11.70    3.40
  -1  -3   9    9.80    3.10
   0   3  -9  264.07   19.40
   0   3  -9  227.38   18.60
   0   3  -9  245.28   18.20
   0  -3   9  275.57   18.90
   0  -3   9  251.97   18.70
   0  -3   9  244.38   18.80
  -1   3  -9   83.39    8.00
  -1   3  -9   65.69    7.90
  -1   3  -9   74.79    8.30
   1  -3   9   83.29    8.50
   1  -3   9   56.99    7.00
   1  -3   9   62.49    6.90
   1  -3   9   84.49    7.50
  -2   3  -9    9.80    4.90
  -2   3  -9   12.20    4.50
  -2   3  -9   11.20    3.90
  -2   3  -9   11.20    3.40
   2  -3   9   11.40    3.40
   2  -3   9   16.90    5.30
   2  -3   9   10.60    5.50
   2  -3   9   12.90    5.00
   2  -3   9   16.30    4.70
  -3   3  -9    2.80    4.20
  -3   3  -9   -1.00    5.90
  -3   3  -9    4.30    4.40
   3  -3   9   -5.00    9.20
   3  -3   9   -2.90    5.90
   3  -3   9    3.20    1.80
   3  -3   9   -1.10    5.70
   3  -3   9    3.20    1.50
  -4   3  -9   29.00    5.50
  -4   3  -9   10.40    7.80
  -4   3  -9   26.20    4.50
   4  -3   9   26.50   10.10
   4  -3   9   21.80    6.50
  -5   3  -9   14.80    4.70
   5  -3   9   10.80    6.80
   5  -3   9    5.50    6.50
   5   2  -9   13.80   10.70
   5   2  -9   10.70    7.30
  -5  -2   9   27.20    5.40
  -5  -2   9    4.20    6.40
   4   2  -9    1.20    6.50
   4   2  -9   13.00   10.60
  -4  -2   9    7.30    5.80
  -4  -2   9   11.50    4.60
  -4  -2   9   11.20    5.90
   3   2  -9   91.09   15.00
   3   2  -9   86.09    8.60
   3   2  -9   76.89    7.00
   3   2  -9   83.59   11.20
  -3  -2   9   79.49   11.10
  -3  -2   9   92.69    8.90
  -3  -2   9   75.29    9.20
  -3  -2   9   81.29   11.30
   2   2  -9   33.50    4.60
   2   2  -9   40.10    9.50
   2   2  -9   28.90    5.30
  -2  -2   9   36.40    5.90
  -2  -2   9   34.10    6.50
  -2  -2   9   33.60    5.10
   1   2  -9   -1.70    7.10
   1   2  -9    6.60    2.30
   1   2  -9    7.00    4.20
   1   2  -9    6.10    3.20
  -1  -2   9    5.80    2.80
  -1  -2   9    3.10    3.70
  -1  -2   9    8.00    4.20
  -1  -2   9    6.50    2.60
   0   2  -9   93.39    9.00
   0   2  -9  102.99    8.80
   0   2  -9   99.69    9.90
   0   2  -9  103.19   11.50
   0  -2   9   90.79    8.90
   0  -2   9  108.29    9.20
   0  -2   9  104.69    9.40
   0  -2   9   98.69    9.30
  -1   2  -9  131.79   11.60
  -1   2  -9  136.19   11.60
  -1   2  -9  117.99   11.70
  -1   2  -9  135.59   11.70
   1  -2   9  138.19   10.90
   1  -2   9  121.39   10.60
   1  -2   9  130.79   10.20
   1  -2   9  123.99   12.60
  -2   2  -9   62.79    8.10
  -2   2  -9   71.09    8.60
  -2   2  -9   76.19    7.90
  -2   2  -9   63.69    8.60
   2  -2   9   78.39   10.10
   2  -2   9   91.69    9.30
   2  -2   9   79.19    7.60
   2  -2   9   68.39    7.30
  -3   2  -9   76.09    9.10
  -3   2  -9   71.89    8.60
   3  -2   9   82.09   10.20
   3  -2   9   81.89   11.60
  -4   2  -9   13.90    8.20
  -4   2  -9   11.80    4.50
  -4   2  -9   12.50    5.00
   4  -2   9    5.20    6.00
  -5   2  -9   38.20    6.30
   5  -2   9   54.19    9.30
   5  -2   9   36.20    8.00
   5   1  -9   15.70    9.70
   5   1  -9    7.80    7.10
  -5  -1   9   15.00    7.50
  -5  -1   9   20.20    5.20
   4   1  -9   12.00    7.10
   4   1  -9   19.80   10.70
  -4  -1   9   11.40    4.70
  -4  -1   9   14.90    6.30
   3   1  -9   88.69    7.90
   3   1  -9  103.89   15.20
   3   1  -9  106.89   11.90
   3   1  -9   87.09    8.90
  -3  -1   9   98.19   12.30
  -3  -1   9   92.69   10.20
  -3  -1   9   93.69   11.90
   2   1  -9   46.50    6.00
   2   1  -9   54.99    7.30
   2   1  -9   66.49   10.40
  -2  -1   9   52.79    6.90
  -2  -1   9   49.10    7.30
  -2  -1   9   41.50    6.40
   1   1  -9   31.80    7.50
   1   1  -9   21.40    5.10
   1   1  -9   25.30    3.90
   1   1  -9   19.10    4.20
  -1  -1   9   23.90    4.70
  -1  -1   9   27.80    5.00
  -1  -1   9   22.00    3.80
   0   1  -9   -0.10    4.10
   0   1  -9    1.10    2.10
   0   1  -9    4.90    3.80
   0   1  -9    5.20    3.60
   0   1  -9   -3.00    5.70
   0  -1   9    1.90    3.30
   0  -1   9    2.50    3.60
   0  -1   9   -0.60    2.50
   0  -1   9    0.80    2.70
  -1   1  -9  166.48   15.10
  -1   1  -9  187.88   15.50
  -1   1  -9  182.48   15.50
  -1   1  -9  194.88   15.30
   1  -1   9  178.48   16.10
   1  -1   9  183.68   13.80
   1  -1   9  222.68   14.90
   1  -1   9  183.28   14.40
  -2   1  -9  322.97   23.30
  -2   1  -9  312.87   23.50
  -2   1  -9  288.87   23.40
  -2   1  -9  289.47   23.30
   2  -1   9  326.47   24.00
   2  -1   9  343.07   22.50
   2  -1   9  298.97   22.30
  -3   1  -9   72.99    9.70
  -3   1  -9   70.19    8.30
  -3   1  -9   67.89    8.80
   3  -1   9   67.49    9.60
   3  -1   9   77.89   10.00
  -4   1  -9    1.90    4.40
  -4   1  -9    9.10    7.20
  -4   1  -9   10.40    4.60
   4  -1   9    7.00    7.10
   4  -1   9   12.80    8.80
  -5   1  -9    3.10    4.30
   5  -1   9    3.20    8.30
   5  -1   9    3.90    6.80
   5   0  -9    9.00    7.50
   5   0  -9   10.20    8.50
  -5   0   9   -2.00    6.30
  -5   0   9    6.40    4.10
   4   0  -9   67.79   10.10
   4   0  -9   60.39    5.10
   4   0  -9   45.10    4.70
   4   0  -9   64.99   12.90
  -4   0   9   53.59   12.00
  -4   0   9   65.89    8.00
   3   0  -9   13.20    2.40
   3   0  -9   12.60    4.10
   3   0  -9   18.10    9.50
   3   0  -9    4.80    6.10
   3   0  -9   12.60    3.00
  -3   0   9   18.60    7.80
  -3   0   9    8.50    4.30
  -3   0   9    3.90    3.90
  -3   0   9   22.00    6.10
   2   0  -9   15.30    3.90
   2   0  -9   12.80    4.30
   2   0  -9   17.40    7.60
   2   0  -9   11.30    6.10
  -2   0   9   11.50    4.40
  -2   0   9   20.70    5.40
  -2   0   9    1.90    5.60
  -2   0   9   10.00    6.30
   1   0  -9    8.90    6.50
   1   0  -9    7.00    4.50
   1   0  -9    3.40    2.50
  -1   0   9    7.60    3.80
  -1   0   9    5.10    3.80
  -1   0   9    7.80    2.70
   0   0  -9   50.89    7.00
   0   0  -9   49.10    7.30
   0   0  -9   50.09    7.00
   0   0  -9   41.00    5.70
   0   0  -9   49.90    6.80
   0   0   9   47.80    6.20
   0   0   9   50.39    5.60
   0   0   9   48.40    6.40
  -1   0  -9   23.30    4.90
  -1   0  -9   28.00    5.60
  -1   0  -9   31.40    5.70
  -1   0  -9   31.90    5.80
   1   0   9   23.90    4.80
   1   0   9   28.30    4.10
   1   0   9   20.80    4.00
  -2   0  -9  131.69   12.40
  -2   0  -9  135.69   12.30
  -2   0  -9  127.99   12.20
  -2   0  -9  125.49   16.10
   2   0   9  155.68   13.70
   2   0   9  160.48   11.50
   2   0   9  132.59   10.80
  -3   0  -9  124.79   12.10
  -3   0  -9  130.49   12.70
   3   0   9  125.79   13.70
   3   0   9  130.59   14.10
  -4   0  -9   23.70    5.40
  -4   0  -9   26.60    6.90
  -4   0  -9   30.50    5.30
   4   0   9   34.60    8.50
   4   0   9   28.30    7.90
  -5   0  -9   64.29    8.10
   5   0   9   65.59   11.30
   5   0   9   64.99   11.00
   5  -1  -9   18.10    6.70
  -5   1   9   -5.20    5.70
  -5   1   9    1.30    4.60
   4  -1  -9   57.19   11.70
   4  -1  -9   43.00    4.90
   4  -1  -9   58.69    9.00
   4  -1  -9   48.50    5.10
   4  -1  -9   46.70    5.80
  -4   1   9   64.99    9.60
  -4   1   9   52.49    7.90
   3  -1  -9   69.39    7.80
   3  -1  -9   91.89   11.80
   3  -1  -9   88.09    9.00
   3  -1  -9   84.89    7.50
   3  -1  -9   94.69   13.90
  -3   1   9   96.59   12.70
  -3   1   9  110.19   12.50
  -3   1   9   88.49   10.30
   2  -1  -9   36.90    7.20
   2  -1  -9   27.90    5.60
   2  -1  -9   35.60    8.70
   2  -1  -9   32.90    5.10
  -2   1   9   22.90    5.50
  -2   1   9   46.60    8.20
  -2   1   9   22.30    5.30
  -2   1   9   29.00    6.30
   1  -1  -9  305.47   23.20
   1  -1  -9  330.47   23.90
   1  -1  -9  315.87   24.30
   1  -1  -9  281.97   22.00
  -1   1   9  320.87   23.30
  -1   1   9  338.47   23.60
  -1   1   9  328.67   24.00
   0  -1  -9   48.30    6.40
   0  -1  -9   59.59    7.00
   0  -1  -9   48.00    7.50
   0  -1  -9   49.80    7.00
   0   1   9   61.99    6.10
   0   1   9   50.89    6.80
   0   1   9   60.79    6.80
  -1  -1  -9   23.10    5.60
  -1  -1  -9   26.50    5.80
  -1  -1  -9   31.00    5.20
  -1  -1  -9   24.50    5.90
   1   1   9   30.30    5.00
   1   1   9   24.00    3.40
   1   1   9   32.60    4.50
  -2  -1  -9  159.78   14.00
  -2  -1  -9  142.59   16.60
  -2  -1  -9  146.99   13.40
   2   1   9  134.69   11.00
  -3  -1  -9    9.70    5.00
  -3  -1  -9   10.70    4.20
   3   1   9    5.50    6.90
  -4  -1  -9    1.10    4.60
  -4  -1  -9   13.10    5.30
  -4  -1  -9    5.10    4.50
   4   1   9    5.80    6.80
  -5  -1  -9   33.40    7.90
  -5  -1  -9   42.50    5.90
   5   1   9   35.80    9.00
   5  -2  -9   -1.60    3.70
   5  -2  -9   10.40    7.20
  -5   2   9   -1.80    6.60
  -5   2   9    2.60    4.30
   4  -2  -9   12.10    6.90
   4  -2  -9   10.10    2.90
   4  -2  -9    9.70    4.60
   4  -2  -9    7.60    2.50
  -4   2   9    2.80    5.80
  -4   2   9    7.30    5.00
   3  -2  -9  207.18   18.50
   3  -2  -9  214.08   15.80
   3  -2  -9  221.68   17.00
   3  -2  -9  197.18   16.10
  -3   2   9  209.88   19.30
  -3   2   9  212.08   19.20
  -3   2   9  224.58   18.10
   2  -2  -9   13.90    3.30
   2  -2  -9   19.20    4.80
   2  -2  -9   18.50    7.90
   2  -2  -9   16.60    6.80
  -2   2   9   28.60    7.60
  -2   2   9   11.40    5.20
  -2   2   9   19.90    5.10
  -2   2   9   11.50    5.10
   1  -2  -9  792.22   51.39
   1  -2  -9  713.03   50.99
   1  -2  -9  705.73   49.80
   1  -2  -9  623.84   52.89
  -1   2   9  731.03   50.99
  -1   2   9  750.42   51.09
  -1   2   9  755.32   51.29
   0  -2  -9   63.09    9.10
   0  -2  -9   79.69    9.40
   0  -2  -9   69.89    8.80
   0   2   9   88.99    8.20
   0   2   9   75.09    8.80
   0   2   9   75.69    7.60
  -1  -2  -9    6.60    4.30
  -1  -2  -9    8.00    4.90
  -1  -2  -9    8.80    5.40
  -1  -2  -9   10.10    3.80
   1   2   9    4.60    2.40
   1   2   9    6.90    4.10
   1   2   9    5.30    3.30
  -2  -2  -9    7.40    5.40
  -2  -2  -9   12.70    5.10
  -2  -2  -9    6.10    4.30
   2   2   9   10.70    2.30
   2   2   9   11.20    3.70
  -3  -2  -9   23.60    5.60
  -3  -2  -9   21.30    5.00
   3   2   9   23.60    8.40
  -4  -2  -9   15.50    5.20
   4   2   9   19.70    7.90
  -5  -2  -9   51.49    7.40
   5   2   9   54.19   10.30
   5  -3  -9   10.30    6.50
   5  -3  -9   14.20    4.70
  -5   3   9   32.10    7.80
  -5   3   9   16.90    6.20
   4  -3  -9   28.90    4.70
   4  -3  -9   28.10    4.40
   4  -3  -9   32.90    5.10
   4  -3  -9   41.00    8.50
  -4   3   9   21.80    7.70
  -4   3   9   41.70   11.00
   3  -3  -9    2.40    6.00
   3  -3  -9    0.90    4.40
   3  -3  -9    7.00    3.80
   3  -3  -9   -7.60    3.30
  -3   3   9    7.40    5.50
  -3   3   9   -2.00    4.70
  -3   3   9   10.20    6.50
   2  -3  -9   37.60    7.60
   2  -3  -9   30.80    6.10
   2  -3  -9   23.70    5.20
  -2   3   9   29.20    6.70
  -2   3   9   19.00    6.30
  -2   3   9   45.60    7.40
   1  -3  -9   46.20    5.70
   1  -3  -9   33.10    6.60
   1  -3  -9   38.90    6.70
  -1   3   9   62.09    8.30
  -1   3   9   40.20    6.50
  -1   3   9   40.20    6.90
   0  -3  -9   24.10    5.50
   0  -3  -9   21.60    5.80
   0  -3  -9   30.00    5.00
   0   3   9   27.30    5.60
   0   3   9   22.40    4.40
  -1  -3  -9   -2.20    4.50
  -1  -3  -9    3.60    4.60
  -1  -3  -9    1.10    4.80
  -1  -3  -9    7.20    4.40
   1   3   9    1.60    3.80
   1   3   9   -0.30    3.10
   1   3   9    6.30    2.60
  -2  -3  -9   25.80    6.20
  -2  -3  -9   23.10    5.70
  -2  -3  -9   26.60    6.90
   2   3   9   23.50    4.50
   2   3   9   22.30    3.20
  -3  -3  -9   12.50    5.40
   3   3   9   17.60    8.70
  -4  -3  -9  297.27   23.50
   4   3   9  310.67   26.50
   5   3   9   -2.40    8.00
   5  -4  -9    6.30    4.70
   5  -4  -9    0.80    6.20
   4  -4  -9    5.80    3.70
   4  -4  -9   -0.10    3.70
   4  -4  -9    9.80    4.50
   4  -4  -9    7.80    6.70
  -4   4   9    5.50    6.00
  -4   4   9    8.70    6.30
   3  -4  -9   20.20    5.50
   3  -4  -9   14.80    4.00
   3  -4  -9   28.50    6.00
   3  -4  -9   20.60    8.70
  -3   4   9   28.20    6.10
  -3   4   9   25.10    6.40
   2  -4  -9   89.09   12.00
   2  -4  -9   83.29   10.50
  -2   4   9  103.29   11.40
  -2   4   9  101.59   10.10
  -2   4   9   87.99   11.50
   1  -4  -9   34.10    5.10
   1  -4  -9   27.00    6.10
  -1   4   9   28.00    6.30
  -1   4   9   24.60    5.80
   0  -4  -9   20.30    6.10
   0  -4  -9   28.30    5.50
   0  -4  -9   36.70    5.40
   0   4   9   32.50    6.20
   0   4   9   28.90    5.20
   0   4   9   30.80    5.70
  -1  -4  -9  114.09   11.70
  -1  -4  -9  102.99   10.20
   1   4   9  113.29   10.40
   1   4   9   97.79    9.40
   1   4   9  120.89    9.80
  -2  -4  -9    3.60    4.70
   2   4   9   13.60    3.80
   2   4   9    8.40    2.80
  -3  -4  -9    8.70    5.40
   3   4   9   20.20    8.50
  -4  -4  -9   39.90    6.60
   4   4   9   38.20   10.10
   4  -5  -9    5.20    6.30
   4  -5  -9    7.30    5.10
   4  -5  -9    3.00    4.50
  -4   5   9   13.80    5.90
  -4   5   9    3.70    6.60
   3  -5  -9    5.10    5.00
   3  -5  -9    0.00    4.30
  -3   5   9   -5.20    5.10
  -3   5   9    3.90    5.80
  -3   5   9   -1.60    4.80
   2  -5  -9   33.80    5.30
   2  -5  -9   45.00    7.80
   2  -5  -9   46.50    7.30
  -2   5   9   42.70    7.90
  -2   5   9   51.19    7.60
  -2   5   9   52.59    8.20
   1  -5  -9   36.40    5.10
   1  -5  -9   43.60    7.50
   1  -5  -9   42.60    7.40
  -1   5   9   37.30    6.70
  -1   5   9   37.50    6.90
   0  -5  -9   18.10    4.00
   0  -5  -9    6.00    4.60
   0  -5  -9   14.50    5.90
   0   5   9   12.90    5.70
   0   5   9   12.20    4.80
  -1  -5  -9   11.00    5.40
  -1  -5  -9    3.10    4.70
  -1  -5  -9    7.00    3.90
   1   5   9    2.80    4.30
   1   5   9    5.80    3.40
   1   5   9   -0.30    3.90
  -2  -5  -9   19.70    6.20
  -2  -5  -9   17.20    3.40
   2   5   9   24.50    4.70
   2   5   9   18.90    3.40
  -3  -5  -9   16.30    5.50
   3   5   9    2.10    8.30
   4   5   9  101.29   15.70
   4  -6  -9   28.10    7.60
   4  -6  -9   24.90    6.90
  -4   6   9   18.50    7.40
  -4   6   9   33.60    7.30
   3  -6  -9    5.30    4.50
   3  -6  -9    9.70    6.00
  -3   6   9    9.40    5.00
  -3   6   9   15.60    6.90
   2  -6  -9   40.10    7.50
   2  -6  -9   42.00    5.40
   2  -6  -9   55.99   12.40
  -2   6   9   45.80    7.90
  -2   6   9   40.80    8.50
  -2   6   9   44.60    7.20
   1  -6  -9   57.19   11.60
   1  -6  -9   45.20    7.20
   1  -6  -9   68.19    8.50
  -1   6   9   59.19    8.60
  -1   6   9   59.49   13.20
   0  -6  -9    7.80    4.40
   0  -6  -9    7.40    4.80
   0  -6  -9    9.10    7.70
   0   6   9    9.40    5.70
   0   6   9   18.00    5.00
  -1  -6  -9   34.00    8.20
  -1  -6  -9   39.30    6.00
   1   6   9   48.00    7.10
   1   6   9   40.80    5.80
   1   6   9   38.20    5.50
  -2  -6  -9    6.50    3.40
  -2  -6  -9   16.40   10.30
   2   6   9   -1.60    2.60
   2   6   9    8.90    3.20
  -3  -6  -9   22.50    5.90
   3   6   9   28.20    9.70
   3  -7  -9   13.80    5.80
   3  -7  -9    9.50    5.40
  -3   7   9    7.00    5.50
  -3   7   9    3.50    6.10
   2  -7  -9   34.00    6.40
   2  -7  -9   33.20    7.10
  -2   7   9   23.20    7.40
  -2   7   9   16.60    6.10
  -2   7   9   33.40    7.30
   1  -7  -9   44.80    7.40
   1  -7  -9   31.40    7.10
  -1   7   9   46.80    8.10
  -1   7   9   37.70    7.90
   0  -7  -9   11.50    6.10
   0   7   9    9.40    5.80
   0   7   9    6.50    5.30
  -1  -7  -9   -9.00    6.10
  -1  -7  -9    2.30    5.00
   1   7   9    2.90    4.90
   1   7   9    3.00    3.70
  -2  -7  -9    5.80    5.50
  -2  -7  -9   -0.60    3.70
   2   7   9    1.60    3.40
   2   7   9   -3.80    3.60
  -3  -7  -9   40.70    7.60
   3   7   9   44.00   10.60
   3  -8  -9   -1.30    5.40
   3  -8  -9   11.80    6.30
  -3   8   9   13.80    5.90
  -3   8   9   13.90    7.00
   2  -8  -9    8.20    5.00
   2  -8  -9    9.80    5.70
   2  -8  -9  -16.60    9.40
  -2   8   9   21.20    6.50
  -2   8   9    8.60    5.70
  -2   8   9    2.70    6.00
   1  -8  -9    9.10    5.60
   1  -8  -9    7.30    6.80
  -1   8   9    1.00    5.80
  -1   8   9   11.10    5.60
   0  -8  -9   36.50    7.80
   0  -8  -9   50.19    7.70
   0   8   9   49.99    8.40
   0   8   9   58.79    8.60
  -1  -8  -9   21.60    6.20
   1   8   9   29.30    6.20
   1   8   9   19.70    5.20
  -2  -8  -9   12.20    6.10
  -2  -8  -9   16.40    6.70
   2  -9  -9   -7.00    4.30
   2  -9  -9    4.20    5.60
  -2   9   9   -0.30    5.90
  -2   9   9    4.30    5.30
   1  -9  -9   16.70    5.60
   1  -9  -9    9.80    6.00
  -1   9   9   24.90    7.20
  -1   9   9   13.10    6.60
   0  -9  -9   99.99   12.80
   0   9   9  108.59   11.70
   0   9   9   92.69   12.30
  -1  -9  -9   -0.90    4.80
  -1  -9  -9   -9.00    4.70
   1   9   9    9.00    5.10
   1   9   9    8.10    4.60
   1  14 -10   15.00    6.00
   1  14 -10    5.50   13.20
  -1 -14  10   12.90    5.80
  -1 -14  10   15.70    5.10
   0  14 -10   10.60    6.60
   0 -14  10    6.80    5.50
   0 -14  10   12.00    5.20
  -1  14 -10    8.30    6.60
   1 -14  10    3.70    4.80
   1 -14  10   -2.70    5.10
   2  13 -10   18.90   14.40
   2  13 -10   -7.50    8.30
  -2 -13  10    0.60    3.70
  -2 -13  10   -2.30    4.90
   1  13 -10   14.00    6.60
  -1 -13  10   16.10    4.90
  -1 -13  10   13.60    5.20
   0  13 -10   28.60    7.50
   0 -13  10   22.40    6.10
   0 -13  10   27.90    6.10
  -1  13 -10   14.70    6.70
   1 -13  10   18.50    5.70
   1 -13  10   23.40    6.10
  -2  13 -10    3.80    5.90
   2 -13  10    9.30    8.40
   2 -13  10   10.80    5.60
   2 -13  10   14.20    5.10
   3  12 -10   16.30   13.20
  -3 -12  10   24.90    5.30
   2  12 -10   12.30   12.70
   2  12 -10   15.70    5.70
  -2 -12  10   13.40    5.60
   1  12 -10   55.69    8.30
  -1 -12  10   44.00    7.50
  -1 -12  10   56.79    7.90
   0  12 -10   26.70    7.50
   0  12 -10   20.80    3.80
   0 -12  10   30.70    6.50
   0 -12  10   34.40    6.30
  -1  12 -10    9.70    6.40
  -1  12 -10    5.00    4.10
   1 -12  10   13.70    4.90
   1 -12  10   13.80    5.40
  -2  12 -10    5.70    6.10
   2 -12  10    8.90    7.30
   2 -12  10    0.40    5.10
   2 -12  10    5.30    4.60
  -3  12 -10   -2.20    5.40
   3 -12  10   12.80    5.80
   3 -12  10    4.80    7.50
   3 -12  10   14.40    5.30
   3  11 -10   35.80    4.40
   3  11 -10   42.60   13.60
  -3 -11  10   26.40    4.70
  -3 -11  10   34.00    6.40
  -3 -11  10   19.50    4.20
   2  11 -10   10.50   13.20
   2  11 -10    6.90    5.60
  -2 -11  10    4.50    4.20
  -2 -11  10   -0.40    3.50
   1  11 -10   19.20    6.80
  -1 -11  10   27.20    5.80
  -1 -11  10   24.70    5.20
   0  11 -10  236.48   24.00
   0  11 -10  151.58   14.30
   0 -11  10  222.08   15.90
   0 -11  10  196.28   16.70
  -1  11 -10   38.80    8.10
  -1  11 -10   23.80    5.20
   1 -11  10   30.30    6.40
   1 -11  10   35.60    6.30
  -2  11 -10   11.10    6.60
   2 -11  10   -0.80    7.00
   2 -11  10   17.70    4.80
  -3  11 -10   61.49    8.50
   3 -11  10   63.29   10.40
   3 -11  10   53.39    9.30
   3 -11  10   40.10    8.40
   4 -11  10   12.90    6.30
   4  10 -10   28.50   13.10
  -4 -10  10    2.00    4.00
   3  10 -10   68.29    7.00
  -3 -10  10   70.79    8.80
   2  10 -10   -0.40    5.30
   2  10 -10   -1.00   12.90
   2  10 -10    7.70    2.80
   2  10 -10   -2.50    3.30
  -2 -10  10    4.50    4.10
  -2 -10  10    3.40    3.30
   1  10 -10   -3.90    5.50
  -1 -10  10    1.40    3.70
  -1 -10  10   -4.30    3.40
   0  10 -10   14.30    6.30
   0 -10  10   17.00    5.10
   0 -10  10   16.30    5.30
  -1  10 -10    4.70    3.80
  -1  10 -10   12.80    6.20
   1 -10  10    1.70    4.10
   1 -10  10    4.10    4.50
   1 -10  10    1.20    6.40
  -2  10 -10   46.10    7.80
   2 -10  10   56.49    7.70
   2 -10  10   55.19   10.20
   2 -10  10   44.00    8.20
  -3  10 -10   25.40    7.00
   3 -10  10   25.80    8.20
   3 -10  10   26.00    5.50
   3 -10  10   16.60    6.30
  -4  10 -10    5.50    4.90
   4 -10  10    5.10    7.30
   4 -10  10    2.50    3.00
   4 -10  10   11.20    6.60
   4   9 -10   14.70   12.50
   4   9 -10    7.30    3.90
  -4  -9  10   12.60    4.40
   3   9 -10   12.80   11.60
   3   9 -10   14.50    5.40
   3   9 -10   10.60    3.40
  -3  -9  10   15.40    4.60
   2   9 -10   11.50    5.40
   2   9 -10   14.70    3.70
   2   9 -10   11.50    3.70
   2   9 -10   46.10   13.90
  -2  -9  10   19.00    5.10
  -2  -9  10   11.90    4.70
  -2  -9  10   12.70    3.10
   1   9 -10    9.90    5.90
   1   9 -10    6.20    3.50
  -1  -9  10   12.60    4.80
  -1  -9  10   11.10    3.90
   0   9 -10   12.60    5.80
   0  -9  10   14.00    4.70
   0  -9  10    8.30    4.00
   0  -9  10    8.60    4.00
  -1   9 -10   12.70    4.50
  -1   9 -10    3.70    5.60
   1  -9  10    2.00    4.00
   1  -9  10    2.00    4.70
   1  -9  10    6.80    6.10
   1  -9  10    1.00    4.00
  -2   9 -10   19.30    7.60
  -2   9 -10   27.70    6.70
   2  -9  10   19.00    6.10
   2  -9  10   16.00    5.00
   2  -9  10   33.50    8.10
   2  -9  10   23.60    5.40
  -3   9 -10    0.80    4.90
   3  -9  10    6.00    4.00
   3  -9  10    3.40    7.30
   3  -9  10   -1.10    4.20
   3  -9  10    6.70    3.10
   3  -9  10    3.70    5.50
  -4   9 -10   16.90    6.00
   4  -9  10    7.90    2.80
   4  -9  10   15.60    7.80
   4  -9  10    9.50    6.20
   4   8 -10   31.60    5.50
   4   8 -10   36.90   13.30
  -4  -8  10   39.60    5.90
   3   8 -10    8.30    3.70
   3   8 -10    9.60    3.20
   3   8 -10   -0.30    2.20
   3   8 -10  -12.60   11.30
  -3  -8  10    6.80    4.30
  -3  -8  10    3.40    6.90
   2   8 -10  106.09   10.20
   2   8 -10   78.09    9.60
   2   8 -10  110.39   16.70
  -2  -8  10   76.89    8.80
  -2  -8  10   82.19    9.50
   1   8 -10  110.69   16.80
   1   8 -10   77.69    8.80
   1   8 -10  100.49   10.80
  -1  -8  10   99.69    9.80
  -1  -8  10   84.09    8.20
  -1  -8  10   95.59    8.40
   0   8 -10    8.90    5.20
   0   8 -10   12.50    4.00
   0  -8  10   17.50    6.60
   0  -8  10    0.50    3.40
   0  -8  10   10.10    4.40
  -1   8 -10    6.50    5.40
   1  -8  10   12.70    4.80
   1  -8  10    1.50    5.40
   1  -8  10    4.20    3.70
   1  -8  10    6.70    4.50
  -2   8 -10   84.29   10.60
  -2   8 -10   71.99    9.70
   2  -8  10   62.69    8.50
   2  -8  10   83.39    8.50
   2  -8  10   83.09    9.00
   2  -8  10   89.09   10.50
   2  -8  10   91.09   11.90
  -3   8 -10   21.60    6.00
   3  -8  10   22.00    4.50
   3  -8  10   13.50    7.80
   3  -8  10    9.40    5.70
   3  -8  10   13.10    3.50
   3  -8  10    3.80    3.70
  -4   8 -10    6.60    5.50
   4  -8  10   15.60    2.80
   4  -8  10   30.60    8.20
   4  -8  10    4.00    4.50
   4  -8  10   11.60    5.30
   5  -8  10   60.29   10.00
   5   7 -10   10.90    7.20
   5   7 -10   17.30   11.20
  -5  -7  10   14.40    7.30
   4   7 -10   50.59   13.50
   4   7 -10   43.50    7.30
  -4  -7  10   23.20    5.70
  -4  -7  10   41.00    6.00
   3   7 -10    8.10    3.70
   3   7 -10    8.00   10.90
   3   7 -10   -6.80    5.60
   3   7 -10    9.90    3.20
  -3  -7  10    8.10    4.40
  -3  -7  10   -1.40    4.90
   2   7 -10    3.70    4.40
   2   7 -10    2.00    5.30
   2   7 -10    5.40    2.60
   2   7 -10    0.40    9.30
  -2  -7  10    0.90    3.80
  -2  -7  10    2.40    3.80
   1   7 -10  783.92   52.69
   1   7 -10  639.34   49.20
   1   7 -10  766.12   49.99
  -1  -7  10  702.63   49.70
  -1  -7  10  677.03   48.30
  -1  -7  10  768.22   51.19
  -1  -7  10  622.64   49.40
   0   7 -10   16.30    4.10
   0   7 -10   14.00    5.30
   0  -7  10   25.60    5.10
   0  -7  10   21.70    6.00
   0  -7  10   21.20    4.10
   0  -7  10   14.70    4.40
   0  -7  10   11.70    3.60
  -1   7 -10    2.30    4.60
   1  -7  10    5.00    4.20
   1  -7  10    5.60    5.50
   1  -7  10    5.20    4.60
   1  -7  10    8.00    3.50
   1  -7  10    3.20    3.70
  -2   7 -10   29.90    6.20
   2  -7  10   28.00    4.70
   2  -7  10   29.90    6.10
   2  -7  10   31.50    4.10
   2  -7  10   14.30    4.20
   2  -7  10   21.20    6.50
  -3   7 -10    1.80    5.10
   3  -7  10   -3.60    3.10
   3  -7  10    6.20    2.70
   3  -7  10    6.40    6.40
   3  -7  10    5.00    5.30
   3  -7  10    5.00    3.50
  -4   7 -10   80.49    9.50
   4  -7  10   56.69    8.80
   4  -7  10   73.79   11.10
   4  -7  10   41.70    6.20
  -5   7 -10    5.40    5.10
   5  -7  10   20.20    7.20
   5  -7  10   10.00    7.60
   5   6 -10   13.70    9.50
   5   6 -10   26.50   11.90
  -5  -6  10   23.90    7.10
  -5  -6  10   21.40    4.90
   4   6 -10   47.70   13.30
   4   6 -10   39.40    7.60
  -4  -6  10   29.40    5.70
  -4  -6  10   37.80    5.30
   3   6 -10    8.80    5.40
   3   6 -10   14.00   10.00
   3   6 -10    8.90    4.00
  -3  -6  10    4.20    4.10
  -3  -6  10   15.00    5.60
   2   6 -10  109.49   11.00
   2   6 -10  125.49   17.20
   2   6 -10  102.99    9.70
  -2  -6  10  101.19   10.00
  -2  -6  10   99.79   10.70
  -2  -6  10  123.19   11.00
   1   6 -10   91.29   13.50
   1   6 -10   72.79    8.90
   1   6 -10   58.69    6.40
  -1  -6  10   64.69    6.00
  -1  -6  10   67.69    8.00
  -1  -6  10   65.79    7.70
  -1  -6  10   66.19    7.20
   0   6 -10    0.70    4.30
   0   6 -10   -1.60    3.70
   0  -6  10    0.70    4.40
   0  -6  10   -0.70    3.20
   0  -6  10    2.90    3.50
   0  -6  10    1.40    3.20
   0  -6  10    7.90    2.30
  -1   6 -10    8.20    4.90
  -1   6 -10    4.80    3.50
  -1   6 -10    6.10    4.80
   1  -6  10   -0.10    2.10
   1  -6  10    3.90    3.40
   1  -6  10    1.00    3.80
   1  -6  10    6.60    3.80
   1  -6  10    3.70    4.70
  -2   6 -10   47.50    7.00
  -2   6 -10   52.29    7.30
  -2   6 -10   56.79    8.00
   2  -6  10   72.79   10.20
   2  -6  10   73.59    9.40
   2  -6  10   43.80    6.50
   2  -6  10   52.09    6.90
   2  -6  10   63.69    6.90
  -3   6 -10   20.40    5.90
   3  -6  10   12.10    3.50
   3  -6  10   16.70    3.50
   3  -6  10   20.30    6.10
   3  -6  10   20.20    7.50
   3  -6  10   23.10    4.30
  -4   6 -10  118.49   12.30
   4  -6  10  114.69   14.70
   4  -6  10  115.99   13.50
  -5   6 -10   11.90    6.40
   5  -6  10   -7.50    6.80
   5  -6  10    6.70    6.00
   5   5 -10    9.60   11.20
   5   5 -10    4.70    7.30
  -5  -5  10   -2.10    6.00
  -5  -5  10    2.30    4.10
   4   5 -10   23.00    7.40
   4   5 -10   29.30   12.10
  -4  -5  10   12.40    6.90
  -4  -5  10   15.20    3.30
  -4  -5  10   14.30    4.40
   3   5 -10   24.50   10.20
   3   5 -10   31.70    6.60
   3   5 -10   31.00    5.30
   3   5 -10   15.60    3.10
  -3  -5  10   30.90    6.70
  -3  -5  10   27.30    4.20
  -3  -5  10   20.80    5.30
   2   5 -10    0.70    3.80
   2   5 -10   14.80    9.30
   2   5 -10    7.30    3.40
  -2  -5  10    2.50    3.80
  -2  -5  10    2.10    3.40
  -2  -5  10    6.30    5.70
   1   5 -10   77.29    8.90
   1   5 -10   97.19   14.40
   1   5 -10   66.89    6.70
  -1  -5  10   63.59    8.40
  -1  -5  10   63.79    7.60
  -1  -5  10   67.79    8.10
   0   5 -10   23.10    3.90
   0   5 -10   25.80    5.40
   0  -5  10   27.80    4.20
   0  -5  10   19.00    5.40
   0  -5  10   19.90    3.80
   0  -5  10   22.80    4.70
  -1   5 -10   65.79    8.10
  -1   5 -10   59.89    7.80
  -1   5 -10   62.89    7.80
   1  -5  10   53.79    7.30
   1  -5  10   54.59    7.40
   1  -5  10   75.79    9.30
   1  -5  10   62.79    6.20
   1  -5  10   71.09    8.40
  -2   5 -10   18.80    7.00
  -2   5 -10   18.80    5.60
  -2   5 -10   27.70    5.50
   2  -5  10   26.10    6.80
   2  -5  10   18.20    3.50
   2  -5  10   23.30    4.50
   2  -5  10   27.70    6.10
   2  -5  10   27.80    4.10
   2  -5  10   27.10    4.60
  -3   5 -10    4.30    5.30
   3  -5  10   15.30    3.40
   3  -5  10   10.90    6.30
   3  -5  10    8.10    2.40
   3  -5  10   12.10    3.30
   3  -5  10   12.30    5.40
  -4   5 -10  102.59   10.50
   4  -5  10   98.09   13.10
   4  -5  10   87.09   11.10
  -5   5 -10    7.00    5.10
   5  -5  10    1.10    6.70
   5  -5  10    2.60    6.40
   5   4 -10   -5.50    7.60
   5   4 -10    1.90   10.70
  -5  -4  10    5.60    4.50
  -5  -4  10    1.70    5.90
   4   4 -10    9.60    7.10
   4   4 -10   13.10   11.10
  -4  -4  10    5.70    6.50
  -4  -4  10   17.40    4.70
   3   4 -10   38.10    4.40
   3   4 -10   39.20    7.40
   3   4 -10   43.10   11.40
   3   4 -10   46.80    5.60
  -3  -4  10   35.90    6.20
  -3  -4  10   37.50    8.10
  -3  -4  10   39.00    5.70
  -3  -4  10   44.60    8.00
   2   4 -10   13.80    4.60
   2   4 -10    5.60    8.40
   2   4 -10   12.40    3.70
  -2  -4  10    4.80    3.00
  -2  -4  10    9.00    2.80
  -2  -4  10   10.20    4.00
   1   4 -10   31.80    4.80
   1   4 -10   39.90   10.50
   1   4 -10   39.80    6.00
  -1  -4  10   37.80    5.00
  -1  -4  10   42.10    5.80
  -1  -4  10   40.90    5.60
   0   4 -10   20.90    4.30
   0   4 -10   17.90    3.80
   0   4 -10   26.90    5.40
   0  -4  10   22.70    3.60
   0  -4  10   28.20    5.10
   0  -4  10   26.30    4.70
  -1   4 -10   41.20    5.90
  -1   4 -10   41.40    6.90
  -1   4 -10   50.49    6.90
   1  -4  10   45.00    5.80
   1  -4  10   32.10    4.70
   1  -4  10   43.30    6.50
   1  -4  10   55.09    6.60
   1  -4  10   42.50    5.50
  -2   4 -10    1.80    3.20
  -2   4 -10    5.50    5.00
  -2   4 -10   10.60    4.20
   2  -4  10    8.80    5.30
   2  -4  10    2.10    3.30
   2  -4  10    5.70    4.60
   2  -4  10    2.20    3.90
   2  -4  10    3.60    1.90
   2  -4  10    5.40    3.50
  -3   4 -10    5.80    4.70
  -3   4 -10    5.70    4.30
   3  -4  10    1.60    2.20
   3  -4  10   12.50    3.90
   3  -4  10   11.40    5.90
   3  -4  10    8.20    2.30
   3  -4  10    8.70    6.10
  -4   4 -10   23.90    5.70
   4  -4  10   20.90    8.30
   4  -4  10   17.50    7.20
   4  -4  10   24.80    5.10
  -5   4 -10   12.10    5.30
   5  -4  10   14.30    6.80
   5  -4  10    2.40    7.50
   5   3 -10   40.40   11.70
   5   3 -10   33.20    7.90
  -5  -3  10   19.30    5.10
  -5  -3  10   22.70    7.70
   4   3 -10   21.10   11.60
   4   3 -10    7.30    6.90
  -4  -3  10    7.50    4.20
  -4  -3  10   11.60    6.50
   3   3 -10   34.90    3.90
   3   3 -10   32.10    7.60
   3   3 -10   27.60    4.90
   3   3 -10   27.00   10.00
  -3  -3  10   33.40    5.90
  -3  -3  10   20.50    7.00
  -3  -3  10   33.00    5.40
  -3  -3  10   23.40   11.00
   2   3 -10   91.79   13.00
   2   3 -10   69.09    8.40
   2   3 -10   93.29    9.40
  -2  -3  10   82.29   10.60
  -2  -3  10   81.49    8.70
  -2  -3  10   90.99    9.10
   1   3 -10   33.40    8.20
   1   3 -10   24.80    4.20
   1   3 -10   23.60    5.50
  -1  -3  10   23.80    4.50
  -1  -3  10   25.60    4.00
  -1  -3  10   26.90    5.10
   0   3 -10   15.00    3.80
   0   3 -10   12.90    3.10
   0   3 -10   12.20    4.70
   0  -3  10   14.60    4.30
   0  -3  10   14.90    4.10
   0  -3  10   13.50    3.00
  -1   3 -10  239.18   18.30
  -1   3 -10  239.38   19.00
  -1   3 -10  218.48   18.40
   1  -3  10  260.67   18.30
   1  -3  10  219.78   18.00
   1  -3  10  256.87   18.80
  -2   3 -10    5.00    9.60
  -2   3 -10   17.50    5.50
  -2   3 -10   28.30    4.80
  -2   3 -10   28.70    5.20
   2  -3  10   30.00    4.70
   2  -3  10   23.00    4.50
   2  -3  10   25.30    5.90
   2  -3  10   34.40    6.70
   2  -3  10   31.40    6.10
  -3   3 -10   16.30    5.10
  -3   3 -10   11.70    4.40
   3  -3  10    5.10    5.80
   3  -3  10   17.00    5.40
   3  -3  10   12.90    2.40
   3  -3  10    8.90    6.60
   3  -3  10   13.10    2.20
   4  -3  10    8.70    5.90
   4  -3  10   15.70    6.80
   4  -3  10   -2.10    6.20
  -5   3 -10    7.10    5.00
   5  -3  10    3.70    7.80
   5  -3  10   13.10    6.60
   5   2 -10   23.60    7.00
   5   2 -10   33.00   11.50
  -5  -2  10   22.50    8.00
  -5  -2  10   34.50    6.00
   4   2 -10    4.80    6.80
  -4  -2  10    1.80    4.30
  -4  -2  10    9.80    6.40
   3   2 -10   11.30    2.80
   3   2 -10   16.60   10.00
   3   2 -10   19.80    6.40
   3   2 -10   19.80    4.30
  -3  -2  10   13.30    6.30
  -3  -2  10   16.60    5.00
  -3  -2  10   16.20    6.30
   2   2 -10  118.79   10.40
   2   2 -10  109.59   14.60
   2   2 -10   86.59    9.40
  -2  -2  10  100.49    9.90
  -2  -2  10   93.29   11.50
  -2  -2  10  106.29   10.50
   1   2 -10   61.19    7.30
   1   2 -10   65.89    9.90
   1   2 -10   43.20    4.90
   1   2 -10   45.70    5.80
  -1  -2  10   54.59    6.70
  -1  -2  10   55.89    8.00
  -1  -2  10   46.40    5.50
  -1  -2  10   55.49    6.10
   0   2 -10   38.90    8.40
   0   2 -10   30.50    5.90
   0   2 -10   35.60    7.40
   0   2 -10   31.80    5.30
   0  -2  10   37.90    5.60
   0  -2  10   35.10    5.40
   0  -2  10   29.30    5.00
   0  -2  10   37.50    4.80
  -1   2 -10  405.66   31.40
  -1   2 -10  431.46   31.60
  -1   2 -10  433.96   31.30
  -1   2 -10  429.06   31.50
   1  -2  10  417.96   30.80
   1  -2  10  463.35   31.00
   1  -2  10  431.96   30.30
   1  -2  10  450.35   31.50
  -2   2 -10   82.19    9.30
  -2   2 -10   71.89    9.90
  -2   2 -10   87.39   12.20
   2  -2  10   84.59    7.70
   2  -2  10   85.99    8.30
   2  -2  10   94.89   10.80
   2  -2  10   83.29   10.50
  -3   2 -10   33.50    5.80
  -3   2 -10   34.90    6.40
   3  -2  10   35.30    7.60
   3  -2  10   34.50    3.80
   3  -2  10   30.60    3.60
   3  -2  10   38.80    7.50
  -4   2 -10    2.60    7.50
  -4   2 -10    3.70    4.50
   4  -2  10    8.40    6.50
   4  -2  10    5.50    6.60
  -5   2 -10    5.20    4.60
   5  -2  10  -12.20    9.40
   5  -2  10    3.10    7.20
   5   1 -10   15.40    7.10
   5   1 -10    7.00    9.80
  -5  -1  10   -4.50    6.20
  -5  -1  10    6.30    5.80
   4   1 -10    5.30    2.00
   4   1 -10   11.30    2.30
   4   1 -10   13.50    9.70
   4   1 -10   32.40   17.50
  -4  -1  10   14.70    6.40
  -4  -1  10    8.30    4.40
   3   1 -10   30.90    7.50
   3   1 -10   35.70   10.20
   3   1 -10   20.50    3.50
   3   1 -10   28.40    5.00
  -3  -1  10   10.60    9.00
  -3  -1  10   10.80    6.30
  -3  -1  10   16.50    5.00
   2   1 -10    5.80    8.20
   2   1 -10    0.70    4.40
   2   1 -10    7.20    3.70
  -2  -1  10    3.00    3.40
  -2  -1  10    2.40    3.80
  -2  -1  10   -2.50    4.50
   1   1 -10    9.60    4.70
   1   1 -10   16.40    8.50
   1   1 -10   12.40    3.00
   1   1 -10   12.20    3.50
  -1  -1  10   17.10    4.60
  -1  -1  10    5.50    4.00
   0   1 -10   12.40    4.30
   0   1 -10   10.30    4.90
   0   1 -10    6.60    6.00
   0   1 -10    8.20    3.30
   0   1 -10   13.40    5.00
   0  -1  10   16.50    4.70
   0  -1  10   12.80    3.50
   0  -1  10   10.10    4.10
   0  -1  10   11.90    2.90
  -1   1 -10   46.10    7.00
  -1   1 -10   46.60    6.90
  -1   1 -10   46.00    7.20
  -1   1 -10   37.70    9.30
   1  -1  10   50.39    6.00
   1  -1  10   53.19    7.20
   1  -1  10   36.90    4.60
   1  -1  10   40.70    5.50
  -2   1 -10   32.40    6.30
  -2   1 -10   30.90    6.20
  -2   1 -10   37.30    8.10
  -2   1 -10   34.10    5.90
   2  -1  10   34.00    7.40
   2  -1  10   30.80    4.20
   2  -1  10   44.90    5.70
  -3   1 -10   40.50    6.90
  -3   1 -10   46.00    6.40
  -3   1 -10   42.20    7.50
   3  -1  10   44.10    8.70
   3  -1  10   46.70    4.00
   3  -1  10   54.79    8.70
  -4   1 -10   10.10    5.10
  -4   1 -10    4.80    7.00
   4  -1  10   19.30    7.30
   4  -1  10   13.50    7.30
  -5   1 -10    4.70    4.70
   5  -1  10   15.90    7.10
   5  -1  10    6.90    7.10
   5   0 -10   18.40    7.80
   5   0 -10    9.80    9.40
  -5   0  10   21.80    5.30
  -5   0  10   19.80    8.00
   4   0 -10  107.99   20.70
   4   0 -10   74.29    7.50
   4   0 -10   82.69    7.30
   4   0 -10   92.79   12.40
  -4   0  10  102.49   10.80
  -4   0  10   98.69   12.70
   3   0 -10    5.00    2.40
   3   0 -10   -4.30    6.00
   3   0 -10    0.40    8.50
   3   0 -10    6.10    4.00
  -3   0  10   -1.40    6.80
  -3   0  10   -2.00    3.80
  -3   0  10   -1.60    4.90
   2   0 -10   -0.50    4.10
   2   0 -10   -2.10    8.10
   2   0 -10    4.90    2.60
   2   0 -10   -0.80    6.00
  -2   0  10   -0.20    4.20
  -2   0  10   -1.30    3.20
  -2   0  10   -4.40    3.90
   1   0 -10  154.98   14.30
   1   0 -10  149.19   13.10
   1   0 -10  132.99   11.90
   1   0 -10  132.39   11.00
  -1   0  10  121.49   11.60
  -1   0  10  142.49   12.60
  -1   0  10  138.29   12.40
   0   0 -10   74.69    9.80
   0   0 -10   67.39    9.20
   0   0 -10   68.99    9.80
   0   0 -10   64.29    9.10
   0   0  10   82.49    8.30
   0   0  10   80.29    7.80
   0   0  10   73.99    7.40
  -1   0 -10    6.80    4.60
  -1   0 -10    7.80    5.50
  -1   0 -10   11.60    5.40
  -1   0 -10    9.40    4.50
   1   0  10    6.30    4.00
   1   0  10   11.80    3.30
   1   0  10    4.90    2.00
   1   0  10    9.90    5.30
  -2   0 -10  155.38   14.30
  -2   0 -10  161.78   14.50
  -2   0 -10  157.78   14.20
  -2   0 -10  143.29   13.30
   2   0  10  159.38   12.70
   2   0  10  147.19   11.90
   2   0  10  165.78   15.10
  -3   0 -10   22.60    6.40
  -3   0 -10   31.70    6.00
  -3   0 -10   35.90    6.40
   3   0  10   49.00    8.80
   3   0  10   46.20    8.10
  -4   0 -10   28.60    6.00
  -4   0 -10   24.00    7.00
   4   0  10   19.00    8.00
   4   0  10   32.10    8.40
  -5   0 -10    7.00    5.00
   5   0  10    7.10    7.30
   5  -1 -10   -1.40    6.40
  -5   1  10   -0.50    4.00
  -5   1  10   -4.30    5.60
   4  -1 -10    7.40   19.00
   4  -1 -10   20.50    3.40
   4  -1 -10   20.00    3.60
   4  -1 -10   24.60    3.70
   4  -1 -10   16.60    7.10
  -4   1  10   21.90    6.90
  -4   1  10   22.50    5.30
   3  -1 -10  187.68   16.40
   3  -1 -10  205.28   18.90
   3  -1 -10  251.77   21.30
   3  -1 -10  196.58   15.60
   3  -1 -10  238.48   17.30
  -3   1  10  210.98   19.90
  -3   1  10  224.98   18.40
  -3   1  10  237.98   20.00
   2  -1 -10    3.60    6.20
   2  -1 -10   16.10    5.20
   2  -1 -10   21.10    8.50
   2  -1 -10    8.40    3.30
  -2   1  10   15.90    5.60
  -2   1  10   17.00    5.00
   1  -1 -10   78.19    9.50
   1  -1 -10   99.29   11.50
   1  -1 -10   76.59    7.00
   1  -1 -10   85.09   10.20
  -1   1  10   99.69    9.90
  -1   1  10   83.19   10.90
  -1   1  10   98.09   10.00
   0  -1 -10   20.20    5.70
   0  -1 -10   34.10    7.80
   0  -1 -10   25.40    6.00
   0   1  10   18.00    5.50
   0   1  10   29.50    5.20
   0   1  10   21.00    4.30
  -1  -1 -10   76.29    9.80
  -1  -1 -10   67.89    8.80
  -1  -1 -10   76.49    8.40
  -1  -1 -10   74.39    9.80
   1   1  10   69.39    7.70
   1   1  10   64.89    6.50
   1   1  10   81.59    8.50
  -2  -1 -10   10.70    4.30
  -2  -1 -10   11.70    6.00
  -2  -1 -10   11.30    5.50
  -2  -1 -10    5.40    5.00
   2   1  10   15.80    3.90
   2   1  10    9.80    2.80
  -3  -1 -10   -2.40    4.50
   3   1  10    9.80    7.50
  -4  -1 -10   -1.20    4.80
  -4  -1 -10   12.80    5.30
   4   1  10    6.50    9.00
  -5  -1 -10   88.29   10.50
   5   1  10   89.59   13.50
   5  -2 -10   31.40    8.00
  -5   2  10    8.60    5.20
  -5   2  10   22.50    8.20
   4  -2 -10    4.20    3.20
   4  -2 -10    9.70    3.40
   4  -2 -10   16.70    3.60
   4  -2 -10   12.50    6.70
  -4   2  10    7.20    5.00
  -4   2  10    0.60    6.40
   3  -2 -10  144.79   12.60
   3  -2 -10  154.68   12.10
   3  -2 -10  142.19   17.60
   3  -2 -10  163.58   13.70
  -3   2  10  150.68   14.20
  -3   2  10  145.79   15.60
  -3   2  10  169.88   16.00
   2  -2 -10   37.90    6.10
   2  -2 -10   42.00    9.10
   2  -2 -10   42.20    6.60
   2  -2 -10   51.89    8.30
  -2   2  10   42.90    6.80
  -2   2  10   44.80    7.40
  -2   2  10   28.10    6.70
   1  -2 -10  353.56   25.30
   1  -2 -10  364.06   27.10
   1  -2 -10  394.76   27.50
   1  -2 -10  331.77   27.00
  -1   2  10  369.86   27.20
  -1   2  10  363.36   26.90
  -1   2  10  347.37   29.10
   0  -2 -10   59.89    8.20
   0  -2 -10   44.50    6.70
   0   2  10   53.49    7.30
   0   2  10   51.59    6.60
   0   2  10   55.79    7.00
  -1  -2 -10   16.90    6.00
  -1  -2 -10   21.20    5.90
  -1  -2 -10   34.10    8.70
  -1  -2 -10   15.20    5.90
   1   2  10   17.10    3.30
   1   2  10   19.50    5.00
   1   2  10   18.90    3.50
  -2  -2 -10   13.20    5.60
  -2  -2 -10    6.30    7.10
   2   2  10    6.70    2.00
   2   2  10    5.60    3.70
  -3  -2 -10    7.90    5.10
   3   2  10    7.60    8.10
  -4  -2 -10   43.30    7.50
   4   2  10   40.00   10.40
   4  -3 -10   12.70    3.70
   4  -3 -10   -3.20    3.50
   4  -3 -10   17.80    7.20
   4  -3 -10    5.70    3.40
  -4   3  10    8.20    5.80
  -4   3  10    4.70    6.60
   3  -3 -10   43.50    5.70
   3  -3 -10   41.30    8.00
   3  -3 -10   42.60    6.00
   3  -3 -10   43.30    7.10
  -3   3  10   59.59    8.80
  -3   3  10   47.10   11.20
   2  -3 -10  110.89   12.40
   2  -3 -10  109.89   11.00
  -2   3  10   72.49    9.80
  -2   3  10   99.99   11.70
  -2   3  10   94.39   10.90
   1  -3 -10   38.20    5.40
   1  -3 -10   58.09    8.00
  -1   3  10   59.49    7.80
  -1   3  10   56.69    7.60
   0  -3 -10  100.89   10.60
   0  -3 -10   84.89    8.50
   0   3  10   80.79    9.00
   0   3  10   79.09    9.20
   0   3  10   77.59    9.70
  -1  -3 -10   25.60    6.60
  -1  -3 -10   24.70    6.60
  -1  -3 -10   16.50    5.50
   1   3  10   33.90    4.90
   1   3  10   38.00    5.70
  -2  -3 -10   16.20    6.00
   2   3  10   21.90    4.50
   2   3  10   18.40    3.50
  -3  -3 -10   68.69    9.30
   3   3  10   72.69   12.10
  -4  -3 -10   31.10    6.50
   4   3  10   28.00    9.70
   4  -4 -10   10.40    4.70
   4  -4 -10    7.40    4.80
   4  -4 -10    2.70    5.20
   4  -4 -10   19.90    7.50
  -4   4  10   20.80    7.20
  -4   4  10   17.40    6.30
   3  -4 -10   17.20    7.00
   3  -4 -10   21.70    5.40
  -3   4  10   15.90    6.30
  -3   4  10   22.70    6.20
   2  -4 -10   12.50    6.60
   2  -4 -10   17.00    5.70
  -2   4  10   30.00    6.40
  -2   4  10   17.40   10.50
  -2   4  10   14.70    5.60
   1  -4 -10   16.40    3.80
   1  -4 -10   13.00    5.80
  -1   4  10   19.60    5.80
  -1   4  10   11.70    4.70
   0  -4 -10    3.40    3.60
   0  -4 -10   -1.80    5.30
   0  -4 -10    4.60    4.30
   0   4  10    4.90    4.80
   0   4  10    2.00    4.20
  -1  -4 -10   26.50    5.90
  -1  -4 -10   13.60    6.40
   1   4  10   16.50    4.10
   1   4  10   29.90    5.60
   1   4  10   22.90    4.20
  -2  -4 -10   17.30    6.30
   2   4  10   21.40    4.40
   2   4  10   12.80    3.10
  -3  -4 -10    5.00    5.10
   3   4  10  -12.80    7.40
  -4  -4 -10   12.90    6.10
   4   4  10   31.60    9.30
   4  -5 -10    7.90    6.80
   4  -5 -10    6.40    4.90
   4  -5 -10   -2.80    4.60
  -4   5  10    7.50    5.60
  -4   5  10    9.90    6.60
   3  -5 -10    7.90    6.20
   3  -5 -10   13.10    5.00
  -3   5  10   16.90    4.90
  -3   5  10   -2.90    5.60
   2  -5 -10    5.10    5.30
   2  -5 -10    6.10    5.70
   2  -5 -10   11.20    2.90
  -2   5  10    0.00    5.30
  -2   5  10   15.00    6.10
  -2   5  10    2.50    5.50
   1  -5 -10   43.80    7.80
   1  -5 -10   32.70    9.90
   1  -5 -10   49.60    7.00
  -1   5  10   51.79    7.90
  -1   5  10   43.40   11.00
   0  -5 -10    3.00    4.60
   0  -5 -10    7.50    5.00
   0  -5 -10    4.00    8.30
   0   5  10    6.30    4.60
   0   5  10    8.60    5.10
  -1  -5 -10   89.59   14.00
  -1  -5 -10   87.99    9.50
   1   5  10   95.29   10.10
   1   5  10   65.89    9.60
   1   5  10   93.69    8.80
  -2  -5 -10    9.50    7.60
   2   5  10   11.30    3.80
  -3  -5 -10   -3.00    4.70
   3   5  10    4.90    8.70
   3  -6 -10    2.40    5.10
   3  -6 -10   15.10    5.70
  -3   6  10    5.00    4.80
  -3   6  10    6.20    6.10
   2  -6 -10   31.00    6.90
  -2   6  10   20.80    6.80
  -2   6  10   35.80    7.20
  -2   6  10    8.30    6.20
   1  -6 -10   45.50   10.40
   1  -6 -10   42.00    7.70
   1  -6 -10   49.90    6.80
  -1   6  10   43.60    8.10
  -1   6  10   45.90    8.10
   0  -6 -10   13.20    5.20
   0  -6 -10    9.50    5.50
   0  -6 -10    2.80    4.90
   0   6  10    9.40    5.50
   0   6  10    1.10    4.60
  -1  -6 -10   13.30    5.50
  -1  -6 -10   -5.00    4.20
   1   6  10    5.10    4.90
   1   6  10    9.10    3.50
  -2  -6 -10    1.60    4.80
   2   6  10   15.20    3.50
   2   6  10   -5.30    3.20
  -3  -6 -10   25.90    6.50
   3   6  10   30.20    9.30
   3  -7 -10    6.40    6.10
   3  -7 -10   -2.00    5.20
  -3   7  10    9.40    5.90
  -3   7  10   10.50    6.60
   2  -7 -10   85.09   10.40
   2  -7 -10   68.59    9.90
  -2   7  10   85.59   11.30
  -2   7  10   62.99   10.10
   1  -7 -10   24.10    6.80
   1  -7 -10    9.70    6.20
   1  -7 -10   31.10    6.40
  -1   7  10   19.80    9.50
  -1   7  10   32.60    7.10
   0  -7 -10    6.60    5.00
   0   7  10   12.80    6.10
   0   7  10   11.70    5.40
  -1  -7 -10    3.20    4.40
  -1  -7 -10   -1.40    5.20
   1   7  10    6.20    4.10
   1   7  10    5.00    5.00
  -2  -7 -10   42.60    8.00
   2   7  10   39.90    6.00
   2  -8 -10   17.10    5.90
   2  -8 -10   23.30    6.30
  -2   8  10   11.80    6.30
  -2   8  10    6.90    6.00
   1  -8 -10   16.20    5.40
   1  -8 -10    4.70    6.20
  -1   8  10   13.80    6.50
  -1   8  10   18.30    7.10
   0  -8 -10    7.20    5.30
   0  -8 -10   14.00    6.00
   0   8  10   10.70    5.90
   0   8  10   25.10    6.20
  -1  -8 -10   72.69    9.70
   1   8  10   61.09    8.60
   1   8  10   67.99    8.90
   1  14 -11   35.80   14.80
  -1 -14  11   46.60    7.00
   0  14 -11   -0.20    6.30
   0 -14  11    9.10    4.70
   0 -14  11    7.70    4.70
  -1  14 -11    9.60    7.00
   1 -14  11    1.20    5.10
   2  13 -11    4.60    6.20
   2  13 -11    3.90   13.90
  -2 -13  11    2.70    4.70
  -2 -13  11    0.40    4.20
   1  13 -11   54.39   15.40
   1  13 -11   59.59    9.00
  -1 -13  11   59.49    8.60
  -1 -13  11   55.99    7.40
   0  13 -11   30.10    7.40
   0 -13  11   21.40    6.20
   0 -13  11   31.20    6.00
  -1  13 -11    8.70    6.90
   1 -13  11    6.90    4.60
   1 -13  11   -3.60    4.10
   1 -13  11   -1.10    7.60
  -2  13 -11    1.40    6.10
   2 -13  11    4.80    5.20
   2 -13  11    3.70    7.50
   2 -13  11    0.60    4.60
   3  12 -11   19.40   11.80
   3  12 -11    0.30    4.00
  -3 -12  11    6.80    4.50
   2  12 -11   -9.40   12.20
   2  12 -11   -0.60    5.20
  -2 -12  11    2.20    3.80
  -2 -12  11    1.50    3.50
   1  12 -11    2.30   11.70
   1  12 -11   -1.00    5.50
  -1 -12  11    3.50    3.90
  -1 -12  11    7.00    4.40
   0  12 -11  125.99   13.50
   0  12 -11   83.89    9.30
   0 -12  11  107.29   10.90
   0 -12  11  123.79   11.70
  -1  12 -11   -3.00    4.40
  -1  12 -11   18.60    7.10
   1 -12  11   10.30    7.70
   1 -12  11   13.00    5.70
   1 -12  11    9.90    5.10
  -2  12 -11    8.60    6.20
   2 -12  11    5.10    7.00
   2 -12  11    8.20    5.30
   2 -12  11    4.20    5.60
  -3  12 -11   12.40    6.80
   3 -12  11   12.70    5.20
   3 -12  11   15.80    6.90
   3 -12  11    3.90    8.20
   3  11 -11   18.70    4.20
   3  11 -11   31.90   12.50
   3  11 -11    5.00    4.40
  -3 -11  11   14.90    5.20
   2  11 -11   -1.10   13.20
   2  11 -11   17.30    5.90
  -2 -11  11    4.60    3.30
  -2 -11  11   13.10    5.00
   1  11 -11   47.30   14.40
   1  11 -11   38.30   11.00
  -1 -11  11   51.39    7.60
  -1 -11  11   50.79    7.20
   0  11 -11   27.50    5.10
   0  11 -11   56.19    8.40
   0 -11  11   38.20    6.30
   0 -11  11   49.90    7.30
  -1  11 -11   -5.30    4.00
  -1  11 -11    8.20    6.50
   1 -11  11    6.60    5.20
   1 -11  11    9.40    4.60
   1 -11  11   11.00    6.90
  -2  11 -11   13.50    7.00
   2 -11  11   16.90    5.40
   2 -11  11   17.20    7.40
   2 -11  11   12.10    6.00
  -3  11 -11   46.50    8.20
   3 -11  11   50.19    7.30
   3 -11  11   40.20    9.40
   3 -11  11   51.19    8.90
   4  10 -11   -0.50   12.10
   4  10 -11  -11.40    3.80
  -4 -10  11   -3.70    3.90
   3  10 -11   32.00   12.50
   3  10 -11   13.90    5.20
   3  10 -11   20.10    4.10
  -3 -10  11   15.30    4.60
   2  10 -11   10.50    4.60
   2  10 -11   41.90   14.20
   2  10 -11   27.90    6.90
  -2 -10  11   30.00    6.00
  -2 -10  11   22.20    3.60
   1  10 -11    7.90   12.90
   1  10 -11   17.00    5.90
  -1 -10  11    1.40    6.30
   0  10 -11   26.10    7.40
   0 -10  11   29.20    5.50
   0 -10  11   27.20    7.80
  -1  10 -11    0.80    5.80
  -1  10 -11    7.10    4.20
   1 -10  11   15.50    5.90
   1 -10  11    3.70    5.10
   1 -10  11   14.10    6.70
  -2  10 -11   23.90    7.00
   2 -10  11   15.40    5.80
   2 -10  11   20.00    7.70
   2 -10  11   14.40    5.00
  -3  10 -11   37.80    7.80
   3 -10  11   38.50    7.70
   3 -10  11   36.20    6.20
   3 -10  11   44.60    8.90
  -4  10 -11   12.60    6.10
   4 -10  11    6.20    3.50
   4 -10  11    5.50    7.40
   4 -10  11    8.70    5.40
   4   9 -11   16.50    4.60
   4   9 -11   45.40   13.50
  -4  -9  11   17.00    4.80
   3   9 -11    3.00   12.70
   3   9 -11    3.70    3.60
   3   9 -11    4.70    3.60
   3   9 -11    0.90    2.70
  -3  -9  11   15.10    4.90
   2   9 -11   86.19   16.20
   2   9 -11   47.80    6.00
   2   9 -11   60.19    8.20
  -2  -9  11   57.99    7.60
  -2  -9  11   32.00    5.80
   1   9 -11   11.60    5.50
   1   9 -11   15.30   11.80
  -1  -9  11   12.70    3.70
  -1  -9  11    5.80    4.80
  -1  -9  11    2.30    3.00
   0   9 -11   13.50    5.90
   0  -9  11   11.10    4.50
   0  -9  11   16.90    5.20
  -1   9 -11   -1.80    4.90
   1  -9  11    2.90    6.00
   1  -9  11    1.00    4.30
   1  -9  11    9.30    4.90
   1  -9  11    4.20    3.90
   2  -9  11   44.00    6.90
   2  -9  11   50.29    8.00
   2  -9  11   52.09    9.70
   2  -9  11   59.59    7.50
  -3   9 -11   10.60    6.10
   3  -9  11    0.50    4.00
   3  -9  11   10.90    4.50
   3  -9  11   17.50    7.40
   3  -9  11   12.40    5.80
  -4   9 -11   21.90    5.90
   4  -9  11   14.80    7.30
   4  -9  11    2.70    4.70
   4  -9  11   11.50    3.00
   4  -9  11   -1.10    3.50
   4  -9  11   11.90    6.00
   4   8 -11   16.80   11.70
   4   8 -11    6.50    4.40
  -4  -8  11   -8.90    4.90
  -4  -8  11    5.20    3.90
   3   8 -11   -1.50    2.90
   3   8 -11    7.50    4.20
   3   8 -11    3.70    3.20
   3   8 -11    2.60   11.70
  -3  -8  11    5.60    4.50
   2   8 -11   19.20    5.80
   2   8 -11    7.90   11.80
   2   8 -11   20.70    5.70
  -2  -8  11    4.90    4.10
  -2  -8  11    6.50    4.50
   1   8 -11  358.26   29.10
   1   8 -11  258.27   23.10
   1   8 -11  332.27   24.20
  -1  -8  11  299.17   23.70
  -1  -8  11  319.17   22.10
   0   8 -11   36.40    7.00
   0  -8  11   37.40    7.10
   0  -8  11   36.80    6.50
   0  -8  11   24.30    5.40
  -1   8 -11    8.80    5.70
   1  -8  11   10.60    5.10
   1  -8  11    1.30    5.50
   1  -8  11   11.30    4.30
   1  -8  11   -1.40    3.40
  -2   8 -11    7.90    5.90
   2  -8  11    6.40    3.70
   2  -8  11    5.80    3.70
   2  -8  11   12.10    6.30
   2  -8  11    9.60    5.30
  -3   8 -11   11.50    9.50
   3  -8  11    6.00    4.10
   3  -8  11    3.90    6.60
   3  -8  11    6.10    4.20
   3  -8  11    6.50    7.90
  -4   8 -11   12.40    6.10
   4  -8  11   13.00    6.00
   4  -8  11   24.20    7.70
   4  -8  11   15.20    4.40
   4   7 -11   27.40   12.30
   4   7 -11   14.80    6.70
  -4  -7  11   13.80    4.80
  -4  -7  11   19.00    5.60
   3   7 -11    9.20    3.40
   3   7 -11    4.00   10.50
   3   7 -11    3.60    5.70
  -3  -7  11    1.60    3.70
   2   7 -11   26.00    4.30
   2   7 -11   43.00    6.70
   2   7 -11   31.30   12.10
  -2  -7  11   28.80    5.80
  -2  -7  11   35.50    5.50
   1   7 -11  144.79   12.80
   1   7 -11  158.58   19.20
   1   7 -11  118.39   11.20
  -1  -7  11  119.29   10.40
  -1  -7  11  116.29   11.80
  -1  -7  11  127.99    9.90
   0   7 -11   71.59    8.30
   0   7 -11   97.69   10.40
   0  -7  11   69.99    8.00
   0  -7  11   84.19    8.80
   0  -7  11   91.49    8.80
   0  -7  11   64.89    9.90
  -1   7 -11    7.10    4.90
   1  -7  11    4.70    5.50
   1  -7  11    3.00    4.00
   1  -7  11    1.70    3.00
   1  -7  11    8.20    4.30
   1  -7  11    8.00    4.30
  -2   7 -11   35.40    6.50
  -2   7 -11   45.50    7.60
   2  -7  11   56.09    6.60
   2  -7  11   26.20    5.00
   2  -7  11   49.20    7.80
   2  -7  11   48.90    7.20
   2  -7  11   34.80    5.10
  -3   7 -11    6.60    5.90
   3  -7  11    5.00    2.80
   3  -7  11    2.40    7.00
   3  -7  11    5.40    3.70
   3  -7  11    3.30    5.40
  -4   7 -11   51.19    8.00
   4  -7  11   55.19   10.10
   4  -7  11   47.30    8.10
   5   6 -11   13.90   11.00
   5   6 -11   21.60    7.90
  -5  -6  11   16.80    7.70
  -5  -6  11   17.30    4.70
   4   6 -11   66.79   13.90
   4   6 -11   56.69    9.30
  -4  -6  11   44.00    6.00
  -4  -6  11   55.09    7.50
   3   6 -11   21.40   11.30
   3   6 -11   15.70    6.60
   3   6 -11   16.50    3.40
   3   6 -11   21.30    4.10
  -3  -6  11   17.70    5.00
   2   6 -11   56.49   12.70
   2   6 -11   46.70    6.20
   2   6 -11   58.29    7.30
  -2  -6  11   63.09    8.00
  -2  -6  11   66.29    8.10
   1   6 -11   41.80    5.60
   1   6 -11   42.60    7.30
   1   6 -11   64.29   13.30
  -1  -6  11   47.70    5.90
  -1  -6  11   49.80    6.90
  -1  -6  11   47.80    6.60
   0   6 -11    4.30    3.80
   0   6 -11    2.50    4.60
   0  -6  11    4.90    3.50
   0  -6  11   -0.20    3.50
   0  -6  11    0.80    4.50
   0  -6  11    5.60    4.00
  -1   6 -11    9.10    4.40
  -1   6 -11    4.80    5.40
   1  -6  11    5.20    3.90
   1  -6  11    7.90    4.60
   1  -6  11   -0.10    2.90
   1  -6  11    5.70    5.20
   1  -6  11    4.10    2.80
  -2   6 -11   -1.30    4.70
  -2   6 -11   10.90    5.20
   2  -6  11    3.40    2.60
   2  -6  11   12.10    3.90
   2  -6  11   10.70    5.70
   2  -6  11    1.70    2.80
   2  -6  11    6.60    5.00
  -3   6 -11   26.50    6.40
   3  -6  11   16.50    6.20
   3  -6  11   25.00    7.30
   3  -6  11   24.10    4.10
   3  -6  11   23.70    3.80
  -4   6 -11   51.29    8.30
   4  -6  11   42.50    9.40
   4  -6  11   48.60    8.40
   5  -6  11   99.89   14.40
   5  -6  11   99.49   13.40
   5   5 -11   -4.90   10.70
   5   5 -11    3.80    7.10
  -5  -5  11    5.80    3.90
  -5  -5  11    1.90    6.30
   4   5 -11    9.80    7.10
   4   5 -11   19.50   11.50
  -4  -5  11   11.10    7.10
  -4  -5  11   12.10    4.70
   3   5 -11   40.00    5.40
   3   5 -11   49.30    8.00
   3   5 -11   62.39   13.20
   3   5 -11   54.89    7.10
  -3  -5  11   37.80    6.70
   2   5 -11    3.00    4.50
   2   5 -11    1.50    2.00
   2   5 -11    5.60    9.20
  -2  -5  11    3.30    3.70
  -2  -5  11    0.20    3.90
  -2  -5  11    1.30    3.10
   1   5 -11   15.60    5.50
   1   5 -11   14.60    4.00
   1   5 -11   13.10   10.20
  -1  -5  11   23.40    4.60
  -1  -5  11   16.70    4.80
   0   5 -11   -7.30    5.30
   0   5 -11    0.10    3.40
   0   5 -11    6.10    4.80
   0  -5  11    8.80    3.50
   0  -5  11   -2.70    3.50
   0  -5  11    2.30    4.20
   0  -5  11    2.00    3.40
  -1   5 -11   48.00    6.70
  -1   5 -11   48.00    7.60
   1  -5  11   56.59    7.60
   1  -5  11   40.50    5.60
   1  -5  11   48.60    6.50
   1  -5  11   58.59    8.00
  -2   5 -11   14.70    5.90
  -2   5 -11   24.30    6.20
   2  -5  11   23.10    6.00
   2  -5  11   28.90    5.90
   2  -5  11   23.50    4.70
   2  -5  11   15.80    3.90
   2  -5  11   18.50    3.50
   2  -5  11    9.20    2.90
  -3   5 -11   -0.80    5.20
   3  -5  11   -0.10    5.00
   3  -5  11    0.00    5.60
   3  -5  11   -3.10    2.40
   3  -5  11    2.50    3.20
   3  -5  11    4.10    2.60
  -4   5 -11   37.60    6.90
   4  -5  11   21.60    7.40
   4  -5  11   29.20    8.40
  -5   5 -11   80.29   10.50
   5  -5  11   94.59   12.80
   5  -5  11   96.79   13.80
   5   4 -11   33.20   11.40
  -5  -4  11   16.90    7.10
  -5  -4  11   17.90    4.60
   4   4 -11    1.40    6.70
   4   4 -11    0.80   10.80
  -4  -4  11    0.80    5.70
  -4  -4  11    8.40    4.10
   3   4 -11   10.70    6.30
   3   4 -11    7.50    2.70
   3   4 -11   16.60    4.30
   3   4 -11   16.00   10.00
  -3  -4  11    7.80    4.50
  -3  -4  11    9.00    6.30
   2   4 -11   54.59   11.40
   2   4 -11   52.59    7.40
   2   4 -11   38.10    5.40
  -2  -4  11   39.30    6.70
   1   4 -11   15.40    9.00
   1   4 -11    6.80    4.80
  -1  -4  11    3.30    4.20
  -1  -4  11   10.00    3.80
   0   4 -11   37.70    6.40
   0   4 -11   47.80    7.30
   0   4 -11   38.50    5.90
   0  -4  11   45.10    5.90
   0  -4  11   52.89    6.60
   0  -4  11   47.70    6.30
  -1   4 -11  230.48   19.70
  -1   4 -11  249.97   20.30
  -1   4 -11  239.68   20.00
   1  -4  11  270.17   20.00
   1  -4  11  285.47   20.00
   1  -4  11  243.58   18.80
   1  -4  11  266.67   19.60
  -2   4 -11    7.10    4.80
  -2   4 -11   -5.70    4.70
   2  -4  11    3.40    5.00
   2  -4  11   -2.50    5.10
   2  -4  11    4.10    3.30
   2  -4  11    2.10    3.20
   2  -4  11    8.80    3.70
  -3   4 -11   32.00    6.80
   3  -4  11   24.00    3.70
   3  -4  11   51.09    8.40
   3  -4  11   27.80    7.50
   3  -4  11   38.20    6.90
   3  -4  11   28.30    4.00
  -4   4 -11   45.20    7.30
   4  -4  11   38.60    8.60
   4  -4  11   47.90    6.90
   4  -4  11   35.00    7.90
   5  -4  11   20.40    7.80
   5   3 -11    7.90   11.30
   5   3 -11   17.50    7.50
  -5  -3  11    7.50    6.90
  -5  -3  11   14.90    4.40
   4   3 -11    8.20    9.20
   4   3 -11   30.60   10.00
  -4  -3  11   -1.70    6.30
  -4  -3  11   14.60    4.60
   3   3 -11    4.70    2.40
   3   3 -11    9.90    6.40
   3   3 -11   11.20    4.50
   3   3 -11    7.80    8.90
  -3  -3  11    1.00    4.40
  -3  -3  11    5.40    5.20
   2   3 -11  174.78   15.40
   2   3 -11  223.18   16.80
   2   3 -11  191.58   20.40
  -2  -3  11  217.88   18.30
  -2  -3  11  205.48   16.70
   1   3 -11   18.20    5.30
   1   3 -11    9.80    2.00
   1   3 -11    9.20    8.00
   1   3 -11    4.10    4.90
  -1  -3  11   10.60    4.70
  -1  -3  11   11.20    3.70
  -1  -3  11   11.90    5.20
   0   3 -11  144.09   12.70
   0   3 -11  189.38   16.70
   0   3 -11  153.28   13.90
   0   3 -11  139.59   13.10
   0  -3  11  149.79   13.10
   0  -3  11  158.78   13.10
   0  -3  11  171.38   13.50
  -1   3 -11  103.29   11.20
  -1   3 -11  105.39   10.90
  -1   3 -11  109.59   11.90
   1  -3  11  114.29   10.60
   1  -3  11  113.99    9.40
   1  -3  11  128.99   11.50
   1  -3  11  106.99    9.50
  -2   3 -11   16.20    4.30
  -2   3 -11   18.80    6.00
  -2   3 -11    5.30    5.90
  -2   3 -11   21.90    5.30
   2  -3  11   17.00    3.30
   2  -3  11   15.60    6.40
   2  -3  11   14.80    4.20
  -3   3 -11   13.20    5.70
   3  -3  11   13.50    5.80
   3  -3  11    9.80    2.50
   3  -3  11   10.60    2.70
   3  -3  11   13.40    6.30
  -4   3 -11   73.59    8.80
   4  -3  11   52.29    8.40
   4  -3  11   69.29   10.30
   5  -3  11   16.80    7.50
   5  -3  11   18.20    7.30
   5   2 -11   95.69   15.70
   5   2 -11   70.99   10.40
  -5  -2  11   63.89   10.40
  -5  -2  11   67.59    9.30
   4   2 -11   -0.60    2.10
   4   2 -11    4.30    6.90
   4   2 -11    1.10    1.80
   4   2 -11    8.10   10.20
  -4  -2  11    2.80    6.00
  -4  -2  11    0.90    4.30
   3   2 -11   19.30    9.50
   3   2 -11   10.30    6.80
   3   2 -11    8.90    4.30
   3   2 -11    7.10    2.90
  -3  -2  11   16.30    5.00
  -3  -2  11   14.30    6.30
   2   2 -11   10.80    8.60
   2   2 -11   10.40    4.80
   2   2 -11   12.00    3.20
  -2  -2  11    8.80    4.80
  -2  -2  11    9.90    5.70
   1   2 -11    8.10    3.60
   1   2 -11    3.70    2.10
   1   2 -11    3.10    4.90
   1   2 -11    5.40    8.00
  -1  -2  11    1.10    3.80
  -1  -2  11    4.50    3.80
  -1  -2  11    3.50    2.90
   0   2 -11   71.29    7.30
   0   2 -11   69.59    8.30
   0   2 -11   84.79   12.00
   0   2 -11   74.49    9.40
   0  -2  11   66.79    7.60
   0  -2  11   69.39    8.10
   0  -2  11   61.29    7.90
   0  -2  11   59.29    7.70
  -1   2 -11  376.06   30.00
  -1   2 -11  384.56   30.00
  -1   2 -11  409.76   30.20
  -1   2 -11  421.96   30.00
   1  -2  11  397.46   29.00
   1  -2  11  416.56   29.80
   1  -2  11  411.46   28.40
   1  -2  11  421.16   29.40
  -2   2 -11   79.49   10.00
  -2   2 -11   53.89    8.80
  -2   2 -11   79.59    9.70
  -2   2 -11   83.49    9.20
   2  -2  11   68.39    7.70
   2  -2  11   54.79    6.50
   2  -2  11   71.79    9.90
  -3   2 -11   15.40    5.40
   3  -2  11   20.70    2.80
   3  -2  11   23.80    6.60
   3  -2  11   11.60    2.70
   3  -2  11   19.00    6.70
  -4   2 -11   12.20    4.80
  -4   2 -11   25.90    7.90
   4  -2  11    7.40    7.10
   4  -2  11   21.60    7.70
  -5   2 -11   -5.50    5.10
   5  -2  11    7.00    7.20
   5  -2  11    5.20    7.20
   5   1 -11   59.59   10.60
   5   1 -11   71.49   14.50
  -5  -1  11   77.19    9.50
  -5  -1  11   70.99   12.00
   4   1 -11   49.60    9.40
   4   1 -11   63.29   12.60
  -4  -1  11   46.00    9.10
  -4  -1  11   52.89    8.20
   3   1 -11   10.70    6.20
   3   1 -11   13.00    9.20
   3   1 -11    8.60    4.10
   3   1 -11    3.40    2.90
  -3  -1  11   13.40    6.10
  -3  -1  11    3.30    3.90
   2   1 -11   28.40    9.60
   2   1 -11   21.30    4.00
   2   1 -11   15.50    5.30
  -2  -1  11   16.60    4.90
  -2  -1  11   19.10    5.90
   1   1 -11   32.10    8.80
   1   1 -11   21.40    3.80
   1   1 -11   19.40    5.70
   1   1 -11   26.00    5.20
  -1  -1  11   24.80    5.30
  -1  -1  11   23.40    5.30
   0   1 -11   46.80    8.20
   0   1 -11   40.90    7.10
   0   1 -11   49.00    6.10
   0  -1  11   38.40    6.30
   0  -1  11   59.59    7.50
   0  -1  11   36.90    5.50
   0  -1  11   36.50    5.40
  -1   1 -11  188.28   17.20
  -1   1 -11  235.18   18.20
  -1   1 -11  204.38   17.90
  -1   1 -11  227.28   17.80
   1  -1  11  205.68   15.60
   1  -1  11  227.48   17.10
   1  -1  11  221.98   18.20
   1  -1  11  220.78   16.50
  -2   1 -11   18.00    5.80
  -2   1 -11   18.10    6.20
  -2   1 -11    3.30    5.00
   2  -1  11    6.90    2.90
   2  -1  11   21.20    6.40
   2  -1  11   12.80    4.30
  -3   1 -11   44.30    8.00
  -3   1 -11   55.39    7.90
   3  -1  11   57.79    4.90
   3  -1  11   51.79    4.80
   3  -1  11   57.39    9.10
   3  -1  11   60.29   10.00
  -4   1 -11   24.50    5.60
  -4   1 -11   22.80    7.00
   4  -1  11   19.20    6.40
   4  -1  11   31.60    8.00
  -5   1 -11    2.50    5.00
   5  -1  11    9.80    6.90
   5  -1  11   11.30    7.20
   5   0 -11   12.80   10.40
   5   0 -11   20.80    7.90
  -5   0  11    3.40    6.40
  -5   0  11   18.20    5.40
   4   0 -11   98.39    8.70
   4   0 -11  114.29   16.80
   4   0 -11   88.79   12.00
  -4   0  11  120.89   11.90
  -4   0  11  106.89   14.50
   3   0 -11    1.30    4.40
   3   0 -11    8.00    6.50
   3   0 -11    2.10    2.80
   3   0 -11    3.00    9.00
  -3   0  11    0.60    4.60
  -3   0  11   -2.20    5.50
   2   0 -11   22.70    6.00
   2   0 -11   28.30    3.90
   2   0 -11   16.50    4.70
   2   0 -11   38.10    9.10
  -2   0  11   16.30    6.00
  -2   0  11   14.60    5.10
   1   0 -11   51.29    7.60
   1   0 -11   45.10   10.20
   1   0 -11   44.90    5.50
   1   0 -11   41.20    6.20
  -1   0  11   35.20    6.40
  -1   0  11   38.10    6.60
   0   0 -11  400.86   29.50
   0   0 -11  424.26   29.00
   0   0 -11  384.96   27.90
   0   0 -11  377.16   28.70
   0   0  11  409.26   28.80
   0   0  11  389.86   28.30
   0   0  11  346.07   28.40
  -1   0 -11   67.49    8.80
  -1   0 -11   62.69    8.20
  -1   0 -11   56.29    7.80
   1   0  11   60.09    7.80
   1   0  11   58.59    5.70
   1   0  11   56.49    6.20
  -2   0 -11   10.70    5.90
  -2   0 -11    9.70    5.60
   2   0  11    8.20    2.50
   2   0  11   10.20    6.00
   2   0  11   13.30    4.00
  -3   0 -11   10.80    5.60
   3   0  11   14.50    7.50
   3   0  11   19.40    7.10
   3   0  11   11.70    2.20
  -4   0 -11   15.60    6.20
  -4   0 -11    2.80    5.10
   4   0  11   15.00    7.10
   5  -1 -11    7.60    6.80
   4  -1 -11    3.40    6.60
   4  -1 -11    1.20    3.10
   4  -1 -11    3.10    3.00
   4  -1 -11   12.60    8.80
  -4   1  11    3.60    5.00
  -4   1  11    3.30    5.60
   3  -1 -11   10.90    6.30
   3  -1 -11   -1.40    4.40
   3  -1 -11   -5.40    8.30
   3  -1 -11   -1.10    2.70
   3  -1 -11    5.40    3.10
  -3   1  11    3.70    4.40
  -3   1  11    3.60    5.80
   2  -1 -11   30.50    6.70
   2  -1 -11   41.00    9.80
   2  -1 -11   36.80    6.20
   2  -1 -11   46.50    8.60
  -2   1  11   42.80    6.90
  -2   1  11   37.50    7.30
   1  -1 -11   27.50    6.10
   1  -1 -11   26.30    7.40
   1  -1 -11   31.20    4.90
  -1   1  11   14.00    5.10
  -1   1  11   19.40    5.00
   0  -1 -11   83.39    8.40
   0  -1 -11  105.69   11.20
   0   1  11   78.09    9.40
   0   1  11   80.99    8.90
  -1  -1 -11   -1.70    4.80
  -1  -1 -11    9.40    5.30
  -1  -1 -11   -0.60    5.00
   1   1  11    3.20    3.80
   1   1  11    5.30    3.90
   1   1  11    2.30    2.10
  -2  -1 -11   17.90    5.40
   2   1  11   13.60    2.90
   2   1  11   17.00    4.00
  -3  -1 -11   84.79   10.50
   3   1  11   85.79   12.10
  -4  -1 -11   14.30    5.40
   4   1  11    0.20    7.90
   4  -2 -11    5.80    4.40
   4  -2 -11   27.10    7.00
   4  -2 -11   22.40    4.40
   4  -2 -11   18.20    3.80
  -4   2  11   31.30    6.60
  -4   2  11   28.00    7.90
   3  -2 -11   71.99    8.90
   3  -2 -11   50.09    6.80
   3  -2 -11   66.69    9.60
  -3   2  11   81.29   11.20
  -3   2  11   70.89    9.00
   2  -2 -11   38.40    6.80
   2  -2 -11   36.10    8.20
   2  -2 -11   41.70    8.90
  -2   2  11   31.40    6.60
  -2   2  11   22.70    6.20
   1  -2 -11   -2.60    2.40
   1  -2 -11    3.10    5.20
  -1   2  11    4.40    4.20
  -1   2  11    7.50    4.50
   0  -2 -11  137.09   12.30
   0  -2 -11  155.68   12.70
   0  -2 -11  147.69   14.40
   0   2  11  145.79   12.90
   0   2  11  145.19   13.50
  -1  -2 -11   19.50    6.10
  -1  -2 -11   21.10    6.00
  -1  -2 -11   19.80    6.30
   1   2  11   22.50    4.30
   1   2  11   17.00    3.20
   1   2  11   24.20    5.60
  -2  -2 -11    9.60    5.40
   2   2  11    2.60    2.50
   2   2  11    7.00    3.80
  -3  -2 -11   61.59    9.10
   3   2  11  103.09   17.60
  -4  -2 -11   -0.20    7.60
   4   2  11   14.40    7.80
   4  -3 -11   10.30    4.30
   4  -3 -11   -6.30    4.20
   4  -3 -11   10.50    3.80
   4  -3 -11    9.30    7.00
  -4   3  11   24.00    7.50
  -4   3  11   28.10    6.20
   3  -3 -11   41.40    7.30
   3  -3 -11   38.10    5.80
   3  -3 -11   42.20    8.30
  -3   3  11   48.20    8.50
  -3   3  11   52.39    8.60
   2  -3 -11   11.80    5.70
  -2   3  11   13.60    5.50
  -2   3  11   11.80    5.50
   1  -3 -11   -1.50    5.00
   1  -3 -11    8.80    3.10
  -1   3  11    2.20    4.60
  -1   3  11   -0.60    4.30
   0  -3 -11   29.50    5.40
   0  -3 -11   39.50    7.60
   0   3  11   53.29    7.30
   0   3  11   36.70    5.80
  -1  -3 -11    6.70    4.60
  -1  -3 -11    8.20    5.70
   1   3  11    6.40    3.50
   1   3  11   15.40    4.80
   1   3  11    8.40    2.90
  -2  -3 -11   33.30    7.40
   2   3  11   40.60    5.50
   2   3  11   32.20    4.60
  -3  -3 -11   12.90    9.50
   3   3  11   31.20    9.30
   4   3  11   37.80    9.80
   4  -4 -11    9.30    7.20
   4  -4 -11    9.10    4.80
   4  -4 -11    7.40    4.60
  -4   4  11   25.00    7.20
  -4   4  11   13.50    6.50
   3  -4 -11   13.10    5.90
   3  -4 -11   14.00    6.40
  -3   4  11   33.20    6.60
  -3   4  11   22.00    6.40
   2  -4 -11    6.20    5.20
   2  -4 -11   12.00    6.00
  -2   4  11    2.70    5.20
  -2   4  11    3.90    5.40
   1  -4 -11   24.90    4.10
   1  -4 -11   42.00    7.20
  -1   4  11   20.10    5.80
  -1   4  11   39.50    6.80
   0  -4 -11    6.30    4.10
   0  -4 -11   16.30    7.30
   0   4  11    8.40    3.90
   0   4  11    8.10    5.10
  -1  -4 -11   23.50    7.40
   1   4  11   25.00    4.30
   1   4  11   22.50    5.70
  -2  -4 -11   15.40    6.10
   2   4  11   12.40    4.40
   2   4  11    8.10    3.40
  -3  -4 -11   61.19    8.90
   3   4  11   54.99   11.20
   3  -5 -11   13.50    5.60
   3  -5 -11   18.40    6.80
  -3   5  11   17.20    5.80
  -3   5  11    5.90    6.00
   2  -5 -11   83.59   10.60
   2  -5 -11   96.79   11.60
  -2   5  11   89.89   11.10
  -2   5  11   80.49   12.10
   1  -5 -11   29.30    6.90
   1  -5 -11   23.80    7.10
   1  -5 -11   23.40    4.80
  -1   5  11   23.70    6.30
  -1   5  11   24.80    6.80
   0  -5 -11    9.50    5.20
   0  -5 -11    9.60    5.80
   0   5  11    8.60    5.50
   0   5  11   13.30    4.70
  -1  -5 -11   29.60    6.80
   1   5  11   17.10    5.80
   1   5  11   17.20    3.90
  -2  -5 -11   12.20    5.30
   2   5  11    4.40    3.20
  -3  -5 -11    7.40    5.60
   3   5  11   21.00    9.30
   3  -6 -11   12.00    5.90
   3  -6 -11   23.10    6.60
  -3   6  11   13.50    7.10
  -3   6  11   15.20    6.00
   2  -6 -11   31.50    7.60
   2  -6 -11   48.30    7.90
  -2   6  11   37.50    8.00
  -2   6  11   44.30    8.60
   1  -6 -11   61.29    8.80
   1  -6 -11   37.50    7.70
   1  -6 -11   31.90    6.40
  -1   6  11   51.59    8.30
  -1   6  11   46.00    8.20
   0  -6 -11    8.30    5.70
   0   6  11    4.20    4.70
   0   6  11    8.60    6.00
  -1  -6 -11   11.70    5.10
   1   6  11   10.40    3.50
   1   6  11   15.90    5.30
  -2  -6 -11   27.60    6.30
   2   6  11   29.50    5.10
   2  -7 -11    3.30    6.00
   2  -7 -11   12.30    5.50
  -2   7  11    8.50    5.50
  -2   7  11    9.10    6.30
   1  -7 -11   70.49    9.20
   1  -7 -11   60.59    9.70
  -1   7  11   56.49    9.60
  -1   7  11   68.59    9.80
   0  -7 -11   13.10    6.20
   0   7  11   14.70    5.90
   0   7  11    1.70    5.40
  -1  -7 -11   30.00    7.40
   1   7  11   31.40    5.80
   1   7  11   40.20    7.20
   0  -8 -11   -1.10    5.60
   1  13 -12   66.79   15.90
   1  13 -12   45.80    8.70
  -1 -13  12   46.30    7.60
  -1 -13  12   60.89    8.00
   0  13 -12   21.30    7.40
   0  13 -12   22.30    4.60
   0 -13  12   13.30    5.10
   0 -13  12   18.50    5.30
  -1  13 -12   18.80    7.40
   1 -13  12   17.60    5.80
   1 -13  12   13.20    8.30
   1 -13  12   18.10    5.80
   2 -13  12   14.90    5.80
   2  12 -12   62.69   15.30
   2  12 -12   41.60    7.60
  -2 -12  12   28.80    6.20
  -2 -12  12   38.00    5.70
   1  12 -12   21.80    6.20
   1  12 -12   36.90   13.40
  -1 -12  12   17.20    4.60
  -1 -12  12   20.00    5.40
   0  12 -12  -10.30    4.60
   0  12 -12   -0.10    5.70
   0 -12  12   20.70    4.60
   0 -12  12    4.30    4.00
  -1  12 -12   14.20    6.50
  -1  12 -12   -6.10    7.10
   1 -12  12    9.20    5.50
   1 -12  12    5.70    4.80
   1 -12  12    2.20    7.30
  -2  12 -12    7.90    6.90
   2 -12  12   10.50    4.50
   2 -12  12    2.50    5.20
   2 -12  12   10.70    6.80
   3  11 -12    2.00    4.00
   3  11 -12   27.20   12.40
  -3 -11  12   10.30    4.60
   2  11 -12   17.30   12.00
   2  11 -12   10.60    6.20
  -2 -11  12    4.60    2.80
  -2 -11  12    3.70    4.40
   1  11 -12   -1.50   11.70
   1  11 -12    7.30    5.80
  -1 -11  12   13.30    3.90
  -1 -11  12   -3.10    4.40
   0  11 -12   -3.60    5.50
   0 -11  12   11.00    4.50
   0 -11  12    5.40    4.40
  -1  11 -12   12.00    6.60
   1 -11  12    0.40    4.60
   1 -11  12    9.20    6.60
   1 -11  12    1.80    4.90
  -2  11 -12    1.40    6.40
   2 -11  12   10.10    4.70
   2 -11  12    2.10    5.20
   2 -11  12   -4.40    5.80
  -3  11 -12   54.89    8.80
   3 -11  12   50.39    8.40
   3 -11  12   64.49    8.30
   3 -11  12   48.80    9.80
   3  10 -12   20.80   13.30
   3  10 -12    7.50    4.10
   3  10 -12   16.90    4.70
  -3 -10  12   17.80    5.40
   2  10 -12    9.50   12.10
   2  10 -12    6.30    3.80
   2  10 -12    3.60    5.90
  -2 -10  12    3.30    4.10
   1  10 -12   10.10    6.70
   1  10 -12    1.30   12.50
  -1 -10  12   11.20    3.60
  -1 -10  12    6.00    4.80
   0  10 -12   31.20    7.30
   0 -10  12   18.50    5.90
   0 -10  12   22.30    5.00
   0 -10  12   25.90    7.50
  -1  10 -12   23.40    7.20
   1 -10  12   25.50    5.80
   1 -10  12   32.70   10.80
   1 -10  12   21.30    5.60
  -2  10 -12    1.20    5.70
   2 -10  12    4.60    6.60
   2 -10  12    8.80    4.50
   2 -10  12   10.10    5.20
  -3  10 -12    9.90    5.60
   3 -10  12   23.20    6.70
   3 -10  12    9.70    7.20
   3 -10  12   12.30    6.20
   4   9 -12   -7.20   10.50
   4   9 -12    5.90    5.00
  -4  -9  12    5.30    3.70
   3   9 -12   -5.70   11.70
   3   9 -12    0.00    3.60
   3   9 -12    3.70    4.20
  -3  -9  12    5.20    4.30
   2   9 -12   19.90    5.10
   2   9 -12   48.00   14.20
   2   9 -12   44.90    7.50
   2   9 -12   32.90    5.20
  -2  -9  12   37.10    6.70
  -2  -9  12   23.70    4.70
   1   9 -12   44.20    8.00
  -1  -9  12   47.90    5.50
   0   9 -12   68.59    9.50
   0  -9  12   48.80    8.00
   0  -9  12   70.79    9.30
   0  -9  12   71.59    8.20
  -1   9 -12   43.60    9.10
   1  -9  12   40.60    6.70
   1  -9  12   36.80    6.50
   1  -9  12   47.70    8.40
  -2   9 -12    2.70    6.00
   2  -9  12   18.70    5.90
   2  -9  12    4.40    5.50
   2  -9  12    2.10    4.10
  -3   9 -12   19.40    6.60
   3  -9  12   20.60    7.60
   3  -9  12   28.50    5.50
   3  -9  12   28.90    6.40
  -4   9 -12   15.50    6.40
   4  -9  12   23.80    7.90
   4  -9  12   15.70    3.20
   4  -9  12   23.20    6.90
   4   8 -12    5.40   11.00
   4   8 -12    3.00    5.30
  -4  -8  12   -7.20    5.00
  -4  -8  12    4.50    3.90
   3   8 -12    7.50    6.00
   3   8 -12   -4.00    3.10
   3   8 -12    6.40   11.50
   3   8 -12    6.30    3.60
  -3  -8  12    4.50    4.00
   2   8 -12   49.60    8.10
   2   8 -12   38.90    5.50
   2   8 -12   50.19   16.60
   2   8 -12   67.59    8.60
  -2  -8  12   50.09    7.40
  -2  -8  12   60.39    7.60
   1   8 -12   66.39    9.10
   1   8 -12   72.79   15.70
  -1  -8  12   71.09    6.30
  -1  -8  12   46.90    6.80
  -1  -8  12   73.89    8.80
  -1  -8  12   51.29    7.80
   0   8 -12   10.50    5.80
   0  -8  12   21.50    4.70
   0  -8  12   19.70    6.20
   0  -8  12   17.90    5.20
   0  -8  12   11.50    6.30
  -1   8 -12   57.19    8.70
   1  -8  12   55.29    8.70
   1  -8  12   44.10    7.10
   1  -8  12   60.79    7.70
   1  -8  12   62.29    7.60
  -2   8 -12   20.70   10.90
   2  -8  12   19.70    6.60
   2  -8  12   16.00    4.30
   2  -8  12   21.40    5.90
   2  -8  12   17.40    5.10
  -3   8 -12   13.40    5.50
   3  -8  12   -5.60    2.90
   3  -8  12    6.10    4.30
   3  -8  12    5.00    3.90
   3  -8  12   10.00    5.00
   3  -8  12    2.10    6.80
  -4   8 -12    6.40    4.90
   4  -8  12   20.50    7.60
   4  -8  12   -8.80    3.90
   4  -8  12    7.80    5.60
   4  -8  12    8.30    5.00
   4  -8  12   -0.70    4.90
   4   7 -12   36.80   13.00
   4   7 -12   36.90    8.00
  -4  -7  12   12.60    7.70
  -4  -7  12   31.10    5.60
   3   7 -12   26.60   11.50
   3   7 -12    2.50    6.20
   3   7 -12    7.20    3.60
  -3  -7  12    6.10    5.40
   2   7 -12    4.90   11.00
   2   7 -12    9.90    3.20
   2   7 -12   10.10    5.30
  -2  -7  12    5.60    4.30
  -2  -7  12   13.30    4.20
   1   7 -12   91.99   11.50
   1   7 -12  122.39   18.00
  -1  -7  12   74.59   10.30
  -1  -7  12   99.09   10.10
  -1  -7  12   98.99    8.60
   0   7 -12   62.79    8.60
   0  -7  12   66.59    7.70
   0  -7  12   45.90    7.10
   0  -7  12   52.69    7.70
   0  -7  12   66.59    8.00
  -1   7 -12    3.20    5.40
   1  -7  12    5.10    3.10
   1  -7  12    4.80    4.10
   1  -7  12   10.80    5.60
   1  -7  12    3.40    4.50
  -2   7 -12   21.20    6.30
   2  -7  12   21.50    7.10
   2  -7  12   27.90    4.20
   2  -7  12   24.10    5.20
   2  -7  12   25.60    6.10
   2  -7  12   15.50    4.20
  -3   7 -12   10.50    6.10
   3  -7  12    4.70    6.20
   3  -7  12    6.10    6.10
   3  -7  12    2.10    2.90
   3  -7  12    8.10    3.20
   3  -7  12    9.70    4.10
  -4   7 -12   27.20    6.70
   4  -7  12   34.70    8.50
   4  -7  12   24.80    6.90
   4   6 -12   51.29   12.30
   4   6 -12   32.00   10.00
  -4  -6  12   48.20    6.90
  -4  -6  12   30.00    8.30
   3   6 -12    1.50    2.70
   3   6 -12    4.40    4.00
   3   6 -12    3.10   10.30
   3   6 -12    6.30    6.50
  -3  -6  12   -3.30    3.00
  -3  -6  12    5.50    4.70
   2   6 -12   31.20   11.30
   2   6 -12   19.70    6.00
   2   6 -12   18.00    4.30
  -2  -6  12   18.50    5.00
  -2  -6  12   23.40    5.50
  -2  -6  12   28.40    4.60
   1   6 -12    2.90   10.40
   1   6 -12    9.20    3.40
   1   6 -12    6.60    5.40
  -1  -6  12   -1.10    4.00
  -1  -6  12    9.30    3.60
   0   6 -12   11.20    6.00
   0  -6  12   23.90    4.40
   0  -6  12   23.00    5.20
   0  -6  12   10.20    4.60
  -1   6 -12   13.30    5.70
  -1   6 -12   16.50    4.10
   1  -6  12   12.80    4.60
   1  -6  12   12.30    4.90
   1  -6  12   13.20    3.80
   1  -6  12   13.30    3.30
   1  -6  12   23.30    6.10
  -2   6 -12   14.80    6.50
  -2   6 -12   18.60    6.00
   2  -6  12    8.70    3.30
   2  -6  12   14.60    5.70
   2  -6  12    9.90    6.00
   2  -6  12   13.50    4.40
   2  -6  12   15.90    3.90
  -3   6 -12    4.80    5.50
   3  -6  12    3.30    2.10
   3  -6  12   10.50    7.30
   3  -6  12   13.40    6.40
   3  -6  12   10.30    3.70
   3  -6  12    7.90    3.10
  -4   6 -12   31.50    6.50
   4  -6  12   29.10    6.90
   4  -6  12   37.30    8.30
   4   5 -12   18.20   10.60
   4   5 -12   14.50    7.70
  -4  -5  12    4.60    6.40
  -4  -5  12    9.20    4.90
   3   5 -12  101.09   12.60
   3   5 -12   96.09    8.80
   3   5 -12  129.79   10.60
  -3  -5  12   92.59   12.90
  -3  -5  12   88.79   11.00
   2   5 -12    6.60    9.60
   2   5 -12    2.10    4.60
   2   5 -12   11.80    3.20
  -2  -5  12    4.20    2.90
  -2  -5  12    5.70    4.40
  -2  -5  12    1.80    5.20
   1   5 -12   54.19    7.30
   1   5 -12   64.19    8.70
   1   5 -12   75.89   13.20
  -1  -5  12   58.69    7.90
  -1  -5  12   61.29    7.70
   0   5 -12   71.19    9.00
   0   5 -12   49.10    6.20
   0  -5  12   64.79    8.20
   0  -5  12   77.49    8.80
  -1   5 -12   36.40    5.60
  -1   5 -12   43.50    7.60
   1  -5  12   49.10    7.70
   1  -5  12   48.60    5.60
   1  -5  12   55.39    7.10
   1  -5  12   46.10    6.40
   1  -5  12   41.90    5.70
  -2   5 -12   11.00    5.80
  -2   5 -12   -0.90    4.80
   2  -5  12   -1.00    3.70
   2  -5  12   -0.70    2.20
   2  -5  12    4.80    5.90
   2  -5  12    5.70    4.70
   2  -5  12    0.80    4.80
   2  -5  12    9.90    3.20
  -3   5 -12    2.10    5.60
   3  -5  12   10.90    3.10
   3  -5  12   14.10    3.80
   3  -5  12   14.60    9.90
   3  -5  12    9.50    6.10
   3  -5  12   14.00    3.20
  -4   5 -12   25.00    6.80
   4  -5  12   25.60    6.80
   4  -5  12   25.80    8.10
   4   4 -12    1.90   10.80
   4   4 -12    9.50    7.20
  -4  -4  12    2.00    5.90
  -4  -4  12    2.20    4.10
   3   4 -12   22.70    9.80
   3   4 -12   18.80    7.60
   3   4 -12   16.80    4.90
   3   4 -12   16.60    3.40
  -3  -4  12   17.80    5.10
   2   4 -12   23.10    6.10
   2   4 -12   20.70    4.30
   2   4 -12   24.60   10.30
  -2  -4  12   30.40    5.70
  -2  -4  12   15.50    6.50
   1   4 -12   51.19    8.20
   1   4 -12   52.09    6.80
   1   4 -12   70.79   11.80
  -1  -4  12   65.49    7.80
  -1  -4  12   55.39    7.10
   0   4 -12  336.37   25.80
   0   4 -12  404.36   29.60
   0   4 -12  414.16   27.90
   0  -4  12  306.37   26.50
   0  -4  12  377.16   30.60
   0  -4  12  370.66   27.00
  -1   4 -12   37.00    6.00
  -1   4 -12   23.80    6.80
   1  -4  12   40.40    6.80
   1  -4  12   23.40    3.70
   1  -4  12   33.00    5.50
   1  -4  12   25.40    4.70
  -2   4 -12   29.90    6.00
  -2   4 -12   13.20    6.00
   2  -4  12   18.20    2.30
   2  -4  12   16.50    3.50
   2  -4  12   11.40    2.40
   2  -4  12   24.10    4.20
   2  -4  12   25.10    4.70
   2  -4  12   27.60    6.60
  -3   4 -12    1.60    5.60
   3  -4  12    4.40    4.00
   3  -4  12    2.40    2.20
   3  -4  12   -9.80    9.10
   3  -4  12    7.00    3.00
  -4   4 -12    0.30    7.60
   4  -4  12   -1.10    6.00
   4  -4  12    8.70    4.50
   5   3 -12   47.60    9.70
   4   3 -12   14.20    7.30
   4   3 -12    3.60    2.70
   4   3 -12   14.50    9.60
  -4  -3  12    9.80    4.80
  -4  -3  12    8.10    6.60
   3   3 -12   15.10   10.10
   3   3 -12    8.00    3.10
   3   3 -12   13.30    7.20
   3   3 -12   17.50    4.80
  -3  -3  12   10.90    5.00
  -3  -3  12   14.10    7.20
   2   3 -12   61.39    8.20
   2   3 -12   74.39   12.60
   2   3 -12   55.89    7.60
  -2  -3  12   62.29    9.00
  -2  -3  12   52.59    7.80
   1   3 -12   17.80    5.90
   1   3 -12   14.30    9.20
   1   3 -12    3.60    3.50
  -1  -3  12   12.90    3.30
  -1  -3  12    3.40    4.60
  -1  -3  12    7.90    4.90
   0   3 -12    0.50    5.00
   0   3 -12    1.50    8.20
   0   3 -12    0.60    2.90
   0  -3  12    1.70    4.70
   0  -3  12    7.40    3.40
   0  -3  12   10.20    4.40
   0  -3  12    5.90    3.90
  -1   3 -12    9.90    5.20
  -1   3 -12   16.60    6.20
   1  -3  12    9.50    3.70
   1  -3  12   13.70    2.70
   1  -3  12   18.80    5.80
   1  -3  12   15.20    4.50
  -2   3 -12    4.70    5.20
  -2   3 -12    5.30    4.50
   2  -3  12    9.80    2.90
   2  -3  12   -1.00    5.40
   2  -3  12   -0.10    3.70
   2  -3  12    6.70    5.80
  -3   3 -12   15.60    6.30
   3  -3  12    5.60    2.80
   3  -3  12   14.10    7.60
   3  -3  12   16.80    2.90
   3  -3  12    8.40    5.10
  -4   3 -12   20.20    6.00
   4  -3  12   18.30    5.30
   4  -3  12   19.10    6.70
   4   2 -12   -2.10    2.60
   4   2 -12    0.40    2.50
   4   2 -12    0.70    7.00
   4   2 -12   13.20    9.50
  -4  -2  12    8.90    4.30
  -4  -2  12   -1.60    6.10
   3   2 -12   11.50   11.00
   3   2 -12    9.60    3.30
   3   2 -12   -9.30    7.70
   3   2 -12    5.30    4.60
  -3  -2  12    8.50    4.60
  -3  -2  12    2.00    7.30
   2   2 -12   74.09    9.10
   2   2 -12   78.89   12.60
   2   2 -12   50.99    7.30
  -2  -2  12   68.89    8.30
  -2  -2  12   55.89    9.10
   1   2 -12    9.50    2.50
   1   2 -12   18.20    4.00
   1   2 -12   24.40    8.50
   1   2 -12   14.10    5.70
  -1  -2  12   16.00    5.10
  -1  -2  12   13.60    4.60
   0   2 -12   14.30    5.90
   0   2 -12   20.80    7.70
   0   2 -12   12.40    3.80
   0  -2  12   14.00    3.50
   0  -2  12   12.60    3.90
   0  -2  12   11.00    5.20
   0  -2  12   29.00    5.50
  -1   2 -12  186.18   14.90
  -1   2 -12  196.68   16.60
   1  -2  12  191.18   15.10
   1  -2  12  168.58   13.60
   1  -2  12  197.28   15.70
   1  -2  12  168.28   14.70
  -2   2 -12   14.80    6.40
   2  -2  12   15.70    3.30
   2  -2  12   18.60    4.90
   2  -2  12   27.50    6.60
  -3   2 -12   78.19    9.70
   3  -2  12   73.99   11.10
   3  -2  12   78.79   15.70
  -4   2 -12    3.60    8.10
  -4   2 -12   17.40    5.90
   4  -2  12   23.40    7.70
   4  -2  12   16.30    6.60
   4   1 -12  139.69   14.70
   4   1 -12  118.99   10.20
   4   1 -12  148.29   18.20
  -4  -1  12  126.09   12.60
  -4  -1  12  101.89   14.30
   3   1 -12    7.60    8.70
   3   1 -12   12.20    4.90
   3   1 -12   10.60    3.50
   3   1 -12   10.00    7.40
  -3  -1  12    9.10    7.80
  -3  -1  12    5.60    4.90
   2   1 -12   18.00    5.50
   2   1 -12   29.70    9.60
   2   1 -12   15.50    4.10
  -2  -1  12   22.10    6.10
  -2  -1  12   16.60    5.40
   1   1 -12    4.90    7.40
   1   1 -12   -1.80    2.80
   1   1 -12    0.60    4.90
  -1  -1  12   -1.80    3.60
  -1  -1  12   10.00    4.00
   0   1 -12   98.69   11.50
   0   1 -12   80.79    8.10
   0   1 -12   79.29   10.30
   0  -1  12   69.69    8.60
   0  -1  12   64.29    9.30
   0  -1  12   65.69    8.90
  -1   1 -12   33.80    7.50
  -1   1 -12   30.60    5.50
  -1   1 -12   13.60    5.30
  -1   1 -12   29.10    6.50
   1  -1  12   34.50    6.70
   1  -1  12   30.20    5.40
   1  -1  12   25.20    4.80
   1  -1  12   21.60    3.20
  -2   1 -12   18.00    5.90
   2  -1  12   16.50    4.40
   2  -1  12   17.50    3.50
   2  -1  12   18.50    6.60
  -3   1 -12    5.40    5.70
  -3   1 -12    8.10    5.70
   3  -1  12    1.90    2.10
   3  -1  12    4.90    2.30
   3  -1  12   15.10    7.30
  -4   1 -12   93.39   12.10
  -4   1 -12   88.69   13.00
   4  -1  12   72.29   12.90
   4  -1  12  106.19   12.50
   4   0 -12   60.39    7.00
   4   0 -12   68.29   13.30
   4   0 -12   71.19   10.40
  -4   0  12   87.29   12.20
  -4   0  12   70.19    9.30
   3   0 -12   19.80    6.70
   3   0 -12    6.20    3.80
   3   0 -12   18.80    9.00
   3   0 -12   11.90    5.20
  -3   0  12   14.50    5.00
  -3   0  12    8.30    6.10
   2   0 -12    5.00    8.10
   2   0 -12    3.40    4.90
   2   0 -12   -0.50    2.70
  -2   0  12    5.30    4.70
  -2   0  12    3.60    5.00
   1   0 -12   23.40    6.50
   1   0 -12   37.40    8.70
   1   0 -12   33.10    4.60
  -1   0  12   30.30    6.00
  -1   0  12   29.60    6.30
   0   0 -12  273.37   20.90
   0   0 -12  310.37   22.00
   0   0 -12  298.77   22.60
   0   0 -12  244.18   20.40
   0   0  12  285.27   21.70
   0   0  12  269.47   21.00
  -1   0 -12   41.30    6.80
  -1   0 -12   49.30    8.00
  -1   0 -12   40.20    6.70
   1   0  12   45.00    6.20
   1   0  12   34.60    4.50
  -2   0 -12   33.20    7.10
   2   0  12   32.20    5.60
   2   0  12   30.30    4.20
  -3   0 -12  -10.10    4.90
   3   0  12   12.60    7.90
   3   0  12    0.50    1.80
   3   0  12    1.30    2.00
  -4   0 -12    8.70    5.40
   4   0  12    5.00    7.00
   4  -1 -12   13.10    3.90
   4  -1 -12   17.40    7.90
  -4   1  12   10.90    6.00
  -4   1  12   22.00    6.20
   3  -1 -12   42.30    9.70
   3  -1 -12   36.30    6.70
   3  -1 -12   40.30    8.00
   3  -1 -12   28.80    4.00
  -3   1  12   31.90    7.60
  -3   1  12   38.10    7.50
   2  -1 -12    2.50    7.90
   2  -1 -12   10.40    5.50
  -2   1  12   15.70    8.10
  -2   1  12   11.00    5.50
   1  -1 -12    0.10    5.30
   1  -1 -12    6.60    3.70
   1  -1 -12   10.30    6.40
  -1   1  12    6.30    4.40
  -1   1  12    9.50    5.10
   0  -1 -12  183.58   15.60
   0  -1 -12  225.78   18.10
   0  -1 -12  206.68   16.10
   0   1  12  201.18   16.40
   0   1  12  194.78   16.10
  -1  -1 -12   23.70    6.50
  -1  -1 -12   10.10    8.70
  -1  -1 -12   36.80    7.00
   1   1  12   15.40    4.10
   1   1  12   12.20    2.80
   1   1  12   21.00    5.30
  -2  -1 -12   29.80    6.90
   2   1  12    9.50    3.20
   2   1  12   13.20    4.30
  -3  -1 -12   13.10    7.20
   3   1  12   33.00   16.10
  -4  -1 -12    9.60    5.40
   4   1  12   12.70    8.40
   4  -2 -12   -4.70    3.00
   4  -2 -12    5.00    3.90
   4  -2 -12   13.00    6.20
  -4   2  12   17.80    5.50
  -4   2  12    8.50    6.70
   3  -2 -12   11.00    6.50
   3  -2 -12    3.60    5.00
   3  -2 -12   -4.60    3.90
  -3   2  12    2.00    5.00
  -3   2  12   -0.40    5.50
   2  -2 -12   13.40    6.50
   2  -2 -12    5.90    6.70
  -2   2  12    6.80    5.10
  -2   2  12    2.80    5.10
   1  -2 -12   38.40    7.50
   1  -2 -12   25.90    3.90
  -1   2  12   31.00    6.30
  -1   2  12   28.60    7.50
   0  -2 -12   30.60    5.30
   0  -2 -12   22.50    5.30
   0  -2 -12   29.50    7.10
   0   2  12   20.80    4.70
   0   2  12   25.90    6.00
  -1  -2 -12   -4.20    4.20
  -1  -2 -12    2.50    5.30
   1   2  12    4.90    2.50
   1   2  12   -0.40    4.40
   2   2  12    1.60    3.90
   2   2  12   -0.60    2.60
  -3  -2 -12   11.30    6.20
   3   2  12    9.00    8.10
  -4  -2 -12    3.20    5.20
   4   2  12   10.30    8.20
   4  -3 -12   -5.90    3.70
   4  -3 -12    9.00    6.30
   4  -3 -12   -3.50    4.20
  -4   3  12    0.80    6.30
  -4   3  12   15.30    5.20
   3  -3 -12   31.20    7.00
   3  -3 -12   44.70    8.70
   3  -3 -12   30.60    5.20
  -3   3  12   49.70    8.00
  -3   3  12   44.10    8.00
   2  -3 -12    4.10    5.30
   2  -3 -12   15.40    7.30
  -2   3  12    6.20    5.40
  -2   3  12   13.50    5.60
   1  -3 -12   17.00    5.40
   1  -3 -12    6.00    3.10
  -1   3  12    8.00    4.80
  -1   3  12    4.80    4.50
   0  -3 -12   -3.30    3.60
   0  -3 -12   -0.90    5.40
   0   3  12    6.90    5.60
   0   3  12   -6.00    2.70
  -1  -3 -12   12.00    5.70
  -1  -3 -12   12.90    6.00
   1   3  12   17.50    5.30
   1   3  12   15.80    3.30
  -2  -3 -12   31.50    7.40
   2   3  12   35.20    5.60
  -3  -3 -12   53.29    8.60
   3   3  12   60.59   10.40
   3  -4 -12   15.70    6.50
   3  -4 -12    7.70    5.90
  -3   4  12   10.60    5.30
  -3   4  12    1.60    5.60
   2  -4 -12   29.40    6.70
   2  -4 -12   32.00    7.70
  -2   4  12   36.60    7.80
  -2   4  12   31.80    7.30
   1  -4 -12   41.30    6.00
   1  -4 -12   43.00    7.80
  -1   4  12   57.39    8.80
  -1   4  12   46.70    7.50
   0  -4 -12   42.30    6.60
   0  -4 -12   32.80    8.00
   0   4  12   38.40    6.10
   0   4  12   58.19    8.30
  -1  -4 -12    1.40    5.70
   1   4  12    8.90    4.40
   1   4  12    7.20    5.00
  -2  -4 -12    8.90    5.70
   2   4  12   17.20    4.80
  -3  -4 -12   -2.70    5.30
   3   4  12   17.00    8.70
   3  -5 -12    9.90    5.60
   3  -5 -12    6.50    6.10
  -3   5  12    4.60    5.30
  -3   5  12   -0.80    5.60
   2  -5 -12   42.90    7.40
   2  -5 -12   30.60    7.20
  -2   5  12   38.30    7.70
  -2   5  12   29.30    7.70
   1  -5 -12   59.49    9.10
   1  -5 -12   51.69    8.80
  -1   5  12   44.60    8.20
  -1   5  12   69.19    8.80
   0  -5 -12    1.80    4.70
   0  -5 -12   10.00    5.90
   0   5  12    3.60    3.80
   0   5  12   16.50    5.80
  -1  -5 -12   25.30    6.10
   1   5  12   23.00    4.20
   1   5  12   25.20    6.20
  -2  -5 -12   18.70    6.80
   2   5  12   26.70    5.00
   2  -6 -12   -3.30    5.60
   2  -6 -12    4.40    6.40
  -2   6  12   10.30    5.20
  -2   6  12    0.00    5.50
   1  -6 -12    6.80    6.10
   1  -6 -12    8.70    6.10
   1  -6 -12    7.80    4.90
  -1   6  12    0.30    4.80
  -1   6  12    4.60    5.70
   0  -6 -12   10.20    5.90
   0   6  12    8.70    5.10
   0   6  12   15.50    5.30
  -1  -6 -12   53.89    8.80
   1   6  12   55.89    7.50
   1   6  12   69.99    9.10
   0  -7 -12   -6.70    5.10
   0  -7 -12   -8.50    5.10
   1  13 -13   30.90    7.80
   1  13 -13   44.70   14.80
  -1 -13  13   38.50    5.80
   0  13 -13    3.20    5.80
   0 -13  13    1.90    4.40
   0 -13  13   -2.70    4.30
   0 -13  13   -4.00    7.10
  -1  13 -13    3.50    6.20
   1 -13  13   12.30    5.80
   1 -13  13   17.00    7.30
   1 -13  13    2.30    5.30
   2  12 -13   81.59   16.50
   2  12 -13   64.19    9.00
  -2 -12  13   49.30    7.70
   1  12 -13   25.90    6.80
   1  12 -13   27.70   13.70
  -1 -12  13   35.30    7.40
  -1 -12  13   26.50    4.80
   0  12 -13   10.30    6.40
   0  12 -13   -8.90    5.60
   0 -12  13    3.40    6.90
   0 -12  13    7.90    5.00
   0 -12  13    0.30    4.40
  -1  12 -13   13.30    6.40
   1 -12  13    5.60    6.70
   1 -12  13    6.60    6.80
   1 -12  13   -4.30    5.00
  -2  12 -13   18.20    8.00
   2 -12  13   11.60    6.00
   2 -12  13   18.40    5.40
   2 -12  13   18.80    7.20
   2  11 -13    5.30    3.80
   2  11 -13   16.80    6.60
   2  11 -13   20.40   14.30
  -2 -11  13   13.10    5.20
   1  11 -13   13.30   12.30
   1  11 -13    6.20    5.80
  -1 -11  13    8.60    7.40
  -1 -11  13    8.30    5.40
   0  11 -13   13.90    6.10
   0 -11  13    9.20    4.50
   0 -11  13   20.60    5.80
   0 -11  13    7.50    6.40
  -1  11 -13   25.00    7.30
   1 -11  13   51.99    8.60
   1 -11  13   21.70    5.90
   1 -11  13   28.90    6.30
  -2  11 -13   12.30    6.70
   2 -11  13   18.90    5.20
   2 -11  13    1.20    5.00
   2 -11  13   11.60    6.60
   3 -11  13   21.80    7.20
   3  10 -13    3.50    4.40
   3  10 -13    9.20   12.90
   3  10 -13   -1.00    4.50
  -3 -10  13    8.50    5.10
   2  10 -13   20.20    4.80
   2  10 -13   34.00   13.30
   2  10 -13   14.90    7.70
  -2 -10  13   20.80    5.60
   1  10 -13   10.80    6.00
   1  10 -13   -1.60   11.90
  -1 -10  13    7.20    5.20
  -1 -10  13    3.00    3.20
   0  10 -13   90.49   11.40
   0 -10  13   75.89   11.50
   0 -10  13   97.69    9.40
   0 -10  13   70.39    9.90
  -1  10 -13   24.50    6.80
   1 -10  13   26.60    7.80
   1 -10  13   17.60    5.60
   1 -10  13   24.20    5.20
  -2  10 -13    8.20    6.00
   2 -10  13   12.10    7.40
   2 -10  13    5.30    6.60
   2 -10  13    3.10    4.60
  -3  10 -13    9.80    6.20
   3 -10  13   12.60    4.70
   3 -10  13   -4.90    5.20
   3 -10  13   10.10    6.40
   3   9 -13   10.60   11.70
   3   9 -13   12.70    4.80
   3   9 -13   10.50    5.20
  -3  -9  13   13.30    4.80
   2   9 -13   28.00   13.20
   2   9 -13   21.80    6.60
   2   9 -13   27.60    7.60
  -2  -9  13   27.90    5.50
   1   9 -13   13.10   13.00
   1   9 -13    6.60    9.80
  -1  -9  13   -0.60    4.30
  -1  -9  13    4.10    2.70
  -1  -9  13    4.40    4.00
  -1  -9  13    5.30    5.50
   0   9 -13  317.07   23.40
   0  -9  13  248.78   22.10
   0  -9  13  304.37   21.30
   0  -9  13  265.97   22.40
  -1   9 -13   10.30    6.40
   1  -9  13   11.90    5.10
   1  -9  13    3.00    4.40
   1  -9  13    7.70    6.10
  -2   9 -13    0.60    5.70
   2  -9  13  -10.60    3.80
   2  -9  13    0.10    4.80
   2  -9  13    3.60    4.40
   2  -9  13    4.70    5.90
  -3   9 -13    2.50    6.00
   3  -9  13   10.80    4.70
   3  -9  13   10.20    5.50
   3  -9  13   11.00    6.90
   4   8 -13   18.10   12.10
   4   8 -13   10.90   13.40
  -4  -8  13    7.40    4.20
   3   8 -13   30.30   11.70
   3   8 -13   17.50    4.70
   3   8 -13    5.20    6.40
  -3  -8  13   16.90    5.60
   2   8 -13   10.90    6.00
   2   8 -13   18.20   11.60
  -2  -8  13   18.70    5.00
  -2  -8  13    4.70    4.30
  -2  -8  13   -7.90    4.40
   1   8 -13   13.70   16.40
   1   8 -13    6.60    5.80
  -1  -8  13    8.00    4.70
  -1  -8  13    2.40    3.20
  -1  -8  13   10.10    4.70
   0   8 -13   42.20   11.10
   0  -8  13   37.10    7.00
   0  -8  13   49.90    6.70
  -1   8 -13   39.80    8.00
   1  -8  13   33.60    6.10
   1  -8  13   35.50    6.40
   1  -8  13   29.30    7.40
  -2   8 -13    7.20    6.10
   2  -8  13   12.10    6.70
   2  -8  13    4.70    5.00
   2  -8  13    0.50    3.80
   2  -8  13   16.80    4.60
  -3   8 -13    8.60    5.20
   3  -8  13    1.60    4.20
   3  -8  13    4.50    6.20
   3  -8  13    8.10    5.50
  -4   8 -13   64.39    9.90
   4  -8  13   62.89    9.60
   4  -8  13   62.79    9.10
   4   7 -13   28.20   11.70
   4   7 -13   15.50    7.10
  -4  -7  13   15.30    4.80
  -4  -7  13   16.90    7.50
   3   7 -13    4.00    6.70
   3   7 -13   -1.50    3.50
   3   7 -13   13.60    9.80
   3   7 -13    5.00    4.90
  -3  -7  13    7.40    3.40
  -3  -7  13   12.10    4.70
   2   7 -13   25.20   12.40
   2   7 -13   13.80    5.90
  -2  -7  13    5.30    5.00
  -2  -7  13   13.60    4.80
  -2  -7  13   18.70    6.90
   1   7 -13   29.10    7.50
   1   7 -13   36.40   12.50
  -1  -7  13   27.70    5.60
  -1  -7  13   31.80    6.40
  -1  -7  13   23.20    5.00
   0   7 -13    7.10    6.00
   0  -7  13   13.40    3.20
   0  -7  13    7.20    3.90
   0  -7  13   10.40    4.30
   0  -7  13   18.90    5.00
   0  -7  13   11.60    5.40
  -1   7 -13   -5.80    5.40
   1  -7  13    0.60    5.40
   1  -7  13   -3.50    4.50
   1  -7  13   -4.00    3.80
   1  -7  13    8.20    3.40
  -2   7 -13   16.10    6.50
   2  -7  13    9.70    5.20
   2  -7  13   14.00    5.90
   2  -7  13   12.20    4.80
  -3   7 -13    2.20    5.80
   3  -7  13   14.50    4.10
   3  -7  13   14.60    6.70
   3  -7  13    9.10    5.60
   3  -7  13   -0.40    3.80
  -4   7 -13   40.40    7.90
   4  -7  13   48.90    8.90
   4  -7  13   44.70    8.00
   4   6 -13   12.40    7.50
   4   6 -13   18.10   12.40
  -4  -6  13   15.80    4.70
  -4  -6  13   10.80    7.20
   3   6 -13    7.60    6.80
   3   6 -13    1.30    4.60
   3   6 -13    4.10   10.30
   3   6 -13    3.00    3.60
  -3  -6  13    3.30    4.00
   2   6 -13    7.40    5.70
   2   6 -13   22.40   10.50
  -2  -6  13    8.20    3.60
  -2  -6  13   12.50    6.10
  -2  -6  13   10.70    4.50
   1   6 -13   52.19   12.20
   1   6 -13   27.10    7.00
  -1  -6  13   31.80    7.10
  -1  -6  13   25.80    6.00
   0   6 -13    4.10    5.60
   0  -6  13    3.90    4.40
   0  -6  13    6.90    5.20
  -1   6 -13   -2.10    3.40
  -1   6 -13    9.50    5.70
   1  -6  13    6.40    4.40
   1  -6  13    0.50    5.40
   1  -6  13    9.20    4.90
   1  -6  13    4.90    2.90
   2  -6  13   69.59    7.50
   2  -6  13   57.79    6.90
   2  -6  13   90.69   10.50
   2  -6  13   73.99   10.90
   2  -6  13   78.49    8.70
  -3   6 -13    2.10    5.70
   3  -6  13   10.00    5.80
   3  -6  13   -8.80    3.00
   3  -6  13    9.50    3.20
   3  -6  13   10.50    6.10
  -4   6 -13   20.10    6.50
   4  -6  13   12.60    7.20
   4  -6  13   12.90    6.90
   4   5 -13    6.80   10.00
   4   5 -13   19.60    7.70
  -4  -5  13   17.80    6.80
  -4  -5  13    6.50    4.70
   3   5 -13    7.20    7.30
   3   5 -13   13.30    5.10
   3   5 -13   21.60   10.50
  -3  -5  13   -1.50    6.40
  -3  -5  13    1.70    4.20
   2   5 -13    4.60    9.70
   2   5 -13    0.40    5.20
  -2  -5  13    6.70    4.70
   1   5 -13   93.49   14.70
   1   5 -13   88.19   10.60
  -1  -5  13   71.89    8.50
  -1  -5  13   75.89    9.50
   0   5 -13   82.89    7.70
   0   5 -13   88.99   14.80
   0   5 -13   81.69   10.90
   0  -5  13   86.29    9.60
   0  -5  13   72.29    9.60
  -1   5 -13    4.50    3.90
  -1   5 -13   10.00    5.90
   1  -5  13   14.90    4.80
   1  -5  13   15.20    3.60
   1  -5  13   11.60    5.40
  -2   5 -13   12.90    5.60
   2  -5  13   12.20    4.60
   2  -5  13    3.90    2.20
   2  -5  13   14.20    6.20
   2  -5  13    7.00    3.40
   2  -5  13   -3.80    2.60
  -3   5 -13    7.80    5.60
   3  -5  13    2.50    6.10
   3  -5  13    8.10    2.90
   3  -5  13    2.20    3.00
   3  -5  13   -1.10    6.60
   3  -5  13    2.20    5.60
  -4   5 -13   27.10    6.30
   4  -5  13   29.90    7.70
   4   4 -13   -3.00    4.80
   4   4 -13   12.90    4.20
   4   4 -13   -0.70    7.30
   4   4 -13    3.10   10.00
  -4  -4  13   -0.90    4.50
  -4  -4  13    0.30    6.30
   3   4 -13   45.70   14.20
   3   4 -13   35.80    6.30
   3   4 -13   26.60   10.70
  -3  -4  13   13.80    7.10
  -3  -4  13   28.80    6.00
   2   4 -13   -2.90    9.20
   2   4 -13    0.10    5.30
  -2  -4  13    2.90    5.60
  -2  -4  13  -10.80    3.90
   1   4 -13    2.80    8.90
   1   4 -13   13.00    5.40
  -1  -4  13   13.20    4.10
  -1  -4  13    7.00    4.90
  -1  -4  13   10.70    5.20
   0   4 -13  346.97   26.70
   0   4 -13  411.66   28.80
   0   4 -13  302.27   24.50
   0  -4  13  304.27   25.80
   0  -4  13  356.26   25.40
   0  -4  13  359.66   26.00
  -1   4 -13   29.80    7.40
  -1   4 -13   35.20    5.40
   1  -4  13   38.70    5.20
   1  -4  13   46.70    7.20
   1  -4  13   37.90    4.80
   1  -4  13   31.90    6.00
  -2   4 -13   16.20    6.60
   2  -4  13   23.70    5.00
   2  -4  13   20.60    6.50
   2  -4  13   21.00    5.10
   2  -4  13   19.10    3.80
  -3   4 -13   11.00    6.70
   3  -4  13   11.10    3.00
   3  -4  13   11.50    6.40
   3  -4  13    9.80    3.30
   3  -4  13   13.40    4.40
  -4   4 -13   16.60    5.80
   4  -4  13   18.40    6.60
   4  -4  13    8.30    5.10
   4   3 -13    5.40    6.30
   4   3 -13   16.90   10.80
   4   3 -13    1.10    2.80
  -4  -3  13   20.00    5.30
  -4  -3  13    7.10    6.40
   3   3 -13   18.60    7.90
   3   3 -13    7.40    3.70
   3   3 -13   28.70   22.20
   3   3 -13    9.40    5.30
  -3  -3  13    6.80    5.00
  -3  -3  13   -0.70    5.80
   2   3 -13    9.00    5.70
   2   3 -13   22.30    9.50
  -2  -3  13   13.00    5.10
  -2  -3  13    3.50    5.30
   1   3 -13   11.70    2.60
   1   3 -13   14.80    6.10
   1   3 -13   25.00    9.20
  -1  -3  13   18.70    5.00
  -1  -3  13   17.80    5.30
  -1  -3  13   14.10    3.80
   0   3 -13  102.19   13.70
   0   3 -13   54.79    6.80
   0   3 -13   81.49   10.40
   0  -3  13   65.09    8.50
   0  -3  13   59.79    7.90
   0  -3  13   71.39    9.80
  -1   3 -13   40.30    5.90
  -1   3 -13   43.10    8.10
   1  -3  13   57.59    7.70
   1  -3  13   40.90    5.00
   1  -3  13   51.79    6.90
  -2   3 -13    4.70    5.70
   2  -3  13   12.00    5.80
   2  -3  13   17.80    4.90
   2  -3  13    6.00    6.10
  -3   3 -13   33.50   11.50
   3  -3  13   16.70    3.20
   3  -3  13   21.40    3.50
   3  -3  13   11.20    5.80
  -4   3 -13    9.00    5.20
   4  -3  13   10.50    5.90
   4  -3  13   16.20    6.60
   4   2 -13   -7.70    7.20
   4   2 -13    8.60    9.40
  -4  -2  13    3.70    6.10
  -4  -2  13   10.00    5.20
   3   2 -13   18.20    9.70
   3   2 -13   -1.90    4.60
   3   2 -13   12.00    7.80
   3   2 -13   -0.40    3.40
  -3  -2  13    6.50    5.20
  -3  -2  13    8.50    4.70
   2   2 -13   15.00    8.30
   2   2 -13    4.20    4.80
  -2  -2  13    4.70    5.10
  -2  -2  13    6.60    5.20
   1   2 -13    6.90    2.60
   1   2 -13    6.30    5.60
   1   2 -13    9.00    8.40
  -1  -2  13   11.00    4.90
  -1  -2  13    6.20    4.40
   0   2 -13   43.00    5.80
   0   2 -13   49.30    9.60
   0   2 -13   35.80    7.60
   0  -2  13   37.60    5.60
   0  -2  13   36.00    6.40
  -1   2 -13  148.49   13.30
  -1   2 -13  121.49   13.10
  -1   2 -13  132.59   14.20
   1  -2  13  139.69   12.40
   1  -2  13   93.99    9.20
   1  -2  13  116.39   11.40
  -2   2 -13   37.50    7.80
   2  -2  13   37.10    5.70
   2  -2  13   36.80    7.70
   2  -2  13   22.20    4.80
  -3   2 -13   33.20    8.50
   3  -2  13   32.90    7.50
   3  -2  13   32.30    4.30
   3  -2  13   28.40    7.10
  -4   2 -13    1.20    5.30
   4  -2  13    6.70    5.80
   4  -2  13    6.50    7.10
   4   1 -13   15.80    8.70
   4   1 -13   17.40    8.40
   4   1 -13    0.30    3.50
  -4  -1  13    8.60    6.90
  -4  -1  13    4.30    4.70
   3   1 -13    6.30    5.10
   3   1 -13    7.60    8.40
   3   1 -13  -14.60    6.30
  -3  -1  13    3.40    4.70
  -3  -1  13   -2.60    5.40
   2   1 -13    8.00    7.90
   2   1 -13    3.70    5.20
  -2  -1  13   11.00    5.40
  -2  -1  13   11.60    5.30
   1   1 -13   16.30    8.10
   1   1 -13    8.30    3.40
   1   1 -13   17.10    5.90
  -1  -1  13   11.20    4.80
  -1  -1  13   15.50    5.10
   0   1 -13   11.60   10.80
   0   1 -13   10.50    4.20
   0   1 -13   27.10    6.60
   0  -1  13    9.20    4.80
   0  -1  13   17.80    4.10
  -1   1 -13   48.00    7.00
  -1   1 -13   50.69    7.90
  -1   1 -13   48.60    8.00
  -1   1 -13   21.20    9.80
   1  -1  13   57.39    8.30
   1  -1  13   62.59    7.40
   1  -1  13   33.60    4.70
  -2   1 -13   77.79   10.20
   2  -1  13   62.59    8.60
   2  -1  13   87.29   10.90
   2  -1  13   68.59    8.70
  -3   1 -13   10.40    6.00
   3  -1  13    4.30    7.20
   3  -1  13    5.70    6.30
   3  -1  13   -5.30    3.30
   3  -1  13    3.90    2.30
  -4   1 -13   -6.70    5.30
   4  -1  13    8.90    7.00
   4  -1  13    1.90    6.30
   4   0 -13   53.29    7.30
   4   0 -13   63.09   10.00
   4   0 -13   76.59   12.50
  -4   0  13   67.89   10.60
  -4   0  13   69.29    9.60
   3   0 -13   23.40    6.20
   3   0 -13   16.30    7.50
   3   0 -13   13.10    8.90
  -3   0  13   22.50    6.10
  -3   0  13   13.80    6.80
   2   0 -13   23.60    3.70
   2   0 -13   34.20    9.70
   2   0 -13   27.00    6.90
  -2   0  13   24.90    6.20
  -2   0  13   26.10    6.80
   1   0 -13   54.39    6.90
   1   0 -13   71.59   11.20
  -1   0  13   53.19    7.60
  -1   0  13   57.79    9.90
   0   0 -13  145.59   13.10
   0   0 -13  143.69   11.40
   0   0 -13  109.09   11.20
   0   0 -13  125.09   13.60
   0   0  13  114.19   10.80
   0   0  13  124.59   12.30
  -1   0 -13    4.40    5.00
  -1   0 -13    3.50    7.60
  -1   0 -13   12.50    6.80
   1   0  13    5.40    2.30
   1   0  13    9.80    4.80
  -2   0 -13   30.90    8.30
   2   0  13   23.70    5.40
   2   0  13   13.40    3.70
  -3   0 -13   19.10    5.60
   3   0  13   -3.80    3.70
   3   0  13    8.30    4.30
  -4   0 -13    0.50    5.30
   4   0  13   15.60    7.80
   4  -1 -13   41.70    6.00
  -4   1  13   39.60    9.20
  -4   1  13   49.99    7.60
   3  -1 -13    1.50    6.10
   3  -1 -13    5.10    7.40
   3  -1 -13    9.30    5.50
  -3   1  13    8.30    5.50
  -3   1  13    9.10    4.10
   2  -1 -13   12.00    7.40
   2  -1 -13    2.90    5.30
   2  -1 -13   -3.30    7.70
   2  -1 -13    0.60    3.20
  -2   1  13   -0.70    4.40
  -2   1  13   -3.40    4.60
   1  -1 -13   67.19   15.80
   1  -1 -13   45.10    6.60
   1  -1 -13   60.59    8.80
  -1   1  13   65.19    8.20
  -1   1  13   47.90    7.60
   0  -1 -13   30.40    6.70
   0  -1 -13   20.60    4.60
   0  -1 -13   30.40    5.70
   0   1  13   20.40    6.00
   0   1  13   19.50    4.20
  -1  -1 -13   86.79   10.30
  -1  -1 -13   64.99    9.40
   1   1  13   55.19    6.00
   1   1  13   67.49    8.70
  -2  -1 -13   67.89    9.80
   2   1  13   74.29    8.40
   2   1  13   52.59    6.60
  -3  -1 -13    0.10    5.40
   3   1  13   -8.00    3.50
   3   1  13   -9.80    8.10
   3  -2 -13   72.09   10.30
   3  -2 -13   78.49    9.70
  -3   2  13   57.69    9.60
  -3   2  13   69.09    9.80
   2  -2 -13   36.60    7.10
   2  -2 -13   32.90    8.60
  -2   2  13   32.20    7.20
   1  -2 -13   31.10    7.60
   1  -2 -13   30.40    7.10
  -1   2  13   21.80    5.60
  -1   2  13   22.20    6.00
   0  -2 -13    4.70    5.90
   0  -2 -13    5.10    3.90
   0   2  13   -4.00    3.10
   0   2  13    0.70    4.30
  -1  -2 -13    7.20    5.70
  -1  -2 -13    0.20    5.60
   1   2  13   -2.30    4.30
   1   2  13    2.10    2.40
  -2  -2 -13   35.10    7.70
   2   2  13   24.20    4.80
  -3  -2 -13    4.10    5.70
   3   2  13    5.30    8.50
   3  -3 -13   19.50    7.20
   3  -3 -13   25.50    6.50
  -3   3  13   17.80    6.60
  -3   3  13   25.30    5.60
   2  -3 -13   24.20    6.50
   2  -3 -13   23.80    7.30
  -2   3  13    9.20    5.80
  -2   3  13   18.00    5.90
   1  -3 -13    4.20    5.80
  -1   3  13    7.20    5.40
  -1   3  13    1.40    4.90
   0  -3 -13   23.00    7.00
   0  -3 -13   18.90    4.80
   0   3  13   14.50    5.60
   0   3  13   21.00    4.30
  -1  -3 -13   -5.90    4.50
   1   3  13    1.40    2.30
   1   3  13    4.10    5.00
  -2  -3 -13   14.70    6.60
   2   3  13   17.80    4.60
  -3  -3 -13    2.60    5.80
   3   3  13   18.30    8.70
   2  -4 -13   16.60    6.20
   2  -4 -13   20.30    7.20
  -2   4  13   15.50    6.00
  -2   4  13   11.00    6.00
   1  -4 -13   14.50    5.30
  -1   4  13    7.90    5.20
  -1   4  13   14.20    6.10
   0  -4 -13   16.70    6.50
   0   4  13   12.80    4.90
   0   4  13   14.80    4.50
  -1  -4 -13   15.20    6.50
   1   4  13   18.00    5.50
  -2  -4 -13   33.60    8.50
   2   4  13   45.40    6.50
   2  -5 -13   21.50    6.60
   2  -5 -13   36.90    7.70
  -2   5  13   35.10    7.20
  -2   5  13   24.40    6.40
   1  -5 -13   66.39    9.70
   1  -5 -13   60.69    9.10
  -1   5  13   55.89    8.70
  -1   5  13   79.69    9.90
   0  -5 -13   51.89    8.80
   0   5  13   47.70    7.20
   0   5  13   62.29    8.50
  -1  -5 -13   41.80    7.40
   1   5  13   24.40    4.20
   1   5  13   34.60    6.80
   1  12 -14    4.40    6.40
   1  12 -14   11.30   14.30
  -1 -12  14    4.50    6.80
  -1 -12  14    5.90    5.20
  -1 -12  14   -2.40    3.50
   0  12 -14    4.90    6.30
   0 -12  14   12.50    5.40
   0 -12  14    6.10    4.40
   0 -12  14   -1.90    6.10
  -1  12 -14   10.30    6.80
   1 -12  14   12.60    7.40
   1 -12  14   18.90    5.60
   1 -12  14   17.90    7.50
   2  11 -14   -0.70    4.70
   2  11 -14   34.80   13.60
   2  11 -14    0.00    6.00
  -2 -11  14   14.90    5.10
   1  11 -14    8.70    6.20
   1  11 -14    9.10   13.50
  -1 -11  14    4.00    4.80
  -1 -11  14   -2.80    8.50
  -1 -11  14   -1.80    3.10
   0  11 -14    0.20    6.00
   0 -11  14   -0.70    4.00
   0 -11  14    8.20    4.90
   0 -11  14    8.60    5.80
  -1  11 -14   28.30    7.50
   1 -11  14   22.30    6.10
   1 -11  14   11.90    7.30
   1 -11  14   23.40    5.60
  -2  11 -14   15.10    6.70
   2 -11  14   -1.70    7.30
   2 -11  14    6.90    4.60
   2 -11  14    4.70    4.60
   2  10 -14   13.40   12.10
   2  10 -14   -4.10    5.10
   2  10 -14   13.90    6.00
  -2 -10  14    1.30    4.30
  -2 -10  14    0.40    5.60
  -2 -10  14   -8.80    5.50
   1  10 -14    6.20    5.70
   1  10 -14    3.00   11.50
  -1 -10  14    0.90    2.70
  -1 -10  14    2.50    4.40
  -1 -10  14    8.00    5.70
   0  10 -14   11.50    6.00
   0 -10  14    6.60    4.70
   0 -10  14    7.80    4.30
   0 -10  14    6.70    5.70
  -1  10 -14   -1.30    5.90
   1 -10  14    5.70    4.80
   1 -10  14    8.10    4.40
   1 -10  14    5.60    6.20
  -2  10 -14    3.90    5.80
   2 -10  14    2.40    4.90
   2 -10  14   11.30    6.90
   2 -10  14    7.10    4.60
   3 -10  14   10.40    5.80
   3   9 -14    4.70    4.90
   3   9 -14    6.60   12.20
   3   9 -14   10.50    5.70
  -3  -9  14   -3.60    4.50
  -3  -9  14   13.70    5.10
   2   9 -14    7.70   10.00
   2   9 -14   -0.60    7.00
   2   9 -14   16.70    6.70
  -2  -9  14  -16.10    9.10
  -2  -9  14   -1.60    4.50
  -2  -9  14    9.80    4.20
   1   9 -14   36.00   13.00
   1   9 -14   16.80    6.10
  -1  -9  14   18.40    5.10
  -1  -9  14    9.80    3.10
  -1  -9  14   10.10    5.20
   0   9 -14  130.69   13.70
   0  -9  14  128.49   10.80
   0  -9  14  120.09   12.20
   0  -9  14  103.79   12.60
  -1   9 -14   73.89   10.30
   1  -9  14   70.59    9.40
   1  -9  14   73.19    9.40
  -2   9 -14   -1.20    5.70
   2  -9  14    9.90    5.60
   2  -9  14   -3.40    9.10
   2  -9  14    8.10    4.80
  -3   9 -14   -3.90    5.90
   3  -9  14    2.10    4.50
   3  -9  14    6.60    4.70
   3  -9  14   11.40    6.50
   3   8 -14   23.70    6.10
   3   8 -14   24.70   11.70
   3   8 -14   22.60    7.40
  -3  -8  14   15.30    5.10
  -3  -8  14   22.40    5.70
   2   8 -14   43.40   13.30
   2   8 -14    8.90    9.20
  -2  -8  14   12.60    5.30
  -2  -8  14   20.60    4.50
   1   8 -14   19.80    6.90
   1   8 -14   24.00   13.00
  -1  -8  14   13.80    4.10
  -1  -8  14   12.00    5.40
  -1  -8  14   21.00    5.40
   0   8 -14   56.79    9.40
   0  -8  14   55.99    7.70
   0  -8  14   64.39    9.40
   0  -8  14   63.39    8.30
  -1   8 -14    7.70    6.20
   1  -8  14    3.60    5.70
   1  -8  14    1.90    3.80
   1  -8  14    5.70    4.30
  -2   8 -14   16.40    6.00
   2  -8  14    6.10    4.20
   2  -8  14   12.80    5.50
   2  -8  14    8.00    6.40
  -3   8 -14   16.50    6.20
   3  -8  14   19.50    6.00
   3  -8  14   23.30    5.20
   3  -8  14   19.40    6.80
   3   7 -14   48.20    6.90
   3   7 -14   23.90    5.80
   3   7 -14   39.80   12.60
  -3  -7  14   35.00    7.20
   2   7 -14   44.10   11.90
   2   7 -14   23.40    7.30
  -2  -7  14   30.00    4.80
  -2  -7  14   19.10    5.70
  -2  -7  14   17.70    5.70
   1   7 -14   64.59   10.00
   1   7 -14   81.99   17.20
  -1  -7  14   44.40    7.20
  -1  -7  14   64.39    8.30
  -1  -7  14   64.79    8.20
   0   7 -14   -2.90    5.30
   0  -7  14    2.00    3.20
   0  -7  14    5.00    4.40
   0  -7  14   -0.40    4.70
   0  -7  14    4.40    6.20
  -1   7 -14    3.00    5.60
   1  -7  14   -2.40    5.00
   1  -7  14    1.90    4.50
   1  -7  14    8.00    4.80
   1  -7  14    0.20    3.10
  -2   7 -14   10.50    6.10
   2  -7  14   11.10    5.30
   2  -7  14   10.30    5.70
   2  -7  14   13.30    5.10
  -3   7 -14    9.40    6.40
   3  -7  14    8.90    5.90
   3  -7  14    7.20    5.80
   3  -7  14   13.50    4.70
   4   6 -14   27.40   10.70
   4   6 -14   17.50    7.80
  -4  -6  14   17.20    5.50
  -4  -6  14   13.90    7.30
   3   6 -14    3.00    4.30
   3   6 -14   -2.00    7.20
   3   6 -14    3.10    5.10
   3   6 -14   -8.20    9.70
  -3  -6  14   -5.70    3.70
  -3  -6  14    6.10    6.00
   2   6 -14   -1.70    9.70
   2   6 -14    5.50    5.90
  -2  -6  14    2.00    4.80
  -2  -6  14    7.40    3.00
  -2  -6  14    1.50    5.50
   1   6 -14  126.89   17.80
   1   6 -14  133.19   15.70
  -1  -6  14  117.09   10.90
  -1  -6  14  100.79   11.90
   0   6 -14   36.30   12.50
   0   6 -14   34.90    8.30
   0  -6  14   29.90    8.00
   0  -6  14   36.00    6.40
  -1   6 -14   -9.10    5.70
  -1   6 -14   -5.10    5.50
   1  -6  14    1.20    4.10
   1  -6  14   -5.10    2.60
   1  -6  14    9.20    5.00
  -2   6 -14   27.10    6.80
   2  -6  14   28.50    6.70
   2  -6  14   27.70    7.60
   2  -6  14   15.30    3.60
   2  -6  14   29.10    5.60
  -3   6 -14   18.30    6.30
   3  -6  14   20.70    6.20
   3  -6  14   13.60    6.40
   3  -6  14    6.50    4.70
   3  -6  14   22.20    4.40
   4   5 -14   35.40   12.40
   4   5 -14   30.10    8.50
  -4  -5  14   21.00    5.90
  -4  -5  14   29.80    8.00
   3   5 -14   -2.20    3.50
   3   5 -14    4.00    7.70
   3   5 -14   19.60   10.30
   3   5 -14    1.20    5.50
  -3  -5  14    0.50    5.90
  -3  -5  14   -5.00    4.50
   2   5 -14   20.00    6.00
   2   5 -14   10.50   10.30
  -2  -5  14    8.00    6.90
  -2  -5  14   14.10    5.40
   1   5 -14  141.69   14.40
   1   5 -14  143.19   18.20
  -1  -5  14  144.89   11.40
  -1  -5  14  102.69   12.80
   0   5 -14   43.90   11.10
   0  -5  14   23.30    6.80
   0  -5  14   36.20    6.30
  -1   5 -14    9.30    6.20
   1  -5  14   12.20    5.10
   1  -5  14    7.50    4.40
   1  -5  14    6.30    3.00
  -2   5 -14   11.20    5.80
   2  -5  14   10.40    5.40
   2  -5  14    9.00    2.00
   2  -5  14   16.60    5.80
   2  -5  14    8.10    4.60
  -3   5 -14   -3.10    5.30
   3  -5  14    5.70    5.80
   3  -5  14   -9.90    3.70
   3  -5  14    4.30    3.40
   3  -5  14    5.00    3.20
   4  -5  14   11.60    4.10
   4   4 -14   29.80    9.10
   4   4 -14   32.70   12.10
  -4  -4  14   27.30    6.30
  -4  -4  14   32.50    7.80
   3   4 -14   14.90    5.70
   3   4 -14    3.50    7.50
   3   4 -14   20.20   10.60
  -3  -4  14   12.70    6.70
  -3  -4  14   16.10    5.50
   2   4 -14    7.90    5.80
   2   4 -14    7.30    9.40
  -2  -4  14    0.90    5.20
  -2  -4  14    3.00    5.10
   1   4 -14  130.09   13.50
   1   4 -14  127.89   16.20
  -1  -4  14  121.69   10.20
  -1  -4  14  105.19   12.80
  -1  -4  14  105.59   11.90
   0   4 -14   82.39   14.40
   0   4 -14  103.99   14.60
   0   4 -14   63.49    7.60
   0  -4  14   76.89    9.20
   0  -4  14   68.89    9.30
   0  -4  14   72.89    9.20
  -1   4 -14   34.70    7.60
  -1   4 -14   18.30    5.60
   1  -4  14   26.80    5.60
   1  -4  14   22.30    3.50
   1  -4  14   23.80    3.70
   1  -4  14   25.80    6.00
  -2   4 -14   54.59    8.90
   2  -4  14   50.09    7.00
   2  -4  14   57.39    8.60
   2  -4  14   46.50    7.40
  -3   4 -14   42.40    8.00
   3  -4  14   51.29    8.10
   3  -4  14   30.90    5.70
   3  -4  14   43.50    5.60
   4  -4  14   -2.60    4.50
   4   3 -14   68.89   10.60
   4   3 -14   76.49   13.60
   4   3 -14   46.60    6.70
  -4  -3  14   58.99   10.70
  -4  -3  14   57.69    8.20
   3   3 -14   15.40   10.40
   3   3 -14   22.60    6.30
   3   3 -14   34.90    8.50
  -3  -3  14   23.10    7.10
  -3  -3  14   21.00    5.60
   2   3 -14    5.10    5.10
   2   3 -14   22.30    9.20
  -2  -3  14    7.40    4.70
  -2  -3  14    8.00    5.00
   1   3 -14   17.40    7.70
   1   3 -14   10.20    8.30
   1   3 -14    0.10    2.00
  -1  -3  14    5.00    4.90
  -1  -3  14    8.10    4.80
   0   3 -14   26.00    4.40
   0   3 -14   36.10    9.10
   0  -3  14   12.60    4.10
   0  -3  14   15.80    5.40
   0  -3  14   20.80    5.10
  -1   3 -14    8.50    7.90
  -1   3 -14    1.20    4.00
  -1   3 -14    1.40    6.20
   1  -3  14    1.90    5.10
   1  -3  14    8.50    4.80
   1  -3  14    5.70    2.40
   1  -3  14    7.30    2.40
  -2   3 -14   33.70    7.20
   2  -3  14   14.80    4.10
   2  -3  14   28.50    5.40
   2  -3  14   23.20    6.20
   2  -3  14   32.00    7.00
  -3   3 -14   81.09   10.00
   3  -3  14   85.49   11.20
   3  -3  14   64.89    6.80
   3  -3  14   65.79    9.50
   4  -3  14   18.50    5.70
   4   2 -14   30.00    8.90
   4   2 -14   34.20   11.30
  -4  -2  14   36.20    6.80
  -4  -2  14   19.10    8.30
   3   2 -14   -0.70    5.00
   3   2 -14   12.40    9.80
   3   2 -14    5.80    7.70
  -3  -2  14    6.80    4.70
  -3  -2  14    7.70    5.80
   2   2 -14   12.80    9.40
   2   2 -14   28.20    9.50
  -2  -2  14   15.60    5.90
  -2  -2  14   23.10    6.00
   1   2 -14   -0.80    2.30
   1   2 -14   19.70    9.20
   1   2 -14    3.60    6.40
  -1  -2  14    6.60    4.70
  -1  -2  14    7.60    4.80
   0   2 -14   15.00    3.90
   0   2 -14   33.60    8.20
   0   2 -14   15.90    6.40
   0  -2  14   15.80    6.80
   0  -2  14   14.40    3.50
  -1   2 -14   64.39    8.00
  -1   2 -14   65.29   10.80
  -1   2 -14   49.20    8.70
   1  -2  14   51.59    7.30
   1  -2  14   47.00    5.50
   1  -2  14   73.09    9.20
  -2   2 -14   11.60    5.80
   2  -2  14   -6.30    3.20
   2  -2  14   -5.60    4.80
   2  -2  14    4.30    4.40
  -3   2 -14    4.20    6.20
   3  -2  14   -5.40    3.10
   3  -2  14   -1.70    5.50
   3  -2  14    4.80    2.50
   3  -2  14   13.10    7.10
   4   1 -14   11.60    8.20
   3   1 -14   18.90   12.60
   3   1 -14   34.70    8.40
   3   1 -14   38.70    8.20
  -3  -1  14   31.70    7.50
  -3  -1  14   27.30    6.10
   2   1 -14   14.70    5.70
   2   1 -14   19.20    8.70
  -2  -1  14   13.90    6.10
  -2  -1  14    9.90    5.60
   1   1 -14    2.10    3.10
   1   1 -14   -0.40    5.60
   1   1 -14    8.50    7.50
  -1  -1  14    3.40    4.50
  -1  -1  14    2.70    4.60
   0   1 -14   16.20    6.80
   0   1 -14    4.40    4.40
   0   1 -14   19.50    6.80
   0  -1  14   18.70    5.30
   0  -1  14   19.00    3.60
  -1   1 -14  181.68   17.50
  -1   1 -14  229.98   18.80
  -1   1 -14  235.78   17.10
   1  -1  14  206.98   17.00
   1  -1  14  187.28   15.20
  -2   1 -14   44.10    8.30
   2  -1  14   34.20    6.40
   2  -1  14   44.00    8.30
  -3   1 -14    6.20    5.30
   3  -1  14    8.00   13.60
   3  -1  14    5.20    6.10
   3  -1  14    0.90    2.30
   3   0 -14    9.10    7.60
   3   0 -14    4.60    5.00
  -3   0  14    6.10    4.60
  -3   0  14    9.70    5.90
   2   0 -14   19.90    8.60
   2   0 -14   13.30    7.20
   2   0 -14   22.90    6.60
  -2   0  14   12.20    5.30
   1   0 -14   41.20    8.10
   1   0 -14   32.80    7.20
   1   0 -14   31.90    5.20
  -1   0  14   36.60    6.90
  -1   0  14   28.00    5.90
   0   0 -14   26.40    6.70
   0   0 -14   25.50    7.10
   0   0  14   18.50    5.90
  -1   0 -14    3.60    6.10
  -1   0 -14   10.00    6.60
   1   0  14   10.00    4.70
   1   0  14    2.70    2.40
  -2   0 -14   40.10    8.20
   2   0  14   27.90    5.80
  -3   0 -14   -0.20    5.00
   3   0  14   -1.80    2.50
   3   0  14   -9.90    3.50
   3   0  14    8.40    7.70
   3  -1 -14   14.30    6.90
   3  -1 -14   19.70    5.70
   3  -1 -14   22.50   10.00
  -3   1  14   11.40    5.50
  -3   1  14   15.40    6.30
   2  -1 -14    1.30    5.10
   2  -1 -14   -5.40    7.30
   2  -1 -14   13.40    7.20
  -2   1  14    7.10    5.60
  -2   1  14    1.10    5.00
   1  -1 -14   43.70    8.20
   1  -1 -14   33.90    8.30
  -1   1  14   25.90    6.60
  -1   1  14   43.60    7.10
   0  -1 -14   -9.70    6.90
   0  -1 -14   -3.50    5.60
   0   1  14    0.90    2.90
   0   1  14    2.70    4.20
  -1  -1 -14    5.60    5.80
   1   1  14   -3.90    2.20
   1   1  14    2.00    4.40
  -2  -1 -14   40.90    7.60
   2   1  14   42.50    6.10
  -3  -1 -14   36.10    7.30
   3   1  14   22.30    9.10
   3  -2 -14   -9.00    5.30
   3  -2 -14    7.50    5.00
   3  -2 -14   -2.90    6.30
  -3   2  14    7.00    5.90
   2  -2 -14   10.80    7.50
   2  -2 -14   12.60    5.60
  -2   2  14    8.40    5.20
  -2   2  14   -4.80    5.00
   1  -2 -14    9.20    5.80
  -1   2  14    0.30    4.60
   0  -2 -14    5.30    5.80
   0  -2 -14    2.70    4.20
   0   2  14    5.60    3.70
   0   2  14    5.30    4.70
  -1  -2 -14   25.90    7.00
   1   2  14   16.40    3.10
   1   2  14   19.70    6.00
  -2  -2 -14   17.90    6.10
   2   2  14   13.80    4.80
   2  -3 -14    8.50    5.80
   2  -3 -14   -4.10    6.80
  -2   3  14    2.90    5.10
  -2   3  14    6.60    5.60
   1  -3 -14    6.90    5.30
  -1   3  14    6.20    5.00
  -1   3  14    5.00    5.20
   0  -3 -14   37.90    8.20
   0   3  14   46.80    7.60
   0   3  14   28.70    5.30
  -1  -3 -14   14.70    6.20
   1   3  14   27.10    6.20
  -2  -3 -14    4.90    6.30
   2   3  14   14.30    5.10
   1  -4 -14   21.10    6.70
  -1   4  14   11.50    5.50
  -1   4  14   25.60    6.30
   0  -4 -14   17.10    6.90
   0   4  14   21.40    5.90
   0   4  14   14.30    4.70
  -1  -4 -14   12.60    6.50
   1   4  14   13.40    5.10
   1  11 -15    3.00   12.20
   1  11 -15   13.00    6.80
  -1 -11  15   -1.10    5.40
  -1 -11  15    7.70    5.10
   0  11 -15   57.39    9.40
   0 -11  15   54.79    7.00
   0 -11  15   59.39    9.00
   0 -11  15   61.29    8.90
  -1  11 -15   49.40    9.80
   1 -11  15   61.29    9.10
   1 -11  15   60.19    8.10
   1 -11  15   53.59    8.00
   2  10 -15   -3.90    6.10
   2  10 -15   13.70   11.70
   2  10 -15   12.10    7.00
  -2 -10  15    3.50    4.90
  -2 -10  15    6.10    5.00
   1  10 -15   24.30   13.30
   1  10 -15    3.00    6.20
  -1 -10  15   16.40    5.30
  -1 -10  15   10.00    5.20
   0  10 -15   24.90    6.90
   0 -10  15   18.80    5.50
   0 -10  15   19.50    7.90
   0 -10  15   16.60    4.00
  -1  10 -15   63.89    9.70
   1 -10  15   56.19    7.70
   1 -10  15   64.89    9.10
   1 -10  15   59.89    8.20
  -2  10 -15    7.30    6.90
   2 -10  15   -2.90    4.30
   2 -10  15   11.60    6.20
   2 -10  15   13.60    5.50
   2   9 -15    5.50    6.30
   2   9 -15    4.60    7.70
   2   9 -15    8.90   10.60
  -2  -9  15   11.60    4.80
  -2  -9  15    2.20    4.80
   1   9 -15   -2.50   11.70
   1   9 -15    8.20    6.00
  -1  -9  15    2.40    4.60
  -1  -9  15    5.60    4.50
  -1  -9  15   -5.50    3.90
   0   9 -15   17.30    6.30
   0  -9  15   21.40    6.10
   0  -9  15   23.30    4.50
   0  -9  15   21.30    5.70
  -1   9 -15   31.80    7.80
   1  -9  15   20.60    5.70
   1  -9  15   45.90    7.70
   1  -9  15   30.40    5.80
  -2   9 -15   11.10    5.80
   2  -9  15    6.10    4.70
   2  -9  15    5.40    4.70
   2  -9  15  -10.30    5.20
   3   8 -15   15.90   11.20
   3   8 -15   10.70    7.50
   3   8 -15    6.60    6.80
  -3  -8  15    9.60    5.00
   2   8 -15   40.50   11.70
   2   8 -15   21.10    7.90
  -2  -8  15   19.20    5.90
  -2  -8  15   27.00    4.90
   1   8 -15   28.40   12.30
   1   8 -15   21.10    7.20
  -1  -8  15   17.20    4.70
  -1  -8  15   15.20    5.40
   0   8 -15    3.10    5.80
   0   8 -15    2.60   11.10
   0  -8  15    4.80    4.90
   0  -8  15    5.50    5.00
  -1   8 -15   32.50    7.50
   1  -8  15   27.50    5.70
   1  -8  15   25.80    5.80
   1  -8  15   22.40    7.00
  -2   8 -15   -0.10    6.20
   2  -8  15   10.20    5.00
   2  -8  15   10.80    6.00
  -3   8 -15   27.30    7.50
   3  -8  15   26.00    7.40
   3  -8  15   24.80    6.40
   3   7 -15   25.00    6.80
   3   7 -15   20.80    7.70
  -3  -7  15   19.30    5.90
  -3  -7  15   21.30    7.70
   2   7 -15   21.90    7.00
   2   7 -15    9.90   10.20
  -2  -7  15   11.50    3.80
  -2  -7  15   14.70    4.70
   1   7 -15   75.69   14.50
   1   7 -15   57.49    9.70
  -1  -7  15   61.89    8.60
  -1  -7  15   63.29    8.40
   0   7 -15   -3.20    5.90
   0  -7  15    8.00    4.70
   0  -7  15    8.00    4.90
   0  -7  15    4.80    2.90
  -1   7 -15    7.20    6.10
   1  -7  15    1.90    4.50
   1  -7  15   -2.40    3.70
   1  -7  15    8.70    5.30
  -2   7 -15   10.30    6.20
   2  -7  15    0.30    4.50
   2  -7  15    4.00    5.70
  -3   7 -15   -4.00    6.10
   3  -7  15   19.80    6.90
   3  -7  15   10.80    4.70
   3  -7  15    3.50    5.20
   3   6 -15   15.20    8.40
   3   6 -15   -0.40    5.70
   3   6 -15    6.40    9.80
  -3  -6  15    1.80    4.90
  -3  -6  15    2.80    6.30
   2   6 -15   48.80   13.90
   2   6 -15   31.50    7.80
  -2  -6  15   38.20    7.10
  -2  -6  15   35.40    7.60
   1   6 -15  180.08   28.40
   1   6 -15  186.78   16.80
  -1  -6  15  180.08   14.20
  -1  -6  15  159.78   15.60
   0   6 -15   94.59   15.00
   0   6 -15   86.99   10.90
   0  -6  15   88.19    9.80
   0  -6  15   61.19    8.90
  -1   6 -15   10.40    6.50
  -1   6 -15   -6.30    4.00
   1  -6  15   -7.40    3.20
   1  -6  15    9.30    5.00
   1  -6  15    0.50    4.30
  -2   6 -15   21.40    6.20
   2  -6  15   18.60    3.10
   2  -6  15   19.00    6.20
   2  -6  15   20.00    5.30
  -3   6 -15    1.50    5.90
   3  -6  15    1.70    3.50
   3  -6  15    1.00    6.10
   3   5 -15  -10.20    8.10
   3   5 -15   -1.30    8.00
   3   5 -15    3.90   10.00
  -3  -5  15    0.90    4.70
  -3  -5  15    2.90    6.20
   2   5 -15   15.90    9.70
   2   5 -15   20.80    7.00
  -2  -5  15    8.10    5.00
  -2  -5  15    8.40    6.20
   1   5 -15   24.90    7.50
   1   5 -15   14.00   10.10
  -1  -5  15   10.20    5.30
  -1  -5  15   13.70    3.90
  -1  -5  15   22.20    6.60
   0   5 -15   17.30    9.90
   0   5 -15    6.70    6.50
   0   5 -15    3.30    3.40
   0  -5  15    4.90    4.40
   0  -5  15   13.00    4.80
   0  -5  15    7.40    4.60
  -1   5 -15   13.60    6.80
   1  -5  15   22.00    5.00
   1  -5  15    6.80    2.90
   1  -5  15   18.40    6.00
   1  -5  15    9.10    3.30
  -2   5 -15   51.99    8.90
   2  -5  15   47.20    9.80
   2  -5  15   42.40    6.70
   2  -5  15   52.19    8.20
  -3   5 -15    9.10    6.20
   3  -5  15    0.70    3.30
   3  -5  15    7.50    5.80
   3  -5  15    2.90    4.70
   3   4 -15    4.20    6.40
   3   4 -15   -8.90    6.80
   3   4 -15   27.50    9.60
  -3  -4  15   10.10    5.70
  -3  -4  15    0.40    4.30
   2   4 -15    1.60    5.50
  -2  -4  15    2.20    4.60
  -2  -4  15   -3.40    4.90
   1   4 -15   54.99    9.10
   1   4 -15   67.69   12.30
  -1  -4  15   40.20    7.80
  -1  -4  15   42.50    7.30
  -1  -4  15   57.39    6.30
   0   4 -15   67.29   10.90
   0   4 -15   57.79    9.30
   0   4 -15   38.10    5.60
   0  -4  15   45.80    6.40
   0  -4  15   42.60    7.20
   0  -4  15   57.29    7.70
  -1   4 -15   18.10    8.80
  -1   4 -15    5.40    6.30
   1  -4  15    2.20    2.70
   1  -4  15    5.90    3.30
   1  -4  15    4.80    4.70
   1  -4  15    8.40    4.30
  -2   4 -15    5.80    5.80
   2  -4  15    9.30    5.00
   2  -4  15   14.80    4.80
  -3   4 -15   18.70    6.30
   3  -4  15   18.10    6.20
   3  -4  15    8.80    3.30
   3  -4  15    3.40    5.00
   3   3 -15   -1.90    5.00
   3   3 -15   -7.20    7.60
   3   3 -15    5.70    9.50
  -3  -3  15   -0.50    5.90
  -3  -3  15   10.70    5.20
   2   3 -15    6.80    9.10
   2   3 -15    0.60    4.90
  -2  -3  15   -1.50    4.90
  -2  -3  15   -0.60    4.50
   1   3 -15   16.60    8.80
   1   3 -15    5.00    5.90
  -1  -3  15    0.80    4.10
  -1  -3  15    6.70    5.10
   0   3 -15    1.20    3.20
   0   3 -15   -2.30    5.70
   0   3 -15   10.20    7.80
   0  -3  15   -0.80    2.60
   0  -3  15    9.60    4.40
   0  -3  15    5.80    4.10
  -1   3 -15   55.49    9.70
  -1   3 -15   40.70    7.80
   1  -3  15   30.60    4.30
   1  -3  15   39.40    6.30
   1  -3  15   30.90    4.50
   1  -3  15   50.69    7.30
  -2   3 -15   36.10    8.10
   2  -3  15   47.60    7.10
  -3   3 -15   13.70    6.50
   3  -3  15    4.10    5.60
   3  -3  15   13.60    3.50
   3  -3  15    5.60    5.30
   3   2 -15   42.80    9.90
   3   2 -15   32.50    6.90
   3   2 -15   33.50    9.70
  -3  -2  15   46.90    7.50
  -3  -2  15   23.00    6.90
   2   2 -15   47.90   10.30
   2   2 -15   32.70    7.20
  -2  -2  15   24.90    6.80
  -2  -2  15   16.30    6.10
   1   2 -15   14.80    6.00
   1   2 -15   18.40    7.70
  -1  -2  15    2.10    4.40
  -1  -2  15    0.20    4.40
   0   2 -15    2.60    6.10
   0   2 -15   -9.40    3.40
   0  -2  15    1.30    2.80
   0  -2  15    2.60    4.70
  -1   2 -15   61.19   10.00
  -1   2 -15   93.49   11.10
   1  -2  15   68.79    9.10
   1  -2  15   86.59   10.50
  -2   2 -15   13.80    7.00
  -2   2 -15    9.60    6.10
   2  -2  15   15.70    5.10
  -3   2 -15    6.10    5.90
   3  -2  15   12.10    3.40
   3  -2  15    2.10    8.30
   3  -2  15    5.40    6.10
   3   1 -15   21.90   10.30
   3   1 -15   13.40    5.80
   3   1 -15    7.80    7.70
  -3  -1  15   26.40    5.90
  -3  -1  15   15.90    6.50
   2   1 -15   38.20    8.90
   2   1 -15   21.80    6.60
  -2  -1  15   29.10    6.50
  -2  -1  15   10.30    6.20
   1   1 -15    5.70    6.00
   1   1 -15    5.30    7.70
   1   1 -15   -2.30    3.40
  -1  -1  15    1.10    4.30
  -1  -1  15   -0.80    4.60
   0   1 -15   23.40    7.10
   0   1 -15   32.70    7.30
   0  -1  15   25.20    6.10
   0  -1  15   23.50    4.30
  -1   1 -15  212.48   17.50
   1  -1  15  150.28   12.80
   1  -1  15  190.18   15.00
  -2   1 -15   22.80    7.00
   2  -1  15    9.40    4.60
  -3   1 -15   -0.50    5.90
   3  -1  15   10.80    8.20
   3  -1  15    0.20    2.70
   3   0 -15    9.50    6.90
   3   0 -15    3.40    5.60
   3   0 -15    6.10    8.10
  -3   0  15    4.70    5.70
  -3   0  15   10.70    5.40
   2   0 -15   26.20    6.40
   2   0 -15   24.10    8.90
   2   0 -15   22.70    8.20
  -2   0  15   18.80    6.00
  -2   0  15   22.90    6.00
   1   0 -15   11.10    6.00
   1   0 -15   10.10    6.00
   1   0 -15   -2.70    4.40
  -1   0  15    4.90    5.00
  -1   0  15    3.30    4.90
   0   0 -15   -0.60    4.80
   0   0 -15    4.00    5.50
   0   0  15    2.00    3.10
   0   0  15    3.30    4.70
  -1   0 -15   34.90    8.20
   1   0  15   35.70    6.60
  -2   0 -15   -4.20    5.80
   2   0  15    7.40    5.60
   2  -1 -15   32.90    6.90
   2  -1 -15   33.50    9.30
  -2   1  15   14.60    6.00
  -2   1  15   24.80    6.50
   1  -1 -15   -7.30    6.20
   1  -1 -15   17.00    6.90
  -1   1  15   10.90    5.40
  -1   1  15   17.70    5.10
   0  -1 -15    1.60    5.60
   0   1  15   -1.80    3.00
   0   1  15    1.10    4.40
  -1  -1 -15   -0.50    5.40
   1   1  15    9.20    5.20
  -2  -1 -15   10.90    6.50
   2   1  15    9.10    5.90
   2  -2 -15   -2.20    7.50
   2  -2 -15    3.40    5.60
  -2   2  15    7.00    5.60
  -2   2  15    1.20    4.90
   1  -2 -15    7.30    5.70
  -1   2  15   13.00    5.60
  -1   2  15    0.90    4.90
   0  -2 -15   15.30    5.00
   0  -2 -15    9.30    6.40
   0   2  15   18.50    5.70
   0   2  15    5.30    3.80
  -1  -2 -15    6.00    6.20
   1   2  15   12.90    5.20
   1  -3 -15    3.80    5.40
  -1   3  15    4.90    5.40
  -1   3  15   18.90    6.00
   0  -3 -15  129.79   14.30
   0   3  15  133.99   13.20
   1  10 -16    7.00    7.10
   1  10 -16   23.60   13.30
  -1 -10  16    6.80    5.00
  -1 -10  16    9.50    5.30
   0  10 -16    9.30   12.80
   0  10 -16   31.50    7.40
   0 -10  16   18.20    5.60
   0 -10  16   29.40    6.40
  -1  10 -16   55.29    8.90
   1 -10  16   49.99    7.40
   1 -10  16   58.49    8.30
   1 -10  16   60.89    9.00
   2   9 -16   31.50    9.20
   2   9 -16   45.90   13.50
   1   9 -16    3.80   11.20
   1   9 -16    6.00    6.10
  -1  -9  16    9.00    5.20
  -1  -9  16    7.70    5.00
  -1  -9  16    3.20    5.80
   0   9 -16    0.40   11.20
   0   9 -16   12.20    6.60
   0  -9  16    7.40    5.40
   0  -9  16   12.20    4.90
  -1   9 -16   16.50    7.10
   1  -9  16   16.10    6.10
   1  -9  16   25.80    5.90
   1  -9  16   15.80    5.20
   2  -9  16    2.10    5.00
   2   8 -16   56.29    9.10
   2   8 -16   75.19   15.20
  -2  -8  16   39.20    6.30
  -2  -8  16   48.30    8.50
   1   8 -16   12.90    6.60
   1   8 -16    6.00   11.00
  -1  -8  16    9.30    5.20
  -1  -8  16   -2.40    4.70
   0   8 -16   14.60    6.20
   0   8 -16   -2.70   11.10
   0  -8  16   11.10    5.00
   0  -8  16    3.60    5.00
  -1   8 -16   12.20    6.70
   1  -8  16    0.90    4.90
   1  -8  16   -0.20    4.60
  -2   8 -16   14.70    6.70
   2  -8  16   15.40    5.60
   2  -8  16    3.20    4.50
   2   7 -16   31.20    7.70
   2   7 -16   25.20   11.70
  -2  -7  16   10.00    5.10
  -2  -7  16   33.50    8.10
   1   7 -16   10.70   10.60
   1   7 -16    0.40    6.00
  -1  -7  16    1.60    4.30
  -1  -7  16    9.00    5.20
  -1  -7  16   -5.10    8.10
   0   7 -16   19.30    6.90
   0   7 -16    6.30   10.50
   0  -7  16    8.90    4.80
   0  -7  16   10.80    4.90
  -1   7 -16   26.20    7.70
   1  -7  16   21.70    6.60
   1  -7  16   20.40    5.80
  -2   7 -16    9.20    6.60
   2  -7  16   21.60    6.10
   2  -7  16   -3.10    4.70
   2  -7  16    8.50    4.80
   2   6 -16   16.80    8.90
   2   6 -16    0.90    5.90
  -2  -6  16   14.20    5.20
  -2  -6  16    6.20    6.30
   1   6 -16  138.39   17.10
   1   6 -16  141.39   13.90
  -1  -6  16  105.19   10.80
  -1  -6  16  100.79   12.00
   0   6 -16    9.90    7.20
   0  -6  16   21.70    5.50
   0  -6  16    8.20    5.10
   0  -6  16   18.90    5.00
  -1   6 -16    4.10    5.90
  -1   6 -16   -8.10    8.20
   1  -6  16   12.50    4.60
   1  -6  16    4.90    3.40
   1  -6  16   10.50    5.70
  -2   6 -16   21.20    7.00
   2  -6  16   29.10    6.00
   2  -6  16   24.50    7.00
   3   5 -16   22.00    9.00
   2   5 -16    7.90    9.30
   2   5 -16    7.80    6.60
  -2  -5  16    2.60    5.70
  -2  -5  16    0.20    4.80
   1   5 -16   39.50    7.90
  -1  -5  16   27.60    6.00
  -1  -5  16   29.70    6.60
  -1  -5  16   30.90    5.00
   0   5 -16   50.99    8.60
   0   5 -16   63.39   10.80
   0  -5  16   46.70    7.40
   0  -5  16   43.10    6.70
   0  -5  16   41.50    6.20
  -1   5 -16   -2.30    6.20
  -1   5 -16    7.00    9.10
   1  -5  16   -5.80    3.00
   1  -5  16    2.90    4.90
   1  -5  16    8.80    4.50
   1  -5  16   -2.50    2.30
  -2   5 -16   35.20    8.00
   2  -5  16   21.70    5.50
   2  -5  16   26.10    5.90
   2  -5  16   10.40    4.70
   3   4 -16   -4.10    8.00
   2   4 -16   10.40    6.00
   2   4 -16    8.90    8.40
  -2  -4  16    2.60    5.40
  -2  -4  16    2.30    4.60
   1   4 -16   23.50    7.50
   1   4 -16   40.10    9.90
  -1  -4  16   17.90    5.60
  -1  -4  16   13.50    5.30
   0   4 -16   15.70    9.10
   0   4 -16   11.40    6.40
   0  -4  16    9.40    4.70
   0  -4  16    7.00    3.50
   0  -4  16    7.40    4.80
  -1   4 -16   23.50    8.40
  -1   4 -16   13.40    6.80
   1  -4  16   16.10    5.00
   1  -4  16    1.90    4.90
   1  -4  16   -1.10    4.50
  -2   4 -16   25.50    7.50
   2  -4  16   31.90    5.50
   2  -4  16   11.20    5.70
   2  -4  16   44.30    7.00
   2   3 -16   17.70    9.60
   2   3 -16    7.60    5.90
  -2  -3  16   -0.10    5.80
  -2  -3  16   11.70    5.10
   1   3 -16    4.20    8.00
   1   3 -16    6.70    5.90
  -1  -3  16   -3.60    4.50
  -1  -3  16    6.50    4.40
   0   3 -16   -3.10    4.30
   0   3 -16   31.50    8.70
   0   3 -16   16.70    6.50
   0  -3  16   11.90    5.00
   0  -3  16    7.10    3.60
  -1   3 -16    0.60    6.40
  -1   3 -16    4.10    6.50
   1  -3  16    6.30    4.20
   1  -3  16    1.90    4.50
  -2   3 -16   87.69   12.40
  -2   3 -16   84.49   11.60
   2  -3  16   82.79    9.30
   2  -3  16   93.49   11.00
   2   2 -16   11.80   10.20
   2   2 -16    6.60    5.40
  -2  -2  16    0.00    5.20
  -2  -2  16    1.90    4.70
   1   2 -16   36.60    8.50
   1   2 -16   17.60    7.40
  -1  -2  16   13.20    5.40
  -1  -2  16   22.10    5.60
   0   2 -16   12.30    9.10
   0   2 -16   34.40    7.60
   0  -2  16   18.70    4.30
   0  -2  16   30.30    5.80
  -1   2 -16   97.79   11.90
  -1   2 -16   79.19   11.70
  -2   2 -16   18.30    6.60
   2  -2  16   20.50    5.20
   2   1 -16   31.60    7.60
   2   1 -16   41.70   10.10
   2   1 -16   18.10    9.40
  -2  -1  16   30.50    6.70
  -2  -1  16   33.60    7.40
   1   1 -16   -2.00    4.20
   1   1 -16    0.50    5.50
   1   1 -16    4.20    7.70
  -1  -1  16   -5.00    3.80
  -1  -1  16    4.50    4.60
   0   1 -16   29.60    7.20
   0   1 -16    5.80    6.30
   0  -1  16   18.40    5.30
   0  -1  16   14.30    4.00
  -1   1 -16   28.00    7.20
   1  -1  16   28.60    6.10
  -2   1 -16   46.30    9.00
   2  -1  16   48.70    7.20
   2   0 -16   -7.60    7.50
   2   0 -16    2.30    8.50
   2   0 -16   12.50    6.30
  -2   0  16   12.90    5.50
  -2   0  16    5.50    5.00
   1   0 -16   14.80    6.20
   1   0 -16   21.30    7.20
  -1   0  16    9.00    4.70
  -1   0  16   -0.10    4.60
   0   0 -16   13.40    6.20
   0   0  16    0.60    3.10
   0   0  16   -0.10    4.40
  -1   0 -16   17.50    6.80
   1   0  16    9.40    4.80
   1  -1 -16   -4.30    5.50
  -1   1  16    6.40    4.70
  -1   1  16    7.40    8.00
   0  -1 -16   11.40    6.00
   0   1  16    3.70    4.70
  -1  -1 -16   15.50    7.10
   1   8 -17    9.80    7.00
   1   8 -17   11.40   10.60
  -1  -8  17    5.60    4.90
  -1  -8  17    8.70    4.80
   0   8 -17    8.00    6.40
   0   8 -17   -1.80   10.00
   0  -8  17    2.80    5.00
   0  -8  17    3.00    5.10
  -1   8 -17   12.20    7.60
   1  -8  17   35.60    7.30
   1   7 -17    4.10    7.00
   1   7 -17   25.40    9.80
  -1  -7  17   10.30    5.20
  -1  -7  17    0.90    5.40
  -1  -7  17    9.50    4.40
   0   7 -17   17.60   10.80
   0   7 -17    8.40    7.00
   0  -7  17    9.00    5.10
   0  -7  17    7.80    5.00
   0  -7  17    5.70    4.90
  -1   7 -17    0.70    9.80
  -1   7 -17   -3.70    6.40
   1  -7  17   -8.40    3.30
   1  -7  17    5.00    4.40
   1  -7  17   12.70    5.30
   1   6 -17   40.30   10.50
   1   6 -17   23.10    7.70
  -1  -6  17   15.00    5.20
  -1  -6  17   20.90    8.00
  -1  -6  17    2.60    5.30
   0   6 -17   24.90    7.70
   0   6 -17   32.60   10.10
   0  -6  17   23.70    5.60
   0  -6  17   24.20    5.40
   0  -6  17   30.40    6.40
  -1   6 -17   22.10    7.10
  -1   6 -17    8.30    9.00
   1  -6  17    4.40    4.80
   1  -6  17    7.70    3.20
   2   5 -17   15.50    8.70
  -2  -5  17    2.20    5.50
   1   5 -17   10.00    6.60
   1   5 -17   18.60   10.20
  -1  -5  17    3.40    5.30
  -1  -5  17    0.30    3.90
   0   5 -17   42.60   15.90
   0   5 -17   18.00    7.50
   0  -5  17   17.30    4.80
   0  -5  17   21.60    5.70
   0  -5  17   29.70    5.40
  -1   5 -17   16.60    9.10
  -1   5 -17   12.20    6.40
   1  -5  17   10.10    4.50
   1  -5  17   -4.30    4.40
   2  -5  17    4.30    4.80
   1   4 -17    0.30    5.90
   1   4 -17   19.60   13.60
  -1  -4  17   -1.60    4.40
  -1  -4  17    5.90    4.50
   0   4 -17   12.00    6.00
   0   4 -17   15.60    4.20
   0   4 -17   16.00    8.20
   0  -4  17   16.30    5.20
   0  -4  17   23.80    5.40
  -1   4 -17   11.00    7.60
  -1   4 -17    0.30    6.30
   1  -4  17  -12.00    4.50
   1  -4  17   10.80    4.90
   1  -4  17    1.30    5.00
   1   3 -17   -1.00    6.30
   1   3 -17   23.10    8.70
  -1  -3  17   16.70    6.80
  -1  -3  17   10.60    5.30
   0   3 -17   38.10    9.00
   0   3 -17   25.70    7.40
   0  -3  17   17.30    4.70
   0  -3  17   12.60    4.00
  -1   3 -17    9.10    6.80
  -1   3 -17   12.20    7.20
   1  -3  17    2.60    4.60
   1   2 -17   10.60    8.20
   1   2 -17    7.50    6.40
  -1  -2  17   -1.20    4.20
  -1  -2  17   -7.70    5.10
   0   2 -17    1.90    6.10
   0   2 -17   14.00    7.10
   0  -2  17    1.70    4.30
  -1   2 -17    9.50    6.30
   1  -2  17    3.50    4.40
   0   1 -17   -5.90    5.40
   0  -1  17    5.10    4.50
   0   0   0    0.00    0.00

_computing_structure_solution     'SHELXT 2014/5 (Sheldrick, 2014)'
;
_shelx_hkl_checksum              8694
_olex2_submission_special_instructions 'No special instructions were received'
loop_
_space_group_symop_operation_xyz
'x, y, z'
loop_
_atom_site_label
_atom_site_type_symbol
_atom_site_fract_x
_atom_site_fract_y
_atom_site_fract_z
_atom_site_U_iso_or_equiv
_atom_site_adp_type
_atom_site_occupancy
_atom_site_site_symmetry_order
_atom_site_calc_flag
_atom_site_refinement_flags_posn
O1 O 0.1009(6) 0.5697(3) 0.5252(2) 0.0286(7) Uani 1 1 d .
H1 H 0.2149 0.5644 0.5742 0.043 Uiso 1 1 calc R
O2 O 0.7900(6) -0.0250(3) 0.0838(2) 0.0293(7) Uani 1 1 d .
H2A H 0.8709 0.0471 0.0896 0.044 Uiso 1 1 calc R
N1 N 0.3730(6) 0.6363(3) 0.7106(3) 0.0199(6) Uani 1 1 d .
N2 N 0.9388(6) 0.2157(3) 0.1682(3) 0.0208(7) Uani 1 1 d .
C1 C 0.9840(8) 0.5210(4) 0.8972(4) 0.0264(9) Uani 1 1 d .
H1A H 1.1219 0.4933 0.9383 0.032 Uiso 1 1 calc R
C2 C 0.8847(8) 0.6482(4) 0.9380(3) 0.0249(8) Uani 1 1 d .
H2 H 0.9568 0.7073 1.0070 0.030 Uiso 1 1 calc R
C3 C 0.6805(8) 0.6897(4) 0.8786(3) 0.0221(8) Uani 1 1 d .
H3 H 0.6124 0.7762 0.9070 0.027 Uiso 1 1 calc R
C4 C 0.5780(7) 0.6018(4) 0.7768(3) 0.0182(7) Uani 1 1 d .
C5 C 0.2271(7) 0.7448(4) 0.7417(3) 0.0199(7) Uani 1 1 d .
H5 H 0.2619 0.8073 0.8138 0.024 Uiso 1 1 calc R
C6 C 0.0242(8) 0.7704(4) 0.6724(3) 0.0202(7) Uani 1 1 d .
C7 C -0.1375(7) 0.8891(4) 0.7103(3) 0.0179(7) Uani 1 1 d .
C8 C -0.3358(7) 0.9138(4) 0.6365(3) 0.0213(8) Uani 1 1 d .
C9 C -0.4945(8) 1.0288(4) 0.6715(4) 0.0249(8) Uani 1 1 d .
H9 H -0.6260 1.0445 0.6211 0.030 Uiso 1 1 calc R
C10 C -0.4612(8) 1.1175(4) 0.7769(4) 0.0266(9) Uani 1 1 d .
H10 H -0.5658 1.1952 0.7991 0.032 Uiso 1 1 calc R
C11 C -0.3806(9) 0.8184(4) 0.5269(3) 0.0258(8) Uani 1 1 d .
H11 H -0.5160 0.8343 0.4779 0.031 Uiso 1 1 calc R
C12 C -0.2365(9) 0.7075(4) 0.4920(3) 0.0284(9) Uani 1 1 d .
H12 H -0.2727 0.6473 0.4190 0.034 Uiso 1 1 calc R
C13 C -0.0283(8) 0.6769(4) 0.5620(3) 0.0227(8) Uani 1 1 d .
C14 C -0.2710(8) 1.0925(4) 0.8518(4) 0.0280(9) Uani 1 1 d .
H14 H -0.2517 1.1527 0.9256 0.034 Uiso 1 1 calc R
C15 C -0.1113(8) 0.9819(4) 0.8200(3) 0.0234(8) Uani 1 1 d .
H15 H 0.0176 0.9676 0.8719 0.028 Uiso 1 1 calc R
C16 C 0.6777(8) 0.4751(4) 0.7356(3) 0.0224(8) Uani 1 1 d .
H16 H 0.6078 0.4159 0.6663 0.027 Uiso 1 1 calc R
C17 C 0.8795(8) 0.4351(4) 0.7960(4) 0.0256(8) Uani 1 1 d .
H17 H 0.9465 0.3484 0.7679 0.031 Uiso 1 1 calc R
C18 C 1.4923(8) 0.5143(4) 0.1464(4) 0.0263(9) Uani 1 1 d .
H18 H 1.6179 0.5811 0.1405 0.032 Uiso 1 1 calc R
C19 C 1.4675(8) 0.3933(4) 0.0612(3) 0.0239(8) Uani 1 1 d .
H19 H 1.5775 0.3767 -0.0029 0.029 Uiso 1 1 calc R
C20 C 1.2806(7) 0.2967(4) 0.0704(3) 0.0204(8) Uani 1 1 d .
H20 H 1.2618 0.2146 0.0118 0.024 Uiso 1 1 calc R
C21 C 1.1209(7) 0.3192(4) 0.1647(3) 0.0191(7) Uani 1 1 d .
C22 C 0.7514(7) 0.2262(4) 0.2452(3) 0.0191(7) Uani 1 1 d .
H22 H 0.7291 0.3094 0.3008 0.023 Uiso 1 1 calc R
C23 C 0.5835(8) 0.1180(4) 0.2474(3) 0.0195(7) Uani 1 1 d .
C24 C 0.3819(8) 0.1318(4) 0.3342(3) 0.0185(7) Uani 1 1 d .
C25 C 0.2268(8) 0.0197(4) 0.3361(3) 0.0228(8) Uani 1 1 d .
C26 C 0.0306(8) 0.0300(4) 0.4196(3) 0.0243(9) Uani 1 1 d .
H26 H -0.0707 -0.0464 0.4206 0.029 Uiso 1 1 calc R
C27 C -0.0155(8) 0.1493(4) 0.4996(4) 0.0259(9) Uani 1 1 d .
H27 H -0.1469 0.1553 0.5558 0.031 Uiso 1 1 calc R
C28 C 0.2719(9) -0.1046(4) 0.2522(4) 0.0277(9) Uani 1 1 d .
H28 H 0.1696 -0.1801 0.2547 0.033 Uiso 1 1 calc R
C29 C 0.4544(9) -0.1185(4) 0.1699(4) 0.0280(9) Uani 1 1 d .
H29 H 0.4755 -0.2028 0.1156 0.034 Uiso 1 1 calc R
C30 C 0.6168(8) -0.0077(4) 0.1634(3) 0.0223(8) Uani 1 1 d .
C31 C 0.1316(8) 0.2607(4) 0.4974(3) 0.0239(8) Uani 1 1 d .
H31 H 0.0959 0.3435 0.5514 0.029 Uiso 1 1 calc R
C32 C 0.3292(8) 0.2533(4) 0.4183(3) 0.0222(8) Uani 1 1 d .
H32 H 0.4313 0.3307 0.4200 0.027 Uiso 1 1 calc R
C33 C 1.1480(8) 0.4407(4) 0.2513(3) 0.0227(8) Uani 1 1 d .
H33 H 1.0421 0.4570 0.3164 0.027 Uiso 1 1 calc R
C34 C 1.3324(8) 0.5367(4) 0.2399(4) 0.0260(9) Uani 1 1 d .
H34 H 1.3492 0.6195 0.2977 0.031 Uiso 1 1 calc R
loop_
_atom_site_aniso_label
_atom_site_aniso_U_11
_atom_site_aniso_U_22
_atom_site_aniso_U_33
_atom_site_aniso_U_23
_atom_site_aniso_U_13
_atom_site_aniso_U_12
O1 0.0344(17) 0.0266(15) 0.0175(13) -0.0021(11) -0.0057(12) 0.0045(12)
O2 0.0318(15) 0.0222(15) 0.0252(14) -0.0031(11) 0.0033(12) -0.0048(11)
N1 0.0174(14) 0.0203(16) 0.0196(15) 0.0039(12) -0.0007(12) -0.0017(12)
N2 0.0195(15) 0.0211(16) 0.0177(14) 0.0011(12) -0.0004(12) 0.0000(12)
C1 0.0165(18) 0.038(2) 0.029(2) 0.0166(18) 0.0028(15) 0.0036(16)
C2 0.0226(19) 0.031(2) 0.0181(18) 0.0041(16) 0.0005(15) -0.0030(16)
C3 0.0222(18) 0.0213(19) 0.0194(18) 0.0024(15) -0.0004(14) -0.0019(14)
C4 0.0163(16) 0.0193(18) 0.0192(17) 0.0065(14) 0.0032(13) -0.0006(13)
C5 0.0172(17) 0.0200(18) 0.0192(17) 0.0024(14) 0.0007(14) -0.0039(13)
C6 0.0189(17) 0.0202(18) 0.0185(17) 0.0025(15) 0.0025(14) -0.0012(13)
C7 0.0132(16) 0.0185(17) 0.0207(18) 0.0051(14) -0.0004(13) -0.0039(13)
C8 0.0157(17) 0.024(2) 0.0248(19) 0.0086(15) 0.0008(14) -0.0021(14)
C9 0.0172(17) 0.028(2) 0.032(2) 0.0137(18) -0.0036(16) -0.0021(15)
C10 0.0202(19) 0.025(2) 0.035(2) 0.0102(17) -0.0013(16) 0.0033(16)
C11 0.025(2) 0.028(2) 0.0225(19) 0.0070(16) -0.0054(15) -0.0022(16)
C12 0.032(2) 0.029(2) 0.0194(19) 0.0025(16) -0.0037(16) -0.0017(17)
C13 0.026(2) 0.0216(19) 0.0173(18) 0.0028(15) 0.0018(15) -0.0044(15)
C14 0.023(2) 0.027(2) 0.029(2) 0.0027(17) 0.0001(16) 0.0023(16)
C15 0.0200(18) 0.025(2) 0.0198(18) -0.0001(15) -0.0033(14) -0.0005(15)
C16 0.0187(18) 0.0215(19) 0.0235(19) 0.0031(16) 0.0008(15) -0.0024(15)
C17 0.0214(19) 0.025(2) 0.029(2) 0.0066(16) 0.0038(16) 0.0032(15)
C18 0.0204(18) 0.024(2) 0.034(2) 0.0101(17) -0.0051(16) -0.0033(15)
C19 0.0206(18) 0.025(2) 0.0239(19) 0.0060(15) -0.0008(15) 0.0004(15)
C20 0.0176(17) 0.0184(18) 0.0212(18) 0.0012(14) -0.0011(14) 0.0018(14)
C21 0.0168(17) 0.0194(18) 0.0180(17) 0.0024(14) -0.0023(13) 0.0007(14)
C22 0.0163(16) 0.0201(18) 0.0176(17) 0.0019(14) -0.0021(13) 0.0042(13)
C23 0.0200(17) 0.0188(18) 0.0167(17) 0.0019(14) -0.0015(14) 0.0013(14)
C24 0.0184(17) 0.0182(18) 0.0182(17) 0.0052(14) -0.0015(13) 0.0017(13)
C25 0.0197(19) 0.023(2) 0.027(2) 0.0103(16) -0.0053(15) -0.0026(15)
C26 0.0187(18) 0.026(2) 0.031(2) 0.0149(18) -0.0021(16) -0.0026(15)
C27 0.0214(19) 0.033(2) 0.0238(19) 0.0099(17) 0.0006(15) 0.0006(16)
C28 0.028(2) 0.021(2) 0.032(2) 0.0066(17) -0.0059(17) -0.0041(16)
C29 0.032(2) 0.0178(19) 0.030(2) 0.0032(16) -0.0045(17) -0.0003(16)
C30 0.0215(19) 0.020(2) 0.0207(19) 0.0010(16) 0.0002(15) 0.0024(15)
C31 0.0239(19) 0.025(2) 0.0197(18) 0.0035(15) 0.0020(15) 0.0053(15)
C32 0.0216(18) 0.0210(19) 0.0209(18) 0.0029(15) 0.0016(15) 0.0009(14)
C33 0.0187(17) 0.0228(19) 0.0210(18) 0.0001(15) -0.0021(14) 0.0009(14)
C34 0.0215(19) 0.0209(19) 0.029(2) 0.0009(16) -0.0086(16) -0.0003(15)
loop_
_atom_type_symbol
_atom_type_description
_atom_type_scat_dispersion_real
_atom_type_scat_dispersion_imag
_atom_type_scat_source
C C 0.0033 0.0016 'International Tables Vol C Tables 4.2.6.8 and 6.1.1.4'
H H 0.0000 0.0000 'International Tables Vol C Tables 4.2.6.8 and 6.1.1.4'
N N 0.0061 0.0033 'International Tables Vol C Tables 4.2.6.8 and 6.1.1.4'
O O 0.0106 0.0060 'International Tables Vol C Tables 4.2.6.8 and 6.1.1.4'
loop_
_geom_angle_atom_site_label_1
_geom_angle_atom_site_label_2
_geom_angle_atom_site_label_3
_geom_angle
C13 O1 H1 109.5
C30 O2 H2A 109.5
C5 N1 C4 125.8(3)
C22 N2 C21 124.5(3)
C2 C1 H1A 120.3
C17 C1 H1A 120.3
C17 C1 C2 119.4(4)
C1 C2 H2 119.6
C1 C2 C3 120.8(4)
C3 C2 H2 119.6
C2 C3 H3 120.6
C2 C3 C4 118.9(4)
C4 C3 H3 120.6
C3 C4 N1 122.6(3)
C16 C4 N1 117.0(3)
C16 C4 C3 120.4(3)
N1 C5 H5 118.8
N1 C5 C6 122.4(3)
C6 C5 H5 118.8
C5 C6 C7 121.0(3)
C5 C6 C13 119.4(3)
C13 C6 C7 119.6(3)
C8 C7 C6 119.4(3)
C8 C7 C15 117.4(3)
C15 C7 C6 123.2(3)
C7 C8 C9 120.3(3)
C7 C8 C11 119.2(3)
C9 C8 C11 120.5(4)
C8 C9 H9 119.5
C10 C9 C8 121.0(4)
C10 C9 H9 119.5
C9 C10 H10 120.3
C9 C10 C14 119.3(4)
C14 C10 H10 120.3
C8 C11 H11 119.1
C12 C11 C8 121.9(4)
C12 C11 H11 119.1
C11 C12 H12 119.0
C11 C12 C13 122.0(4)
C13 C12 H12 119.0
O1 C13 C6 122.6(3)
O1 C13 C12 119.5(3)
C12 C13 C6 117.9(3)
C10 C14 H14 119.4
C15 C14 C10 121.1(4)
C15 C14 H14 119.4
C7 C15 H15 119.6
C14 C15 C7 120.8(4)
C14 C15 H15 119.6
C4 C16 H16 120.0
C17 C16 C4 119.9(4)
C17 C16 H16 120.0
C1 C17 C16 120.5(4)
C1 C17 H17 119.8
C16 C17 H17 119.8
C19 C18 H18 120.3
C34 C18 H18 120.3
C34 C18 C19 119.5(4)
C18 C19 H19 120.1
C18 C19 C20 119.7(4)
C20 C19 H19 120.1
C19 C20 H20 119.7
C21 C20 C19 120.6(3)
C21 C20 H20 119.7
C20 C21 N2 117.1(3)
C20 C21 C33 119.7(3)
C33 C21 N2 123.2(3)
N2 C22 H22 118.9
N2 C22 C23 122.1(3)
C23 C22 H22 118.9
C22 C23 C24 121.0(3)
C22 C23 C30 119.0(3)
C30 C23 C24 120.0(3)
C25 C24 C23 119.2(3)
C25 C24 C32 117.2(3)
C32 C24 C23 123.6(3)
C24 C25 C26 120.4(3)
C24 C25 C28 119.0(3)
C26 C25 C28 120.6(4)
C25 C26 H26 119.6
C27 C26 C25 120.8(4)
C27 C26 H26 119.6
C26 C27 H27 120.3
C26 C27 C31 119.4(4)
C31 C27 H27 120.3
C25 C28 H28 118.7
C29 C28 C25 122.6(4)
C29 C28 H28 118.7
C28 C29 H29 119.6
C28 C29 C30 120.9(4)
C30 C29 H29 119.6
O2 C30 C23 122.5(3)
O2 C30 C29 119.1(3)
C23 C30 C29 118.4(3)
C27 C31 H31 119.4
C32 C31 C27 121.2(4)
C32 C31 H31 119.4
C24 C32 H32 119.5
C31 C32 C24 121.0(4)
C31 C32 H32 119.5
C21 C33 H33 120.6
C34 C33 C21 118.9(4)
C34 C33 H33 120.6
C18 C34 C33 121.6(4)
C18 C34 H34 119.2
C33 C34 H34 119.2
loop_
_geom_bond_atom_site_label_1
_geom_bond_atom_site_label_2
_geom_bond_distance
O1 H1 0.8400
O1 C13 1.275(5)
O2 H2A 0.8400
O2 C30 1.291(5)
N1 C4 1.419(5)
N1 C5 1.326(5)
N2 C21 1.413(5)
N2 C22 1.322(5)
C1 H1A 0.9500
C1 C2 1.395(6)
C1 C17 1.388(6)
C2 H2 0.9500
C2 C3 1.398(5)
C3 H3 0.9500
C3 C4 1.399(5)
C4 C16 1.392(5)
C5 H5 0.9500
C5 C6 1.395(5)
C6 C7 1.458(5)
C6 C13 1.445(5)
C7 C8 1.417(5)
C7 C15 1.424(5)
C8 C9 1.417(5)
C8 C11 1.441(5)
C9 H9 0.9500
C9 C10 1.368(6)
C10 H10 0.9500
C10 C14 1.403(6)
C11 H11 0.9500
C11 C12 1.343(6)
C12 H12 0.9500
C12 C13 1.443(6)
C14 H14 0.9500
C14 C15 1.381(6)
C15 H15 0.9500
C16 H16 0.9500
C16 C17 1.389(6)
C17 H17 0.9500
C18 H18 0.9500
C18 C19 1.393(6)
C18 C34 1.385(6)
C19 H19 0.9500
C19 C20 1.393(6)
C20 H20 0.9500
C20 C21 1.392(5)
C21 C33 1.404(5)
C22 H22 0.9500
C22 C23 1.409(5)
C23 C24 1.455(5)
C23 C30 1.436(5)
C24 C25 1.410(5)
C24 C32 1.422(5)
C25 C26 1.412(5)
C25 C28 1.433(6)
C26 H26 0.9500
C26 C27 1.375(6)
C27 H27 0.9500
C27 C31 1.387(6)
C28 H28 0.9500
C28 C29 1.351(6)
C29 H29 0.9500
C29 C30 1.436(6)
C31 H31 0.9500
C31 C32 1.381(5)
C32 H32 0.9500
C33 H33 0.9500
C33 C34 1.390(6)
C34 H34 0.9500
loop_
_geom_torsion_atom_site_label_1
_geom_torsion_atom_site_label_2
_geom_torsion_atom_site_label_3
_geom_torsion_atom_site_label_4
_geom_torsion
N1 C4 C16 C17 179.7(3)
N1 C5 C6 C7 178.4(3)
N1 C5 C6 C13 -0.8(5)
N2 C21 C33 C34 -179.8(4)
N2 C22 C23 C24 179.0(3)
N2 C22 C23 C30 -0.1(5)
C1 C2 C3 C4 -0.5(6)
C2 C1 C17 C16 0.0(6)
C2 C3 C4 N1 -179.3(4)
C2 C3 C4 C16 0.2(5)
C3 C4 C16 C17 0.2(5)
C4 N1 C5 C6 -178.6(3)
C4 C16 C17 C1 -0.3(6)
C5 N1 C4 C3 -10.0(6)
C5 N1 C4 C16 170.5(3)
C5 C6 C7 C8 178.1(3)
C5 C6 C7 C15 -3.3(5)
C5 C6 C13 O1 1.2(6)
C5 C6 C13 C12 -179.0(4)
C6 C7 C8 C9 -179.8(3)
C6 C7 C8 C11 2.3(5)
C6 C7 C15 C14 -179.6(4)
C7 C6 C13 O1 -178.1(4)
C7 C6 C13 C12 1.7(5)
C7 C8 C9 C10 -0.4(6)
C7 C8 C11 C12 -1.1(6)
C8 C7 C15 C14 -1.0(6)
C8 C9 C10 C14 -1.3(6)
C8 C11 C12 C13 0.1(7)
C9 C8 C11 C12 -178.9(4)
C9 C10 C14 C15 1.9(6)
C10 C14 C15 C7 -0.7(6)
C11 C8 C9 C10 177.5(4)
C11 C12 C13 O1 179.4(4)
C11 C12 C13 C6 -0.4(6)
C13 C6 C7 C8 -2.6(5)
C13 C6 C7 C15 175.9(4)
C15 C7 C8 C9 1.5(5)
C15 C7 C8 C11 -176.3(4)
C17 C1 C2 C3 0.4(6)
C18 C19 C20 C21 -0.9(6)
C19 C18 C34 C33 0.3(6)
C19 C20 C21 N2 -179.3(3)
C19 C20 C21 C33 0.2(5)
C20 C21 C33 C34 0.8(5)
C21 N2 C22 C23 -177.1(3)
C21 C33 C34 C18 -1.0(6)
C22 N2 C21 C20 -171.9(3)
C22 N2 C21 C33 8.6(5)
C22 C23 C24 C25 -177.3(3)
C22 C23 C24 C32 3.1(5)
C22 C23 C30 O2 -1.8(5)
C22 C23 C30 C29 176.9(3)
C23 C24 C25 C26 179.7(3)
C23 C24 C25 C28 -0.2(5)
C23 C24 C32 C31 178.9(3)
C24 C23 C30 O2 179.1(3)
C24 C23 C30 C29 -2.1(5)
C24 C25 C26 C27 0.8(6)
C24 C25 C28 C29 -1.2(6)
C25 C24 C32 C31 -0.7(5)
C25 C26 C27 C31 0.4(6)
C25 C28 C29 C30 0.8(6)
C26 C25 C28 C29 179.0(4)
C26 C27 C31 C32 -1.8(6)
C27 C31 C32 C24 2.0(6)
C28 C25 C26 C27 -179.3(4)
C28 C29 C30 O2 179.7(4)
C28 C29 C30 C23 0.9(6)
C30 C23 C24 C25 1.8(5)
C30 C23 C24 C32 -177.8(4)
C32 C24 C25 C26 -0.7(5)
C32 C24 C25 C28 179.5(4)
C34 C18 C19 C20 0.6(6)
