#------------------------------------------------------------------------------
#$Date: 2017-11-18 02:00:51 +0200 (Sat, 18 Nov 2017) $
#$Revision: 203308 $
#$URL: file:///home/coder/svn-repositories/cod/cif/4/51/42/4514294.cif $
#------------------------------------------------------------------------------
#
# This file is available in the Crystallography Open Database (COD),
# http://www.crystallography.net/
#
# All data on this site have been placed in the public domain by the
# contributors.
#
data_4514294
loop_
_publ_author_name
'Rashchenko, Sergey V.'
'Bakakin, Vladimir V.'
'Shatskiy, Anton F.'
'Gavryushkin, Pavel N.'
'Seryotkin, Yurii V.'
'Litasov, Konstantin D.'
_publ_section_title
;
 Noncentrosymmetric Na2Ca4(CO3)5 Carbonate of &#x201C;M13M23XY3Z&#x201D;
 Structural Type and Affinity between Borate and Carbonate Structures for
 Design of New Optical Materials
;
_journal_issue                   11
_journal_name_full               'Crystal Growth &amp; Design'
_journal_page_first              6079
_journal_paper_doi               10.1021/acs.cgd.7b01161
_journal_volume                  17
_journal_year                    2017
_chemical_formula_sum            'C5 Ca4 Na2 O15'
_chemical_formula_weight         506.35
_chemical_name_systematic        'disodium tetracalcium pentacarbonate'
_space_group_crystal_system      hexagonal
_space_group_IT_number           186
_space_group_name_Hall           'P 6c -2c'
_space_group_name_H-M_alt        'P 63 m c'
_symmetry_space_group_name_Hall  'P 6c -2c'
_symmetry_space_group_name_H-M   'P 63 m c'
_atom_sites_solution_hydrogens   .
_audit_creation_method           SHELXL-2016/6
_cell_angle_alpha                90
_cell_angle_beta                 90
_cell_angle_gamma                120
_cell_formula_units_Z            2
_cell_length_a                   10.37402(14)
_cell_length_b                   10.37402(14)
_cell_length_c                   6.25935(9)
_cell_measurement_reflns_used    15427
_cell_measurement_temperature    293(2)
_cell_measurement_theta_max      29.4840
_cell_measurement_theta_min      3.9010
_cell_volume                     583.383(14)
_computing_cell_refinement       'CrysAlisPro 1.171.38.46 (Rigaku OD, 2015)'
_computing_data_collection       'CrysAlisPro 1.171.38.46 (Rigaku OD, 2015)'
_computing_data_reduction        'CrysAlisPro 1.171.38.46 (Rigaku OD, 2015)'
_computing_structure_refinement  'SHELXL-2016/6 (Sheldrick, 2016)'
_diffrn_ambient_temperature      293(2)
_diffrn_measured_fraction_theta_full 1.000
_diffrn_measured_fraction_theta_max 1.000
_diffrn_measurement_device_type  'STOE IPDS-2T'
_diffrn_measurement_method       '\w scans'
_diffrn_radiation_type           MoK\a
_diffrn_radiation_wavelength     0.71073
_diffrn_reflns_av_R_equivalents  0.0788
_diffrn_reflns_av_unetI/netI     0.0137
_diffrn_reflns_Laue_measured_fraction_full 1.000
_diffrn_reflns_Laue_measured_fraction_max 1.000
_diffrn_reflns_limit_h_max       14
_diffrn_reflns_limit_h_min       -14
_diffrn_reflns_limit_k_max       14
_diffrn_reflns_limit_k_min       -14
_diffrn_reflns_limit_l_max       8
_diffrn_reflns_limit_l_min       -8
_diffrn_reflns_number            28295
_diffrn_reflns_point_group_measured_fraction_full 1.000
_diffrn_reflns_point_group_measured_fraction_max 1.000
_diffrn_reflns_theta_full        25.242
_diffrn_reflns_theta_max         29.527
_diffrn_reflns_theta_min         2.267
_diffrn_source                   'fine-focus sealed X-ray tube'
_exptl_absorpt_coefficient_mu    2.035
_exptl_absorpt_correction_T_max  1.00000
_exptl_absorpt_correction_T_min  0.76516
_exptl_absorpt_correction_type   multi-scan
_exptl_absorpt_process_details
;
CrysAlisPro 1.171.38.46 (Rigaku Oxford Diffraction, 2015)
Empirical absorption correction using spherical harmonics,
 implemented in SCALE3 ABSPACK scaling algorithm.
;
_exptl_crystal_colour            colorless
_exptl_crystal_density_diffrn    2.883
_exptl_crystal_description       platelet
_exptl_crystal_F_000             504
_exptl_crystal_size_max          0.10
_exptl_crystal_size_mid          0.10
_exptl_crystal_size_min          0.01
_refine_diff_density_max         0.245
_refine_diff_density_min         -0.282
_refine_diff_density_rms         0.058
_refine_ls_abs_structure_details
;
 Flack x determined using 279 quotients [(I+)-(I-)]/[(I+)+(I-)]
 (Parsons, Flack and Wagner, Acta Cryst. B69 (2013) 249-259).
;
_refine_ls_abs_structure_Flack   0.006(18)
_refine_ls_extinction_coef       .
_refine_ls_extinction_method     none
_refine_ls_goodness_of_fit_ref   1.155
_refine_ls_hydrogen_treatment    undef
_refine_ls_matrix_type           full
_refine_ls_number_parameters     52
_refine_ls_number_reflns         636
_refine_ls_number_restraints     1
_refine_ls_restrained_S_all      1.154
_refine_ls_R_factor_all          0.0205
_refine_ls_R_factor_gt           0.0199
_refine_ls_shift/su_max          0.000
_refine_ls_shift/su_mean         0.000
_refine_ls_structure_factor_coef Fsqd
_refine_ls_weighting_details
'w=1/[\s^2^(Fo^2^)+(0.0253P)^2^+0.3286P] where P=(Fo^2^+2Fc^2^)/3'
_refine_ls_weighting_scheme      calc
_refine_ls_wR_factor_gt          0.0499
_refine_ls_wR_factor_ref         0.0505
_reflns_Friedel_coverage         0.838
_reflns_Friedel_fraction_full    1.000
_reflns_Friedel_fraction_max     1.000
_reflns_number_gt                625
_reflns_number_total             636
_reflns_threshold_expression     'I > 2\s(I)'
_cod_data_source_file            Na2Ca4.cif
_cod_data_source_block           shelx
_cod_original_cell_volume        583.383(17)
_cod_database_code               4514294
_shelx_space_group_comment
;
The symmetry employed for this shelxl refinement is uniquely defined
by the following loop, which should always be used as a source of
symmetry information in preference to the above space-group names.
They are only intended as comments.
;
_shelx_res_file
;
TITL E5335_Na2Ca4 in P6(3)mc
    shelx.res
    created by SHELXL-2016/6 at 12:45:57 on 13-Aug-2017
CELL 0.71073  10.374022  10.374022   6.259352  90.0000  90.0000 120.0000
ZERR    2.00   0.000136   0.000136   0.000091   0.0000   0.0000   0.0000
LATT -1
SYMM -y, x-y, z
SYMM -x+y,-x, z
SYMM -x,-y, z+1/2
SYMM  y,-x+y, z+1/2
SYMM  x-y, x, z+1/2
SYMM -y,-x, z
SYMM -x+y, y, z
SYMM  x, x-y, z
SYMM  y, x, z+1/2
SYMM  x-y,-y, z+1/2
SYMM -x,-x+y, z+1/2
SFAC C O Na Ca
UNIT 10.00 30.00 4.00 8.00
ACTA
L.S. 100
FMAP 2
PLAN 20
EADP CA1 NA1
EXYZ CA1 NA1
WGHT    0.025300    0.328600
FVAR       0.31334
NA1   3    0.476986    0.523014    0.841983    10.33333    0.01111    0.01111 =
         0.01860    0.00069   -0.00069    0.00411
CA1   4    0.476986    0.523014    0.841983    10.16667    0.01111    0.01111 =
         0.01860    0.00069   -0.00069    0.00411
CA2   4    0.691988    0.845994    0.531417    10.50000    0.01777    0.01451 =
         0.01583    0.00065    0.00130    0.00888
C1    1    1.000000    1.000000    0.362280    10.16667    0.01385    0.01385 =
         0.00536    0.00000    0.00000    0.00693
O1    2    0.857897    0.928948    0.866070    10.50000    0.01129    0.02244 =
         0.02540    0.00139    0.00278    0.00564
C2    1    0.604468    0.802234    0.067431    10.50000    0.00665    0.00953 =
         0.01267    0.00168    0.00336    0.00332
O2    2    0.551101    0.775550    0.879181    10.50000    0.01544    0.01771 =
         0.01506   -0.00175   -0.00351    0.00772
O3    2    0.708546    1.077075    0.663187    11.00000    0.02041    0.01503 =
         0.01999    0.00391    0.00700    0.00884
C3    1    0.333333    0.666667    0.507930    10.16667    0.01338    0.01338 =
         0.00823    0.00000    0.00000    0.00669
O4    2    0.404412    0.595588    0.510087    10.50000    0.04611    0.04611 =
         0.01795   -0.00179    0.00179    0.03873
HKLF 4
 
 
 
 
REM  E5335_Na2Ca4 in P6(3)mc
REM R1 =  0.0199 for     625 Fo > 4sig(Fo)  and  0.0205 for all     636 data
REM     52 parameters refined using      0 restraints
 
END
 
WGHT      0.0253      0.3286
 
REM Highest difference peak  0.245,  deepest hole -0.282,  1-sigma level  0.058
Q1    1   0.3333  0.6667  0.7636  10.16667  0.05    0.24
Q2    1   0.7388  0.9629  0.5605  11.00000  0.05    0.23
Q3    1   0.8658  0.9329  0.9732  10.50000  0.05    0.22
Q4    1   0.3333  0.6667  0.1627  10.16667  0.05    0.19
Q5    1   0.4931  0.5069  1.0036  10.50000  0.05    0.18
Q6    1   0.8831  0.9416  0.7119  10.50000  0.05    0.18
Q7    1   0.4374  0.5626  0.7123  10.50000  0.05    0.17
Q8    1   0.4178  0.5822  0.8513  10.50000  0.05    0.17
Q9    1   0.9242  0.9621  0.8402  10.50000  0.05    0.16
Q10   1   0.3712  0.6287  0.5300  10.50000  0.05    0.16
Q11   1   0.7971  0.8985  0.6269  10.50000  0.05    0.16
Q12   1   0.4793  0.5207  0.7149  10.50000  0.05    0.16
Q13   1   0.3929  0.6071  0.4207  10.50000  0.05    0.16
Q14   1   0.6842  1.1160  0.7724  11.00000  0.05    0.16
Q15   1   0.6746  1.0371  0.5648  11.00000  0.05    0.15
Q16   1   0.6748  0.9357  0.5791  11.00000  0.05    0.15
Q17   1   0.4167  0.4067  0.7606  11.00000  0.05    0.15
Q18   1   0.8065  0.9032  0.4836  10.50000  0.05    0.15
Q19   1   0.7559  1.0678  0.7558  11.00000  0.05    0.14
Q20   1   0.7433  0.9192  0.4020  11.00000  0.05    0.14
;
_shelx_res_checksum              52619
_shelx_hkl_file
;
   0   0  -8 60.6964 5.06525   1
   0   0  -8 52.8532 4.76896   2
   0   0  -7 0.99302 1.53985   1
   0   0  -7-0.42060 1.60540   3
   0   0  -7-0.53809 1.29569   2
   0   0  -6 980.660 14.5863   3
   0   0  -6 1022.01 15.9094   1
   0   0  -6 977.395 15.0664   2
   0   0  -5 0.03805 0.67132   2
   0   0  -5-0.34506 0.70672   1
   0   0  -5 1.29876 0.84848   3
   0   0  -4 479.917 8.49458   1
   0   0  -4 494.426 8.33837   2
   0   0  -4 493.203 7.98996   3
   0   0  -3 0.42599 0.35885   2
   0   0  -3-0.01868 0.35724   4
   0   0  -3 0.41184 0.43366   5
   0   0  -3 0.11549 0.28282   3
   0   0  -3-0.19343 0.41509   1
   0   0  -2 650.989 6.32391   3
   0   0  -2 656.640 6.82564   1
   0   0  -2 734.090 7.03587   2
   0   0  -2 662.712 7.04505   5
   0   0  -1 0.30666 0.18427   1
   0   0  -1 0.82855 0.21317   3
   0   0  -1 0.77191 0.23819   4
   0   0  -1 0.60300 0.20265   5
   0   0  -1 0.49874 0.22202   2
   0   0   1 0.72787 0.24995   5
   0   0   1 0.48698 0.19534   3
   0   0   1 0.75746 0.23724   4
   0   0   1 0.65858 0.22187   2
   0   0   1 0.46326 0.23125   1
   0   0   2 637.350 6.70460   1
   0   0   2 718.094 6.75030   3
   0   0   2 606.833 6.03940   4
   0   0   2 693.932 7.05538   5
   0   0   2 688.529 6.89513   2
   0   0   3 0.69351 0.41039   3
   0   0   3 0.60400 0.52743   5
   0   0   3 0.21487 0.33749   1
   0   0   3 0.66062 0.48557   4
   0   0   3 0.14395 0.37608   2
   0   0   4 535.968 8.19489   4
   0   0   4 527.687 8.80564   2
   0   0   4 484.795 8.09741   3
   0   0   4 534.656 8.97663   1
   0   0   4 530.219 8.56529   4
   0   0   5 0.35046 0.61956   4
   0   0   5 0.36365 0.76514   2
   0   0   5-0.46832 0.69557   1
   0   0   5 0.43075 0.79283   3
   0   0   5 1.02045 0.88064   5
   0   0   5 1.73113 0.90463   4
   0   0   6 817.837 14.1003   2
   0   0   6 865.702 14.4948   3
   0   0   6 859.923 14.8266   5
   0   0   6 979.790 15.6606   1
   0   0   6 833.488 14.1918   5
   0   0   6 1011.51 14.7004   4
   0   0   6 1037.38 15.4563   4
   0   0   7-1.67277 1.67433   5
   0   0   7-0.47531 1.38442   4
   0   0   7 0.09296 1.38842   2
   0   0   7-0.78178 1.36979   5
   0   0   7 0.06492 1.52797   1
   0   0   7 1.36828 1.45550   3
   0   0   7-1.38660 1.42232   4
   0   0   8 65.4173 5.11337   2
   0   0   8 57.6071 4.64163   4
   0   0   8 57.0657 4.80770   3
   0   0   8 58.8609 4.86657   3
   0   0   8 73.4925 5.61213   5
   0   0   8 62.0852 5.18767   1
   0   0   8 55.2399 4.72442   5
   0   0   8 50.3421 4.49295   4
   1   0  -8 2.88350 1.96991   2
   0   1  -8 2.72988 1.85319   3
   0  -1  -8 1.66480 1.80170   2
  -1   0  -8 0.63336 1.99255   2
  -1   1  -8 3.44349 2.26889   2
   0  -1  -8 6.29600 2.73599   1
   1   0  -8 3.65980 1.89629   3
   0   1  -8 3.35168 2.14455   2
   1  -1  -8 4.97942 2.35159   2
  -1   0  -8 5.66031 2.15077   1
   1  -1  -8 3.41542 2.31028   1
  -1   1  -8 4.24015 1.92505   3
   1   0  -8 2.93270 2.10659   1
   0   1  -8 1.44889 2.14308   1
  -1   1  -8 1.20892 2.10827   1
   0   1  -7 4.84394 1.72823   1
  -1   0  -7 5.36183 1.73550   1
   1   0  -7 5.21954 1.77080   2
   0   1  -7 3.93021 1.67975   3
  -1   0  -7 3.79369 1.57241   2
   1  -1  -7 5.40127 1.67857   2
   0  -1  -7 6.70163 2.07357   1
  -1   1  -7 2.78822 1.62156   2
  -1   1  -7 2.22647 1.51222   3
   0  -1  -7 6.24953 1.80402   2
  -1   1  -7 1.25803 1.29614   1
   1  -1  -7 5.19314 1.98088   1
   1   0  -7 3.94843 1.43874   3
   1   0  -7 4.42262 1.74720   1
   0   1  -7 5.78605 1.74901   2
  -1   0  -7 5.26494 1.69531   3
   1   0  -6 12.7514 2.01436   1
  -1   1  -6 14.3284 2.11085   1
   1   0  -6 15.4075 1.97149   2
  -1   0  -6 12.7671 2.08790   1
   1  -1  -6 18.3211 2.20190   2
   1  -1  -6 20.9038 2.56516   1
   1  -1  -6 18.3414 2.13370   3
   0  -1  -6 8.86474 1.93588   5
   0  -1  -6 20.6080 2.35944   2
  -1   0  -6 15.1191 2.11875   3
  -1   1  -6 11.8975 2.02143   2
  -1   0  -6 18.2388 2.29458   2
  -1   1  -6 14.7490 2.05666   3
   0  -1  -6 16.0702 2.22111   1
   0   1  -6 13.2400 1.95341   2
   1  -1  -6 12.8404 2.18029   5
   0   1  -6 16.6385 2.20974   1
   1   0  -6 15.1197 1.91842   3
   0   1  -6 14.0466 1.95157   3
   1  -1  -5 55.4057 3.06460   3
  -1   1  -5 54.5330 3.38959   1
   0   1  -5 62.3191 3.56407   2
   0   1  -5 63.6665 3.60722   1
   1  -1  -5 56.2100 3.39644   1
  -1   0  -5 66.5683 3.71441   1
   1  -1  -5 61.0239 3.50428   5
   0  -1  -5 47.1112 2.96513   3
  -1   1  -5 49.6015 3.19042   2
   0   1  -5 59.8722 3.10469   4
   1   0  -5 66.0495 3.65084   1
   0  -1  -5 44.3546 3.18589   5
  -1   1  -5 52.5646 3.15458   3
   0   1  -5 59.9913 3.23578   3
   0  -1  -5 57.8458 3.40656   1
   1   0  -5 64.0729 3.43598   2
   1   0  -5 57.8552 3.07581   3
   1  -1  -5 63.9164 3.40847   2
  -1   0  -5 43.0419 2.94303   2
   0  -1  -5 56.0064 3.29632   2
  -1   0  -5 58.0693 3.30943   3
  -1   0  -5 51.2935 3.29257   5
   0  -1  -4 2.85714 0.72580   3
   1  -1  -4 2.15713 0.76257   2
   0  -1  -4 2.60242 0.88694   2
   1  -1  -4 2.65524 0.75684   5
   1   0  -4 1.93372 0.65018   3
  -1   1  -4 2.23103 0.74160   3
  -1   0  -4 2.10429 0.75293   2
   1   0  -4 2.22491 0.67801   4
  -1   1  -4 3.17197 0.92168   2
   0   1  -4 2.06725 0.71827   1
   0   1  -4 3.92802 0.82403   4
   0   1  -4 4.10263 0.98941   2
   1  -1  -4 2.34400 0.73539   3
   1  -1  -4 2.38759 0.79574   1
  -1   0  -4 0.79718 0.53409   5
   0  -1  -4 1.56724 0.70820   1
  -1   0  -4 3.11878 0.79640   3
  -1   1  -4 1.85401 0.62012   4
  -1   0  -4 3.90156 1.05461   1
   1   0  -4 3.77385 0.82242   2
  -1   1  -4 2.29702 0.80299   1
   1   0  -4 4.37821 0.91720   1
   0  -1  -4 2.63672 0.82819   5
   1   0  -4 0.59710 0.56699   5
   0   1  -4 1.51280 0.66147   3
  -1   1  -3 531.236 7.70818   2
   0  -1  -3 478.422 7.53698   5
  -1   1  -3 535.396 7.72402   1
   1   0  -3 557.386 7.61577   1
   0   1  -3 522.255 7.45040   1
  -1   0  -3 504.537 7.31206   3
   1   0  -3 566.626 7.52041   2
   0   1  -3 518.257 7.48319   2
   1  -1  -3 512.861 6.65776   3
   0  -1  -3 487.612 6.95186   3
  -1   0  -3 580.363 8.28379   1
   1   0  -3 488.979 6.79354   5
  -1   0  -3 515.547 7.61407   2
   0  -1  -3 468.035 7.06131   2
  -1   0  -3 509.069 7.96414   5
   1  -1  -3 528.912 7.09404   2
  -1   1  -3 498.194 7.14178   4
   1  -1  -3 541.694 7.54767   5
   1   0  -3 534.527 6.53634   4
   0   1  -3 589.925 7.65005   3
   0  -1  -3 510.125 7.76308   1
   1  -1  -3 494.926 7.33736   1
  -1   0  -2 4.82701 0.68696   5
   1   0  -2 7.30914 0.68951   3
   1  -1  -2 5.99336 0.69820   1
  -1   1  -2 6.68648 0.76408   4
   0  -1  -2 5.70812 0.69805   2
  -1   0  -2 5.45353 0.72879   1
   1   0  -2 5.78483 0.67943   1
   0  -1  -2 4.82325 0.71040   1
  -1   1  -2 5.45360 0.68144   1
   1   0  -2 6.40953 0.58988   4
   1  -1  -2 5.49282 0.59835   3
   1  -1  -2 5.35765 0.65967   5
   0   1  -2 6.06823 0.69527   1
  -1   0  -2 5.71452 0.71783   3
   0  -1  -2 6.34472 0.78355   5
   1   0  -2 5.25391 0.59409   5
  -1   1  -2 4.47648 0.66341   3
   1   0  -2 6.65803 0.69297   2
  -1   1  -2 5.27184 0.68262   2
   0   1  -2 4.01612 0.61151   3
   0   1  -2 5.89041 0.74410   2
   0   1  -2 6.44167 0.65493   4
   1  -1  -2 6.37249 0.67523   2
  -1   0  -2 6.67866 0.76195   2
   1   0  -1 38.2923 0.93548   5
   0  -1  -1 51.5953 1.67143   5
  -1   1  -1 49.3466 1.43629   4
   1   0  -1 47.6895 1.13296   3
   1   0  -1 39.6345 0.91543   4
   0   1  -1 46.4758 1.38034   3
  -1   1  -1 45.0270 1.28930   1
   1  -1  -1 49.5908 1.33612   1
  -1   0  -1 44.8083 1.45892   2
  -1   1  -1 47.3922 1.49668   5
   0  -1  -1 46.0226 1.46782   3
   0   1  -1 42.2246 1.33565   1
  -1   0  -1 53.3877 1.51851   3
  -1   1  -1 43.8879 1.37506   3
   0  -1  -1 47.1605 1.53822   4
   0  -1  -1 34.7960 1.28910   1
   0   1  -1 45.3677 1.29062   4
   0   1  -1 44.2190 1.25526   5
   1  -1  -1 47.1118 1.18541   4
  -1   1  -1 42.4834 1.36100   2
   0   1  -1 39.7029 1.31731   2
   1   0  -1 41.4853 1.27321   1
   1  -1  -1 44.2191 1.10498   2
   1   0  -1 46.1852 1.21431   2
  -1   0  -1 47.2193 1.55584   5
   1  -1  -1 51.3554 1.48951   5
  -1   0  -1 43.0617 1.40956   1
   0  -1  -1 35.5318 1.26710   2
  -1   1   0 19.8479 0.70926   5
   0   1   0 14.6930 0.64348   5
   1   0   0 21.2409 0.63430   2
   0  -1   0 18.7178 0.68057   2
   0   1   0 15.3366 0.64169   4
   0  -1   0 18.7108 0.71421   4
   0   1   0 14.5204 0.56918   1
   0   1   0 17.2986 0.64400   2
  -1   0   0 21.4515 0.64252   3
   1   0   0 17.3151 0.57212   3
   0  -1   0 20.2061 0.72966   5
   0  -1   0 13.8688 0.54629   1
  -1   0   0 13.0898 0.51039   2
  -1   1   0 21.1835 0.62013   4
   1  -1   0 18.8278 0.68558   5
   1   0   0 19.8891 0.61926   1
  -1   0   0 19.1069 0.61087   1
   0   1   0 16.9993 0.66141   3
   1  -1   0 16.3997 0.55412   4
   0  -1   0 14.7407 0.62078   3
   0   1   1 38.0019 1.37748   4
   1   0   1 50.4894 1.54321   4
   0  -1   1 44.7850 1.36962   3
   1  -1   1 42.3943 1.35637   2
  -1   0   1 42.3206 1.17242   2
   1  -1   1 43.7550 1.39233   3
  -1   1   1 48.3905 1.10575   3
   0  -1   1 45.4244 1.27823   5
   0  -1   1 40.1321 1.29761   1
  -1   0   1 45.2618 1.10446   3
   0   1   1 48.2226 1.47186   1
  -1   1   1 45.9766 1.40599   5
  -1   0   1 43.3610 0.94780   4
  -1   1   1 50.7534 1.15754   3
   1   0   1 52.8341 1.56415   1
   0   1   1 55.5198 1.55997   3
   0  -1   1 43.4147 1.35619   2
   1   0   1 50.0036 1.48967   3
   0  -1   1 43.5641 1.28073   4
   1   0   1 45.9847 1.49301   5
   0   1   1 51.0500 1.65524   5
   1   0   1 45.5915 1.46593   2
   1   0   1 46.8057 1.42680   4
   1  -1   1 44.4761 1.46218   5
  -1   1   1 48.6221 1.32365   1
   1  -1   1 49.6330 1.45683   4
  -1   1   1 39.2634 1.08947   4
  -1   0   1 38.6244 0.92037   5
  -1   0   1 44.0117 1.30958   1
   1  -1   1 45.3634 1.28148   1
   0   1   1 47.2387 1.40638   2
  -1   1   1 47.2663 1.15503   2
   0   1   2 3.43452 0.56496   2
  -1   0   2 4.38630 0.50253   4
   0   1   2 4.46735 0.66528   1
  -1   1   2 5.02654 0.61700   1
   1   0   2 4.55118 0.66778   5
  -1   1   2 3.11172 0.44302   4
   0  -1   2 4.45960 0.66773   1
   1  -1   2 3.90517 0.60698   4
  -1   1   2 4.38423 0.58371   2
  -1   0   2 4.15629 0.61452   1
   0  -1   2 3.24924 0.58329   5
   1  -1   2 4.96391 0.70456   2
  -1   1   2 4.56798 0.64770   5
   1   0   2 3.47983 0.67002   4
  -1   0   2 4.30952 0.54838   3
   1  -1   2 3.08812 0.53321   5
  -1   0   2 4.83460 0.56273   5
   0  -1   2 4.53758 0.59220   5
   1  -1   2 4.15467 0.62544   5
  -1   0   2 3.93752 0.53198   2
   1  -1   2 5.85854 0.67827   1
  -1   1   2 4.19006 0.55289   4
   1   0   2 4.83396 0.70082   3
   0  -1   2 3.49278 0.51925   4
   1   0   2 4.12394 0.63522   2
   0   1   2 4.02750 0.59850   4
   0   1   2 4.39632 0.59789   3
   1   0   2 5.03478 0.64960   4
   1  -1   2 3.09064 0.52653   3
   0   1   2 4.39382 0.64264   5
   0  -1   2 2.64083 0.49016   3
   0  -1   2 3.26114 0.52372   2
  -1   1   2 3.32785 0.47763   3
   1   0   2 4.35980 0.64878   1
   1   0   3 534.978 7.49316   4
   1   0   3 569.760 7.93359   3
   0  -1   3 527.372 7.03816   4
   0   1   3 439.985 7.15442   1
   0   1   3 478.857 7.03063   3
   0  -1   3 543.563 7.56331   5
   1  -1   3 523.455 7.69394   2
   1  -1   3 493.917 7.11286   4
  -1   1   3 429.668 6.25324   4
  -1   0   3 496.162 6.86977   3
   0  -1   3 498.540 7.34083   2
  -1   0   3 466.784 6.70286   5
   1   0   3 512.101 7.96540   5
   0   1   3 516.024 7.45902   4
   1  -1   3 534.013 7.61890   3
  -1   1   3 525.989 6.66208   4
   0   1   3 497.146 7.75598   5
  -1   1   3 557.534 7.72398   5
   0  -1   3 492.363 7.33022   1
   0   1   3 518.623 7.18557   4
   1   0   3 528.034 7.76489   4
  -1   0   3 501.722 7.02872   2
  -1   1   3 408.466 6.66546   1
   0   1   3 439.101 7.10754   2
  -1   1   3 519.064 7.24653   2
  -1   1   3 467.515 6.50701   3
   1  -1   3 526.837 7.71137   5
  -1   0   3 557.620 7.76315   1
   1  -1   3 530.074 7.97999   5
  -1   1   4 3.29986 0.82771   5
  -1   0   4 2.16971 0.68056   2
  -1   1   4 3.66986 0.83710   1
  -1   1   4 3.53856 0.79559   3
   0   1   4 4.11854 0.85360   3
   0   1   4 2.58578 0.82883   5
   0  -1   4 2.84266 0.80158   5
   0  -1   4 3.88646 0.90939   2
   1  -1   4 2.64751 0.79050   1
   1  -1   4 2.46216 0.86412   3
  -1   0   4 2.10691 0.69529   3
   0  -1   4 2.63851 0.77172   3
   0   1   4 3.67704 0.95202   2
   1   0   4 4.24845 0.97354   2
  -1   1   4 2.87622 0.73130   4
   1  -1   4 2.85096 0.82864   5
   1   0   4 4.67853 0.94759   3
  -1   1   4 1.62555 0.72839   2
   0  -1   4 3.10555 0.74463   4
   1   0   4 5.19291 1.13656   4
   0  -1   4 2.38970 0.79203   1
   1  -1   4 3.55139 0.91312   2
  -1   0   4 2.39374 0.75732   5
   1   0   4 4.84233 1.04826   1
   0   1   4 2.91777 0.85018   1
   0   1   4 3.06117 0.79413   4
   1   0   4 1.91021 0.78660   5
  -1   1   4 2.84306 0.74870   4
   0  -1   4 3.04082 0.75739   5
   0   1   4 3.09334 0.95174   4
  -1   0   4 3.99790 0.92742   1
  -1   0   4 3.73344 0.78001   4
   1  -1   4 4.05917 0.83800   4
   1   0   4 4.27182 0.88578   4
   1  -1   4 1.41505 0.61304   5
  -1   1   5 55.3168 3.12627   4
   1   0   5 59.1785 3.30987   4
   1  -1   5 58.4491 3.53028   2
   0   1   5 59.6534 3.41491   4
  -1   0   5 65.1435 3.49765   5
   0   1   5 58.9117 3.47633   1
   0  -1   5 56.5123 3.33871   2
  -1   0   5 58.8333 3.16318   5
  -1   0   5 66.6805 3.33209   4
  -1   1   5 55.7660 3.13344   3
   0  -1   5 61.5352 3.56560   1
  -1   0   5 64.7132 3.46356   3
  -1   0   5 54.6325 2.98746   4
   1  -1   5 44.5719 3.02766   1
   0  -1   5 61.7528 3.44862   3
   0   1   5 55.0773 3.22257   3
   0  -1   5 54.9299 3.13190   4
   0   1   5 53.2500 3.09586   4
   0   1   5 54.6302 3.31728   2
  -1   1   5 47.6643 3.15213   1
   1   0   5 34.7448 3.14078   2
   1  -1   5 64.1806 3.63738   5
  -1   1   5 63.0520 3.20376   4
   1  -1   5 54.1369 3.24376   5
   1  -1   5 46.4133 2.98826   4
  -1   1   5 59.2454 3.38642   5
  -1   1   5 47.8312 3.06479   2
   1   0   5 60.1446 3.49707   3
   0  -1   5 48.1408 2.99781   5
  -1   0   5 44.9488 3.18089   1
  -1   0   5 59.8116 3.36729   2
   1   0   5 59.2518 3.65624   5
   1  -1   5 62.8772 3.48503   3
   0   1   5 56.7870 3.52033   5
   1   0   5 56.6255 3.39824   1
   0  -1   5 49.6209 3.11865   5
   1   0   5 50.4988 3.19986   4
   1  -1   6 15.9750 2.27526   5
   0  -1   6 18.3851 2.11202   4
  -1   1   6 17.3087 2.07026   4
   0   1   6 19.0248 2.37071   1
   0  -1   6 18.9875 2.19564   4
   1   0   6 15.7031 2.30935   3
   0  -1   6 18.7712 2.53110   1
  -1   1   6 13.7643 2.10694   5
   1  -1   6 18.2329 2.27128   2
   0  -1   6 18.7273 2.34047   3
   1  -1   6 24.4091 2.61010   5
   1   0   6 27.0248 2.82723   5
  -1   0   6 13.3087 2.09236   2
   1   0   6 16.2153 2.21084   2
   0   1   6 16.7281 2.26702   5
  -1   0   6 15.7739 2.33303   1
   1   0   6 14.4335 2.24085   5
   1  -1   6 10.3071 1.93632   3
   0   1   6 12.6511 1.90076   4
   0  -1   6 18.6977 2.32634   2
   1  -1   6 16.7810 2.35459   4
   0   1   6 18.8674 2.31844   3
   1   0   6 16.2669 2.12331   4
  -1   0   6 17.7885 2.07772   5
  -1   1   6 17.5658 2.15544   4
  -1   0   6 17.7772 2.02242   4
  -1   0   6 20.4519 2.24139   4
   1  -1   6 22.8096 2.53692   1
   0  -1   6 16.9486 2.21401   5
   1   0   6 22.7280 2.48405   4
   0   1   6 15.0120 2.03472   4
  -1   1   6 14.8105 2.04482   1
  -1   0   6 18.9749 2.28570   5
  -1   0   6 16.9137 2.17502   3
   0   1   6 20.5734 2.37900   2
   1   0   6 17.1098 2.29892   1
   0  -1   6 14.2093 2.06878   5
   1  -1   6 18.2867 2.12566   4
  -1   1   6 13.9084 1.95542   2
  -1   1   6 12.8863 1.91297   3
   1  -1   7 2.52721 1.70016   5
   0  -1   7 5.89842 1.72085   1
  -1   1   7 5.96169 1.59657   3
  -1   1   7 2.72781 1.54717   5
   0   1   7 7.38517 2.16021   5
  -1   1   7 3.34525 1.43682   4
  -1   1   7 5.47175 1.74335   2
   1  -1   7 2.28601 1.59801   2
   0   1   7 6.17680 1.86465   2
   1   0   7 1.57096 1.35677   1
  -1   1   7 2.11818 1.58767   5
   0  -1   7 3.06298 1.53585   2
  -1   0   7 2.74237 1.54549   5
  -1   0   7 4.70109 1.77863   3
   1   0   7 4.79999 1.77856   4
   0  -1   7 3.84419 1.55391   4
  -1   0   7 3.11937 1.71713   2
   0   1   7 7.05077 1.87517   4
   0   1   7 3.33497 1.69477   4
   0   1   7 2.51061 1.61330   1
  -1   0   7 2.60024 1.38677   4
   0  -1   7 5.29887 1.83541   3
   1  -1   7 3.75920 1.75212   1
   0  -1   7 1.85946 1.59884   4
  -1   0   7 3.08983 1.33918   4
   1  -1   7 4.22793 1.51139   3
   1  -1   7 0.64205 1.49562   4
   1  -1   7 3.47036 1.72457   5
   1   0   7 7.34341 2.05659   5
   1   0   7 3.59836 1.56108   2
   0  -1   7 5.23868 1.77432   5
   1   0   7 7.42875 2.13294   4
  -1   0   7 4.03012 1.55275   5
   0  -1   7 3.53799 1.84495   5
   1  -1   7 4.15467 1.73882   4
  -1   1   7 3.80559 1.50113   4
   0   1   7 3.87642 1.81356   5
   1   0   7 4.72072 1.69372   3
  -1   1   7 3.89894 1.83861   1
  -1   1   7 4.97610 1.86564   3
  -1   0   7 3.56617 1.86340   1
   0   1   7 2.71609 1.53356   3
   1   0   7 3.03166 1.70110   5
   0   1   7 3.82088 1.76466   3
   1  -1   8 11.9914 3.33469   4
  -1   0   8 2.09270 1.78746   4
   0  -1   8 4.00750 2.03403   4
   0  -1   8 4.22777 2.18713   5
   1   0   8 2.71757 2.22586   5
   0   1   8 4.27861 2.10328   1
   1   0   8 3.93539 2.35505   3
  -1   0   8 1.68785 1.86457   4
   1   0   8 4.44846 2.39875   3
  -1   0   8 2.04227 2.15116   5
  -1   1   8 3.08610 2.09861   3
  -1   0   8 5.16595 2.78217   1
   0   1   8 3.74241 2.14367   3
  -1   1   8 3.11557 1.94353   4
  -1   1   8 0.64793 1.82274   2
  -1   0   8 2.46062 1.90213   3
  -1   1   8 3.80142 1.93171   4
   0  -1   8 3.26746 1.94242   5
   1   0   8 6.64239 2.61330   1
   0   1   8 1.35207 2.10608   2
   1  -1   8 2.34009 1.92423   4
   1  -1   8 5.36729 2.18476   3
   0   1   8 3.45268 2.13117   3
   0  -1   8 4.28061 2.14785   1
  -1   1   8 0.73121 1.90466   3
   1  -1   8 3.73510 2.25910   1
  -1   0   8 6.74568 2.28983   5
   1  -1   8 2.87634 2.01162   5
  -1   0   8 6.10560 2.34694   2
  -1   1   8 3.93615 2.20096   5
   1   0   8 2.55040 2.34308   4
   1   0   8 8.56114 2.84633   5
   1   0   8 3.88563 2.83376   2
  -1   1   8 2.34201 2.09437   1
   1   0   8 6.01009 2.39614   4
   0   1   8 1.94351 2.14340   5
   0   1   8 3.15644 2.02727   4
   0  -1   8 5.99472 2.16818   3
  -1   1   8 5.39602 2.38406   5
   1  -1   8 6.93902 2.70703   5
   0   1   8 2.94485 1.83471   4
   0  -1   8 7.71490 2.44064   4
   1  -1   8 3.62723 1.96319   2
   0  -1   8 4.61174 2.35279   2
   0   1   8 3.25439 2.15887   5
  -1  -1  -8 22.8526 3.38085   1
   1   1  -8 18.2053 2.92214   3
   2  -1  -8 18.0236 3.02124   1
  -1   2  -8 14.6062 3.09843   1
  -2   1  -8 20.1961 3.32211   2
   1  -2  -8 17.6261 3.33029   1
  -1   2  -8 17.1974 3.24497   2
   1   1  -8 19.0732 3.20087   1
   1  -2  -8 14.4496 2.83311   2
   1   1  -8 21.0930 3.34949   2
  -2   1  -8 20.4248 3.27349   1
   2  -1  -8 21.6597 3.09011   2
  -1   2  -8 18.4002 2.94978   3
  -1  -1  -8 14.1012 2.72077   2
  -1   2  -7-0.28961 1.25469   1
  -1   2  -7-0.79948 1.26185   3
  -2   1  -7 1.00030 1.41387   1
  -1   2  -7-0.34614 1.25037   2
   2  -1  -7-0.44644 1.27447   1
   1  -2  -7 2.16965 1.46613   5
  -2   1  -7 2.34025 1.66153   3
   1  -2  -7 1.95394 1.53997   2
   1   1  -7-0.47993 1.24301   1
   1  -2  -7 1.23721 1.51044   1
   1   1  -7-0.24219 1.37446   2
  -1  -1  -7 1.16325 1.62763   1
  -1  -1  -7 0.30972 1.48486   2
  -2   1  -7 1.76714 1.69129   2
   1   1  -7 1.10272 1.30297   3
   2  -1  -7-0.30765 1.50097   2
   2  -1  -6 5.97895 1.38743   3
   1  -2  -6 5.70247 1.36638   2
  -1  -1  -6 4.93039 1.54430   5
  -1  -1  -6 6.77452 1.56408   2
  -2   1  -6 5.92867 1.44655   3
   2  -1  -6 7.12711 1.48049   2
  -1   2  -6 6.91384 1.49762   2
  -1  -1  -6 4.58354 1.56673   1
   1  -2  -6 10.1822 1.86551   1
  -2   1  -6 7.89989 1.61286   2
   1   1  -6 5.18726 1.24442   3
   1   1  -6 9.16728 1.67503   2
   1  -2  -6 8.77003 1.89078   5
  -1   2  -6 4.89838 1.23891   4
  -1   2  -6 7.91572 1.50998   3
   2  -1  -6 8.98849 1.80609   1
  -2   1  -6 6.62356 1.71590   1
   2  -1  -6 10.9578 1.75320   5
   1   1  -6 5.92371 1.64536   1
  -1   2  -6 6.34260 1.46736   1
   2  -1  -5 0.53307 0.66777   3
  -2   1  -5 0.22921 0.64560   2
   1  -2  -5 0.66239 0.70826   2
   1   1  -5 0.18166 0.74109   1
   2  -1  -5 0.72918 0.81835   1
   1  -2  -5-0.06218 0.68818   1
  -1   2  -5 0.64322 0.64217   2
  -1  -1  -5 0.67133 0.99792   5
  -1   2  -5-0.55622 0.80690   1
  -1   2  -5-0.38442 0.59558   3
  -2   1  -5 0.32195 0.63975   1
   1   1  -5 0.75081 0.71178   2
   2  -1  -5 0.27790 0.71725   2
  -1  -1  -5 0.47564 0.90012   1
   1   1  -5 0.61663 0.76958   3
   1  -2  -5-0.44011 0.81437   5
   2  -1  -5 0.28992 0.63331   5
  -2   1  -5-0.92363 0.80403   3
   1   1  -5-0.34798 0.56758   4
  -1  -1  -5 0.59362 0.85853   2
  -1   2  -5-0.11060 0.58423   4
   1  -2  -4 3.12304 0.85499   5
  -1   2  -4 3.19728 0.86755   2
   2  -1  -4 2.38847 0.68722   5
  -2   1  -4 5.46845 1.15965   1
   2  -1  -4 6.17479 0.95844   3
  -2   1  -4 4.41490 0.92787   4
  -1   2  -4 3.24309 0.86510   3
   1   1  -4 4.73396 1.02631   1
   1  -2  -4 4.06675 0.87241   2
   1   1  -4 3.76389 0.78894   4
   2  -1  -4 3.60526 0.81458   2
  -2   1  -4 3.73781 0.87551   3
  -1   2  -4 3.71275 0.83393   4
   2  -1  -4 5.59349 1.02148   1
   1  -2  -4 4.61065 0.93374   1
   1   1  -4 5.44332 0.96066   3
  -1  -1  -4 3.10508 0.84398   2
  -1  -1  -4 4.22788 0.97140   1
  -1  -1  -4 3.58360 0.95869   5
   1   1  -4 4.55925 0.95057   2
  -1   2  -4 4.41959 0.96956   1
  -2   1  -4 4.38769 1.00269   2
  -1   2  -3-0.06077 0.45294   2
   2  -1  -3-0.06425 0.29683   2
   2  -1  -3 0.34848 0.43164   1
   2  -1  -3 0.21861 0.31573   5
   1   1  -3 0.11019 0.36747   2
   1   1  -3 0.49172 0.52079   1
   2  -1  -3 0.07859 0.31130   3
  -1   2  -3 0.30984 0.44210   4
   1   1  -3 0.54270 0.38620   4
  -2   1  -3 1.09675 0.60497   1
  -1  -1  -3 0.70185 0.50979   2
   1  -2  -3 0.61705 0.46523   2
  -2   1  -3 0.82913 0.49138   3
  -1   2  -3 0.69598 0.55504   3
   1   1  -3-0.15837 0.32162   3
   1  -2  -3 1.09342 0.52485   1
  -2   1  -3 0.12656 0.42737   2
   1  -2  -3 0.13362 0.42961   5
  -2   1  -3-0.22149 0.33907   4
  -1   2  -3 0.07852 0.34138   1
  -1  -1  -3 0.34975 0.50908   5
  -1  -1  -3 0.01311 0.44743   1
  -2   1  -2 197.563 4.07923   1
   1  -2  -2 202.646 4.43254   5
   2  -1  -2 246.577 3.66771   2
  -2   1  -2 241.433 4.37091   3
  -1   2  -2 235.269 4.41428   3
   2  -1  -2 229.591 3.93973   1
  -1  -1  -2 254.328 4.86276   4
  -2   1  -2 231.993 4.31294   4
   2  -1  -2 208.524 2.97717   3
  -2   1  -2 229.754 4.45213   2
  -1   2  -2 233.016 4.40602   2
   1  -2  -2 236.788 4.34498   1
  -1  -1  -2 231.177 4.75137   5
   1   1  -2 214.172 3.54019   4
  -1  -1  -2 189.885 4.10781   2
   1  -2  -2 241.024 4.38674   4
  -1  -1  -2 193.859 4.18588   1
   1   1  -2 229.174 4.23460   1
   1   1  -2 225.668 4.06777   2
  -1   2  -2 226.658 4.24384   4
   1   1  -2 182.135 3.58964   3
  -1   2  -2 246.347 4.50624   5
   1  -2  -2 228.200 3.94338   2
   2  -1  -2 192.838 3.39502   5
  -1   2  -1 0.19827 0.20740   1
  -2   1  -1-0.38959 0.30995   2
  -1  -1  -1 0.44500 0.38442   3
  -1   2  -1 0.11548 0.28465   5
  -1  -1  -1-0.05828 0.26480   5
   1  -2  -1 0.61322 0.29056   2
  -1   2  -1 0.37823 0.32698   4
  -1   2  -1-0.25127 0.23509   3
  -2   1  -1 0.25162 0.25967   1
   2  -1  -1 0.31309 0.23382   5
   2  -1  -1-0.04815 0.17145   1
   1   1  -1-0.00532 0.25898   1
   2  -1  -1 0.34050 0.12959   2
   1  -2  -1 0.46160 0.24215   1
   1   1  -1 0.15159 0.24807   3
   1  -2  -1 0.76365 0.33410   4
  -1   2  -1 0.39267 0.26327   2
  -1  -1  -1 0.08794 0.29495   4
   1   1  -1 0.69027 0.19553   5
   1  -2  -1 0.05713 0.28325   5
  -1  -1  -1 0.19038 0.22243   1
   1   1  -1 0.45647 0.28122   2
   1   1  -1 0.42147 0.21435   4
  -2   1  -1 0.62443 0.27753   3
   1  -2  -1 0.27654 0.25719   3
  -2   1  -1 0.10329 0.25441   4
   1  -2   0 115.061 1.89242   2
   2  -1   0 125.355 1.51947   3
   1   1   0 114.515 2.22413   3
   2  -1   0 100.032 1.35309   2
  -1  -1   0 118.325 2.20604   2
   1  -2   0 97.0546 1.50663   1
  -2   1   0 117.866 1.90823   5
  -1   2   0 136.782 2.57211   5
   1  -2   0 117.698 2.10173   3
  -2   1   0 105.857 1.50933   4
   1  -2   0 122.637 2.48488   5
  -1   2   0 120.115 2.23802   4
  -1  -1   0 102.654 2.09538   3
   1   1   0 119.833 2.24900   2
   1   1   0 124.038 2.11218   5
   2  -1   0 128.827 2.00994   5
  -1   2   0 115.265 1.62613   1
   2  -1   0 121.471 1.60602   4
  -1  -1   0 97.9748 1.88839   5
  -2   1   0 126.192 1.51261   1
  -2   1   0 129.360 1.57873   3
  -1   2   0 128.844 2.18304   3
   1  -2   0 124.100 2.25165   4
   1   1   0 109.653 2.14622   4
   2  -1   0 114.415 1.39563   1
  -1   2   0 123.874 1.97682   2
  -1  -1   0 115.515 2.29206   4
  -1  -1   0 112.941 2.14054   1
   1   1   1 0.16008 0.20822   1
   1  -2   1 0.29303 0.25473   1
  -1   2   1 0.14725 0.21632   2
  -1   2   1 0.23960 0.21701   3
   1   1   1 0.19986 0.18125   2
  -2   1   1 0.02965 0.11498   2
   2  -1   1 0.10195 0.18226   1
   1  -2   1 0.49100 0.32199   4
  -1  -1   1 0.21603 0.14980   5
   1   1   1-0.21588 0.28642   5
   1  -2   1 0.84436 0.26731   3
   1  -2   1 0.21002 0.27023   2
   1   1   1 0.12433 0.20466   4
  -1  -1   1 0.04183 0.21955   1
   1   1   1 0.74635 0.33312   2
   1   1   1-0.04524 0.24872   3
  -2   1   1 0.01630 0.17774   5
   2  -1   1 0.03631 0.24475   5
  -1  -1   1 0.20988 0.20732   4
  -2   1   1 0.41800 0.19284   1
   2  -1   1 0.01271 0.24088   5
  -1   2   1-0.02692 0.21843   1
  -1  -1   1 1.37971 0.33927   2
   2  -1   1 0.30938 0.28504   2
   2  -1   1-0.47890 0.24122   4
   2  -1   1-0.05115 0.21164   3
  -1   2   1 0.46675 0.31132   4
  -1   2   1 0.56252 0.36341   5
  -1  -1   1-0.10486 0.18208   3
   1  -2   1 0.33182 0.30244   5
  -1  -1   2 244.383 4.46271   1
   2  -1   2 190.500 4.36176   5
  -1   2   2 237.889 4.77252   5
  -1  -1   2 253.763 3.65996   5
   2  -1   2 227.440 4.34816   3
  -1   2   2 248.801 4.17170   2
   1  -2   2 246.742 4.57520   5
  -1  -1   2 246.163 4.08303   3
  -2   1   2 230.618 3.18664   3
   1  -2   2 247.503 4.52838   3
   2  -1   2 195.985 3.96264   1
  -1  -1   2 230.478 3.66151   4
  -2   1   2 201.332 2.94015   4
  -1   2   2 197.690 4.03194   1
   2  -1   2 263.475 4.88716   5
  -2   1   2 241.889 4.13388   1
  -2   1   2 251.190 3.65700   2
   1   1   2 260.356 4.88135   1
   1   1   2 228.920 4.51528   2
  -1  -1   2 227.519 4.12571   2
   1   1   2 229.275 4.42354   3
  -1   2   2 237.414 4.17656   4
  -1  -1   2 243.560 3.72554   5
   1   1   2 265.797 4.85172   3
   2  -1   2 238.348 4.36138   4
   2  -1   2 239.932 4.56137   2
   1   1   2 239.742 4.72167   4
  -1   2   2 233.807 3.97074   3
   1  -2   2 233.779 4.15343   1
  -2   1   2 254.159 3.92612   5
  -1   2   2 248.967 4.15292   3
   1  -2   2 229.784 4.31940   2
  -2   1   2 241.445 3.04703   4
   1   1   2 213.096 4.54525   5
  -2   1   3-0.27787 0.30070   3
   2  -1   3 0.54585 0.40396   3
  -1   2   3 1.19657 0.56642   4
  -1   2   3 0.59393 0.45898   2
   1   1   3 0.59024 0.52282   2
   1   1   3 0.22531 0.46673   5
  -2   1   3-0.17700 0.31121   2
  -1  -1   3 0.06158 0.33932   5
  -1   2   3 0.10738 0.40704   1
  -1  -1   3 0.47447 0.36578   3
   1  -2   3 0.42062 0.46464   3
  -2   1   3-0.00726 0.26010   4
  -1  -1   3 0.17875 0.39677   5
  -2   1   3 0.16682 0.31324   5
   2  -1   3-0.30535 0.37324   2
  -2   1   3-0.16794 0.38330   1
  -1   2   3-0.02005 0.32750   3
   2  -1   3 0.64230 0.47067   5
   1   1   3 0.16587 0.31972   4
  -1   2   3 0.44323 0.34976   4
  -1   2   3 0.67264 0.43399   3
  -2   1   3 0.22140 0.33749   4
   2  -1   3 0.26167 0.47926   1
   1   1   3 0.35451 0.44631   1
   2  -1   3 0.66810 0.53072   4
  -1  -1   3 0.71717 0.41489   4
   1   1   3-0.10812 0.45511   3
   1  -2   3 0.01247 0.43145   5
   1  -2   3 0.24709 0.43883   4
  -1  -1   3 0.54099 0.51030   1
  -1  -1   3 0.01088 0.37790   2
   1  -2   3-0.24096 0.44099   5
   2  -1   3 0.77040 0.62704   5
   1  -2   3 0.72135 0.43506   1
   1  -2   3 0.28821 0.41262   2
  -1   2   3 0.35117 0.47111   5
   1   1   3-0.17982 0.32395   4
   1   1   3 0.52897 0.40937   3
   1  -2   4 5.38840 1.02564   5
   2  -1   4 6.55225 1.08122   1
   1   1   4 4.87139 1.02677   1
   2  -1   4 6.37383 1.13758   5
   1  -2   4 5.16181 1.03630   2
  -2   1   4 6.58644 0.89986   4
  -2   1   4 5.20043 0.89497   3
  -1  -1   4 5.27056 1.00036   3
  -1  -1   4 7.89714 1.11729   2
   1   1   4 7.05117 1.20844   4
   1   1   4 7.15293 1.15464   3
  -1   2   4 3.45046 0.85863   2
   1   1   4 5.42982 1.04409   2
  -2   1   4 5.33850 0.84455   4
   2  -1   4 5.62892 1.08823   5
  -1   2   4 4.25141 0.85684   4
  -2   1   4 6.63394 1.05934   2
  -1  -1   4 5.27837 0.93514   5
   2  -1   4 6.17613 1.13570   3
   1  -2   4 4.15526 0.86174   4
  -2   1   4 5.61973 1.03313   1
   2  -1   4 5.75912 1.14283   2
  -1   2   4 4.78404 1.05786   5
  -1   2   4 6.11756 1.01688   3
   1   1   4 5.30083 1.05298   3
  -1  -1   4 5.89770 0.91263   4
   1   1   4 4.96451 1.07694   5
   1  -2   4 5.77234 1.01919   1
   1  -2   4 8.31501 1.23957   5
  -1   2   4 4.78409 0.90386   4
   2  -1   4 5.85325 1.04061   4
   1   1   4 4.38988 0.98347   4
  -1   2   4 6.69867 1.07330   3
  -1  -1   4 2.96709 0.73719   5
  -1   2   4 4.17520 0.87148   1
  -1  -1   4 4.60558 1.00882   1
  -2   1   4 6.03621 1.00910   5
   1  -2   4 6.20234 1.09169   3
   1   1   5 0.48918 0.79629   1
   2  -1   5 0.66889 0.88560   1
  -1  -1   5 0.24408 0.57170   4
   1  -2   5-0.71049 0.88799   5
   1  -2   5-0.56729 0.79438   2
   1   1   5 0.47392 0.79549   4
  -2   1   5-0.24475 0.66266   5
   1  -2   5-0.43348 0.64304   1
   2  -1   5-0.14024 0.75171   4
   2  -1   5 0.39445 0.93036   2
  -1   2   5 0.97878 0.94537   2
   1  -2   5-0.16051 0.73579   5
  -1   2   5 0.16836 0.60071   4
  -2   1   5 0.49357 0.75287   2
  -1  -1   5-0.13611 0.58731   2
   1   1   5 0.87955 0.81868   5
   2  -1   5 0.23217 0.63276   5
   2  -1   5 0.08760 0.77856   5
  -2   1   5-0.59259 0.66480   3
  -1   2   5 0.33053 0.66246   4
  -2   1   5 0.69540 0.65933   4
  -1   2   5 0.10288 0.68444   1
  -2   1   5 0.33085 0.70955   1
   1   1   5-0.28714 0.79699   3
  -1   2   5 0.43364 0.63478   3
   2  -1   5 0.70652 0.82916   4
  -1  -1   5 0.69607 0.78296   3
   2  -1   5 0.45915 0.80117   3
  -1  -1   5-0.48134 0.72814   5
   1   1   5 0.54436 0.75279   4
  -1  -1   5 0.04200 0.62736   1
  -1   2   5-0.11092 0.71735   5
   1  -2   5 0.15149 0.70939   4
  -2   1   5 0.54872 0.82739   4
   1   1   5-0.08227 0.58059   3
  -1   2   5 0.70316 0.67095   3
   1   1   5-0.15243 0.77462   2
  -1  -1   5-0.62239 0.67930   5
   1  -2   5 0.26782 0.75015   3
  -1   2   6 2.16326 1.17895   3
  -2   1   6 6.06602 1.35795   4
   1  -2   6 5.78330 1.53922   3
   1  -2   6 6.20813 1.42438   4
   2  -1   6 5.66069 1.64414   3
  -2   1   6 10.4328 1.76686   2
   1   1   6 5.34068 1.66861   5
   2  -1   6 5.86547 1.45452   4
  -2   1   6 8.39886 1.82701   1
  -1  -1   6 2.32932 1.13516   1
   1  -2   6 8.34400 1.79239   1
  -2   1   6 6.32275 1.39357   3
  -1   2   6 5.22311 1.40229   2
   2  -1   6 7.99241 1.71535   1
   1  -2   6 6.52956 1.62720   2
  -1   2   6 4.11194 1.31972   4
  -1   2   6 4.03614 1.39348   5
  -1  -1   6 6.49959 1.64059   5
   1   1   6 4.67115 1.59603   3
   2  -1   6 4.62487 1.41678   4
  -1  -1   6 9.45636 1.60307   4
   2  -1   6 3.62542 1.40587   5
   1  -2   6 7.90075 1.60456   5
  -1   2   6 4.81705 1.52829   1
   2  -1   6 12.0832 2.19547   2
   1   1   6 6.68766 1.56470   3
  -1  -1   6 4.48815 1.25818   5
   1   1   6 7.94488 1.78910   4
   1  -2   6 9.66390 1.74136   5
   1   1   6 6.38242 1.66061   1
  -1   2   6 4.48401 1.31793   3
  -1  -1   6 7.55578 1.51096   4
  -1  -1   6 7.09972 1.63544   2
  -2   1   6 8.36069 1.52081   4
   1   1   6 7.30530 1.68276   4
   1   1   6 8.86581 1.99392   2
  -2   1   6 3.79634 1.31594   5
  -1  -1   6 5.62255 1.40317   3
   2  -1   6 5.28565 1.45648   5
  -1   2   6 4.48572 1.22143   4
   1   1   7-0.26132 1.51172   2
  -1   2   7 0.75361 1.23553   3
  -1   2   7-0.60583 1.39244   2
  -2   1   7-0.34209 1.31119   4
   1  -2   7 0.14544 1.20825   4
  -2   1   7 1.36920 1.35719   3
   1   1   7 0.30439 1.59106   5
  -2   1   7-0.06053 1.43103   5
  -1  -1   7 0.27444 1.18425   4
   1  -2   7 0.03117 1.39310   5
   2  -1   7-0.66596 1.55279   2
   1   1   7-0.43432 1.42419   3
  -1  -1   7-0.36487 1.31498   1
   1   1   7 1.68247 1.55192   3
  -2   1   7-0.51927 1.19165   4
   1  -2   7 1.40643 1.69596   1
  -2   1   7-0.08176 1.19045   5
   2  -1   7 2.78287 1.84238   5
  -2   1   7 0.69422 1.48638   2
  -1   2   7-0.21449 1.33687   4
   1  -2   7-1.37904 1.60463   2
   1  -2   7-0.85539 1.52401   3
   1   1   7-0.84118 1.41230   1
   2  -1   7-0.84147 1.57338   5
  -1   2   7 0.14076 1.27168   3
  -1  -1   7-0.22061 1.25509   5
  -1   2   7-0.78743 1.50115   1
  -1  -1   7 0.31214 1.24559   4
   1   1   7 0.65181 1.30104   5
   1   1   7 2.67574 1.64353   4
   1  -2   7 0.31267 1.39601   4
  -1  -1   7-0.89130 1.43316   5
  -1   2   7 3.15217 1.49831   4
   2  -1   7 0.21476 1.21848   4
   1  -2   7-0.28982 1.46378   5
  -1  -1   7-0.49449 1.40844   3
   2  -1   7-0.72611 1.51854   3
  -1   2   7 2.25318 1.71836   5
   2  -1   7-1.29278 1.36308   1
   1   1   7-0.14827 1.21494   4
  -1  -1   7 1.54640 1.74108   2
   2  -1   7 0.53524 1.55520   4
  -2   1   7-0.09681 1.41439   1
  -2   1   8 21.7690 3.05299   5
  -1   2   8 19.3753 2.98094   4
   1   1   8 20.4917 3.36239   4
   1   1   8 15.2890 3.44683   5
   1  -2   8 17.3478 3.46207   1
   1   1   8 21.9235 3.22157   4
  -2   1   8 19.4890 3.10673   3
   1  -2   8 18.1714 3.02667   4
  -1   2   8 19.1139 3.32260   5
  -2   1   8 18.2209 2.82306   4
  -2   1   8 19.7276 2.93805   3
  -2   1   8 22.2201 2.90086   4
  -1  -1   8 17.8319 3.18076   1
   1  -2   8 14.6701 2.98918   5
   1  -2   8 18.2339 3.01885   5
   2  -1   8 15.3567 3.08253   2
  -1   2   8 20.2952 3.50178   5
  -1  -1   8 21.4448 3.15270   5
   2  -1   8 13.5738 3.13799   5
  -1  -1   8 15.4422 2.96134   3
  -2   1   8 27.9581 3.62616   1
   1   1   8 20.9336 3.34833   3
  -1   2   8 20.2241 3.20301   2
  -1  -1   8 26.5345 3.22710   4
  -1   2   8 26.3922 3.50640   3
   2  -1   8 19.9239 3.13109   4
   1   1   8 24.3412 3.41485   1
  -1   2   8 18.1596 2.96647   3
   1  -2   8 23.0415 3.39490   3
  -2   1   8 25.6732 3.42861   5
   2  -1   8 22.4604 3.49279   3
   2  -1   8 30.8489 3.88595   5
   1   1   8 21.7331 3.41227   5
  -1   2   8 25.1351 3.45188   1
   1   1   8 13.5670 3.16860   3
   1  -2   8 25.1907 3.26594   4
  -1  -1   8 23.7821 3.14651   4
   2  -1   8 23.5990 3.51414   1
  -2   1   8 13.7544 2.75520   2
  -1  -1   8 25.8722 3.53389   2
   1  -2   8 23.6996 3.39756   2
   2  -1   8 17.0171 3.20719   4
   1   1   8 17.2345 3.31482   2
  -1  -1   8 15.8540 2.91835   5
  -1   2   8 15.4213 2.76824   4
   0   2  -8 96.8004 5.83279   3
   2   0  -8 85.3289 5.99640   1
  -2   2  -8 94.4453 6.17352   2
   2  -2  -8 93.2800 6.27732   1
  -2   0  -8 95.8073 6.22465   2
   0  -2  -8 102.001 6.31872   2
   0   2  -8 88.2185 6.02314   1
   2   0  -8 101.877 5.82856   3
  -2   2  -8 99.5111 6.36387   1
   2  -2  -8 88.8369 5.60151   2
  -2   0  -8 89.1530 6.10956   1
   0  -2  -8 81.5155 5.78799   1
  -2   2  -8 104.744 6.36778   3
   2   0  -8 100.098 6.01013   2
   0   2  -8 76.6467 5.66909   2
   0  -2  -7 21.2738 2.79976   2
  -2   2  -7 23.9265 2.94341   2
   0   2  -7 19.6100 2.73446   2
   2  -2  -7 22.1387 2.78569   5
  -2   2  -7 29.2310 3.12319   3
   2   0  -7 28.1083 2.80233   3
  -2   0  -7 19.7918 2.76356   1
   2   0  -7 16.7482 2.47532   2
  -2   0  -7 16.0268 2.59418   2
   2   0  -7 23.9042 2.99918   1
   0   2  -7 26.1876 3.33811   1
   2  -2  -7 19.0073 2.82304   1
   2  -2  -7 19.8180 2.63970   2
   0  -2  -7 20.8495 2.94681   1
   0   2  -7 25.7771 2.86776   3
  -2   2  -7 23.1747 2.96138   1
   0  -2  -7 24.7245 3.19985   5
  -2   2  -6 35.1384 3.10454   1
  -2   0  -6 37.5784 3.31657   1
   0   2  -6 38.0505 3.12450   2
   2  -2  -6 40.0476 3.29051   1
  -2   0  -6 42.0856 3.40265   2
   0   2  -6 33.0791 3.05913   1
  -2   0  -6 41.6271 3.28204   3
   2   0  -6 39.4886 3.19109   1
   0  -2  -6 26.9485 2.82200   1
   0   2  -6 37.4844 2.95507   3
   0  -2  -6 41.5337 3.23566   2
  -2   2  -6 36.2015 3.15376   2
   0  -2  -6 29.0755 3.09078   5
   2   0  -6 42.7149 3.16582   2
   0   2  -6 37.2051 2.85364   4
   2  -2  -6 42.0286 3.34949   5
   2  -2  -6 32.1752 2.68244   2
  -2   2  -6 43.0755 3.32452   3
   2   0  -6 43.0600 2.95834   3
   2  -2  -5 127.035 5.07811   5
   2  -2  -5 120.083 4.45511   2
   0  -2  -5 128.530 5.02638   2
   2   0  -5 110.319 4.44838   2
  -2   2  -5 107.989 4.60158   3
   0   2  -5 124.965 4.99464   2
  -2   2  -5 102.784 4.65316   2
   0   2  -5 122.195 4.94566   1
  -2   2  -5 119.381 4.87613   4
   2   0  -5 123.554 4.31755   3
  -2   2  -5 119.574 4.98964   1
   0   2  -5 124.526 4.73090   3
   2  -2  -5 120.258 4.84780   1
  -2   0  -5 126.284 5.06660   2
  -2   0  -5 114.379 4.97433   1
   0   2  -5 114.119 4.37910   4
  -2   0  -5 91.5657 4.33259   3
   0  -2  -5 129.078 5.52492   5
   2   0  -5 121.192 4.84024   1
  -2   0  -5 91.2602 4.59007   5
   0  -2  -5 107.473 4.81059   1
   0  -2  -4 221.269 6.29121   5
  -2   0  -4 238.249 6.22443   2
   0   2  -4 218.886 5.37474   4
  -2   0  -4 253.373 6.73886   5
   2  -2  -4 188.752 5.35488   1
   0   2  -4 240.425 6.04664   2
   2  -2  -4 236.752 6.00844   5
   0  -2  -4 226.032 6.10235   1
   2   0  -4 192.980 4.71392   3
  -2   2  -4 244.373 6.11980   1
   2   0  -4 226.060 4.76187   4
   0   2  -4 227.381 5.71618   3
   0  -2  -4 234.676 5.94331   2
   2   0  -4 241.175 5.70082   2
   2  -2  -4 172.832 4.74499   2
  -2   2  -4 250.609 6.11810   3
  -2   2  -4 185.472 5.31180   4
   2   0  -4 217.980 5.72331   1
  -2   2  -4 225.645 6.01459   2
  -2   0  -4 214.424 5.83062   3
   0   2  -4 200.745 5.49084   1
  -2   0  -4 239.079 6.30646   1
   2  -2  -3 504.389 7.37437   1
  -2   2  -3 492.690 7.62351   3
   2   0  -3 481.875 7.23315   1
   2   0  -3 472.118 5.78474   4
   2   0  -3 509.482 7.00383   2
   2   0  -3 479.278 6.26656   3
  -2   2  -3 464.640 7.39243   4
   0  -2  -3 480.121 7.73550   4
   0  -2  -3 504.673 8.46423   5
   2  -2  -3 511.954 7.65424   5
  -2   2  -3 432.748 7.02813   1
   2   0  -3 480.753 6.07856   5
  -2   0  -3 486.126 8.35354   5
   0  -2  -3 510.821 7.66922   2
   0   2  -3 539.874 7.72987   3
  -2   0  -3 507.607 7.97466   2
   0  -2  -3 487.408 7.84085   1
   0   2  -3 478.377 7.44835   2
   0   2  -3 513.391 7.55603   1
  -2   0  -3 477.941 7.81796   1
   0   2  -3 440.446 6.65440   4
   2  -2  -3 442.585 6.23994   2
   0  -2  -2 1203.74 11.4246   5
   0   2  -2 1142.10 9.23115   4
   2   0  -2 1230.66 7.10962   5
  -2   0  -2 1161.99 10.4427   2
   0   2  -2 1177.05 9.81253   3
   0  -2  -2 1272.75 10.5675   1
  -2   0  -2 1205.82 10.3048   3
  -2   0  -2 1126.94 10.6689   5
   2  -2  -2 1146.15 7.83014   2
  -2   2  -2 1254.92 10.2214   4
   0   2  -2 1157.97 9.71707   1
  -2   2  -2 1125.30 10.3259   5
   2  -2  -2 1241.48 9.34554   1
  -2   2  -2 1191.05 9.44600   1
   2   0  -2 1176.49 7.92275   3
   2  -2  -2 1197.57 8.36520   4
   0  -2  -2 1205.82 10.9839   4
   2  -2  -2 1205.55 10.1025   5
   0   2  -2 1219.46 9.17873   5
  -2   2  -2 1189.63 10.1610   2
   2   0  -2 1143.99 9.37838   1
  -2   2  -1 11.6660 0.80409   2
   0  -2  -1 10.4283 0.88218   4
   0  -2  -1 10.7591 0.84333   2
   0   2  -1 10.5008 0.81398   2
   0  -2  -1 12.4636 1.00932   5
  -2   0  -1 10.5091 0.79567   1
   2  -2  -1 11.8801 0.58548   3
   2   0  -1 11.2559 0.59739   3
  -2   2  -1 9.77972 0.86868   5
   2   0  -1 9.64817 0.71174   1
  -2   0  -1 11.3762 0.85849   2
   0   2  -1 11.7261 0.86068   3
   2  -2  -1 10.6553 0.65539   4
   0   2  -1 9.42381 0.72631   5
   0   2  -1 10.4934 0.79931   1
   0  -2  -1 11.7080 0.83771   1
   2  -2  -1 11.5292 0.86764   5
   0  -2  -1 7.54246 0.77375   3
  -2   2  -1 10.7324 0.79006   3
  -2   2  -1 11.0217 0.67931   1
  -2   2  -1 11.7136 0.85051   4
   2   0  -1 10.2183 0.66344   2
   0   2  -1 10.4669 0.80208   4
   2   0  -1 10.4500 0.46318   4
   2  -2  -1 11.8902 0.66896   1
  -2   0  -1 9.50917 0.82963   5
   0   2   0 1.13767 0.32343   3
   2   0   0 0.53832 0.19120   1
  -2   0   0 0.89372 0.28058   2
   0   2   0 0.89449 0.28532   2
  -2   0   0 1.07853 0.27915   3
   2  -2   0 2.07456 0.31315   4
  -2   0   0 1.06458 0.21221   5
   2   0   0 0.86178 0.22887   4
   0   2   0 0.33240 0.19296   1
  -2   0   0 0.33501 0.22658   1
   0  -2   0 0.32730 0.22563   1
   0   2   0 0.27271 0.19696   4
  -2   2   0 0.83294 0.26158   4
   2  -2   0 1.26428 0.23203   3
   0   2   0 0.75580 0.25961   5
   2   0   0 1.14366 0.23335   3
   2  -2   0 0.94175 0.29431   5
   0  -2   0 0.78468 0.31284   4
  -2   0   0 1.38847 0.28950   4
   0  -2   0 1.80763 0.36315   3
  -2   2   0 1.16763 0.20760   2
   2  -2   0 1.28684 0.18354   2
   0  -2   0 1.22381 0.35047   5
   0  -2   0 1.24232 0.35415   2
  -2   2   0 0.75666 0.25969   5
   2   0   0 1.02478 0.22422   5
  -2   2   0 1.00501 0.19685   3
   2   0   0 0.70649 0.19232   2
   0   2   1 4.83608 0.66169   4
   0   2   1 6.95587 0.68330   2
   0   2   1 6.06216 0.60716   1
  -2   2   1 5.96930 0.41161   2
   0   2   1 5.39399 0.68496   5
   2   0   1 5.00845 0.59035   1
   0   2   1 6.65270 0.69973   3
  -2   0   1 5.83453 0.35930   4
   2  -2   1 5.73765 0.58013   2
   2  -2   1 6.89423 0.73191   5
  -2   2   1 6.72558 0.43819   3
  -2   2   1 6.01999 0.47905   4
   2   0   1 5.25072 0.64085   3
   2   0   1 5.65954 0.67013   4
   2  -2   1 6.43293 0.50447   1
   0  -2   1 5.92582 0.63677   2
   2   0   1 5.38191 0.61136   3
   0  -2   1 6.35676 0.64220   4
  -2   0   1 4.04134 0.48686   1
  -2   2   1 4.49380 0.42728   1
   0  -2   1 6.14537 0.60901   1
   2  -2   1 5.95263 0.62222   3
   0  -2   1 5.52858 0.59327   3
   2   0   1 6.07945 0.65165   5
  -2   0   1 5.36057 0.42614   3
   2  -2   1 4.43143 0.58739   4
   0  -2   1 6.15791 0.60831   5
  -2   2   1 6.22822 0.40402   2
  -2   0   1 6.22726 0.51339   2
   2   0   1 5.55215 0.63713   2
  -2   2   1 4.75540 0.60312   5
   0  -2   2 1203.66 10.0464   1
  -2   2   2 1182.36 7.68398   3
   0   2   2 1253.86 10.5109   2
   2  -2   2 1201.56 10.8020   5
   2   0   2 1174.94 10.1142   4
   0  -2   2 1133.49 9.65960   3
   0  -2   2 1159.31 9.90546   2
   2   0   2 1172.62 10.5223   4
   2   0   2 1157.29 10.4628   2
   2   0   2 1130.96 10.2160   1
   2  -2   2 1143.94 9.87898   4
   0   2   2 1249.78 10.5016   3
   2   0   2 1170.73 10.7349   5
   2  -2   2 1055.77 9.57816   3
  -2   2   2 1133.96 8.04560   4
  -2   2   2 1222.12 9.37384   1
  -2   0   2 1245.88 7.08789   4
  -2   2   2 1155.62 8.20299   2
  -2   0   2 1114.61 8.57382   2
   2  -2   2 1165.47 9.10581   1
   0   2   2 1258.36 11.6155   5
   2   0   2 1262.66 10.4848   3
  -2   0   2 1235.38 7.29281   5
   0   2   2 1221.87 10.3899   1
   0   2   2 1265.74 10.7431   4
  -2   0   2 1164.60 9.66220   1
   2  -2   2 1197.55 10.0476   2
   0  -2   2 1166.60 9.44330   4
  -2   0   3 492.140 6.40944   3
   0   2   3 487.287 7.38757   3
  -2   2   3 434.141 6.38247   2
   0  -2   3 509.526 7.69573   2
   0  -2   3 509.236 7.34383   5
   2  -2   3 487.492 7.30121   1
  -2   2   3 501.087 6.57099   4
  -2   0   3 470.779 7.24032   1
   0  -2   3 493.082 7.47618   3
  -2   2   3 502.857 6.43657   3
   0   2   3 507.863 7.85454   4
   2   0   3 480.977 7.88481   4
   2  -2   3 533.878 8.60121   5
   0   2   3 393.401 7.43407   5
  -2   2   3 490.281 7.29312   1
   2   0   3 512.090 8.07883   2
   2   0   3 512.318 8.43379   5
  -2   2   3 500.624 6.42663   3
   2   0   3 500.060 7.75441   3
   0   2   3 534.608 8.12140   1
   2  -2   3 537.901 8.29552   5
   2  -2   3 480.635 7.53841   4
  -2   2   3 451.504 7.18445   5
  -2   0   3 487.574 6.81386   2
   2  -2   3 475.910 7.60804   2
   0  -2   3 481.783 7.00633   5
   0   2   3 477.509 7.36346   3
  -2   2   3 472.543 6.15211   4
   0  -2   3 504.841 7.59454   1
  -2   0   3 512.187 6.41430   5
   2  -2   4 246.830 6.11599   1
  -2   2   4 231.070 5.24485   3
   2  -2   4 179.794 5.41442   3
   0   2   4 201.767 5.43166   3
   2   0   4 228.701 6.24385   2
   0  -2   4 206.188 5.62977   2
   2   0   4 225.680 6.15689   4
  -2   2   4 226.614 5.26058   4
  -2   2   4 223.202 5.87521   5
   0   2   4 241.756 6.13840   4
  -2   2   4 173.974 5.14204   1
   0   2   4 223.993 5.82540   3
   0   2   4 226.126 6.06061   1
   2   0   4 233.801 6.19183   1
   0  -2   4 232.785 5.69890   5
   0  -2   4 226.869 5.74888   3
   0  -2   4 186.263 5.23927   5
   0  -2   4 183.655 5.37068   1
   0   2   4 211.409 5.61659   4
   2  -2   4 222.938 6.06427   2
  -2   0   4 226.340 4.86783   4
  -2   0   4 210.139 5.08550   5
   2  -2   4 190.684 5.84089   5
   2  -2   4 228.515 6.26029   5
  -2   2   4 208.735 4.97452   3
   0   2   4 219.566 5.95717   2
  -2   2   4 189.959 4.66849   4
   0  -2   4 208.293 5.26769   4
  -2   0   4 220.941 5.85298   1
  -2   0   4 220.984 5.20021   3
   2  -2   4 233.093 5.95450   4
  -2   2   4 227.375 5.50084   2
  -2   0   4 208.895 5.25152   2
   2   0   4 243.445 6.73433   5
   2   0   4 225.866 5.94133   4
   0   2   4 210.426 6.14999   5
   2   0   4 213.478 5.85536   3
  -2   2   5 98.4458 4.01892   3
   0   2   5 114.017 4.78522   3
   0   2   5 102.033 4.58805   2
   0  -2   5 119.822 4.64940   5
  -2   0   5 129.234 4.78821   2
   0  -2   5 126.852 4.68657   4
  -2   0   5 115.632 4.40475   3
  -2   0   5 114.256 4.85139   1
  -2   2   5 127.643 4.38001   4
   2   0   5 128.914 5.58428   5
   2   0   5 120.441 4.83285   4
  -2   0   5 121.154 4.32452   4
  -2   2   5 118.246 4.38758   3
   2  -2   5 129.517 5.01872   4
   0   2   5 125.597 5.06143   1
  -2   0   5 107.389 4.27501   5
  -2   2   5 112.396 4.53771   2
   2   0   5 120.537 4.98312   3
   2   0   5 134.819 5.41257   2
   0   2   5 125.262 5.02186   4
  -2   2   5 116.243 4.92735   1
   0  -2   5 105.645 4.76464   1
   2  -2   5 121.607 4.95696   1
   0  -2   5 123.150 4.85670   3
   2   0   5 99.0905 4.56151   1
   2  -2   5 119.618 5.00977   2
  -2   2   5 122.527 4.50049   4
   2  -2   5 106.150 5.07491   5
  -2   0   5 128.642 4.32183   4
   0  -2   5 110.164 4.62573   5
   2  -2   5 94.0631 4.53520   5
  -2   0   5 115.653 4.20971   5
   2  -2   5 96.8777 4.72064   3
   0  -2   5 118.178 4.86420   2
   0   2   5 116.424 4.72463   4
   0   2   5 108.607 5.13782   5
   2   0   5 122.520 5.18275   4
  -2   2   5 101.388 4.56515   5
   0   2   5 98.1613 4.36347   3
   2  -2   6 38.9145 3.24983   3
   0   2   6 31.9222 3.11850   2
  -2   0   6 45.3464 3.00400   5
   0   2   6 27.0812 3.02335   3
   2   0   6 35.9610 3.23671   5
  -2   2   6 33.0578 3.00881   1
   0  -2   6 39.0275 3.04621   4
   0  -2   6 40.9215 3.23268   5
   0   2   6 39.5148 3.13454   4
   0  -2   6 39.1683 3.26838   2
  -2   0   6 37.4933 3.18246   1
   0   2   6 32.2470 2.92373   3
  -2   2   6 29.9765 2.61832   4
   0  -2   6 33.9344 3.23109   1
   2  -2   6 45.3984 3.41912   4
  -2   0   6 41.5695 2.93091   4
   0  -2   6 28.3739 2.79453   5
   0   2   6 44.0108 3.47582   1
  -2   2   6 32.2255 2.70763   3
  -2   2   6 31.2081 3.03354   5
   0   2   6 33.9130 3.07437   4
   2   0   6 34.4210 3.05310   4
   2   0   6 20.5497 2.98399   2
   2   0   6 39.6979 3.31207   1
  -2   0   6 41.8598 3.08336   5
   2   0   6 31.3128 3.23616   5
   2   0   6 40.6619 3.42390   4
   2  -2   6 37.0240 3.25673   2
   0  -2   6 40.6046 3.21097   3
   2  -2   6 40.7274 3.34364   5
  -2   0   6 41.2138 2.84808   4
   2   0   6 37.9622 3.34292   3
   0   2   6 40.4453 3.59586   5
   2  -2   6 39.4511 3.31084   5
   2  -2   6 39.1551 3.23850   1
  -2   0   6 38.8167 2.91415   3
  -2   2   6 32.7050 2.76949   4
  -2   0   6 41.1660 3.13311   2
  -2   2   6 37.6261 3.04566   2
  -2   2   6 35.9977 3.01545   3
   0   2   7 26.3439 2.91239   4
  -2   2   7 28.1644 2.85555   3
   0  -2   7 19.4930 2.64864   4
   0  -2   7 27.1324 3.21726   1
  -2   0   7 26.3393 2.76678   5
   0   2   7 16.6537 2.50651   1
   0  -2   7 30.4149 3.26084   3
   2   0   7 24.3450 3.03002   1
   0   2   7 20.6892 3.02353   3
   2  -2   7 28.0510 3.37825   5
  -2   2   7 23.7211 2.82438   4
   2   0   7 18.6557 2.96388   2
   0   2   7 20.8777 2.99500   2
   2  -2   7 26.6730 2.97449   4
  -2   2   7 24.1870 2.68780   4
  -2   0   7 25.6211 2.64808   4
   0  -2   7 22.3758 2.90239   2
  -2   0   7 24.7197 2.88719   2
  -2   0   7 28.9678 3.28007   1
   2  -2   7 18.8861 2.96978   4
   2  -2   7 22.9634 3.02738   3
  -2   2   7 21.9991 2.73597   2
  -2   2   7 32.5221 3.36267   1
   2  -2   7 26.6329 3.16505   1
   2   0   7 28.8165 3.33383   4
   2  -2   7 25.1723 3.21676   5
   0  -2   7 21.5510 2.82846   5
  -2   0   7 26.5033 3.08544   5
   2   0   7 21.6932 3.06290   3
   2   0   7 14.1268 2.71220   3
   0  -2   7 23.9411 2.97531   5
   2   0   7 26.1705 3.16815   5
  -2   2   7 26.6880 2.87586   3
   0   2   7 23.8577 3.16558   5
  -2   0   7 18.5835 2.48141   3
   0   2   7 17.8995 2.57399   3
   0  -2   7 25.5600 2.93237   4
   0   2   7 19.2291 2.70997   4
  -2   2   7 23.9336 2.95986   5
   2   0   7 28.7842 3.07758   4
   2  -2   7 27.6628 3.23924   2
  -2   0   7 22.1793 2.59770   4
   2   0   7 28.6758 3.49561   5
  -2   2   8 87.4480 5.97210   5
   2  -2   8 60.3945 5.58543   5
   2  -2   8 78.2591 5.91883   4
   0  -2   8 57.4077 5.85732   1
   2   0   8 79.8070 5.98103   3
  -2   2   8 99.8272 5.93258   2
   0  -2   8 108.727 6.49071   5
   0  -2   8 100.354 6.02048   4
  -2   0   8 83.1067 5.46925   4
   2  -2   8 99.9348 6.17551   4
   2   0   8 94.2811 6.23944   3
  -2   0   8 100.578 6.44150   1
   0  -2   8 77.0824 5.65761   3
   2   0   8 82.6455 5.88942   2
  -2   0   8 76.9630 4.97305   4
  -2   2   8 85.4228 5.26173   4
  -2   2   8 107.082 6.10034   3
  -2   2   8 89.4436 5.50614   3
   2  -2   8 81.8383 6.12296   3
   0   2   8 95.5733 6.10437   4
  -2   0   8 64.8354 5.22791   3
   0  -2   8 93.5261 6.18960   2
   2  -2   8 102.858 6.38695   1
   2   0   8 100.801 6.55839   5
  -2   2   8 79.2989 5.44029   5
  -2   2   8 97.5149 5.48510   4
   0   2   8 79.2119 5.91902   5
   2   0   8 80.0608 5.78731   4
  -2   0   8 98.9516 6.06926   2
   0   2   8 89.2119 6.51651   5
   0   2   8 90.0696 5.99696   2
   2   0   8 74.1393 6.21164   4
   0   2   8 103.592 6.30968   1
   0   2   8 75.4774 5.41978   4
  -2   2   8 70.8093 5.80225   1
  -2   0   8 92.3681 5.95762   5
   0  -2   8 81.9025 5.65681   5
   0  -2   8 85.1323 5.44260   4
   0   2   8 91.1039 5.89551   3
   2   0   8 71.2879 5.62614   1
   2  -2   8 83.2723 6.23524   2
  -2   0   8 92.2926 5.65149   5
   2  -2   8 99.1431 6.51773   5
   2   0   8 79.2745 6.13886   5
   0   2   8 95.0765 6.02706   3
   3  -2  -8 0.15561 2.23639   1
  -1   3  -8 0.15613 1.78283   2
   2   1  -8-0.28381 1.79521   3
  -1   3  -8 3.66367 2.57969   1
  -3   2  -8-1.58631 2.34386   1
   2   1  -8 0.31770 1.95150   1
  -3   1  -8 1.11440 2.20450   1
  -2  -1  -8 2.37497 2.16489   2
  -1   3  -8-0.50983 1.86649   3
   2  -3  -8 0.44674 1.87898   2
   2   1  -8 0.89018 1.80349   2
   3  -1  -8 5.39404 2.15636   2
   2  -3  -8 1.03256 2.32962   5
  -1  -2  -8-0.03859 2.09884   2
   2  -3  -8 4.76512 2.12358   1
   1   2  -8 2.18806 2.48836   1
   1   2  -8 0.99815 2.00679   2
  -1  -2  -8 6.42868 2.78269   1
   1  -3  -8 2.21855 2.43595   1
   3  -2  -8-0.42531 1.73563   2
  -2  -1  -8 1.96012 2.14178   1
  -3   1  -8-0.31941 1.90464   2
   1   2  -8 2.39832 1.83191   3
  -2   3  -8-1.46614 2.14509   3
   1  -3  -8 1.77395 2.49235   5
  -3   2  -8 2.48967 2.30859   2
  -2   3  -8 0.51337 2.04310   2
   3  -1  -8-1.34003 2.30459   1
  -2   3  -8-0.88083 2.23247   1
  -3   2  -8-0.19450 1.81395   3
   1   2  -7 19.2546 2.49121   3
  -3   2  -7 18.9493 2.86859   1
   1  -3  -7 11.7279 2.70801   5
   3  -2  -7 13.3958 2.56881   1
  -1   3  -7 17.4674 2.41855   4
  -1   3  -7 16.2243 2.52844   1
   3  -1  -7 11.8192 2.33646   1
  -2  -1  -7 19.7011 2.88125   1
  -3   2  -7 20.2229 2.79186   3
   2  -3  -7 16.8721 2.58678   1
   1  -3  -7 18.0675 2.45220   2
   2  -3  -7 16.0823 2.43722   2
  -3   2  -7 17.2043 2.59078   2
  -2  -1  -7 17.4018 2.59798   2
   2   1  -7 12.8345 2.27281   2
  -3   1  -7 18.6867 2.73281   2
  -1  -2  -7 19.3237 3.07161   5
  -3   1  -7 16.9886 2.66113   1
   3  -2  -7 13.1315 2.18476   2
   3  -1  -7 16.4107 2.30112   2
   3  -1  -7 19.8100 2.34573   3
   1   2  -7 21.0155 3.01209   1
  -2   3  -7 16.8768 2.58953   3
  -2   3  -7 14.0285 2.57215   1
   1   2  -7 17.7597 2.68542   2
  -1   3  -7 14.8754 2.50323   3
  -3   1  -7 21.8441 2.84466   3
   2   1  -7 18.1784 2.51105   3
  -1   3  -7 23.7150 3.05485   2
   1  -3  -7 15.2870 2.56534   1
  -1  -2  -7 20.4682 2.80991   2
   2   1  -7 15.9031 2.55489   1
   2  -3  -7 20.2882 2.88738   5
  -1  -2  -7 21.6171 2.85650   1
  -2   3  -7 11.8423 2.46205   2
  -3   1  -6 9.16781 1.85023   3
  -1   3  -6 10.2041 1.83594   3
   1   2  -6 12.2002 1.86430   2
  -2   3  -6 18.6635 2.26205   4
   2  -3  -6 17.7115 2.24507   1
  -1   3  -6 13.1553 1.88392   4
   3  -2  -6 15.7728 2.11621   5
  -3   2  -6 21.3673 2.50425   1
   2   1  -6 15.5027 2.14925   1
  -1  -2  -6 16.2683 2.51736   5
   1   2  -6 12.0321 1.95552   1
  -2   3  -6 11.6942 1.93788   3
   1   2  -6 18.0665 2.13567   3
  -3   1  -6 10.2303 1.97155   1
   1  -3  -6 16.8950 2.45541   5
  -2   3  -6 15.2981 2.18311   2
  -1  -2  -6 15.2646 2.28993   1
   3  -1  -6 11.5738 1.81388   2
  -1   3  -6 18.9475 2.36020   1
  -3   2  -6 20.3614 2.49087   2
  -2  -1  -6 9.10646 1.84315   2
   2  -3  -6 16.1200 2.24076   5
   2   1  -6 13.3263 1.79286   3
   2   1  -6 14.7841 1.99991   2
  -1  -2  -6 18.1349 2.36871   2
  -2  -1  -6 20.2520 2.61887   5
   2  -3  -6 13.6941 1.88451   2
  -2   3  -6 19.0378 2.43948   1
  -2  -1  -6 14.4484 2.26386   1
  -3   1  -6 13.3906 2.12554   2
   3  -1  -6 15.8756 1.84523   3
   1   2  -6 12.8191 1.78045   4
   1  -3  -6 13.5291 1.95271   2
  -1   3  -6 13.3116 1.98206   2
   3  -2  -6 16.0080 2.21282   1
   1  -3  -6 10.5473 1.84984   1
  -3   2  -6 16.5551 2.29145   3
   3  -2  -6 13.4822 1.83293   2
   3  -1  -6 15.6984 2.19937   1
  -3   2  -5 65.6041 3.95194   2
   3  -1  -5 73.7343 3.53638   2
   1   2  -5 68.0793 3.70722   2
  -2   3  -5 70.2490 3.84446   2
  -1   3  -5 72.6933 3.81544   3
  -2   3  -5 56.4831 3.42212   3
  -1  -2  -5 71.8941 3.90458   2
  -2  -1  -5 70.8686 4.22230   5
   1  -3  -5 74.7277 4.19492   5
  -3   1  -5 72.6898 3.98226   1
   1   2  -5 78.7897 3.75815   3
  -3   2  -5 56.2495 3.55631   1
  -3   2  -5 66.6754 3.67825   4
   3  -2  -5 60.7496 3.50655   1
   2   1  -5 64.0859 3.09708   4
  -3   1  -5 53.2338 3.39884   2
  -3   1  -5 69.6468 3.82314   3
   1  -3  -5 68.0499 3.55410   2
  -2  -1  -5 78.6116 4.10303   2
  -1   3  -5 77.6629 4.09215   2
   2  -3  -5 72.3013 3.51470   2
  -3   2  -5 67.6034 3.78237   3
  -1   3  -5 58.6457 3.35923   4
   2   1  -5 65.1813 3.26482   3
   3  -2  -5 67.5019 3.32385   2
  -2   3  -5 67.7538 3.73847   1
  -1  -2  -5 65.4847 4.08387   5
   2   1  -5 68.8893 3.78637   1
   2  -3  -5 73.0991 3.99039   5
   3  -1  -5 66.9232 3.25623   5
   1  -3  -5 77.2262 4.04099   1
   3  -1  -5 69.1540 3.13864   3
  -1  -2  -5 86.7454 4.35733   1
  -2  -1  -5 76.1037 4.19398   1
   1   2  -5 63.7943 3.17295   4
   3  -1  -5 71.4710 3.79231   1
  -1   3  -5 74.2505 3.88257   1
   2   1  -5 63.7408 3.46911   2
   1   2  -5 66.8990 3.68527   1
   2  -3  -5 70.8315 3.77166   1
   3  -2  -5 66.3472 3.50807   5
  -2   3  -5 70.7109 3.72866   4
  -3   1  -4 32.9088 2.45725   3
  -2   3  -4 35.9729 2.44465   3
   3  -2  -4 32.2614 1.98249   2
   3  -1  -4 31.3139 1.98838   2
   2  -3  -4 33.8483 2.12673   2
   1   2  -4 38.6305 2.48177   1
  -1   3  -4 30.5807 2.13865   4
   2   1  -4 30.0545 1.95474   3
   3  -1  -4 29.7013 2.14017   1
   1   2  -4 38.9200 2.36909   3
   3  -1  -4 33.3732 1.85640   3
  -1   3  -4 23.8691 2.05051   3
   3  -2  -4 37.7000 1.98934   3
  -1   3  -4 26.0372 2.13426   2
   1  -3  -4 33.7588 2.23856   2
   3  -1  -4 30.9924 1.96749   5
  -1  -2  -4 39.5345 2.68566   1
   1   2  -4 35.9883 2.41309   2
   2   1  -4 29.2570 2.14853   1
   1  -3  -4 32.3407 2.58335   5
   2  -3  -4 30.6903 2.23499   1
   3  -2  -4 32.7669 2.25666   1
  -3   2  -4 32.3683 2.35876   1
  -2   3  -4 32.0992 2.42202   2
  -3   2  -4 38.8616 2.54925   4
  -2  -1  -4 38.1203 2.64830   1
  -3   2  -4 28.3418 2.20342   3
  -2   3  -4 33.2282 2.30577   1
  -3   1  -4 35.2755 2.48613   1
  -2   3  -4 32.9952 2.28861   4
  -1   3  -4 35.4915 2.33265   1
   1   2  -4 32.6875 2.05847   4
   2   1  -4 35.8038 1.97788   4
  -3   1  -4 32.9342 2.44070   2
  -2  -1  -4 33.8934 2.46797   2
  -2  -1  -4 34.1908 2.65298   5
   2  -3  -4 35.1973 2.57179   5
  -1  -2  -4 29.8582 2.29452   2
  -3   2  -4 33.0354 2.42966   2
   2   1  -4 32.2026 2.24098   2
   1  -3  -4 36.1570 2.45449   1
  -1  -2  -4 26.9748 2.31685   5
   3  -2  -4 28.5261 1.97847   5
  -2   3  -3 15.7811 1.47480   2
  -3   2  -3 18.9767 1.57264   3
   2   1  -3 16.5667 1.43930   1
  -1   3  -3 14.5132 1.36707   5
   1   2  -3 15.4357 1.38917   2
  -1  -2  -3 17.6482 1.69077   5
   2  -3  -3 15.2764 1.35999   4
  -2  -1  -3 20.7460 1.83159   5
   1  -3  -3 21.4890 1.86699   5
   2  -3  -3 20.5279 1.42362   2
  -1   3  -3 20.3683 1.64619   2
   3  -1  -3 16.8316 1.36473   1
   2  -3  -3 18.9120 1.52167   1
  -3   1  -3 18.3499 1.59966   1
  -2   3  -3 17.7671 1.46521   1
   1  -3  -3 18.6071 1.57566   4
  -2   3  -3 13.2680 1.37064   5
   3  -1  -3 19.4939 1.24218   5
  -1  -2  -3 17.9276 1.60929   1
  -3   2  -3 17.9472 1.52606   4
   1   2  -3 13.5135 1.26075   3
   2   1  -3 21.3751 1.32988   4
  -1   3  -3 18.1657 1.47134   1
  -3   1  -3 19.1800 1.67296   2
   1   2  -3 16.7785 1.46774   1
   1   2  -3 19.4041 1.40383   4
   3  -1  -3 21.1399 1.19520   3
   3  -2  -3 15.6473 1.27864   5
  -3   1  -3 18.8935 1.60641   3
  -3   2  -3 16.5106 1.51426   1
   3  -1  -3 13.0489 1.08399   2
  -1   3  -3 16.9761 1.44242   4
   3  -2  -3 18.0398 1.38202   1
   2   1  -3 13.5887 1.22086   3
   3  -2  -3 16.1114 1.07161   3
  -2   3  -3 18.0356 1.54536   4
   3  -2  -3 17.0850 1.19455   2
  -2  -1  -3 21.0556 1.74490   2
   1  -3  -3 17.9800 1.58182   1
  -2  -1  -3 19.9621 1.68868   1
  -1  -2  -3 17.5672 1.67151   4
  -2   3  -3 16.8640 1.52519   3
   2  -3  -3 19.0528 1.69693   5
   2   1  -3 17.4718 1.39669   2
  -1   3  -3 16.9454 1.52244   3
  -3   2  -3 21.4700 1.72578   2
  -2   3  -2 4.31034 0.59573   1
   3  -1  -2 3.93895 0.41696   3
   2  -3  -2 3.54478 0.62171   4
  -1   3  -2 3.36089 0.62655   4
  -1   3  -2 3.00528 0.54429   1
  -2  -1  -2 2.59226 0.59530   1
   2   1  -2 2.86873 0.58701   1
   1  -3  -2 4.25691 0.70631   1
  -1  -2  -2 3.39229 0.66729   4
   3  -1  -2 3.42448 0.55993   1
   1  -3  -2 4.10095 0.91259   5
  -1   3  -2 3.45063 0.67212   2
  -3   2  -2 3.45210 0.60398   1
   1  -3  -2 3.11309 0.57635   3
  -2   3  -2 3.19406 0.72557   5
  -2   3  -2 4.00062 0.67257   3
   1   2  -2 3.66322 0.62224   2
   2  -3  -2 2.77559 0.53704   1
   3  -2  -2 3.49001 0.57059   5
  -3   1  -2 2.88551 0.65470   4
  -2  -1  -2 2.21843 0.65149   5
   1  -3  -2 3.78696 0.76131   4
   1   2  -2 3.04347 0.64211   1
  -3   1  -2 3.55496 0.66376   1
  -2   3  -2 3.73666 0.68863   4
  -3   2  -2 4.08177 0.70738   4
  -3   2  -2 4.16838 0.70536   3
   2  -3  -2 3.05809 0.67189   5
   3  -1  -2 3.73660 0.44364   5
  -3   1  -2 3.03275 0.65890   3
   2   1  -2 3.05258 0.54906   2
  -3   2  -2 2.65638 0.56248   2
   3  -1  -2 3.76831 0.46491   2
  -3   1  -2 2.93250 0.64227   2
  -1   3  -2 4.02031 0.72221   3
   2  -3  -2 2.85808 0.51683   3
  -1   3  -2 2.98734 0.65371   5
  -1  -2  -2 3.78403 0.69261   1
   2   1  -2 2.91162 0.47981   3
  -2  -1  -2 2.97986 0.66916   4
   2   1  -2 4.52613 0.54345   4
   1   2  -2 3.86429 0.59790   4
  -1  -2  -2 3.69223 0.73628   5
  -2   3  -2 2.69955 0.64931   2
   1   2  -2 4.07010 0.65540   3
  -1  -2  -2 3.37462 0.76134   3
   3  -2  -2 3.38131 0.41898   2
   3  -2  -2 4.34313 0.58203   1
   1   2  -2 3.61991 0.53110   5
   1   2  -1 233.298 3.80642   4
  -2   3  -1 262.988 3.39566   1
   3  -1  -1 237.331 3.43822   1
   1  -3  -1 249.747 4.55968   4
  -2   3  -1 247.883 4.21835   4
  -1  -2  -1 256.227 4.73347   5
  -2   3  -1 260.262 4.03549   2
   1  -3  -1 265.313 4.08734   2
   2   1  -1 228.999 3.18662   4
  -3   1  -1 276.972 4.25355   2
   2  -3  -1 253.411 4.71712   5
  -1  -2  -1 278.516 4.90688   3
  -1  -2  -1 259.186 4.63343   2
  -1   3  -1 273.343 4.50532   5
   2   1  -1 258.693 2.23443   5
   3  -2  -1 241.146 3.59547   5
   2   1  -1 264.569 3.74831   3
   3  -2  -1 247.304 2.89322   1
   2  -3  -1 254.062 4.15278   4
   3  -1  -1 259.269 2.66090   2
   1  -3  -1 264.360 5.08473   5
  -3   2  -1 261.138 4.02835   4
  -3   1  -1 256.798 4.05984   3
   1   2  -1 255.457 4.27596   2
  -2  -1  -1 213.937 4.17914   2
  -2  -1  -1 238.782 4.19451   1
   2  -3  -1 253.547 3.29416   1
   3  -2  -1 271.946 2.44715   4
  -3   2  -1 250.227 4.37788   5
   1  -3  -1 267.435 4.30736   3
  -2   3  -1 273.937 4.66616   5
  -1   3  -1 247.871 3.76090   1
   2  -3  -1 224.616 3.41544   3
   1  -3  -1 262.645 3.92516   1
  -3   1  -1 269.269 4.08324   4
  -2  -1  -1 225.641 4.29128   3
  -3   2  -1 244.200 3.32691   1
  -3   1  -1 258.273 3.71593   1
   2   1  -1 224.493 3.75720   2
  -1   3  -1 260.729 4.33307   2
  -2   3  -1 270.475 4.29932   3
  -3   2  -1 248.044 3.83517   2
   2  -3  -1 235.363 3.25183   2
   3  -1  -1 253.733 2.60172   5
  -2  -1  -1 251.896 4.60690   4
  -3   2  -1 246.352 3.86222   3
  -1  -2  -1 234.008 4.53217   4
   2   1  -1 269.383 4.24031   1
  -1   3  -1 275.863 4.51380   4
  -2   3   0 62.2731 2.15488   5
   2   1   0 54.7953 1.60393   5
   2   1   0 58.4284 1.87861   1
  -3   2   0 47.9196 1.65171   5
  -1  -2   0 53.0695 1.85536   2
  -2   3   0 52.1272 1.13723   1
   3  -2   0 44.7652 1.29120   4
   2  -3   0 59.0903 1.73431   3
   1  -3   0 65.3336 1.69960   1
   2  -3   0 54.6312 1.16270   1
  -3   2   0 57.6635 1.20942   2
  -1  -2   0 55.0536 1.87585   1
   3  -1   0 56.9417 1.34648   4
   3  -2   0 63.7681 1.16290   2
  -1   3   0 62.9018 2.00124   3
   3  -1   0 60.3449 1.48043   4
   3  -1   0 57.5658 1.45523   2
   2   1   0 60.8594 1.90661   3
   1  -3   0 58.2429 1.97365   4
   3  -1   0 61.5289 1.57684   5
  -1   3   0 62.4436 1.66375   1
   3  -1   0 60.0867 1.45010   2
  -2   3   0 57.2539 1.84379   4
   3  -1   0 61.0829 1.41295   3
  -3   2   0 49.9372 1.36168   4
   2  -3   0 60.3722 1.58809   2
  -2  -1   0 68.6357 2.04116   2
  -1  -2   0 64.7974 2.03732   5
   1   2   0 68.7029 2.06406   5
   3  -1   0 61.0621 1.49243   3
   2   1   0 64.1734 1.97514   2
  -1   3   0 48.1294 1.94212   5
   3  -2   0 65.3381 1.90024   5
   3  -1   0 48.8481 1.34975   1
  -3   1   0 61.4847 1.57120   5
  -1   3   0 57.9491 1.81803   2
  -2  -1   0 62.4209 1.65035   5
   1  -3   0 59.9276 1.86780   2
   1   2   0 52.9666 1.88705   4
   3  -2   0 57.9043 1.31530   3
  -2   3   0 62.1806 1.76094   3
   2  -3   0 64.9821 1.94090   4
   1  -3   0 66.2746 2.01555   3
  -2  -1   0 61.3947 1.93653   3
  -1  -2   0 49.0763 1.95703   4
   1  -3   0 64.0541 2.20079   5
   1   2   0 64.9582 2.09001   2
   2   1   0 49.1213 1.75900   4
  -2  -1   0 66.7779 2.00247   4
   2  -3   0 65.0406 2.21238   5
   1   2   0 62.8232 2.05181   3
  -2  -1   0 64.4605 2.00339   1
   1   2   0 57.4956 1.90434   1
  -3   2   0 63.1742 1.35393   3
  -1   3   0 61.9348 2.04344   4
  -2   3   0 59.0540 1.57006   2
  -3   1   0 61.2576 1.53190   1
  -1  -2   0 60.2736 2.04296   3
  -1  -2   1 249.037 4.18336   2
  -1   3   1 244.842 3.65674   1
   1  -3   1 257.658 4.32991   3
   1   2   1 246.375 4.66866   5
  -1  -2   1 240.845 3.85631   4
  -2   3   1 254.841 3.58787   3
   3  -1   1 257.488 3.98143   4
  -3   1   1 272.166 2.54510   5
  -2   3   1 212.310 3.09291   1
   3  -1   1 226.749 4.15673   5
   3  -1   1 270.641 4.17431   2
  -3   2   1 261.295 3.68516   5
   1   2   1 261.177 4.34426   1
  -2   3   1 215.672 3.03789   2
   2   1   1 233.405 4.30662   2
  -1   3   1 254.880 4.48115   4
  -3   1   1 261.349 2.71002   2
   3  -2   1 250.185 4.37954   5
   2   1   1 270.331 4.74380   3
   1   2   1 207.165 3.83692   1
  -1  -2   1 255.133 3.53933   5
   1  -3   1 255.031 4.44864   5
  -3   2   1 257.317 2.19148   4
  -2   3   1 250.564 3.87305   4
  -1   3   1 262.901 4.04866   2
   2   1   1 247.558 4.33906   5
  -3   2   1 269.602 3.02441   1
  -2  -1   1 240.682 3.65385   3
  -1   3   1 277.476 5.06870   5
  -1   3   1 259.101 4.20544   3
   3  -2   1 242.825 3.68567   2
   3  -2   1 256.534 3.36057   1
  -2  -1   1 246.328 3.91170   2
   3  -2   1 245.437 3.83052   3
   1  -3   1 245.527 3.72820   1
   3  -2   1 263.068 4.13047   4
   1  -3   1 231.767 4.16186   4
  -2  -1   1 256.696 3.44178   4
   2  -3   1 274.017 4.34625   3
   1   2   1 276.194 5.00319   4
   1   2   1 249.234 4.56396   3
   2  -3   1 243.706 4.29427   4
   2  -3   1 270.948 4.11275   2
   2   1   1 235.667 4.12791   1
  -3   1   1 240.622 3.37765   1
   1  -3   1 250.253 4.20835   2
   3  -1   1 255.497 3.79779   1
  -1  -2   1 266.379 4.32148   1
   1   2   1 270.344 4.62380   2
   2  -3   1 256.665 4.60728   5
   2  -3   1 254.610 3.36971   1
  -1  -2   1 235.687 4.03280   3
   3  -1   1 255.629 4.30962   5
  -2   3   1 275.672 4.88939   5
  -2  -1   1 262.734 2.42798   5
  -3   2   2 2.88006 0.38520   4
  -1  -2   2 3.43705 0.57532   4
   1  -3   2 3.17079 0.59206   3
  -2  -1   2 4.03292 0.60922   3
   1   2   2 2.07975 0.59506   1
  -3   2   2 3.29339 0.37515   3
   1  -3   2 2.85683 0.67179   4
   2   1   2 2.95706 0.62556   2
   2   1   2 3.34543 0.76743   3
   3  -2   2 3.23045 0.67117   4
  -3   1   2 3.73662 0.41234   3
  -3   2   2 3.44376 0.35716   3
  -1   3   2 3.74098 0.64109   2
   1   2   2 2.50745 0.60375   5
   2   1   2 3.23644 0.67849   5
   3  -1   2 3.44587 0.63793   4
   2  -3   2 3.00459 0.58491   2
  -3   1   2 3.91420 0.32551   4
  -1  -2   2 1.48827 0.53557   1
  -1  -2   2 3.15649 0.61069   2
   3  -2   2 3.81590 0.78943   5
  -2  -1   2 3.96644 0.42538   5
  -2  -1   2 3.17980 0.39030   5
   3  -1   2 4.38818 0.70490   1
  -1  -2   2 3.50244 0.54335   5
  -3   1   2 3.41312 0.31868   4
  -1   3   2 3.70724 0.61850   2
   2   1   2 2.50804 0.62031   3
  -1   3   2 4.59235 0.79518   4
  -2  -1   2 4.44201 0.66568   1
  -3   1   2 3.39068 0.45819   2
  -2  -1   2 4.96432 0.66150   2
   2   1   2 4.37900 0.71140   1
  -2   3   2 2.44082 0.55031   4
  -2   3   2 4.73690 0.61319   2
  -3   2   2 3.38659 0.42170   2
   3  -1   2 2.50160 0.72024   5
   1  -3   2 4.29866 0.68264   2
   1  -3   2 3.36748 0.61389   5
  -3   2   2 3.73041 0.57520   5
  -2   3   2 3.53624 0.71344   5
   2   1   2 3.19985 0.70243   2
   1   2   2 5.37961 0.89286   3
   3  -1   2 3.93116 0.68349   3
   1   2   2 2.77439 0.60587   2
   3  -1   2 2.96291 0.60699   5
   2  -3   2 4.88382 0.76289   3
   3  -2   2 3.64019 0.67991   2
  -1   3   2 3.83188 0.66551   1
   2  -3   2 3.96831 0.68349   4
  -1   3   2 3.37409 0.60133   3
  -2   3   2 3.03040 0.52911   3
  -2   3   2 3.38508 0.56588   1
  -3   2   2 3.79484 0.60349   1
   3  -2   2 2.51641 0.56922   3
  -2   3   2 4.03438 0.59333   2
   2  -3   2 2.61096 0.46967   1
   2  -3   2 2.65825 0.63871   5
  -3   2   2 3.07060 0.34268   4
  -3   1   2 3.70481 0.45256   5
   3  -2   2 3.16470 0.67095   5
   1   2   2 3.05097 0.71518   4
  -2  -1   2 2.54603 0.41836   4
  -1  -2   2 4.15678 0.68832   3
   1  -3   2 4.43688 0.63672   1
  -1   3   2 3.10778 0.78292   5
  -3   1   2 2.19705 0.53105   1
   1   2   2 2.47563 0.56435   2
   2   1   2 3.35275 0.71830   4
   3  -1   2 3.52698 0.67428   2
   3  -2   2 3.98362 0.60877   1
  -2  -1   3 21.1757 1.54884   2
  -1  -2   3 22.5238 1.65477   2
  -1  -2   3 15.5468 1.25390   5
  -1   3   3 16.6451 1.41327   2
   1  -3   3 19.8130 1.56116   4
   1   2   3 22.2698 1.73787   2
   2   1   3 22.1676 1.77908   1
   2   1   3 21.2095 1.70831   3
   2   1   3 23.3276 1.92971   5
  -3   2   3 17.1406 1.08812   4
   3  -1   3 17.5029 1.50797   1
   2   1   3 16.0426 1.52858   3
   2  -3   3 19.0472 1.58630   2
  -2  -1   3 20.9816 1.65360   1
   1  -3   3 21.0140 1.59360   1
   2  -3   3 16.5551 1.37371   1
   2  -3   3 21.2647 1.69541   3
  -2  -1   3 16.6219 1.15115   5
  -3   1   3 19.7429 1.09035   4
   1  -3   3 15.3270 1.47724   5
   1   2   3 18.5801 1.64432   2
   3  -1   3 16.9457 1.51463   4
   2  -3   3 17.3475 1.55724   5
  -2   3   3 20.1958 1.40202   3
  -2   3   3 20.8569 1.48029   3
  -1   3   3 15.2116 1.46267   4
  -1  -2   3 16.0428 1.43177   1
  -2   3   3 22.0043 1.58081   4
  -1   3   3 20.3855 1.79258   5
   1   2   3 17.3690 1.62634   3
   1   2   3 23.2948 1.79264   1
  -3   1   3 20.1693 1.31526   5
  -3   1   3 18.5985 1.26308   2
   3  -2   3 19.8592 1.61662   3
   3  -1   3 13.9439 1.49959   2
  -3   1   3 21.1595 1.15599   4
   1   2   3 17.4029 1.55474   3
  -3   1   3 18.1612 1.12844   3
  -2  -1   3 19.1593 1.26246   4
  -3   2   3 15.9721 1.34121   5
   2   1   3 19.4063 1.75360   4
  -1  -2   3 19.2345 1.49138   3
   1  -3   3 16.4126 1.52802   2
  -2  -1   3 20.0385 1.42171   3
  -3   2   3 14.7170 1.03414   4
   3  -1   3 17.8910 1.67107   5
   1  -3   3 16.3046 1.59699   3
  -1   3   3 14.6940 1.40499   3
   3  -2   3 20.6588 1.77655   5
   3  -2   3 20.5087 1.83040   5
  -1  -2   3 19.2053 1.45290   4
  -2   3   3 20.5737 1.75607   5
  -1   3   3 22.6929 1.71576   1
   1   2   3 15.6098 1.64874   5
   1   2   3 18.4549 1.63374   4
  -2  -1   3 16.6339 1.13244   5
   2   1   3 20.0860 1.66932   4
  -3   2   3 20.7474 1.28769   2
   2  -3   3 17.3793 1.52251   4
  -3   2   3 21.7799 1.56763   1
  -3   1   3 17.8577 1.44385   1
   3  -2   3 22.3270 1.63100   1
  -1   3   3 15.9109 1.37939   3
  -1  -2   3 18.7383 1.33330   5
  -1   3   3 18.9296 1.53673   2
   3  -1   3 21.8961 1.71649   3
  -2   3   3 21.0458 1.56469   1
   3  -2   3 18.6836 1.59398   2
  -2   3   3 19.6327 1.43785   2
   2   1   3 18.7299 1.68355   2
   3  -2   3 22.4276 1.70905   4
  -3   2   3 21.1800 1.21098   3
   3  -1   3 18.7451 1.70341   5
  -3   1   4 32.1061 2.02404   5
   1   2   4 31.6894 2.43118   4
   3  -1   4 32.6550 2.37639   4
  -1  -2   4 35.8753 2.20752   5
   2  -3   4 32.0781 2.31391   1
  -1   3   4 29.1970 2.09774   3
   3  -2   4 29.5539 2.42270   5
   1   2   4 29.9765 2.36861   4
  -3   1   4 27.2026 1.77660   3
  -1   3   4 33.2654 2.21889   4
   3  -1   4 32.6518 2.43757   2
  -2  -1   4 30.6640 1.90574   5
  -3   2   4 31.9534 2.24319   1
   3  -1   4 25.8399 2.32609   5
   2   1   4 31.5551 2.41535   3
  -3   1   4 34.7542 1.85024   4
   2  -3   4 31.3951 2.31449   2
   2   1   4 36.0756 2.58077   2
   3  -1   4 23.1382 2.11556   5
   1  -3   4 29.7943 2.18799   5
  -2  -1   4 33.5276 2.39823   1
   3  -2   4 30.9025 2.43171   5
   1  -3   4 33.1399 2.36993   2
  -1  -2   4 27.7292 1.89359   5
  -1  -2   4 36.1132 2.42276   2
   2  -3   4 33.3941 2.32288   4
  -1  -2   4 32.8435 2.36818   1
  -3   2   4 32.3401 2.00434   2
  -2  -1   4 37.6787 2.35231   2
  -3   2   4 32.1491 1.99084   3
  -1  -2   4 28.0451 1.96799   4
  -1   3   4 32.5506 2.26967   4
   3  -2   4 30.0843 2.27407   4
   3  -1   4 33.1836 2.34075   1
   2   1   4 38.4154 2.67226   1
  -2   3   4 34.6634 2.24193   4
   1   2   4 32.9075 2.36123   3
  -1   3   4 34.6951 2.44525   1
   2  -3   4 32.4292 2.42852   5
  -2   3   4 36.7313 2.21817   3
  -2   3   4 27.2159 2.09295   1
   1  -3   4 32.7680 2.37373   5
  -3   2   4 29.6255 2.11738   5
   2  -3   4 31.3809 2.32115   3
   3  -1   4 25.8060 2.22467   4
  -2   3   4 35.8129 2.26598   2
  -2  -1   4 31.4888 1.89347   4
   2   1   4 36.7227 2.60705   4
  -2  -1   4 24.3566 1.67931   5
   1  -3   4 31.8968 2.30268   1
  -2   3   4 38.0893 2.23327   3
  -3   1   4 31.2116 1.96904   2
   2   1   4 36.1219 2.51533   3
   1  -3   4 35.0227 2.29969   4
  -2   3   4 35.6720 2.52030   5
  -1   3   4 37.1137 2.68178   5
   2   1   4 36.5922 2.53212   4
   3  -1   4 38.8202 2.58211   3
  -3   1   4 32.6314 2.29310   1
   2   1   4 32.1431 2.51837   5
   1  -3   4 25.8937 2.18186   3
  -1   3   4 29.1525 2.17107   2
  -3   2   4 30.5798 1.75655   4
   1   2   4 32.0584 2.44110   1
   1   2   4 28.0142 2.20306   3
   1   2   4 33.2070 2.57425   5
  -3   2   4 36.6572 1.96865   4
  -1   3   4 33.7341 2.22385   3
   3  -2   4 37.9612 2.42801   1
   3  -2   4 32.7580 2.34833   3
  -3   1   4 25.1495 1.63474   4
  -1  -2   4 36.9383 2.33974   3
   2  -3   4 35.5653 2.59195   5
   1   2   4 34.6828 2.55149   2
   3  -2   4 36.1406 2.54777   2
  -2   3   4 28.6118 2.01709   4
  -2  -1   4 35.4243 2.20375   3
  -3   1   5 72.6851 3.85601   1
   1   2   5 60.6317 3.65134   3
   3  -1   5 69.8457 3.91403   1
   3  -1   5 75.1727 4.11238   2
   3  -1   5 67.0231 3.74903   4
   1   2   5 58.1731 3.45381   4
   1   2   5 73.0274 3.93558   3
   3  -1   5 70.8510 4.14700   5
   2  -3   5 63.8422 3.71341   5
  -2   3   5 71.3625 3.98376   5
  -2   3   5 66.5627 3.27785   4
  -1   3   5 67.1858 4.03409   5
  -2   3   5 67.3890 3.59360   2
   3  -2   5 71.8618 3.95942   3
   3  -2   5 64.0738 3.66745   1
   3  -2   5 71.4991 4.19035   5
   2   1   5 68.4615 3.97483   2
  -2  -1   5 58.7450 3.01150   5
   1   2   5 57.8224 3.83025   5
   2  -3   5 57.8272 3.56702   3
   3  -2   5 71.4019 3.90067   4
  -1   3   5 59.9250 3.38242   4
  -3   2   5 58.2036 3.45374   1
  -1   3   5 53.8828 3.33197   4
  -2   3   5 64.8874 3.35290   3
   2   1   5 62.2403 3.92422   4
  -1  -2   5 60.7691 3.28368   5
   2   1   5 57.5223 3.53521   4
  -3   1   5 73.1852 3.34789   3
  -3   1   5 60.6162 2.94547   4
  -2   3   5 70.6835 3.55413   4
  -1  -2   5 75.4517 3.90659   2
  -1   3   5 66.3533 3.66009   3
  -1  -2   5 69.8311 3.64442   3
   3  -1   5 79.6100 4.34078   4
   1  -3   5 62.9658 3.67295   3
   3  -2   5 70.8267 4.05913   2
  -2   3   5 61.0297 3.22879   3
  -2  -1   5 68.8509 3.87041   1
   1  -3   5 54.7818 3.35274   5
   1  -3   5 70.3612 3.79877   1
   2  -3   5 70.3426 4.00677   5
   1   2   5 69.8842 3.97689   2
  -3   2   5 71.5295 3.12835   4
   2  -3   5 70.7775 3.80434   4
  -2  -1   5 61.7860 3.23640   5
  -3   2   5 51.3708 3.27354   5
   2   1   5 68.9781 3.88570   3
   2  -3   5 68.2961 3.79395   2
  -1   3   5 72.3612 3.89311   1
   3  -1   5 56.1443 3.52941   3
  -1  -2   5 70.0514 3.38805   4
   1   2   5 67.4523 3.81772   1
  -3   2   5 61.3929 3.08465   3
   2   1   5 65.3016 3.88634   3
  -3   1   5 70.2693 3.05183   4
  -1  -2   5 68.4969 3.88095   1
   2  -3   5 75.5930 3.93007   1
  -2  -1   5 69.3674 3.46808   3
  -2   3   5 63.2785 3.57526   1
  -1   3   5 73.7390 3.70858   3
   3  -2   5 57.0516 3.68211   5
  -3   1   5 72.2091 3.48557   2
  -3   1   5 64.3887 3.35275   5
  -2  -1   5 70.8643 3.23318   4
   3  -1   5 47.2600 3.40293   5
   1  -3   5 69.0651 3.83573   5
  -1  -2   5 62.6613 3.32019   5
  -3   2   5 63.9278 3.08374   4
   2   1   5 60.5018 3.95030   5
   1  -3   5 73.8244 3.91395   2
   1  -3   5 64.4778 3.54717   4
  -3   2   5 68.0984 3.39541   2
  -1   3   5 74.3169 3.85608   2
   1   2   5 62.2006 3.80103   4
  -2  -1   5 73.8390 3.75752   2
   2   1   5 77.8733 4.15228   1
  -1   3   6 14.3404 2.25973   5
   3  -2   6 13.1527 2.11122   3
   2   1   6 16.0925 2.32503   4
   2   1   6 7.02977 1.99262   2
  -3   2   6 17.2232 2.03324   2
  -2  -1   6 15.1976 2.29650   1
   1   2   6 14.4718 2.12098   4
   3  -2   6 15.0458 2.30570   5
  -2  -1   6 12.9287 1.97344   2
   1   2   6 10.8127 2.01207   3
  -1  -2   6 13.2197 1.98566   5
  -2  -1   6 14.8079 1.80185   4
  -2  -1   6 12.7721 1.87214   3
   1   2   6 16.0810 2.18792   3
   2  -3   6 8.72234 1.77127   5
   1   2   6 10.8962 2.11995   5
  -1   3   6 14.6581 2.09018   4
  -1  -2   6 11.8911 1.77523   4
   3  -2   6 14.4289 2.24602   4
  -2  -1   6 12.2551 1.76463   5
  -3   1   6 16.8638 1.86870   4
  -1  -2   6 11.7555 1.92655   5
  -3   1   6 14.1233 1.83532   3
   3  -2   6 13.2199 2.13159   5
   3  -1   6 11.6155 2.09828   2
   1   2   6 16.3089 2.28071   4
   3  -1   6 11.2946 2.04371   1
  -3   1   6 14.4912 1.93863   5
  -3   1   6 18.4380 2.43509   1
   2  -3   6 12.1367 1.95601   5
  -2   3   6 15.4010 2.14135   1
   2   1   6 8.59885 1.83448   3
  -1  -2   6 13.1933 1.96995   2
  -2   3   6 9.69323 1.95990   5
  -3   1   6 11.4257 1.63941   4
  -2   3   6 22.3490 2.31597   4
  -1   3   6 12.9083 1.97475   3
  -1   3   6 12.4296 2.04704   1
  -1   3   6 13.9708 2.08096   2
   1  -3   6 15.3096 2.08916   5
  -3   2   6 14.7976 2.10144   1
  -3   1   6 8.98133 1.49419   5
  -2   3   6 14.0438 1.97242   2
  -3   1   6 11.7457 1.79876   2
  -1   3   6 9.98901 1.88733   4
   3  -2   6 13.4577 2.09168   4
   2  -3   6 8.18885 1.71803   4
   3  -1   6 12.3653 2.03166   4
   2   1   6 11.8022 2.24821   4
   2   1   6 12.2346 2.05587   1
  -2   3   6 10.5362 1.72486   3
  -2   3   6 13.5574 1.93474   3
   3  -1   6 14.6250 2.08307   3
   2  -3   6 10.1740 1.85858   2
   3  -1   6 13.0597 2.27902   4
   2   1   6 11.8309 2.13482   5
   3  -2   6 11.3680 2.01774   1
  -2   3   6 12.1003 1.89834   4
   1  -3   6 14.7979 2.20670   2
  -3   2   6 13.1103 1.90602   5
   1   2   6 8.05172 1.78249   2
   1  -3   6 10.6896 1.81522   4
  -3   2   6 10.4794 1.66500   3
   1  -3   6 12.4173 2.10845   3
   3  -1   6 10.3097 1.90796   5
   3  -1   6 9.76914 1.96103   5
   1   2   6 12.6920 2.03296   1
   3  -2   6 12.1195 2.15171   2
  -1   3   6 11.3296 1.84078   3
  -1  -2   6 18.0248 2.14516   3
  -3   2   6 11.7792 1.70941   3
   1  -3   6 16.0614 2.26623   1
  -2  -1   6 16.8502 1.89438   5
   1  -3   6 12.0021 2.03673   5
  -3   2   6 9.35357 1.47997   4
  -3   2   6 10.5647 1.57655   4
   2   1   6 15.1393 2.18187   3
   2  -3   6 13.9660 2.09951   1
  -1  -2   6 11.3842 1.92475   1
   2  -3   6 15.1144 2.19498   3
   3  -1   7 17.0844 2.69881   3
   3  -2   7 18.5300 2.70223   4
   2   1   7 18.0984 2.86623   3
  -3   1   7 19.3949 2.28298   4
  -2  -1   7 14.9931 2.49897   2
  -2   3   7 17.3729 2.47996   2
   3  -2   7 11.8372 2.53610   4
   2   1   7 24.6002 3.39453   5
   2  -3   7 13.2953 2.43261   1
  -3   1   7 13.4784 2.22700   4
   1  -3   7 16.0608 2.61487   5
   1   2   7 17.8998 2.70274   3
   3  -1   7 15.4247 2.87844   5
   1  -3   7 11.3373 2.49172   2
   1   2   7 22.2365 2.94672   2
  -2   3   7 14.9184 2.32520   4
  -1   3   7 10.3839 2.14824   3
  -2  -1   7 17.0985 2.30152   4
  -2  -1   7 20.5070 2.64840   3
   1  -3   7 22.7527 2.99272   1
   1  -3   7 17.1258 2.66969   5
  -2  -1   7 17.2285 2.42460   5
  -1   3   7 11.7249 2.48833   3
  -2   3   7 19.0571 2.82528   1
  -1   3   7 5.13908 2.23454   5
   3  -1   7 19.2983 2.94096   2
   3  -1   7 17.6619 2.68541   1
   1   2   7 21.1359 2.87238   1
   1  -3   7 16.6418 2.57840   4
  -1   3   7 14.1916 2.33187   2
  -3   1   7 16.6081 2.69369   1
  -3   2   7 18.3860 2.29556   4
   2   1   7 16.4879 2.79905   3
   1   2   7 18.4725 2.63847   4
   3  -2   7 16.3417 2.70322   3
  -3   1   7 17.9226 2.49938   2
  -2  -1   7 19.3209 2.77836   1
  -1   3   7 22.4765 2.77024   4
  -1  -2   7 20.2950 2.79943   3
   1  -3   7 17.7238 2.78662   3
   3  -1   7 16.1051 2.75372   4
  -1  -2   7 17.9094 2.75731   2
   1   2   7 17.9045 2.95671   5
   2   1   7 15.7396 2.63124   4
  -2   3   7 17.4661 2.42262   3
  -3   1   7 12.8730 2.13163   5
  -3   2   7 21.9661 2.93626   1
  -3   2   7 16.8933 2.44625   2
   2  -3   7 20.1542 2.80943   4
  -3   1   7 17.2629 2.31019   3
   3  -2   7 18.3930 2.84665   1
   3  -2   7 16.1478 2.66650   2
   2   1   7 7.59599 2.25692   2
  -2   3   7 16.4720 2.76885   5
  -3   2   7 18.6553 2.47965   3
  -2   3   7 22.0556 2.61146   4
   2  -3   7 16.2621 2.73553   2
   2   1   7 14.2791 2.48060   4
  -2  -1   7 20.1092 2.43348   5
   2  -3   7 14.8152 2.56634   5
   3  -1   7 14.3511 2.58479   5
   2  -3   7 12.3732 2.24535   3
  -2  -1   7 15.6720 2.21530   4
  -1  -2   7 16.6002 2.38892   4
   3  -1   7 18.1281 2.81368   4
  -1   3   7 19.9824 2.78980   1
  -3   2   7 12.5563 2.37271   5
   1   2   7 17.4227 2.78101   3
   3  -2   7 17.2327 2.89006   5
   2   1   7 17.1015 2.83794   5
  -3   2   7 19.7560 2.42567   3
   2   1   7 17.2265 2.71292   1
   3  -2   7 19.4827 3.08337   5
  -3   2   7 11.4421 2.05506   4
  -1   3   7 19.1445 2.52261   4
  -1  -2   7 21.7368 2.68751   5
  -3   1   7 18.9284 2.55001   5
  -1  -2   7 19.3179 2.48151   5
   2  -3   7 20.3285 3.05582   5
  -2   3   7 21.4716 2.55326   3
   1   2   7 22.8406 3.04484   4
  -1  -2   7 22.8440 3.09705   1
  -2   3   8 1.32896 1.91681   3
  -1  -2   8 0.04087 1.89198   1
  -3   2   8 1.23283 1.73061   3
  -2  -1   8 0.06770 1.89077   5
  -3   1   8 0.37904 1.61224   4
   3  -1   8 1.51763 2.10605   4
  -2  -1   8-0.03119 1.72281   4
   1   2   8 0.99789 2.37976   4
  -3   2   8 1.36537 1.81259   3
   3  -2   8 6.09334 2.73905   5
  -1   3   8 7.96371 2.52011   3
   3  -1   8 1.92661 2.21872   5
  -1  -2   8-0.38921 2.05297   5
   1   2   8 0.76677 2.39652   5
  -1  -2   8 0.55361 1.90527   2
  -3   1   8-0.89506 2.29245   1
   1   2   8-0.18249 1.85238   4
  -2  -1   8 1.79317 2.27718   1
  -3   2   8-0.11737 2.17778   1
   1  -3   8-0.11266 1.88573   4
  -3   1   8 4.19648 2.00320   3
   1  -3   8 0.34413 2.03826   5
  -2   3   8 0.56506 1.72663   4
  -2   3   8 2.28244 1.87051   4
  -2  -1   8 1.34660 1.74418   4
   2  -3   8 4.19568 2.44553   3
  -3   1   8 1.44335 1.89685   5
   2  -3   8 1.64191 2.15359   5
   1  -3   8 0.94655 2.07463   3
  -3   2   8 0.84836 2.02813   5
   1  -3   8 3.92484 2.19573   4
   1   2   8 0.56500 1.92327   3
   1  -3   8-0.94767 2.04827   2
  -3   2   8 3.78717 1.98215   4
  -2   3   8 0.25159 2.08150   5
  -1  -2   8 1.22950 2.05470   4
   3  -2   8-0.35725 2.04491   1
   2   1   8 12.9358 3.10273   3
   3  -1   8 3.86618 2.56985   4
   3  -1   8 0.17450 2.43941   5
   1   2   8 2.71445 2.10785   2
  -3   2   8-0.03305 1.78019   2
  -1  -2   8-0.80492 2.13931   3
   2   1   8 0.27652 2.51461   5
   3  -2   8 0.21202 2.00409   4
   2   1   8 0.51391 2.33505   1
  -3   2   8 1.76840 1.93414   5
  -1   3   8 0.15128 1.93740   1
   2  -3   8 1.32465 2.30986   5
  -2  -1   8 0.30834 1.89146   3
  -2   3   8-1.44793 2.25068   1
   3  -2   8 2.06522 2.26751   3
  -1  -2   8-0.26473 1.80679   4
   1   2   8-1.32635 2.62092   5
   3  -2   8 1.39922 2.32663   4
  -3   1   8 1.25002 1.91590   3
   2   1   8 0.43316 2.34644   5
   3  -1   8 2.60285 2.10850   2
   1  -3   8 6.38690 3.03283   1
   2   1   8 2.75580 2.37940   2
   2  -3   8 1.00311 2.22272   1
  -1   3   8-0.35701 2.03505   4
  -3   2   8 0.30915 1.60504   4
   2  -3   8 6.15188 2.69979   4
  -3   1   8 2.22322 2.04539   5
  -2   3   8 1.93026 2.01340   2
  -2   3   8 1.62031 1.87018   3
   3  -2   8 0.90275 2.30396   5
   2   1   8-1.17074 2.11798   4
  -1   3   8 0.39837 2.46263   5
   1  -3   8-1.54204 2.15609   5
   1   2   8 0.39084 1.86092   1
   2  -3   8 0.24614 2.24299   2
  -1   3   8-0.29897 1.86444   4
  -1   3   8 0.87365 2.10272   2
   3  -2   8-0.82619 2.06327   2
  -2  -1   8 1.77568 2.06145   2
   1   2   8 0.03891 2.32082   3
   2   1   8-0.22917 1.96869   4
  -2  -1   8-0.15545 1.71683   5
   3  -1   8-0.15862 2.22789   1
   2  -3   8-0.22279 1.75210   4
  -3   1   8 1.82962 1.88773   4
   3  -1   8 1.17897 2.01038   3
   2   1   8-0.15626 2.17632   3
   3  -1   8 4.18719 2.50948   3
  -1   3   8 1.02695 2.01299   3
  -1  -2   8 0.42215 1.92675   5
  -3   3  -8 1.91039 2.28663   3
  -3   3  -8 2.04274 2.43645   1
   0  -3  -8 0.80527 2.61910   5
   0   3  -8 0.74137 1.78517   3
   3   0  -8-0.31720 1.93744   1
  -3   0  -8 0.36437 1.95730   2
   3  -3  -8 0.26252 1.76066   2
   3   0  -8-0.50467 1.75363   3
  -3   0  -8 0.59394 1.86990   1
  -3   3  -8-1.99169 2.48354   2
   0   3  -8-1.02256 1.95518   2
   3  -3  -8 0.53941 2.19845   1
   0  -3  -8-0.62159 2.25694   1
   0   3  -8 1.12288 2.41008   1
   3   0  -8-0.74913 1.76795   2
  -3   3  -7 49.1514 4.35350   2
   0  -3  -7 51.2926 4.72471   5
  -3   3  -7 53.4621 4.32451   3
   3   0  -7 56.4693 4.42704   1
   3  -3  -7 66.0531 4.60480   1
   0   3  -7 59.2086 4.61252   1
   0   3  -7 50.3055 3.83248   4
  -3   0  -7 65.6873 4.74289   2
   0  -3  -7 64.3970 4.66346   1
  -3   3  -7 63.3517 4.67115   1
   3  -3  -7 59.6402 3.98743   2
   3   0  -7 54.6112 3.77468   3
  -3   0  -7 66.5570 4.81980   1
   0   3  -7 50.0294 4.08697   2
   0   3  -7 68.1262 4.54457   3
   3   0  -7 49.1673 4.00033   2
   3  -3  -7 60.2406 4.48458   5
  -3   3  -6 55.9099 3.79879   4
   0   3  -6 46.1417 3.26757   4
  -3   0  -6 51.7861 3.80850   2
   0  -3  -6 44.9398 3.57100   1
   3  -3  -6 44.5910 3.41394   1
   3  -3  -6 52.7104 3.38512   2
  -3   3  -6 47.3562 3.57450   1
  -3   3  -6 48.3292 3.58433   3
   3  -3  -6 41.3802 3.42099   5
  -3   3  -6 39.7905 3.47002   2
   3   0  -6 43.3163 3.21765   2
   0   3  -6 48.4588 3.62429   2
   3   0  -6 45.2907 3.00607   3
   0  -3  -6 39.8614 3.62827   5
  -3   0  -6 54.7294 4.01817   1
   0   3  -6 50.3058 3.69655   1
   0   3  -6 45.1444 3.35355   3
   3   0  -6 44.2464 3.48377   1
   0  -3  -5 0.67160 0.83521   5
   0   3  -5 0.25766 0.66624   4
  -3   3  -5 1.63269 1.06522   4
   3  -3  -5 2.45058 0.98374   5
   0   3  -5 0.64458 0.78480   3
   3  -3  -5 0.51016 0.81447   1
  -3   0  -5 1.05589 0.82365   5
   0  -3  -5 0.40559 0.69508   1
   3   0  -5 0.86914 1.02595   2
  -3   3  -5 0.11250 0.77027   2
   3   0  -5-0.08198 0.70005   1
   0   3  -5 2.71739 1.05697   1
   0   3  -5 1.25463 0.90773   2
  -3   3  -5 1.35602 0.85004   3
  -3   3  -5 0.08554 0.63006   1
  -3   0  -5 1.45607 0.85037   2
   3  -3  -5 0.39290 0.63250   2
  -3   0  -5 0.32423 0.77019   1
   3   0  -5 0.88810 0.62795   3
  -3   3  -4 134.886 4.74786   4
  -3   3  -4 187.085 5.57217   3
   3   0  -4 189.473 4.53217   3
   3  -3  -4 184.588 5.50690   5
   0   3  -4 184.114 5.10662   4
   0   3  -4 137.163 4.80298   2
  -3   0  -4 179.842 5.70716   1
  -3   0  -4 168.337 5.79674   5
   0  -3  -4 173.059 5.96697   5
   3   0  -4 173.079 4.01832   4
   0   3  -4 177.268 5.27770   1
   0   3  -4 174.961 5.23051   3
   3   0  -4 168.975 4.74678   2
   0  -3  -4 186.883 5.64468   1
  -3   3  -4 165.337 5.33801   2
  -3   3  -4 175.622 5.29356   1
   3  -3  -4 148.940 4.78085   1
   3   0  -4 167.356 5.07619   1
   3  -3  -4 153.324 4.27585   2
  -3   0  -4 188.881 5.81409   2
   0  -3  -3 236.903 6.30493   5
   0  -3  -3 229.850 5.57977   1
   0  -3  -3 198.028 5.42231   4
   0   3  -3 225.305 4.97289   5
   3   0  -3 233.545 4.78288   2
  -3   3  -3 205.283 5.21373   3
  -3   0  -3 248.209 5.83874   1
   3  -3  -3 187.180 4.97782   5
   0   3  -3 200.710 4.80057   4
  -3   3  -3 236.730 5.65750   2
  -3   3  -3 228.314 5.16593   1
   3  -3  -3 233.274 4.53003   4
   3   0  -3 219.529 5.04657   1
   3   0  -3 238.522 3.82744   4
   3  -3  -3 201.041 4.07732   2
   0   3  -3 186.725 4.95610   3
   0   3  -3 241.206 5.45753   1
   0   3  -3 182.551 4.90236   2
  -3   0  -3 236.870 5.83732   2
   3  -3  -3 235.739 5.04482   1
  -3   3  -3 245.330 5.61221   4
  -3   0  -3 201.580 5.55319   5
   3   0  -3 202.716 4.07683   3
   3  -3  -2 322.589 4.61607   4
   3   0  -2 336.298 4.80683   2
  -3   3  -2 316.940 5.53055   2
  -3   0  -2 252.895 5.49961   5
  -3   3  -2 327.384 5.03025   1
   0   3  -2 329.373 5.58459   1
   3   0  -2 323.024 5.33507   1
   0  -3  -2 333.452 6.37678   4
   3   0  -2 327.229 4.17583   3
  -3   3  -2 317.635 5.65859   4
   3   0  -2 309.326 3.32635   4
   0   3  -2 315.040 5.61992   2
   0  -3  -2 356.172 6.26274   3
  -3   3  -2 257.619 5.41127   5
   0  -3  -2 345.805 6.74836   5
   0   3  -2 312.549 5.27660   4
   0   3  -2 280.412 5.29375   3
  -3   3  -2 269.384 5.18016   3
   0  -3  -2 322.536 5.76670   1
   3  -3  -2 334.804 5.89267   5
  -3   0  -2 329.450 6.00417   2
  -3   0  -2 332.499 5.78636   1
   3  -3  -2 325.630 4.79963   1
  -3   3  -1 447.662 5.60924   3
   3  -3  -1 433.091 3.79444   3
   3  -3  -1 417.943 3.74609   1
   0  -3  -1 375.811 5.79469   3
   0  -3  -1 416.042 6.39484   4
   0   3  -1 396.934 5.59450   4
   3   0  -1 411.410 4.09416   3
   0  -3  -1 464.052 6.13808   2
  -3   3  -1 438.585 6.20561   5
   0   3  -1 433.886 5.54261   1
   3  -3  -1 412.841 4.47372   4
   3   0  -1 415.361 3.33516   4
   3  -3  -1 421.603 5.78500   5
   0   3  -1 407.377 5.41654   5
   3   0  -1 423.544 4.67437   2
  -3   0  -1 396.154 5.59819   4
  -3   3  -1 427.314 4.10110   1
   0   3  -1 434.810 5.85454   2
  -3   3  -1 446.834 5.73746   4
   0   3  -1 393.743 5.64032   3
   3  -3   0 172.464 3.58022   5
   0  -3   0 137.994 3.41569   4
   3   0   0 164.784 2.99788   4
  -3   3   0 164.646 3.49989   5
   3   0   0 198.471 3.27487   3
   0   3   0 140.278 3.31616   3
   3  -3   0 175.398 2.72216   3
  -3   0   0 176.558 3.24553   1
   3  -3   0 184.044 3.14352   4
  -3   3   0 168.158 2.70964   3
   0   3   0 174.829 3.54259   2
   3   0   0 170.866 3.13517   1
   0  -3   0 166.499 3.69844   5
   0  -3   0 143.938 3.05346   1
   0   3   0 188.501 3.82943   4
  -3   0   0 181.034 3.27240   2
   0   3   0 158.297 3.55957   5
  -3   3   0 168.013 2.28642   2
  -3   0   0 155.378 2.83854   4
   0  -3   0 172.829 3.61804   3
   0  -3   0 171.820 3.52837   2
   3   0   0 164.070 3.06576   2
  -3   0   0 182.048 2.75007   5
  -3   0   0 165.674 3.07221   3
   3  -3   0 169.100 2.28804   2
  -3   3   0 177.207 3.10903   4
   0   3   1 432.672 6.73430   5
   3  -3   1 405.430 3.80021   1
  -3   0   1 371.406 3.49025   4
  -3   3   1 429.701 5.88271   5
  -3   3   1 412.984 3.00918   2
   0   3   1 411.956 6.05490   3
  -3   3   1 411.967 4.33188   4
   3   0   1 434.630 5.50850   1
   0   3   1 443.322 5.80356   1
   0  -3   1 402.790 5.77800   3
   0  -3   1 376.571 5.44662   4
  -3   0   1 425.871 5.33784   1
   3   0   1 376.966 5.56058   2
   3   0   1 373.478 5.34169   3
  -3   3   1 425.371 3.62228   1
   3   0   1 387.086 5.67727   3
   0   3   1 421.718 5.51591   1
   0  -3   1 424.216 5.61378   5
   0   3   1 429.538 5.92863   2
  -3   3   1 382.436 3.51560   3
   3  -3   1 410.660 4.93611   2
   3   0   1 431.346 5.75960   5
  -3   3   1 408.612 2.97024   2
   3  -3   1 401.992 5.98548   5
   3  -3   1 432.174 5.68201   4
  -3   0   1 412.949 4.21857   3
   0   3   1 415.838 6.32658   4
   3  -3   1 453.076 5.61839   3
  -3   0   1 422.367 4.78628   2
   0   3   2 327.482 6.30190   4
   0  -3   2 321.063 5.67074   2
   0   3   2 279.347 5.50118   3
  -3   3   2 308.569 5.54677   5
   3  -3   2 319.438 4.77815   1
   3   0   2 311.213 5.64269   4
   0   3   2 318.474 5.58459   2
  -3   0   2 322.176 5.30445   1
   0   3   2 342.777 5.94897   2
   3   0   2 346.695 6.04939   2
  -3   0   2 320.700 2.90520   5
  -3   0   2 339.042 4.85199   2
  -3   3   2 330.711 4.04079   3
   3  -3   2 318.005 5.63689   4
   0   3   2 328.535 5.65928   1
   3  -3   2 311.424 5.58775   3
   3   0   2 314.920 5.72475   3
   3  -3   2 331.003 5.55595   2
  -3   3   2 334.233 4.59963   4
   0  -3   2 361.330 5.81296   1
  -3   0   2 309.743 2.64177   5
   3   0   2 332.930 6.05401   3
   3   0   2 330.970 6.14175   5
   3  -3   2 327.749 6.15815   5
  -3   0   2 330.276 4.26295   3
   3   0   2 284.594 5.34971   1
  -3   3   2 307.511 3.83940   3
  -3   3   2 318.310 4.00573   2
   0   3   2 339.542 6.67994   5
  -3   3   2 323.661 4.02812   2
   0  -3   2 325.006 5.33580   5
   0  -3   2 299.234 5.45603   3
   0  -3   2 324.051 5.58815   4
   3   0   2 310.073 5.90237   4
   3   0   3 216.211 5.53028   3
  -3   0   3 232.781 4.30612   3
   0   3   3 250.716 5.72452   2
  -3   3   3 216.687 4.37913   4
  -3   0   3 221.759 3.79361   5
   0   3   3 205.859 5.28624   3
   3  -3   3 227.768 5.89387   5
   0   3   3 240.653 6.22300   5
  -3   0   3 235.498 3.65740   5
   3  -3   3 177.928 4.40169   1
   3   0   3 242.806 5.92097   2
   0   3   3 224.205 5.66739   4
  -3   0   3 195.464 4.39832   2
   3   0   3 240.046 5.67645   3
  -3   3   3 227.776 4.94898   1
   0  -3   3 265.546 5.75113   1
  -3   0   3 196.878 3.52819   4
   3   0   3 245.036 5.99362   4
  -3   3   3 237.714 4.34980   3
   3  -3   3 237.554 5.60010   4
   3  -3   3 229.154 5.52069   3
   0  -3   3 250.267 5.67687   2
   0  -3   3 241.532 5.18721   5
   0   3   3 225.550 5.54983   1
   0  -3   3 236.254 5.44320   3
   0  -3   3 231.691 5.20636   4
  -3   3   3 244.483 5.57665   5
   3   0   3 253.412 5.87921   1
   0   3   3 221.196 5.34341   3
   0   3   3 237.068 5.54241   2
   3  -3   3 235.277 6.01175   5
  -3   3   3 194.198 4.11619   2
   3  -3   3 224.566 5.40417   2
  -3   0   3 245.818 5.42592   1
   3   0   3 234.479 6.03255   5
   3   0   3 242.645 5.72348   4
  -3   3   3 240.777 4.28836   3
   3  -3   4 174.385 5.91046   5
   3   0   4 176.756 5.59616   3
   0  -3   4 179.291 5.60895   2
  -3   3   4 180.695 4.47091   3
  -3   0   4 154.337 4.05387   5
   0  -3   4 181.017 5.05848   5
   3  -3   4 158.381 5.12888   4
  -3   3   4 173.907 5.35231   5
   0  -3   4 181.419 5.21564   5
   3  -3   4 166.519 5.04325   1
   0  -3   4 191.965 5.69883   1
   0  -3   4 145.519 4.76587   4
   0   3   4 181.358 5.58327   2
   0   3   4 143.551 4.87625   2
   0   3   4 156.255 5.11273   3
   0   3   4 161.791 5.68407   5
  -3   0   4 185.228 4.60102   3
  -3   0   4 171.068 4.00514   5
   3  -3   4 189.636 5.68735   2
   3  -3   4 131.095 5.03193   5
  -3   3   4 176.189 4.52294   4
  -3   3   4 171.349 4.32595   4
  -3   0   4 162.754 3.89986   4
   0   3   4 172.759 5.41927   4
   3   0   4 143.186 5.01702   4
   3   0   4 175.558 5.96161   5
   3   0   4 163.406 5.40499   1
  -3   0   4 178.518 4.99180   2
   3   0   4 170.852 5.64759   2
   3   0   4 199.969 6.11432   4
   3  -3   4 156.976 5.23169   3
  -3   3   4 175.038 4.71344   2
  -3   0   4 186.627 5.52915   1
   0  -3   4 175.522 5.28793   3
   0   3   4 168.965 5.20204   3
  -3   3   4 175.243 4.42558   3
   0   3   4 172.097 5.54358   1
  -3   3   4 185.248 5.28022   1
   0  -3   5 0.74900 0.96255   2
  -3   3   5 0.40107 0.65330   2
  -3   3   5 1.44022 0.68470   4
   0  -3   5 3.42026 1.23541   1
  -3   0   5 0.17653 0.65671   1
   0   3   5 2.94562 1.05005   2
   3  -3   5 0.74215 0.80001   5
  -3   0   5 1.80985 0.95423   2
   0  -3   5 0.04186 0.82007   3
   0   3   5 1.04700 0.78133   3
   3   0   5 0.44238 0.92022   4
   3   0   5 0.44385 0.76908   5
   3  -3   5 1.66466 0.96965   4
   3  -3   5 0.25036 0.84020   3
   0   3   5 0.79527 0.98057   5
   0   3   5 0.85363 0.85218   4
   0   3   5 0.59349 0.80660   1
   3  -3   5 1.15527 0.93262   1
   3   0   5 2.31804 1.00371   2
   3   0   5 0.22944 0.84457   3
   0  -3   5 0.44859 0.71118   5
  -3   0   5 0.43330 0.60333   3
  -3   3   5 0.91157 0.66628   4
  -3   3   5 1.44871 0.93948   5
  -3   0   5 0.24215 0.63167   4
   3   0   5 0.20879 0.89202   3
   3  -3   5 0.96261 0.91612   2
  -3   0   5 0.14007 0.58614   5
   0  -3   5 1.08965 0.80641   5
   3   0   5 1.12548 1.12786   4
  -3   0   5 1.35517 0.65577   4
   3   0   5 1.75573 1.19504   1
  -3   3   5 0.12083 0.66551   1
   0   3   5 0.74701 0.77947   3
  -3   0   5 1.78789 0.73447   5
   0   3   5 2.16446 0.93219   4
   0  -3   5 3.14106 1.00776   4
  -3   3   5 0.31491 0.58657   3
   3  -3   5 0.24531 0.91222   5
  -3   3   5 2.89027 0.88580   3
   0   3   6 43.7632 3.75020   3
   3   0   6 45.4770 3.78292   2
   0  -3   6 46.7135 3.64017   3
   3   0   6 35.2454 3.54641   5
  -3   0   6 42.3770 2.90345   5
  -3   3   6 52.0198 3.25319   3
  -3   3   6 48.7089 3.68127   5
  -3   3   6 57.5904 3.58972   2
   3   0   6 55.9609 3.86551   4
   0   3   6 55.3396 3.80250   3
   3   0   6 48.2713 4.00470   5
   0   3   6 54.1342 3.88143   1
   3  -3   6 43.5916 3.57550   5
  -3   3   6 50.8913 3.08591   4
   3  -3   6 56.3844 3.97538   2
  -3   3   6 54.1891 3.26656   3
   3   0   6 49.6523 3.76499   3
  -3   0   6 49.9187 3.06177   4
  -3   0   6 41.2030 3.18147   2
   3  -3   6 47.5524 3.73116   3
   3  -3   6 53.9978 3.87844   4
   0  -3   6 57.5042 4.04549   1
  -3   0   6 48.5492 2.95985   4
   0   3   6 46.2265 4.04583   5
   0   3   6 46.1836 3.49558   4
  -3   3   6 54.7013 3.84361   1
   3   0   6 53.5792 4.03191   3
   0  -3   6 54.6200 3.69681   4
   0  -3   6 42.3400 3.51212   2
  -3   0   6 52.6817 3.42633   5
  -3   3   6 43.2088 2.96407   4
  -3   0   6 52.5290 3.85313   1
   3   0   6 57.5960 4.14766   4
   3  -3   6 47.2744 3.89781   5
   0  -3   6 53.2744 3.48872   5
   3  -3   6 56.3205 3.86336   1
   3   0   6 48.4771 3.65708   1
  -3   0   6 58.7763 3.44642   3
   0   3   6 52.8262 3.82014   2
   0   3   6 50.4572 3.66819   4
   0  -3   6 57.0775 3.70700   5
  -3   0   7 48.6531 3.94117   2
   3  -3   7 61.2869 4.58069   4
   3   0   7 43.7887 4.30913   3
   3  -3   7 60.1086 4.53400   1
  -3   0   7 55.2788 3.73749   5
  -3   3   7 58.2807 3.93549   4
   3  -3   7 56.4112 4.51141   2
   3  -3   7 69.1932 4.98677   4
   0   3   7 66.8891 4.61524   4
  -3   3   7 61.0622 4.56662   5
   3   0   7 64.5862 4.83902   2
   0  -3   7 47.9369 3.79507   5
   3   0   7 62.8224 5.00368   4
  -3   3   7 58.9094 4.14123   2
   0  -3   7 45.8385 4.33940   2
   0   3   7 68.1546 4.62001   3
  -3   0   7 61.5723 3.88946   4
   0  -3   7 72.0902 4.75639   5
  -3   3   7 65.3091 4.03458   3
   3   0   7 63.1989 4.71324   1
   0  -3   7 61.7512 4.52082   3
   0  -3   7 63.3052 4.81404   1
  -3   0   7 61.0301 4.74950   1
   0   3   7 64.2862 4.57055   3
  -3   3   7 64.2751 4.15002   3
   3   0   7 62.8102 4.95843   5
   3  -3   7 65.7734 4.87557   3
   0   3   7 64.6313 4.71828   2
  -3   3   7 66.9479 4.64014   1
   0  -3   7 62.9968 4.36646   4
  -3   0   7 58.3613 3.66884   4
   0   3   7 59.6317 4.30711   4
   3  -3   7 73.5529 5.07838   5
  -3   3   7 66.0128 4.03032   4
   3   0   7 76.0625 5.50154   5
   3   0   7 57.8832 4.51504   3
   3  -3   7 56.3127 4.63215   5
  -3   0   7 53.9392 3.86248   3
   3   0   7 69.2598 4.85198   4
  -3   0   7 58.3643 4.09400   5
   0   3   7 59.4858 4.49541   1
   0   3   7 52.2940 4.27551   2
   0   3   7 55.4686 4.88202   5
  -3   0   8 0.74447 1.85584   5
   3   0   8 1.70513 2.61594   3
  -3   3   8-0.09094 1.70276   3
   3   0   8 3.22498 2.42970   5
   0  -3   8-0.94114 2.39437   1
   3   0   8 1.62769 2.36053   4
   3  -3   8 8.23632 3.34085   4
   0  -3   8 0.60298 2.05451   4
   3  -3   8 0.33861 2.03209   5
   0   3   8 0.15211 2.19028   2
   0  -3   8-1.22562 2.02670   3
  -3   0   8 3.24528 2.30364   1
   0   3   8-0.58010 2.03673   1
  -3   3   8-0.27603 2.20734   5
   3   0   8-0.04641 2.10973   5
   0  -3   8 0.68585 2.02660   5
   3  -3   8-1.53034 2.43358   2
   0   3   8 0.03783 1.86996   3
   3   0   8 2.13626 2.51475   2
  -3   0   8 2.84119 1.86859   5
  -3   3   8 0.30894 1.78940   4
   0   3   8-0.79861 2.13528   3
   3  -3   8 0.63726 1.91970   1
  -3   3   8 1.03556 2.37297   1
   0   3   8 0.77791 1.87040   4
  -3   0   8 4.48030 1.99255   3
  -3   3   8-0.16303 1.78118   2
   0   3   8 0.87751 2.20657   5
   3   0   8-0.59426 2.44625   3
   3  -3   8 0.20794 2.29150   5
   0  -3   8-1.49206 2.20075   5
   0  -3   8 0.37078 2.45092   2
  -3   3   8-0.46071 1.69807   4
  -3   0   8-0.87767 1.70104   4
  -3   0   8 1.97083 1.98447   2
   0   3   8-0.15346 2.10811   4
   0  -3   8-0.24829 1.83149   4
   3   0   8-1.40451 2.21075   4
   0   3   8-1.47420 2.22000   2
  -3   0   8 2.06580 1.81805   4
   3   0   8 2.72379 2.36593   1
   3  -3   8 0.96461 1.85615   4
  -3   3   8 0.24609 1.69912   3
   3  -3   8 4.73583 2.74599   3
   2   2  -8 5.87204 2.65902   2
  -2   4  -8 4.75388 2.21247   2
  -2  -2  -8 6.01534 2.24289   1
   2  -4  -8 4.58330 2.47284   5
  -4   2  -8 8.72789 2.82464   1
  -2   4  -8 3.65033 2.17938   3
   4  -2  -8 4.27945 2.44148   1
   2   2  -8 4.12634 2.56989   1
   4  -2  -8 12.0137 2.55403   2
  -4   2  -8 3.83890 2.17935   2
   2  -4  -8 5.99063 2.59036   1
   2   2  -8 8.12357 2.31342   3
  -2   4  -8 5.82827 2.50796   1
   2  -4  -7-0.06442 1.53910   1
  -2   4  -7-1.29494 1.75317   1
   4  -2  -7 0.46942 1.26646   2
  -2   4  -7 0.28711 1.56402   3
  -2  -2  -7 1.01623 1.73357   1
  -2   4  -7 0.58041 1.49512   2
  -2   4  -7-0.48403 1.19128   4
  -4   2  -7 1.28136 1.57097   2
   2   2  -7-0.46341 1.54811   1
  -2  -2  -7 3.71224 1.83172   5
   4  -2  -7 1.03251 1.58947   1
  -4   2  -7-0.26908 1.37937   1
   2   2  -7 0.52602 1.26484   2
  -4   2  -7 0.54268 1.77434   3
   2   2  -7-0.79036 1.34565   3
   2  -4  -7-0.26286 1.71170   5
   2   2  -6 185.218 5.93764   4
   2   2  -6 201.596 7.07778   2
  -4   2  -6 224.128 7.90782   2
   4  -2  -6 200.406 6.31828   2
  -4   2  -6 221.926 7.73961   1
   4  -2  -6 199.763 6.42205   5
  -2  -2  -6 224.910 8.61623   5
  -2   4  -6 200.365 7.19659   3
  -2   4  -6 179.669 7.06753   2
  -2   4  -6 178.133 6.64399   4
  -2  -2  -6 218.795 7.75925   1
   2  -4  -6 208.580 7.88087   5
   2   2  -6 179.644 6.27129   3
  -4   2  -6 229.582 7.92342   3
   4  -2  -6 225.387 7.53467   1
  -2   4  -6 186.045 7.07356   1
   2  -4  -6 230.309 7.69296   1
   2   2  -6 182.657 6.92372   1
   4  -2  -5-0.37941 0.64144   2
   2   2  -5-0.48558 0.67216   4
   4  -2  -5-0.51275 0.90266   1
  -2  -2  -5 0.40260 0.78733   1
   2  -4  -5 0.95981 0.85342   1
   2   2  -5 0.62273 0.94630   1
  -4   2  -5 0.02267 0.71824   1
  -2   4  -5 0.09397 0.86957   2
   4  -2  -5 2.04992 0.73851   3
  -2   4  -5-0.65661 0.82901   1
  -4   2  -5 0.45476 0.74950   3
   2   2  -5 0.34591 0.68292   3
  -2  -2  -5 2.00772 1.07008   5
  -4   2  -5-0.63162 0.81658   2
  -2   4  -5-0.40016 0.77802   3
   4  -2  -5 0.03391 0.65677   5
  -2   4  -5 2.28591 1.11569   4
   2   2  -5-0.16468 0.77336   2
   2  -4  -5 0.96748 0.96030   5
  -2   4  -4 444.424 8.35039   1
   4  -2  -4 458.693 7.37228   5
  -4   2  -4 463.565 9.15483   2
   4  -2  -4 460.380 8.29181   1
   2  -4  -4 417.033 8.28074   1
   2   2  -4 378.831 7.83365   2
   2   2  -4 480.833 8.95277   1
   2   2  -4 449.716 7.93005   3
  -2   4  -4 433.639 8.43488   4
  -4   2  -4 486.048 9.19040   1
  -2   4  -4 461.424 9.08845   2
   2  -4  -4 457.721 9.73321   5
   4  -2  -4 418.907 6.14213   3
   2  -4  -4 460.629 8.65075   4
  -2  -2  -4 399.768 9.15206   5
  -2  -2  -4 462.797 9.26797   1
  -4   2  -4 434.695 8.68919   4
   4  -2  -4 406.212 6.78910   2
  -4   2  -4 363.501 8.01239   3
   2   2  -4 375.674 6.70105   4
  -2   4  -4 435.196 8.66331   3
  -2   4  -3 0.86894 0.57302   1
   4  -2  -3 0.25606 0.43673   1
  -4   2  -3-0.05386 0.55058   1
   2  -4  -3 1.38404 0.79411   5
  -4   2  -3 0.05744 0.51383   3
   2  -4  -3 0.18256 0.49866   4
   4  -2  -3 0.25993 0.34192   2
  -2   4  -3 0.63928 0.64303   4
   4  -2  -3 0.05507 0.35592   5
   2   2  -3 1.59661 0.72288   1
  -4   2  -3 0.19158 0.48975   2
  -2  -2  -3-0.09385 0.47260   1
  -2   4  -3 0.70780 0.65877   5
  -4   2  -3 0.65072 0.52043   4
   2   2  -3 0.76867 0.40278   4
  -2   4  -3 0.47950 0.53089   2
   4  -2  -3 0.02818 0.26989   3
   2  -4  -3-0.13952 0.40772   1
  -2  -2  -3 0.03459 0.51103   5
  -2  -2  -3-0.42646 0.55927   4
  -2   4  -3-0.08894 0.45539   3
   2   2  -3 0.56435 0.54850   2
   2   2  -3 0.61019 0.44550   3
   4  -2  -2 293.290 3.46375   2
  -2   4  -2 311.601 5.70197   2
   2   2  -2 266.660 3.60655   5
   4  -2  -2 244.517 4.02071   5
  -2  -2  -2 301.835 5.94110   1
  -4   2  -2 283.372 4.96907   1
   2   2  -2 300.261 4.75526   4
   2   2  -2 260.272 5.12059   2
  -2  -2  -2 225.168 5.44939   3
  -2   4  -2 299.797 5.89044   5
  -4   2  -2 277.940 5.39034   4
   2  -4  -2 299.956 5.13908   1
  -4   2  -2 237.876 4.98699   3
   2   2  -2 282.174 5.08268   3
  -2   4  -2 299.177 5.76876   3
  -4   2  -2 330.340 5.94421   2
  -2   4  -2 275.019 4.82833   1
  -2  -2  -2 295.515 6.17672   5
   2  -4  -2 273.955 6.23193   5
   2  -4  -2 281.864 5.53806   4
  -2   4  -2 281.777 5.53081   4
   2  -4  -2 298.305 5.26702   3
   4  -2  -2 294.802 4.68905   1
   2   2  -2 321.596 5.90817   1
  -2  -2  -2 276.406 6.06801   4
   2   2  -1 0.35694 0.42565   2
  -4   2  -1-0.15576 0.29723   2
   4  -2  -1 0.04233 0.18334   1
   4  -2  -1-0.03213 0.17468   5
  -4   2  -1 0.22344 0.33846   3
  -2   4  -1-0.11365 0.33294   4
  -2   4  -1 0.12830 0.32740   3
  -2   4  -1 0.33252 0.30114   1
  -2  -2  -1 0.63935 0.44953   5
   2  -4  -1 0.72968 0.45066   5
   2   2  -1-0.05560 0.22102   5
   2  -4  -1 0.06331 0.34064   3
  -2  -2  -1 0.11590 0.33228   2
   2  -4  -1 0.21078 0.26780   2
  -2   4  -1 0.62295 0.40052   2
  -4   2  -1 0.35824 0.41100   5
  -2  -2  -1-0.13078 0.34027   3
   2  -4  -1 0.39606 0.34859   4
  -4   2  -1 0.16520 0.28281   4
  -4   2  -1 0.40880 0.29288   1
  -2  -2  -1 0.02218 0.39482   4
   2   2  -1 0.76099 0.51027   4
   2   2  -1 0.46624 0.37432   1
   2   2  -1 0.11431 0.29087   3
  -2   4  -1-0.02067 0.41760   5
   4  -2   0 1330.86 6.77651   1
   4  -2   0 1344.25 6.94480   3
  -2   4   0 1346.34 10.5398   4
  -2  -2   0 1274.40 10.2524   1
   2   2   0 1285.79 10.4383   2
  -2   4   0 1366.48 10.0194   3
   2   2   0 1297.12 9.64664   5
   4  -2   0 1397.19 6.80093   1
   2  -4   0 1337.62 11.6360   5
   2   2   0 1370.15 10.6749   4
  -4   2   0 1319.30 9.15573   5
  -2   4   0 1324.17 9.28495   2
  -4   2   0 1356.52 7.32686   3
   4  -2   0 1354.71 6.92297   2
  -2   4   0 1432.87 11.7524   5
  -2  -2   0 1265.72 9.29442   5
   2   2   0 1308.13 10.4310   3
  -2   4   0 1269.75 7.74651   1
   4  -2   0 1344.56 9.12956   5
  -2  -2   0 1360.66 10.8817   3
   2  -4   0 1402.46 9.43103   2
  -2  -2   0 1322.29 10.7791   4
   2   2   1 0.69206 0.44499   5
   2  -4   1-0.22700 0.33646   2
   4  -2   1-0.00688 0.21527   2
  -2  -2   1 0.07454 0.23062   5
   2  -4   1-0.01823 0.32956   3
  -2  -2   1 0.01674 0.26019   3
   2  -4   1 0.82434 0.42221   4
   4  -2   1 0.65068 0.32753   1
  -2  -2   1 0.67047 0.44090   1
   2   2   1 0.45936 0.40690   1
  -2   4   1 0.75544 0.43170   3
   4  -2   1-0.11361 0.23217   3
   2  -4   1 0.22378 0.27220   5
  -2   4   1 0.55017 0.30969   1
   2   2   1 0.91101 0.47907   4
   2   2   1 0.10102 0.37565   2
   2  -4   1 0.14516 0.25986   1
  -2   4   1 0.36537 0.38086   4
   4  -2   1 0.21260 0.24829   4
  -4   2   1 0.02352 0.16571   1
  -2   4   1 0.14136 0.41405   5
  -2   4   1 0.27440 0.25779   1
  -2   4   1 0.66087 0.27927   2
  -2  -2   1-0.23113 0.26557   4
  -2  -2   1 0.26366 0.44312   2
   2   2   1-0.03176 0.36881   3
   2   2   1-0.00938 0.32935   1
   4  -2   1 0.40868 0.36357   5
  -4   2   1-0.14584 0.22460   5
   2  -4   2 247.681 4.62043   1
   2  -4   2 292.524 5.71786   3
  -4   2   2 291.767 4.24561   5
   2   2   2 250.248 5.64901   2
   4  -2   2 302.830 6.09432   5
   4  -2   2 299.809 5.52669   3
  -4   2   2 276.042 2.30048   3
  -2  -2   2 294.400 5.38305   2
  -2   4   2 282.331 4.78213   2
  -2   4   2 270.554 4.77534   2
   2   2   2 315.391 6.38897   5
   2   2   2 299.617 5.72154   1
  -2  -2   2 292.211 4.77941   4
  -2  -2   2 286.134 5.56336   1
  -2  -2   2 256.918 4.93634   3
  -4   2   2 274.508 2.24347   3
   4  -2   2 292.843 5.14921   1
   4  -2   2 302.810 5.60051   4
  -4   2   2 273.341 4.49211   1
   2  -4   2 278.129 5.79274   5
  -2   4   2 291.350 5.04564   1
   2   2   2 290.833 6.13697   4
   2   2   2 274.742 5.92399   3
   2  -4   2 285.264 5.66326   4
  -2  -2   2 290.970 3.84135   5
   4  -2   2 213.343 5.31040   5
  -4   2   2 283.032 3.32769   2
  -2   4   2 308.496 6.45103   5
   2  -4   2 282.768 5.45764   2
  -2   4   2 289.413 5.18060   3
   4  -2   2 267.630 5.33103   2
   2   2   2 277.486 5.75205   2
  -2   4   2 309.427 5.79428   4
   2  -4   3 0.04544 0.44464   5
   2   2   3 0.30453 0.58437   3
   2   2   3-0.24294 0.68794   5
  -4   2   3 0.08297 0.22657   4
  -4   2   3 0.23125 0.27746   3
   2   2   3 0.68586 0.68989   4
  -4   2   3 0.07701 0.26816   2
  -4   2   3 0.01002 0.18452   4
   2  -4   3 0.04423 0.36664   3
   4  -2   3 0.48671 0.61683   3
  -2  -2   3 0.07835 0.33015   5
   2   2   3 0.09231 0.54393   3
  -2   4   3-0.20876 0.41574   2
   4  -2   3 0.09823 0.62404   5
   2   2   3 0.57552 0.49231   2
  -2   4   3 0.36398 0.37801   3
  -2  -2   3 1.13904 0.59396   4
  -2   4   3-0.03434 0.39688   2
   2  -4   3 0.08708 0.38342   4
  -2  -2   3-0.15273 0.50227   1
   2  -4   3 0.69527 0.50484   1
  -2   4   3 0.60849 0.52933   3
  -2   4   3 0.20472 0.53031   1
  -2  -2   3 0.18589 0.36583   5
  -2   4   3-0.08175 0.52907   4
   4  -2   3-0.21759 0.41210   2
   4  -2   3 0.35689 0.44937   5
   2   2   3-0.60557 0.66203   2
   2  -4   3 0.01446 0.49389   2
  -2   4   3 0.51636 0.66398   5
  -4   2   3 0.39240 0.42282   5
  -4   2   3 0.13911 0.39307   1
   4  -2   3 0.67027 0.60952   1
   4  -2   3 0.94173 0.67144   4
  -2  -2   3-0.11788 0.37613   3
  -2  -2   3 0.09103 0.48271   2
   2   2   3 0.22853 0.51416   1
   4  -2   4 466.315 9.02389   4
  -2  -2   4 419.816 6.73386   5
   2  -4   4 378.994 7.78195   1
  -4   2   4 484.943 8.66955   1
   2   2   4 455.142 9.34015   2
   2  -4   4 482.404 9.25596   5
   2  -4   4 362.891 7.81078   4
  -2   4   4 456.573 8.27624   2
  -2  -2   4 398.512 6.79529   5
  -2  -2   4 464.907 7.65910   4
   4  -2   4 364.919 8.53492   5
  -2   4   4 457.593 8.15418   3
  -4   2   4 438.758 6.40204   3
   4  -2   4 468.179 8.69410   1
   2   2   4 478.597 9.36943   3
   2   2   4 393.603 8.58167   1
  -4   2   4 453.116 7.11899   2
  -2   4   4 485.176 8.79850   1
   4  -2   4 473.284 9.45605   2
   2   2   4 450.972 9.11891   4
  -4   2   4 424.991 7.31324   5
  -2   4   4 489.032 9.86810   5
  -2   4   4 439.895 7.81356   3
  -2   4   4 465.945 8.57884   4
  -2   4   4 413.699 7.78194   2
   4  -2   4 492.811 10.1444   5
   2   2   4 451.905 9.49014   4
   2  -4   4 445.556 9.03680   3
   4  -2   4 443.159 8.91341   3
   2   2   4 469.142 10.0128   5
  -4   2   4 461.293 6.20964   4
   2   2   4 479.473 9.43039   2
   2  -4   4 425.797 8.86269   2
  -2  -2   4 459.304 8.91057   1
  -2  -2   4 435.635 7.91833   3
   2  -4   4 451.849 8.92553   5
  -4   2   4 446.127 5.97153   4
  -2  -2   4 497.921 8.85851   2
   4  -2   5-1.00971 0.97521   1
   2  -4   5-0.08899 0.95629   5
  -2  -2   5 0.53560 0.80522   5
  -4   2   5-0.31625 0.57588   3
  -2  -2   5-0.48723 0.61536   3
  -2   4   5 0.29188 0.76813   3
   2  -4   5-0.09413 0.72814   5
   2   2   5-0.91065 1.02161   3
   4  -2   5 0.94097 1.04324   4
  -4   2   5 0.88043 0.61009   4
  -2   4   5-0.50997 0.76693   2
   2   2   5 0.30465 0.71812   1
  -2   4   5 0.48014 0.97004   5
  -2   4   5 0.80312 0.91053   4
  -2  -2   5-0.81003 0.82568   2
  -2  -2   5 0.28044 0.75672   4
  -2   4   5 0.22783 0.76178   1
  -4   2   5-0.13854 0.66989   5
   2  -4   5 0.66835 0.86664   2
  -4   2   5-0.32455 0.49897   4
   2  -4   5-0.25712 0.88532   4
  -2   4   5-0.05611 0.68221   3
   4  -2   5 0.07980 0.91425   5
   2   2   5-0.81503 0.81205   2
   4  -2   5 0.58202 0.90492   3
  -2  -2   5 0.80018 0.66029   5
   2   2   5 0.54434 0.82277   5
  -2   4   5 0.61663 0.84022   2
  -2  -2   5 0.29131 0.95610   1
   2   2   5 0.06871 0.80758   4
   4  -2   5 0.05073 0.91742   4
   4  -2   5 0.35686 0.92762   5
   4  -2   5 1.45158 0.88572   2
   2   2   5-0.46801 0.89519   4
  -4   2   5 0.35331 0.65993   2
   2  -4   5 0.50876 0.95360   3
  -2   4   5 1.92708 0.98863   4
   2   2   5 2.02008 1.15036   3
  -4   2   5 2.19524 1.02088   1
   2  -4   5 1.35510 0.96753   1
   2   2   6 192.815 7.45559   4
   2   2   6 168.027 7.34849   3
   4  -2   6 224.993 8.34381   5
  -2   4   6 208.364 7.20209   1
   2  -4   6 187.052 7.31148   3
   2   2   6 216.214 8.40472   5
  -4   2   6 221.102 6.05027   4
  -4   2   6 212.860 6.06012   3
   4  -2   6 220.083 8.31455   5
   2  -4   6 218.854 7.57542   5
  -2   4   6 229.342 8.31505   5
  -2   4   6 175.053 6.24727   3
  -2   4   6 203.057 6.85598   4
  -2   4   6 213.731 6.96098   2
  -4   2   6 233.100 6.31859   3
   2   2   6 231.189 7.94670   1
   4  -2   6 220.591 7.60186   1
  -4   2   6 225.138 6.72174   2
  -2  -2   6 211.295 7.03030   3
   2  -4   6 232.745 7.76996   1
  -2   4   6 203.363 6.93189   2
   2  -4   6 209.404 7.53211   5
  -2  -2   6 239.743 8.04607   1
   4  -2   6 209.640 7.95810   2
  -4   2   6 174.793 6.73034   1
   4  -2   6 212.864 8.06000   4
   2   2   6 218.807 7.94345   2
   2  -4   6 183.747 6.81189   4
  -4   2   6 204.929 6.64623   5
  -2  -2   6 227.140 6.76475   4
   2   2   6 175.239 6.96769   4
  -4   2   6 205.986 5.70149   4
  -2  -2   6 212.444 7.23847   2
  -2   4   6 196.744 6.79992   4
   2  -4   6 197.009 7.64887   2
   2   2   6 228.653 7.80432   3
  -2  -2   6 230.378 7.08600   5
  -2   4   6 147.023 6.22317   3
   4  -2   6 182.608 7.05483   4
  -2  -2   6 216.278 6.34739   5
   4  -2   6 239.977 8.22247   3
  -2  -2   7 0.49165 1.39928   3
  -2  -2   7 0.05363 1.30283   5
   4  -2   7 1.77151 1.63017   2
   2   2   7-0.22930 1.59176   4
   4  -2   7-0.45440 1.57844   5
  -2   4   7 2.57091 1.69105   3
   2  -4   7-0.35186 1.60443   2
  -2   4   7 1.07811 1.32170   2
   2  -4   7 0.29805 1.51362   5
  -2   4   7-0.05885 1.36807   4
  -2  -2   7 0.77476 1.20740   5
   4  -2   7-0.07558 1.61861   4
   2   2   7 0.17365 1.76806   2
  -4   2   7 0.16064 1.26464   3
  -2  -2   7 1.93275 1.72917   1
  -4   2   7 0.04957 1.25398   5
   2   2   7 1.76881 1.63444   2
   2  -4   7 0.45423 1.66764   5
  -2   4   7-0.35926 1.33074   3
   4  -2   7-1.13327 1.64589   5
   2  -4   7 0.15853 1.38899   4
   2   2   7-0.76634 1.59712   3
  -2   4   7 1.42573 1.40854   4
  -2   4   7-0.11181 1.53805   5
  -4   2   7 0.08663 1.21204   4
  -2  -2   7 1.28978 1.43319   4
  -4   2   7-0.69232 1.39053   2
   2   2   7-0.71641 1.55004   4
   4  -2   7-0.10768 1.67607   3
  -2   4   7-0.32110 1.41304   2
   2   2   7-0.60848 1.68865   5
  -2  -2   7 0.28754 1.38638   2
   4  -2   7 9.22469 2.29398   1
   2  -4   7 1.28578 1.58513   1
   2   2   7 0.89452 1.64293   3
   2   2   7 0.73342 1.48158   1
  -4   2   7 0.19411 1.35746   5
  -4   2   7-0.62402 1.69185   1
   2  -4   7-0.48643 1.37517   3
  -2   4   7-0.47186 1.42471   1
  -4   2   7-0.28639 1.02858   4
   4  -2   7 1.22586 1.58412   4
  -4   2   7 1.33721 1.32532   3
   2  -4   8 7.88795 2.63524   1
   4  -2   8 5.22012 2.73223   3
  -2  -2   8 4.57856 2.24119   3
   4  -2   8 7.83031 2.92622   4
  -4   2   8 6.54354 2.04377   3
  -4   2   8 5.36007 2.08235   5
  -4   2   8 11.2499 2.74145   5
   2   2   8 8.66828 2.89762   3
   2  -4   8 7.53624 2.63849   3
   2   2   8 13.5232 3.52823   5
   4  -2   8 3.14227 2.38088   5
   2   2   8 6.79043 2.75957   4
  -4   2   8 5.81271 1.80986   4
  -2   4   8 6.79425 2.37566   3
  -4   2   8 7.93233 2.26383   2
  -2   4   8 4.49913 2.12252   2
  -2  -2   8 9.04647 2.29671   4
   2   2   8 6.01617 2.96136   2
  -2  -2   8 5.55282 2.53185   2
   4  -2   8 4.34650 2.41697   2
  -4   2   8 3.59491 1.87875   3
   2   2   8 5.09300 2.52824   3
  -2   4   8 4.76293 2.36457   4
  -2   4   8 6.51870 2.27129   4
  -4   2   8 8.88628 3.07494   1
  -4   2   8 5.18484 1.90094   4
  -2  -2   8 7.65429 2.45568   5
   2   2   8 7.40283 2.80563   4
   2   2   8 13.8319 2.85386   1
  -2  -2   8 8.09418 2.87952   1
  -2  -2   8 7.49835 2.21419   5
   2  -4   8 4.07973 2.36467   5
   2  -4   8 12.5092 2.89812   4
  -2   4   8 9.25140 2.64943   2
   2  -4   8 5.80991 2.61737   2
  -2   4   8 7.49885 2.59667   3
   2  -4   8 6.39827 2.47769   5
   4  -2   8 5.95573 2.55386   4
   2  -4   8 7.09654 2.40292   4
   2   2   8 1.81687 2.47382   5
   4  -2   8 7.69160 2.48270   1
  -2  -2   8 5.70160 2.24189   4
  -2   4   8 1.33949 2.51436   5
  -2   4   8 6.78196 2.28346   1
   4  -2   8 9.66495 2.82486   5
   2   2   8 4.05187 2.24286   2
   4  -1  -8 4.60261 2.00446   2
   4  -1  -8 5.45925 2.64398   1
  -4   3  -8 3.52262 2.55173   2
   1   3  -8 3.81198 2.00633   3
   1   3  -8 4.35260 2.32050   1
  -4   1  -8 6.22406 2.81554   2
  -1  -3  -8 2.40990 2.90064   5
   3   1  -8 5.36128 2.32266   1
  -1   4  -8 5.81303 2.42353   1
  -3  -1  -8 5.98470 2.69280   1
   1  -4  -8 3.29334 2.87654   5
  -4   1  -8 7.26156 3.13266   1
  -1   4  -8 9.78894 2.62885   3
  -1   4  -8 2.57958 2.09969   2
   3   1  -8 2.42805 1.91430   3
  -3   4  -8 2.17530 2.08172   3
   4  -3  -8 7.18848 2.36381   2
  -3   4  -8 1.57300 2.36464   1
  -1  -3  -8 12.7766 3.15398   1
   3  -4  -8 0.73343 1.88274   1
   1   3  -8 1.62589 2.31528   2
  -3   4  -8 5.55896 2.85043   2
  -4   3  -8 7.55255 2.51002   1
   3  -4  -8 4.79717 2.46249   5
  -4   3  -8 4.23149 2.37093   3
   1  -4  -8 9.27211 2.68045   1
   3   1  -8 3.33729 2.11647   2
   4  -3  -8 1.68056 2.23181   1
  -1   4  -8 6.74456 2.42210   4
  -1   4  -7 5.64927 2.07750   1
  -1   4  -7 3.82936 1.83513   3
   1  -4  -7 4.33433 2.25335   5
  -3   4  -7 4.59508 2.30002   2
  -3  -1  -7 3.11028 1.87855   1
  -3  -1  -7 8.52784 2.29110   2
  -3   4  -7 6.82586 1.98688   4
   1   3  -7 5.14723 1.73433   4
  -1  -3  -7 6.53329 2.15584   1
   4  -1  -7 6.41358 1.85421   2
   4  -3  -7 5.35374 2.07930   1
  -4   3  -7 4.51830 1.85686   1
   4  -1  -7 4.07147 1.40129   3
  -4   3  -7 5.17582 2.21342   2
   3   1  -7 3.53932 1.94622   1
  -4   3  -7 6.13313 2.08859   3
  -3   4  -7 4.25258 1.86979   3
   3  -4  -7 4.40132 1.86306   1
   1   3  -7 4.92934 1.97679   1
   4  -1  -7 4.82110 1.89661   1
   4  -3  -7 4.30509 1.49403   2
   3  -4  -7 3.42570 1.76302   5
   4  -3  -7 4.84860 1.70643   5
  -3   4  -7 4.07780 1.98004   1
   1   3  -7 3.48651 1.66218   3
  -4   1  -7 4.53289 1.90489   1
  -1   4  -7 4.25540 1.83717   2
  -4   1  -7 7.86107 2.16920   2
  -1  -3  -7 6.21292 2.51551   5
   1  -4  -7 7.25340 2.24507   1
  -1   4  -7 3.63100 1.62364   4
   3   1  -7 8.71677 2.06726   2
   3   1  -7 6.94269 1.63505   3
   1   3  -7 6.01944 2.01863   2
  -1   4  -6 3.64742 1.19449   3
   3  -4  -6 5.80163 1.58016   1
   4  -1  -6 6.39864 1.51720   1
   4  -3  -6 5.92718 1.33750   2
  -3   4  -6 12.0069 2.03031   2
  -1   4  -6 9.33626 1.89613   2
  -4   3  -6 7.20313 1.78664   2
   4  -1  -6 5.88384 1.21679   3
   4  -1  -6 5.76538 1.47390   2
  -1   4  -6 7.20788 1.56046   4
   3   1  -6 6.47388 1.66012   1
   3  -4  -6 7.88539 1.80882   5
  -3   4  -6 4.10852 1.59599   1
   4  -3  -6 6.65897 1.58120   5
   1  -4  -6 2.79928 1.56100   5
   4  -3  -6 2.63427 1.19064   1
  -4   3  -6 5.50188 1.53671   1
  -3   4  -6 5.73799 1.64111   3
   3  -4  -6 3.52514 1.22808   2
   1   3  -6 4.64354 1.42116   1
   1   3  -6 6.98412 1.47134   4
  -1  -3  -6 6.49547 1.73994   1
   3   1  -6 9.36950 1.73948   2
   1  -4  -6 13.9371 2.17583   1
  -4   1  -6 9.22408 1.97409   1
  -3  -1  -6 5.28062 1.54989   1
  -1   4  -6 5.37306 1.50259   1
  -1  -3  -6 6.52126 1.98268   5
  -4   1  -6 4.77987 1.68052   2
  -4   3  -6 4.36066 1.44489   3
  -3  -1  -6 4.52205 1.79623   2
   3   1  -6 5.94282 1.36011   3
  -3   4  -6 4.68737 1.46827   4
  -3  -1  -6 6.40329 1.97690   5
   1   3  -6 7.34897 1.58500   3
   1   3  -6 4.68494 1.51832   2
   1  -4  -5 46.5677 3.57800   5
   1   3  -5 38.3158 3.05560   2
   4  -1  -5 41.2486 2.59604   2
  -1  -3  -5 40.2810 3.35510   5
  -4   3  -5 41.9572 3.13542   4
  -4   1  -5 33.9228 2.90138   2
   3  -4  -5 36.4863 2.92001   5
   1   3  -5 38.6046 2.60700   4
  -3  -1  -5 30.5028 3.01579   5
   4  -1  -5 38.9155 2.32391   3
  -3   4  -5 45.7151 3.18014   3
  -3   4  -5 39.4866 2.94354   1
  -3   4  -5 35.0852 2.78537   4
  -3   4  -5 42.0288 3.14817   2
  -1   4  -5 38.7233 2.93412   1
   3   1  -5 38.0830 2.49472   3
  -4   1  -5 35.1546 2.91771   1
  -1  -3  -5 43.2044 3.20534   1
  -1   4  -5 38.8282 2.96310   2
   1   3  -5 44.3963 3.16949   1
   3   1  -5 43.8625 2.43730   4
   4  -3  -5 38.3600 2.67165   5
   3  -4  -5 37.9941 2.81877   1
   4  -3  -5 45.0634 2.60911   2
   3   1  -5 37.7857 2.87589   1
  -1   4  -5 37.1673 2.83145   3
  -4   3  -5 41.8447 3.00573   1
   4  -1  -5 47.7580 3.14142   1
   3   1  -5 42.0746 2.83522   2
  -4   3  -5 39.8196 2.98995   3
  -3  -1  -5 31.1361 2.90625   1
  -4   3  -5 44.8654 3.23666   2
   1  -4  -5 40.1476 3.00805   1
  -1   4  -5 38.7665 2.83027   4
  -3  -1  -5 32.5774 2.90778   2
  -4   1  -5 33.2335 2.82042   3
   1   3  -5 39.4469 2.81822   3
   4  -3  -5 38.5188 2.84187   1
   4  -1  -4 54.9439 2.66440   2
  -3  -1  -4 44.7921 3.19768   5
   3   1  -4 54.3209 2.37525   4
  -1   4  -4 47.8156 2.84048   1
   3   1  -4 64.5993 3.32742   1
  -1   4  -4 68.4945 3.47673   3
  -4   1  -4 71.2248 3.65973   2
  -4   3  -4 65.1754 3.43485   3
  -4   3  -4 57.4490 3.14727   1
  -3  -1  -4 65.8334 3.61486   2
   1   3  -4 63.9964 3.35327   2
   3  -4  -4 69.2238 3.29476   1
   4  -1  -4 60.2113 2.39700   5
  -3  -1  -4 68.2583 3.63143   1
  -1  -3  -4 63.4973 3.46453   1
   4  -3  -4 67.2290 2.67562   2
   1  -4  -4 67.7441 3.96309   5
   1  -4  -4 70.3013 3.49107   1
   4  -3  -4 69.2531 3.19243   1
  -1  -3  -4 65.5545 3.68262   4
  -3   4  -4 54.5658 3.16492   3
   4  -3  -4 51.5600 2.81432   5
  -4   1  -4 57.9621 3.28575   3
   3  -4  -4 57.1214 3.29948   5
   1   3  -4 58.3734 3.10949   3
  -3   4  -4 57.4473 3.25049   2
  -4   3  -4 64.5486 3.44979   2
   1  -4  -4 67.8214 3.61353   4
  -3   4  -4 62.5038 3.31934   4
  -1  -3  -4 60.8901 3.69763   5
   1   3  -4 59.3552 2.89098   4
   4  -1  -4 65.1592 3.20589   1
  -1   4  -4 60.4305 3.15837   4
  -4   3  -4 57.7067 3.24988   4
   3   1  -4 58.3244 2.71786   3
  -4   1  -4 72.7271 3.67000   1
   1   3  -4 63.1743 3.31949   1
  -3   4  -4 58.9333 3.09700   1
   4  -1  -4 53.0535 2.25444   3
  -1   4  -4 70.2780 3.58957   2
   3   1  -4 65.2856 3.14402   2
   3   1  -3 59.2166 2.57840   2
  -3   4  -3 54.5595 2.54565   1
   1   3  -3 38.2335 2.24043   3
  -4   1  -3 50.5759 2.80429   2
  -4   3  -3 43.8795 2.47891   2
   3   1  -3 56.4715 2.70432   1
   4  -3  -3 52.5901 2.42039   1
   3  -4  -3 52.0536 2.93188   5
   3   1  -3 50.8297 1.94970   4
  -1   4  -3 52.8539 2.66762   4
  -3   4  -3 48.2162 2.69351   5
  -1   4  -3 53.5171 2.75194   2
   1  -4  -3 42.2634 2.48125   3
  -1   4  -3 49.1015 2.49026   1
   1   3  -3 38.5323 2.41186   1
  -1   4  -3 59.5883 2.99353   3
  -3  -1  -3 35.9642 2.54096   5
  -3   4  -3 50.9326 2.73250   2
   3   1  -3 46.6804 2.24244   3
   3  -4  -3 52.1501 2.47177   1
  -4   1  -3 50.3932 2.67952   1
  -3  -1  -3 59.2671 2.98352   1
   4  -1  -3 52.0982 1.78486   3
  -4   3  -3 45.1541 2.53309   4
   3  -4  -3 55.3517 2.51914   4
  -1  -3  -3 39.8443 2.75427   5
   1   3  -3 53.9937 2.23478   5
  -1   4  -3 50.7622 2.57156   5
  -4   1  -3 54.3651 2.83895   3
  -1  -3  -3 41.6860 2.57196   1
   4  -1  -3 50.3990 1.74921   5
  -4   3  -3 53.4568 2.59624   1
   4  -1  -3 50.9525 2.45648   1
  -3   4  -3 53.5003 2.74611   4
   4  -1  -3 52.8481 2.16540   2
   1  -4  -3 54.4389 3.15947   5
  -1  -3  -3 44.4590 2.75874   4
   1   3  -3 53.4187 2.71686   2
   4  -3  -3 48.3159 1.83386   2
   4  -3  -3 50.2335 2.46195   5
   1  -4  -3 54.8694 2.93298   4
  -3   4  -3 44.5427 2.50458   3
  -4   3  -3 52.1157 2.70651   3
   1  -4  -3 57.5252 2.83406   1
   1   3  -3 52.8675 2.44568   4
  -4   1  -2 132.033 3.60701   1
   3  -4  -2 127.068 4.10051   5
  -3  -1  -2 124.759 3.83059   1
  -3   4  -2 122.361 3.59071   2
  -4   1  -2 110.894 3.62134   2
   3   1  -2 132.095 3.15418   3
   4  -1  -2 121.006 1.84630   5
  -1  -3  -2 109.587 3.78626   3
   4  -3  -2 116.965 2.27579   4
   3  -4  -2 122.406 3.08723   1
   3   1  -2 137.416 3.81528   1
  -3  -1  -2 129.908 4.15358   4
  -3  -1  -2 99.2120 3.51611   5
   1   3  -2 121.479 3.56624   3
  -1  -3  -2 138.096 4.46112   5
   1  -4  -2 115.014 3.62245   3
   1  -4  -2 118.062 3.84176   4
  -1   4  -2 129.327 3.71405   5
   3  -4  -2 131.414 3.45911   4
  -3   4  -2 122.127 3.08634   1
  -1  -3  -2 124.914 3.88164   1
  -4   3  -2 109.250 3.39202   2
   1  -4  -2 107.728 3.35066   1
  -1   4  -2 129.884 3.77671   2
   4  -1  -2 121.666 2.62284   2
   3   1  -2 119.934 2.55676   4
   1   3  -2 123.945 3.42769   4
  -4   3  -2 131.332 3.72306   3
   1  -4  -2 93.4861 3.84115   5
   3   1  -2 129.312 3.42823   2
  -1   4  -2 132.401 3.75948   4
   1   3  -2 130.204 3.81165   1
  -4   3  -2 115.003 3.53925   4
  -3   4  -2 133.254 3.88588   4
   4  -3  -2 118.894 2.00788   2
  -1  -3  -2 102.715 3.80267   4
  -4   3  -2 123.849 3.89681   5
   4  -3  -2 116.802 2.81039   1
  -3   4  -2 113.482 3.84945   5
   1   3  -2 129.056 3.85842   2
   3  -4  -2 99.2531 2.74391   3
   4  -1  -2 115.762 2.07111   3
   4  -1  -2 122.548 3.31012   1
  -4   3  -2 97.2579 2.96440   1
   4  -3  -2 110.489 3.28221   5
  -1   4  -2 102.862 3.18036   1
  -4   1  -2 123.884 3.75853   3
  -1   4  -2 122.546 3.74919   3
   1   3  -2 121.273 2.99551   5
  -3   4  -2 106.352 3.46994   3
  -1  -3  -1 147.861 4.09084   4
  -1   4  -1 163.654 4.02078   4
   4  -3  -1 165.465 2.44213   4
   1   3  -1 148.673 3.77441   2
   4  -1  -1 156.160 2.09375   3
  -3   4  -1 165.754 3.47424   2
   1   3  -1 150.876 3.29839   5
  -1   4  -1 166.913 3.95370   3
  -3   4  -1 154.703 4.03321   5
   1   3  -1 158.167 3.70843   4
   4  -1  -1 160.483 3.17976   1
   3   1  -1 135.533 3.39211   1
  -1  -3  -1 151.231 4.06126   3
   3  -4  -1 155.373 3.06227   3
   4  -1  -1 159.961 2.56145   2
  -1   4  -1 154.336 3.86673   5
   4  -3  -1 170.770 3.65122   5
   1  -4  -1 172.914 4.02926   3
   1  -4  -1 129.470 3.33362   2
  -3   4  -1 151.297 2.60751   1
   1  -4  -1 164.853 4.55435   5
  -3   4  -1 151.389 3.66156   4
   1   3  -1 153.553 3.69183   1
  -4   3  -1 171.356 3.42159   2
  -1   4  -1 150.428 3.34401   1
  -3  -1  -1 136.056 3.72061   4
   3   1  -1 163.160 3.33060   3
   1   3  -1 158.466 3.85294   3
   3  -4  -1 156.594 4.11164   5
  -4   3  -1 140.807 2.40290   1
  -3   4  -1 139.438 3.43436   3
   4  -3  -1 139.888 2.10171   1
   4  -1  -1 146.160 1.95042   5
  -3  -1  -1 150.549 3.68493   5
   3   1  -1 143.032 1.67041   5
   3   1  -1 160.984 2.92197   4
   3  -4  -1 159.880 2.71222   2
  -4   3  -1 124.971 3.55300   5
   3  -4  -1 151.977 2.52127   1
   3  -4  -1 162.087 3.52445   4
  -1  -3  -1 154.260 3.98081   2
  -4   3  -1 135.638 3.26420   4
  -4   3  -1 164.473 3.47747   3
   3   1  -1 155.060 3.38855   2
  -1   4  -1 165.454 3.86123   2
  -3  -1  -1 157.709 4.01340   3
   1  -4  -1 176.552 4.37977   4
  -1  -3  -1 157.541 4.24177   5
   3   1   0 7.20313 0.81836   4
   1  -4   0 4.57527 0.70751   3
   3   1   0 6.76915 0.76964   2
   3   1   0 4.23351 0.66110   1
   4  -3   0 7.02090 0.55882   3
  -3  -1   0 6.36306 0.74461   2
  -1  -3   0 5.12296 0.75605   4
   1  -4   0 4.21918 0.66679   2
  -3   4   0 5.28388 0.60681   3
  -4   3   0 5.37731 0.42443   2
  -1   4   0 5.80111 0.69313   1
   4  -1   0 6.43733 0.61124   1
   3   1   0 6.44981 0.63824   5
  -4   1   0 4.17259 0.54762   1
   3  -4   0 6.12165 0.39534   1
  -1  -3   0 6.74928 0.85773   3
  -1  -3   0 6.56607 0.78553   5
  -3   4   0 5.00544 0.37694   1
   4  -1   0 6.08361 0.57443   5
   4  -1   0 5.73822 0.59530   5
  -3   4   0 6.13086 0.58595   2
  -3   4   0 5.43374 0.70828   4
  -1   4   0 4.16102 0.72187   5
   4  -1   0 7.51971 0.65479   3
  -4   3   0 6.02211 0.60118   4
   1  -4   0 5.60122 0.83555   5
   4  -3   0 5.74136 0.59830   4
   4  -3   0 6.79084 0.77763   5
  -3  -1   0 4.40427 0.65262   1
  -1  -3   0 5.52209 0.73255   1
   1   3   0 5.09358 0.81464   4
   4  -1   0 5.78618 0.55739   3
  -3  -1   0 7.14431 0.65598   5
  -3   4   0 5.39602 0.78450   5
   4  -1   0 5.51104 0.51824   4
   3   1   0 5.84932 0.73613   3
   3  -4   0 5.88850 0.64366   3
   1   3   0 5.77886 0.76063   5
   1   3   0 6.38995 0.80415   3
  -3  -1   0 5.73076 0.71135   4
   1  -4   0 5.47067 0.74072   4
   1   3   0 7.59797 0.80275   1
  -1   4   0 6.87563 0.90076   4
   1   3   0 7.19805 0.86082   2
  -3  -1   0 5.67505 0.71118   3
   3  -4   0 7.12197 0.76501   4
   1  -4   0 5.68733 0.66788   1
   3  -4   0 6.29325 0.58233   2
   4  -1   0 5.19592 0.56335   4
   3  -4   0 5.65145 0.84918   5
   4  -3   0 5.57875 0.39517   2
  -1   4   0 5.52267 0.75123   2
  -4   3   0 5.54587 0.70920   5
  -4   3   0 5.37086 0.49759   3
  -1  -3   0 5.78422 0.77540   2
  -1   4   0 5.73552 0.73522   3
   4  -1   0 7.11259 0.63710   2
  -4   1   1 151.840 2.19192   3
  -3   4   1 151.460 4.06474   5
  -1  -3   1 153.248 3.79153   2
  -1  -3   1 146.490 3.63804   1
  -1   4   1 155.579 4.33079   5
   1   3   1 166.362 4.07408   2
   3   1   1 144.089 3.59605   5
  -1   4   1 148.810 3.38436   1
   3   1   1 172.742 3.92801   1
   3  -4   1 156.342 3.42033   2
   1  -4   1 167.608 4.07105   5
   3   1   1 154.821 3.67219   1
   4  -3   1 122.846 3.03217   3
  -4   3   1 157.387 3.42814   5
  -3  -1   1 150.778 3.18079   4
   4  -3   1 132.419 2.88594   2
   4  -1   1 160.174 3.68343   2
   4  -1   1 123.817 3.25536   5
   4  -1   1 157.263 3.50894   3
  -1  -3   1 117.971 3.35982   3
   4  -1   1 116.500 3.17447   4
  -1   4   1 170.933 4.00010   3
  -4   3   1 135.074 2.17946   4
   4  -1   1 136.227 3.52389   5
   4  -3   1 155.129 2.45781   1
  -4   1   1 148.848 1.88358   5
   4  -1   1 161.025 3.47773   4
   1   3   1 165.580 3.86903   1
   4  -1   1 168.860 3.38179   1
   4  -1   1 167.002 3.75784   3
  -3  -1   1 137.403 1.67585   5
  -1   4   1 154.472 3.60858   2
  -3  -1   1 155.369 3.28187   3
   1  -4   1 163.966 3.97708   4
   4  -3   1 115.703 3.41196   5
   4  -3   1 152.859 3.49826   4
  -1  -3   1 156.020 3.45871   5
   1   3   1 127.203 3.90374   4
   1  -4   1 108.853 3.24856   3
   4  -1   1 151.277 3.48346   2
  -3   4   1 127.882 2.78905   3
   3  -4   1 151.426 2.59292   1
   1   3   1 118.864 3.75357   5
  -4   3   1 147.073 2.10672   1
  -1   4   1 166.606 4.15380   4
   3   1   1 111.937 3.38504   4
  -3   4   1 156.335 3.39042   4
  -3  -1   1 162.347 3.55818   2
  -3   4   1 139.931 2.49095   1
  -1   4   1 163.064 3.48479   1
  -4   1   1 147.227 3.14471   1
   1  -4   1 155.014 3.40245   1
   3   1   1 150.893 3.92030   3
   1   3   1 165.165 3.94595   1
   3  -4   1 155.412 3.86502   4
  -4   1   1 162.123 2.64221   2
  -3  -1   1 134.578 3.41035   1
   1  -4   1 157.469 3.74738   2
  -1  -3   1 151.284 3.65466   4
   1   3   1 154.091 4.09350   3
   3   1   1 143.083 3.71803   2
   4  -1   1 157.286 3.31539   1
   3  -4   1 144.970 3.98685   5
   3  -4   1 150.818 3.56959   3
  -3   4   1 136.454 2.50166   2
  -1  -3   2 108.199 3.43825   1
   1   3   2 123.183 4.20147   5
  -1   4   2 137.258 3.92651   3
   4  -1   2 131.635 3.67053   1
   1   3   2 126.408 4.01414   3
  -1  -3   2 131.301 3.22295   5
  -1   4   2 107.566 3.98961   5
   1  -4   2 132.571 3.92383   3
  -3  -1   2 119.660 1.66185   5
   1   3   2 91.2745 3.59427   4
   3   1   2 126.495 3.98085   5
   3  -4   2 127.051 3.78933   3
   1  -4   2 98.7807 3.35557   2
  -4   3   2 125.361 1.79724   3
   4  -3   2 118.355 3.58549   3
   1  -4   2 127.276 3.79613   5
   3   1   2 125.895 3.79538   1
  -1   4   2 119.735 4.02991   4
  -1  -3   2 133.738 3.61393   4
  -1  -3   2 121.559 3.60337   3
   1  -4   2 133.341 3.58285   1
   4  -3   2 127.466 3.53749   2
   4  -3   2 129.023 3.77168   4
  -4   3   2 125.071 2.20731   4
  -1   4   2 110.164 3.37621   2
  -4   3   2 128.287 2.91973   1
   1   3   2 98.2063 3.49150   2
  -4   1   2 116.464 2.57803   2
   4  -1   2 139.650 3.93390   2
   4  -3   2 124.769 3.05851   1
   3   1   2 107.674 3.75280   4
  -3  -1   2 119.004 1.63723   5
   4  -1   2 98.8535 3.27912   3
   3  -4   2 127.293 3.14769   1
  -3  -1   2 110.978 3.41473   1
   3   1   2 130.527 4.07946   2
  -3   4   2 123.444 3.97290   5
  -3   4   2 129.240 3.02545   3
   4  -1   2 125.249 4.03864   5
   1   3   2 117.761 3.58428   1
  -3   4   2 125.214 2.82431   2
  -4   3   2 108.341 3.18568   5
  -1   4   2 129.804 3.55159   1
   4  -3   2 143.870 4.30512   5
  -3  -1   2 120.627 2.70169   4
  -4   1   2 121.455 2.12158   3
  -3   4   2 134.397 3.41052   4
  -4   1   2 88.9929 2.89085   1
   4  -1   2 130.076 3.74877   4
   3   1   2 119.378 3.92388   3
   1  -4   2 123.981 3.80907   4
  -4   3   2 121.280 1.95361   2
   4  -1   2 104.552 3.53150   5
   3  -4   2 133.826 4.18765   5
   3  -4   2 123.361 3.59934   2
   3   1   2 94.0083 3.42404   3
  -3   4   2 119.366 2.76315   2
  -3  -1   2 138.119 3.29590   3
   4  -1   2 104.871 3.53291   4
   1   3   2 119.407 3.77106   2
  -3  -1   2 131.231 3.42215   2
  -1  -3   2 103.851 3.40764   2
  -4   3   2 126.473 1.77727   3
  -3   4   2 125.548 3.11835   1
   3   1   2 118.002 3.79872   2
   3  -4   2 125.654 3.81022   4
  -4   1   2 116.387 1.82819   5
   4  -3   3 44.8079 2.56708   3
  -1   4   3 53.1146 2.62444   2
   1   3   3 48.9677 2.81511   3
   1  -4   3 50.3938 2.65925   4
  -3   4   3 49.0618 2.15439   2
  -4   1   3 47.9796 1.75104   3
  -3   4   3 48.6361 2.76802   5
   3   1   3 48.4892 2.76854   3
   4  -1   3 39.3364 2.42275   2
  -3  -1   3 53.8407 2.32407   3
   1  -4   3 40.2662 2.35254   5
  -1   4   3 41.7236 2.35380   2
  -1   4   3 55.1790 2.75195   1
   3   1   3 42.1603 2.54982   1
   1   3   3 47.5453 2.65831   2
   3  -4   3 49.2274 2.36316   1
  -3  -1   3 51.0052 1.99524   4
   1  -4   3 49.6989 2.65524   3
  -1   4   3 52.8514 2.83525   4
   3   1   3 49.0928 2.71271   3
   4  -1   3 42.2614 2.73638   5
   1  -4   3 44.9382 2.54529   2
  -3   4   3 45.0297 2.06541   3
  -1  -3   3 35.0314 2.23123   2
  -4   1   3 48.4788 1.42773   4
   1   3   3 35.1792 2.41281   2
  -1   4   3 47.0459 2.92603   5
   1   3   3 48.3027 2.98276   5
  -3  -1   3 46.0497 1.63033   5
  -3  -1   3 54.7778 2.52310   2
   4  -3   3 44.7985 2.72266   5
  -1  -3   3 45.1849 2.17059   5
  -1  -3   3 47.2629 2.37729   4
   4  -3   3 45.8748 2.52428   2
  -4   3   3 51.5822 1.75449   4
  -3   4   3 38.3003 1.96000   2
  -3  -1   3 48.8946 1.62007   5
   3  -4   3 53.2978 2.76809   4
   3   1   3 42.3817 2.63251   4
   4  -1   3 39.9274 2.56755   5
  -4   3   3 45.5190 1.66599   3
   1   3   3 40.7294 2.61927   4
  -3   4   3 39.1026 2.12753   1
   4  -1   3 53.8513 2.93643   4
  -1  -3   3 53.4311 2.70389   1
   1  -4   3 42.2856 2.34382   1
  -4   3   3 48.4301 2.42973   5
  -4   3   3 38.6047 2.12407   1
  -4   1   3 50.3163 2.48893   1
   3  -4   3 44.5193 2.46202   2
  -4   1   3 41.5195 1.37561   4
  -4   3   3 50.7113 1.90086   2
   1   3   3 48.1174 2.66708   1
  -3   4   3 32.6679 2.06498   4
   4  -1   3 49.9409 2.68623   3
  -3  -1   3 45.8069 2.48357   1
   4  -1   3 53.0367 2.73745   4
   3   1   3 30.7891 2.22563   2
  -4   3   3 54.0199 1.75615   3
  -1   4   3 39.3126 2.33423   3
   3   1   3 46.6337 2.65546   4
   3   1   3 51.4183 2.87361   2
  -4   1   3 42.9056 1.69930   5
   4  -3   3 44.6929 2.58163   4
   1   3   3 46.8858 2.64239   3
   4  -3   3 51.1681 2.42579   1
  -3   4   3 47.2156 2.10723   3
   3   1   3 40.1326 2.59941   5
   4  -1   3 48.6714 2.59156   1
  -1  -3   3 49.1258 2.55752   3
   4  -3   3 43.0463 2.75025   5
  -4   1   3 47.6171 2.04075   2
   3  -4   3 56.6364 2.84092   3
   3  -4   3 48.5862 2.77354   5
  -4   3   3 50.6141 1.88318   4
   3  -4   4 67.3001 3.64127   5
  -1   4   4 46.1190 3.23646   5
  -1  -3   4 64.7520 2.98649   5
   1  -4   4 52.3588 3.01077   4
   4  -1   4 66.7166 3.56902   3
   4  -1   4 61.5619 3.36724   4
   1   3   4 66.2989 3.87221   5
  -3  -1   4 66.6293 2.90377   3
  -4   3   4 65.5615 2.42053   4
   1  -4   4 59.9947 3.12575   5
   1   3   4 56.8014 3.33625   4
   4  -1   4 65.8508 3.57726   2
   1   3   4 61.7602 3.38383   2
  -3  -1   4 72.3888 3.57686   1
  -1   4   4 51.5315 2.94497   2
   3  -4   4 62.3379 3.45889   5
   3   1   4 65.1815 3.73703   5
   1  -4   4 61.8824 3.19452   5
  -3   4   4 59.9561 2.91108   2
  -1  -3   4 46.7127 2.90424   2
   4  -1   4 68.4317 3.72765   5
   3   1   4 58.8504 3.37835   1
  -4   3   4 61.8492 2.40261   3
  -4   3   4 62.2859 2.43198   3
  -1  -3   4 65.4135 3.43242   1
   4  -3   4 56.7646 2.99858   1
   4  -3   4 63.3781 3.37943   4
  -4   1   4 51.0520 2.99000   1
  -4   1   4 56.4486 2.15506   4
   4  -3   4 69.1324 3.92790   5
   1  -4   4 61.0401 3.32100   3
  -3   4   4 62.1077 3.43818   5
  -1   4   4 68.4775 3.40369   2
   3   1   4 67.6945 3.59400   2
  -1   4   4 68.2372 3.36356   3
  -3   4   4 60.4733 2.92813   4
  -4   3   4 61.2843 3.05465   1
  -1  -3   4 46.5873 2.64765   4
   1   3   4 68.9577 3.55784   2
   4  -3   4 62.5367 3.40836   3
   1  -4   4 72.8236 3.67992   2
  -1  -3   4 67.8308 3.25486   3
  -1   4   4 64.6146 3.35881   1
   1   3   4 46.7351 3.10360   3
   3  -4   4 65.0682 3.18160   1
   3  -4   4 67.4977 3.45402   2
  -3   4   4 62.0002 2.80380   3
  -4   1   4 67.1877 2.65745   5
   3   1   4 64.0683 3.48761   3
   4  -1   4 66.6499 3.45102   1
   4  -3   4 63.2489 3.41376   2
  -3   4   4 59.6987 2.77697   2
  -1   4   4 65.3549 3.23242   3
   3  -4   4 47.4687 2.97560   3
   3   1   4 66.7848 3.64894   4
   1  -4   4 59.4595 3.18340   1
  -4   1   4 62.2836 2.46663   3
  -4   3   4 67.6076 3.20055   5
   4  -1   4 65.6150 3.76169   5
  -3  -1   4 60.0419 2.42473   5
  -3  -1   4 54.8794 2.88419   2
  -4   3   4 66.6777 2.76568   2
  -3   4   4 65.2502 3.17593   1
  -4   1   4 52.8537 2.57988   2
   4  -1   4 65.2259 3.65952   4
   3  -4   4 50.8135 3.03669   4
   1   3   4 60.7252 3.32339   3
  -4   3   4 64.8828 2.53207   4
   3   1   4 65.4113 3.60848   3
  -3  -1   4 63.8196 2.64731   4
  -4   1   4 57.9990 2.11757   4
  -3   4   4 61.0596 2.81495   3
  -1  -3   4 63.7570 2.90367   5
   1   3   4 58.0236 3.35474   1
  -3  -1   4 62.6331 2.36379   5
   4  -3   4 68.8924 3.73008   5
   3   1   4 50.7879 3.28566   4
  -1   4   4 65.4571 3.40484   4
  -1  -3   5 40.2408 2.98480   2
   1   3   5 30.2353 2.77652   3
  -4   1   5 41.7450 2.35460   5
   4  -1   5 24.1652 2.92821   2
  -4   3   5 37.7572 2.45414   2
  -3  -1   5 42.0831 2.47563   4
  -3  -1   5 34.7100 2.21607   5
  -1  -3   5 45.7849 3.27139   1
   1  -4   5 44.4436 3.15486   3
  -3  -1   5 41.9659 2.63856   3
  -1   4   5 41.5024 3.05835   4
   1   3   5 42.8304 3.15579   4
   4  -3   5 41.2536 3.16358   2
  -3   4   5 40.5355 2.73628   4
   3   1   5 39.9455 3.16711   2
   3   1   5 26.4611 2.72886   5
   3  -4   5 44.2711 3.01379   1
   4  -3   5 45.4328 3.12836   1
  -3  -1   5 37.6364 2.40041   5
   4  -3   5 52.2443 3.68552   5
   4  -3   5 35.4530 2.92009   4
  -1   4   5 33.5466 2.73312   2
  -3   4   5 40.5940 2.71726   2
   1   3   5 40.7277 3.09018   2
  -3   4   5 41.7766 2.90884   1
   1  -4   5 35.7812 3.00017   2
   3   1   5 41.3733 3.14764   3
  -3   4   5 46.3257 2.80238   4
   4  -1   5 46.7704 3.68578   5
  -1  -3   5 46.3791 2.77579   5
   3   1   5 28.5934 2.90169   4
  -1   4   5 40.6841 3.01955   1
  -4   3   5 42.1634 2.44627   4
  -3   4   5 28.8242 2.27819   3
  -4   1   5 42.9421 2.31759   4
   4  -3   5 42.2117 3.33718   5
   1  -4   5 32.5027 2.68567   4
   1   3   5 29.6772 2.64884   4
  -1  -3   5 40.8661 2.66005   5
  -4   3   5 42.1380 2.41942   3
  -1  -3   5 39.9008 2.91323   3
  -1   4   5 38.4939 3.20737   5
   3  -4   5 35.9963 2.99802   3
  -1   4   5 44.4322 3.02894   3
   4  -1   5 29.5395 2.96301   4
   1   3   5 41.7174 3.07932   2
  -4   1   5 39.8801 2.12134   4
  -4   3   5 39.6591 2.46581   3
   3  -4   5 41.8641 3.23043   5
   1  -4   5 40.7743 3.02635   1
   4  -3   5 39.8705 3.16633   3
  -1   4   5 33.1178 2.59215   4
  -4   1   5 36.6256 2.32432   3
  -3  -1   5 38.3808 2.84389   2
  -3   4   5 35.3156 2.91529   5
   1  -4   5 40.2712 2.90319   5
   3   1   5 43.2334 3.21727   4
   3  -4   5 41.1682 3.19402   5
   1   3   5 35.8918 3.21033   5
  -3   4   5 42.1624 2.62995   3
  -1   4   5 41.9345 2.88304   3
  -4   3   5 36.1647 2.88505   1
   4  -1   5 37.5980 2.93760   4
  -3  -1   5 38.8204 2.96920   1
  -4   1   5 42.7127 3.06304   1
  -1  -3   5 31.2583 2.50106   4
  -1   4   5 40.7755 2.92183   2
   4  -1   5 37.2712 2.98396   3
   1   3   5 29.0792 2.64488   1
  -4   1   5 40.2993 2.66716   2
   3   1   5 36.4165 3.05453   3
  -4   1   5 41.5745 2.52946   5
   4  -1   5 40.3309 3.26269   5
  -4   3   5 44.0212 2.39889   4
   1   3   5 40.2013 3.00431   3
   3  -4   5 44.3239 3.14634   4
   3   1   5 42.1203 3.18069   1
   1  -4   5 42.1932 3.10097   5
   3  -4   5 38.2870 2.96418   2
   4  -1   5 34.6239 2.86830   1
  -4   3   5 36.5918 2.68368   5
   3   1   6 7.54490 1.77470   3
   1   3   6 6.97577 1.68539   3
  -4   3   6 6.05251 1.25042   3
   1   3   6 4.98988 1.65926   1
  -1  -3   6 5.95097 1.46290   5
  -4   1   6 4.46242 1.36034   1
   1   3   6 4.07336 1.44016   4
  -1  -3   6 4.52902 1.38257   3
   3  -4   6 6.26374 1.75818   3
  -4   3   6 7.63171 1.38357   3
  -1   4   6 8.10569 2.02292   5
   4  -1   6 5.52410 1.64344   1
  -4   1   6 7.13675 1.47824   2
  -3  -1   6 3.51055 1.05950   5
   1   3   6 6.12661 1.59906   4
  -3   4   6 6.33281 1.40718   4
  -4   1   6 5.53246 1.28702   3
   3   1   6 7.38425 1.74809   4
  -1  -3   6 3.75134 1.34537   1
   4  -1   6 2.33812 1.50170   5
   3   1   6 3.18525 1.45657   1
  -1  -3   6 3.65600 1.32164   4
  -3   4   6 6.11918 1.40722   4
  -3   4   6 5.88679 1.43142   3
  -3  -1   6 7.38987 1.44959   5
  -3  -1   6 8.19687 1.76303   1
   3  -4   6 4.20854 1.55986   2
  -3   4   6 6.86744 1.43064   3
   4  -3   6 6.89750 1.77732   3
  -1   4   6 4.76681 1.43631   3
  -4   1   6 4.04766 1.17833   5
  -4   3   6 4.97227 1.17049   4
   4  -3   6 4.82804 1.51352   1
   1  -4   6 6.22263 1.55880   1
   4  -3   6 4.94505 1.77733   5
  -1   4   6 5.75891 1.52688   3
   3   1   6 4.94714 1.49882   3
   3   1   6 8.36653 1.99439   4
   4  -3   6 4.25995 1.39427   4
   3   1   6 4.86905 1.52962   2
  -3   4   6 5.17159 1.52210   1
  -3  -1   6 3.95961 1.12969   4
   1  -4   6 2.79864 1.46866   4
  -3   4   6 9.13343 1.96660   5
   3  -4   6 5.01251 1.56702   4
  -1   4   6 7.06339 1.54985   4
  -3  -1   6 7.60757 1.52430   3
   4  -1   6 7.03662 1.69586   2
   3  -4   6 6.16582 1.65449   5
  -1   4   6 3.95529 1.47910   4
   3  -4   6 4.44840 1.67807   5
  -4   3   6 6.13224 1.40523   2
   4  -1   6 4.14913 1.56385   3
  -4   3   6 4.33172 1.31762   5
  -4   1   6 7.19249 1.45612   5
  -1  -3   6 6.48345 1.44598   5
   1   3   6 6.78906 1.75680   2
   4  -1   6 2.57854 1.53186   5
  -3  -1   6 4.20460 1.26958   2
   1  -4   6 2.30450 1.50666   3
  -1   4   6 3.42063 1.36385   1
  -4   3   6 3.30448 1.06423   4
   3  -4   6 3.26312 1.30953   1
  -1   4   6 3.24411 1.27645   2
   1  -4   6 4.82919 1.43873   5
  -4   1   6 5.17882 1.20140   4
   4  -3   6 5.00365 1.60142   2
   4  -1   6 6.11248 1.81105   4
   4  -1   6 5.62807 1.70292   4
   1   3   6 3.81634 1.54254   2
  -4   3   6 4.92723 1.53756   1
   4  -3   6 2.19388 1.45019   5
  -1   4   6 5.63153 1.62593   2
   1   3   6 3.54739 1.56251   3
   1  -4   6 3.45569 1.46006   2
  -3   4   6 5.14908 1.37664   2
   1  -4   6 5.92124 1.59831   5
  -1  -3   6 4.44193 1.53794   2
  -4   1   6 2.41433 0.84288   4
   3   1   6 4.78898 1.67957   5
   1   3   6 6.87446 1.93487   5
   3   1   7 11.2847 2.35108   1
   4  -1   7 2.61531 1.77973   1
   1  -4   7 8.94734 2.17260   5
  -1   4   7 4.67476 1.80506   3
  -4   1   7 6.24390 1.82093   5
  -3   4   7 6.79630 1.69997   4
  -3   4   7 6.26712 1.69185   3
  -1   4   7 2.96207 1.64430   4
   4  -1   7 5.56599 2.21276   3
   4  -3   7 1.13690 1.98739   4
   1   3   7 5.45840 2.04487   4
   4  -3   7 6.76034 2.27669   3
  -3  -1   7 5.55416 1.98132   1
  -1  -3   7 6.47911 1.99840   5
  -3  -1   7 5.19643 1.56287   4
   1   3   7 5.12591 1.85661   3
  -4   3   7 5.24810 1.50762   3
   3   1   7 5.00547 2.12761   5
  -1   4   7 4.61729 1.90519   1
  -1  -3   7 7.83724 2.01070   3
   1   3   7-0.03376 1.38680   2
  -3   4   7 7.81943 2.14792   1
   4  -3   7 6.02292 2.38873   5
  -3   4   7 4.57101 1.74657   4
   3  -4   7 5.48080 1.95548   4
  -4   3   7 4.31750 1.36700   4
   4  -1   7 11.7595 2.87354   5
   4  -1   7 3.39633 1.90233   5
  -1   4   7 3.66603 1.79431   3
  -4   3   7 6.61698 1.99775   5
  -3   4   7 6.15866 1.71225   2
   1  -4   7 4.55933 1.83870   4
  -3  -1   7 5.51418 1.45687   4
   1   3   7 5.54693 1.89145   1
   4  -3   7 5.95026 1.94034   1
  -1   4   7 2.92945 1.75435   2
   4  -3   7 5.54326 2.36711   5
   1   3   7 2.89817 1.69838   3
  -4   1   7 4.14369 1.49361   4
  -4   1   7 6.08839 1.59078   3
   3  -4   7 4.74051 1.90471   5
  -1   4   7 6.74401 1.94775   4
  -4   1   7 9.23432 2.06560   2
   4  -1   7 10.5895 2.38997   3
  -1   4   7 8.38951 2.62642   5
  -4   3   7 3.20377 1.38416   4
   4  -1   7 6.20371 2.14485   4
   1  -4   7 3.16828 1.74405   5
  -4   1   7 1.72396 1.64859   1
   3  -4   7 4.44769 1.85829   1
  -1  -3   7 4.92493 1.66137   4
   4  -3   7 3.97785 1.98460   4
  -4   1   7 6.04005 1.45469   4
   3   1   7 4.63174 1.85046   2
  -1  -3   7 4.39094 1.61919   5
   3   1   7 0.41495 1.51879   3
   1  -4   7 3.08223 1.86955   3
  -3   4   7 2.21751 1.58268   5
  -1   4   7 2.13186 1.51185   2
  -3  -1   7 4.53857 1.59392   5
   1   3   7 4.83548 1.87993   4
   4  -3   7 11.7481 2.74452   2
  -4   3   7 7.40005 1.77822   3
   3  -4   7 8.69533 2.40175   3
   3  -4   7 7.13436 2.17060   5
   1   3   7 5.05225 2.47942   5
   3   1   7 4.01518 2.01589   3
   3   1   7 4.53181 2.17838   4
   3   1   7 4.63198 1.75461   4
   4  -1   7 3.25932 1.70915   2
   1  -4   7 1.12972 1.80665   2
  -3  -1   7 5.56357 1.57049   5
  -4   3   7 2.38001 1.49138   2
  -1  -3   7 9.83408 2.41792   1
   3  -4   7 7.90781 2.25937   2
   3   1   7 3.33839 1.95838   5
  -3  -1   7 7.59450 1.94854   3
   1  -4   7 5.28875 1.91817   1
  -1  -3   7 5.61718 2.05321   2
   1   3   7 9.30720 2.25795   2
  -3   4   7 2.57217 1.48279   3
  -3  -1   7 3.52505 1.80755   2
   4  -1   7 2.27344 1.98351   4
  -4   3   7 8.66363 2.14758   1
  -4   1   7 4.21669 1.57974   5
   3  -4   8 4.99176 2.83238   3
  -1   4   8 4.56601 3.02620   5
   1  -4   8 2.28502 2.05878   5
  -1  -3   8 2.55792 2.46158   2
   1  -4   8 1.59429 2.31098   2
  -4   1   8 5.30458 2.05271   3
  -1   4   8 4.74359 2.33375   3
   3   1   8 3.19825 2.41344   3
  -1  -3   8 4.55994 2.09968   5
  -3  -1   8 2.58256 1.89415   5
  -1  -3   8 2.29160 2.15985   4
  -3   4   8 2.87249 2.00835   2
  -3   4   8 3.06386 2.00957   3
  -1   4   8 6.75096 2.74820   4
  -1   4   8 7.14535 2.50641   3
   4  -1   8 2.51097 2.68010   5
   1  -4   8 7.63173 2.78310   3
   1  -4   8 1.10580 2.43537   1
   3  -4   8 5.83424 2.56041   1
   4  -3   8 4.98293 2.61895   5
  -4   1   8 1.19491 1.64489   4
   3   1   8 4.05230 2.78463   2
  -1   4   8 3.05679 2.32570   2
  -3   4   8 4.06746 2.04087   3
  -3   4   8 4.97936 2.25291   4
  -4   1   8 5.47937 1.96104   3
  -4   1   8 4.95993 2.00103   4
   3  -4   8 3.79442 2.54426   5
  -1  -3   8 5.06132 2.39921   5
  -4   1   8 2.68210 1.95165   2
  -3  -1   8 4.50779 1.84402   5
   3   1   8 4.43141 3.13141   5
  -3  -1   8 3.66213 1.84667   4
   1   3   8 3.10809 2.35482   2
   3   1   8 3.69932 2.53703   1
   3   1   8 7.20003 2.94122   3
  -3   4   8 3.12870 1.97906   2
   4  -3   8 5.40954 2.82716   5
   4  -1   8 4.86000 2.72964   1
  -1   4   8 6.86214 2.42559   2
   4  -1   8 4.90925 2.72810   4
  -1   4   8 3.56462 2.21052   4
   1   3   8 3.85168 2.66107   2
  -4   1   8 1.85584 2.35609   1
  -4   3   8 6.07358 2.26251   5
   4  -1   8 2.33261 2.34014   5
  -1   4   8 6.90551 2.68059   1
   1   3   8 2.65403 2.34575   3
   4  -3   8 3.76062 2.15922   1
   4  -1   8 3.57662 2.39464   3
  -3   4   8 3.40851 1.82107   4
  -4   1   8 5.22790 2.14057   5
   3   1   8 2.79318 2.21200   4
   4  -3   8 3.48530 2.72072   3
  -4   3   8 4.18577 1.98832   4
  -4   3   8 3.53420 1.78076   3
   4  -3   8 2.46486 2.39163   2
   1   3   8 8.85150 2.76735   1
   4  -1   8 10.2336 2.93926   3
  -4   3   8 5.65638 1.94931   4
   3   1   8-0.26874 2.47038   4
   4  -1   8-0.12355 2.35561   4
  -1  -3   8 2.91663 2.20971   3
   3   1   8 9.33313 3.01739   5
   1   3   8 0.14534 2.37046   5
   4  -3   8 5.33994 2.96474   4
   3  -4   8 3.42679 2.86269   2
  -3  -1   8 4.13384 2.03665   3
  -3  -1   8 5.85662 2.85256   1
   4  -3   8 5.00867 2.72678   4
   1  -4   8 7.42779 2.51643   5
  -1  -3   8 6.00033 2.50438   1
  -4   3   8 8.81603 2.73434   5
  -3   4   8 4.45999 2.32394   1
  -4   1   8 3.70423 2.04525   5
   4  -1   8 4.54812 2.93893   2
   3  -4   8 4.21654 2.66385   4
   1  -4   8 4.98073 2.33899   4
  -3   4   8 1.13944 2.49862   5
  -3  -1   8 8.95858 2.30408   4
   3  -4   8 3.58002 2.74831   5
   3  -4   8 5.32003 2.56493   4
  -4   3   8 3.68502 1.97254   3
   1   3   8 2.82536 2.56443   3
  -4   3   8 3.50848 1.94109   2
  -1  -3   8 7.08814 2.54959   4
  -4   3   8 5.70567 2.62451   1
   1   3   8 1.46557 2.17015   4
   1   3   8 3.74540 2.56948   4
  -3  -1   8 2.88103 2.15566   2
   0  -4  -8 64.5572 5.35555   1
   4   0  -8 59.6409 5.28608   1
  -4   4  -8 56.9437 5.18823   2
   0   4  -8 64.0806 5.44984   1
   0   4  -8 49.9209 4.84332   2
   4   0  -8 62.7533 4.43232   3
   0  -4  -8 60.2486 5.68697   5
   4   0  -8 67.3617 4.96799   2
  -4   0  -8 72.8629 5.84096   2
   4  -4  -8 65.4113 5.14865   5
  -4   4  -8 49.5723 4.97304   1
  -4   0  -8 60.4440 5.33814   1
   0   4  -8 52.9172 4.63073   3
   4  -4  -8 50.9427 4.75768   1
  -4   4  -8 53.9938 5.00888   3
   0   4  -8 53.6711 4.42180   4
   0  -4  -7 128.732 7.31932   5
   4   0  -7 143.769 5.82755   3
   0   4  -7 138.971 6.86480   2
  -4   4  -7 121.704 6.44739   1
  -4   0  -7 117.562 6.55043   1
   4  -4  -7 140.334 6.08467   2
   0   4  -7 130.409 6.67790   1
   4   0  -7 138.383 6.28406   2
  -4   4  -7 121.076 6.52750   3
   4   0  -7 151.218 7.04868   1
   0  -4  -7 131.855 6.74655   1
  -4   4  -7 127.128 6.45301   4
  -4   4  -7 131.499 6.84843   2
   4  -4  -7 138.679 6.80285   5
   4  -4  -7 140.637 6.60101   1
   0   4  -7 130.659 6.35029   3
  -4   0  -7 133.696 7.06447   2
   0   4  -7 116.521 5.82945   4
   4   0  -6 1.42131 1.14360   1
   0   4  -6 3.91617 1.22866   4
   4  -4  -6 4.71876 1.53424   5
   0   4  -6 1.30737 1.27073   1
  -4   0  -6 1.85039 1.53068   2
   0  -4  -6 2.81040 1.51510   1
  -4   0  -6 5.80903 1.75429   1
   0   4  -6 3.09385 1.43553   2
   0   4  -6 4.72620 1.46017   3
  -4   4  -6 5.20051 1.72503   3
   0  -4  -6 3.03240 1.71573   5
   4  -4  -6 4.34911 1.35775   1
   4  -4  -6 3.08247 1.12435   2
  -4   4  -6 3.59991 1.34300   1
   4   0  -6 5.96601 1.53800   2
  -4   4  -6 1.85679 1.23219   4
  -4   4  -6 3.55579 1.54638   2
   4   0  -6 6.77508 1.29817   3
   4   0  -5 108.290 3.92243   3
   4   0  -5 107.602 4.39772   2
  -4   4  -5 106.223 4.85800   4
   0   4  -5 93.8868 4.55050   1
   0  -4  -5 87.3459 4.48777   1
   0   4  -5 102.335 4.46862   4
   4  -4  -5 101.681 4.51031   1
  -4   0  -5 113.941 5.18235   1
   0   4  -5 105.813 4.91976   2
   4   0  -5 99.0489 4.57772   1
  -4   0  -5 112.854 5.24334   2
   4  -4  -5 108.189 4.85992   5
   4  -4  -5 102.778 3.94494   2
   0  -4  -5 95.1575 5.33341   5
  -4   4  -5 116.315 5.18080   2
  -4   4  -5 96.0731 4.57461   1
   0   4  -5 116.263 4.94602   3
  -4   4  -5 93.0028 4.55216   3
   0  -4  -4 190.680 6.02268   1
   4  -4  -4 179.649 5.65397   5
   4   0  -4 171.513 5.33045   1
  -4   0  -4 168.007 5.66569   1
   0   4  -4 158.033 5.31762   3
  -4   0  -4 183.769 6.09938   2
   4   0  -4 178.177 3.79358   4
   0   4  -4 167.862 5.19956   4
   0  -4  -4 191.141 6.70061   5
   4  -4  -4 143.461 4.70954   1
   4   0  -4 181.097 4.91343   2
  -4   0  -4 114.731 5.19761   5
  -4   4  -4 130.137 4.90824   2
   0  -4  -4 177.190 6.11296   4
  -4   4  -4 137.089 5.07814   3
   4  -4  -4 148.469 4.14559   2
   4   0  -4 159.721 4.13126   3
  -4   4  -4 177.300 5.70384   4
   0   4  -4 158.217 5.27556   1
  -4   4  -4 181.499 5.45611   1
   0   4  -4 177.204 5.70948   2
   4   0  -3 50.6277 2.13798   3
   0   4  -3 53.7934 2.82287   2
  -4   4  -3 62.6115 3.19688   5
  -4   4  -3 61.2686 3.01839   4
   4   0  -3 64.0296 2.60457   2
   4   0  -3 47.2657 2.51942   1
  -4   0  -3 61.4036 3.07802   1
  -4   4  -3 51.9961 2.80309   2
   0  -4  -3 44.6237 2.96738   5
   0   4  -3 61.6493 3.02976   3
   0  -4  -3 55.7804 2.90350   1
  -4   0  -3 51.3748 2.95373   5
   0   4  -3 47.3928 2.41470   5
   0   4  -3 55.7195 2.84223   4
  -4   0  -3 55.8525 3.07087   2
   0   4  -3 59.5628 2.96775   1
   4  -4  -3 54.2350 2.27294   4
   4   0  -3 55.8435 1.75541   4
   4  -4  -3 51.5926 2.44882   1
   4  -4  -3 59.0223 3.03076   5
   0  -4  -3 60.1065 3.12798   3
  -4   4  -3 52.3722 2.52588   1
  -4   4  -3 57.6719 2.93289   3
   0  -4  -3 60.7118 3.31653   4
  -4   4  -2 682.143 7.41084   1
   0   4  -2 712.583 9.04108   1
   4  -4  -2 663.340 5.87304   3
  -4   4  -2 761.441 10.1740   5
   4  -4  -2 635.569 6.65833   1
   0  -4  -2 730.739 9.40135   1
  -4   4  -2 712.852 9.13498   4
   0  -4  -2 707.665 10.5749   5
   4  -4  -2 692.523 9.31853   5
  -4   0  -2 724.969 9.65457   5
   0  -4  -2 664.642 9.19691   2
   4   0  -2 694.738 8.55749   1
  -4   0  -2 683.043 8.79932   1
   4   0  -2 757.993 7.66443   2
   0   4  -2 735.086 8.56408   5
   0  -4  -2 679.951 9.92119   4
  -4   4  -2 608.829 8.26139   3
  -4   4  -2 681.500 8.63513   2
   0  -4  -2 604.513 9.03327   3
   0   4  -2 651.954 8.88491   2
   4   0  -2 671.730 6.38189   3
   0   4  -2 582.709 8.14783   4
   4   0  -2 667.625 4.78117   4
   4  -4  -2 707.608 7.12717   4
  -4   4  -1 940.842 8.95335   3
  -4   0  -1 1003.53 9.59591   5
   4  -4  -1 837.748 6.11454   3
   0   4  -1 964.910 10.0534   3
  -4   4  -1 882.299 9.95782   5
   4  -4  -1 875.912 5.03411   1
   4  -4  -1 901.995 4.73335   2
   0  -4  -1 969.990 10.4615   3
   0  -4  -1 896.847 10.6079   4
  -4   4  -1 898.308 6.00392   1
   4   0  -1 916.220 7.13454   3
   0   4  -1 869.244 9.16260   1
   0   4  -1 906.497 9.75557   4
   4   0  -1 878.296 5.85727   4
  -4   4  -1 948.745 9.31373   4
   4   0  -1 895.973 7.65126   2
   4  -4  -1 879.920 7.48396   4
   0   4  -1 795.617 8.80658   5
   0  -4  -1 927.211 11.1194   5
   4   0   0 44.1644 1.87230   1
   0   4   0 41.5503 1.91717   1
  -4   4   0 36.3308 1.25294   2
   4  -4   0 37.4294 1.66423   4
   4   0   0 36.8741 1.44787   5
   0   4   0 33.2079 1.87971   4
   4   0   0 37.5192 1.39988   5
   0  -4   0 36.7672 1.95399   3
   0   4   0 38.1526 2.00732   3
  -4   0   0 40.5481 1.73681   3
  -4   0   0 37.9086 1.77694   1
   4  -4   0 40.5627 1.52769   3
   0  -4   0 40.4338 2.19757   4
   4   0   0 42.6394 1.78645   3
  -4   4   0 40.2457 1.54230   3
  -4   4   0 41.7316 1.72883   4
   0  -4   0 40.7751 2.01554   2
   4  -4   0 38.5341 1.98398   5
   4   0   0 38.4021 1.67595   2
   4   0   0 41.1013 1.73467   4
  -4   0   0 30.0373 1.43992   4
   0  -4   0 43.7951 2.22271   5
  -4   0   0 41.7761 1.91408   2
   0   4   0 40.7936 2.10688   5
   0  -4   0 38.4477 1.85026   1
   0   4   0 37.3510 1.92706   2
   4  -4   0 42.8736 1.31208   2
  -4   4   0 40.5333 2.01923   5
   4   0   1 900.302 9.29333   2
   0   4   1 913.012 9.78173   2
   0   4   1 895.855 10.8372   5
   4  -4   1 868.066 5.79667   1
   0   4   1 908.572 10.1098   3
   4   0   1 848.439 9.24213   4
   0   4   1 957.324 10.7745   4
  -4   4   1 946.396 6.24812   3
  -4   4   1 907.813 9.58430   5
  -4   4   1 934.295 4.99510   1
   0   4   1 996.375 9.79916   1
   0   4   1 791.224 8.55349   1
   0  -4   1 886.689 9.05063   1
   4  -4   1 898.327 9.15466   4
   0  -4   1 887.734 9.59860   4
  -4   0   1 885.709 7.92651   2
   4  -4   1 848.871 9.86474   5
  -4   0   1 949.252 8.93385   1
  -4   0   1 932.566 6.42018   4
   4  -4   1 917.365 8.04820   2
  -4   4   1 941.912 7.66381   4
  -4   4   1 928.043 4.64791   2
   4   0   1 862.397 9.03419   3
   0  -4   1 995.766 10.2207   3
   0  -4   1 935.067 9.86521   2
   4   0   1 905.784 8.87141   1
   4  -4   2 724.016 10.0110   5
  -4   4   2 649.619 5.63032   3
   4   0   2 713.571 9.61499   2
   0   4   2 702.047 9.26581   2
   0   4   2 685.541 8.71951   1
  -4   4   2 663.695 6.62326   1
   4   0   2 641.268 9.25132   4
   4   0   2 708.725 9.16991   4
   4   0   2 689.101 9.24616   2
   4  -4   2 710.570 8.98581   3
  -4   4   2 735.735 9.36692   5
   0   4   2 733.038 10.4269   4
   0  -4   2 676.045 8.42137   5
   4  -4   2 687.749 8.33336   2
   0   4   2 722.282 9.75262   3
   0   4   2 713.635 10.6430   5
   0  -4   2 701.638 9.08001   4
   4   0   2 579.098 8.67450   5
   0  -4   2 736.012 9.49889   2
  -4   4   2 655.498 5.31969   2
  -4   0   2 680.828 5.28252   4
   4  -4   2 740.810 9.30738   4
  -4   4   2 708.536 6.84454   4
  -4   0   2 691.930 8.46091   1
   4   0   2 739.185 9.71744   3
   4   0   2 686.611 8.82288   1
  -4   4   2 642.614 5.24933   2
   4   0   2 699.178 9.24071   3
   0  -4   2 725.639 9.02850   1
  -4   0   2 717.123 7.56488   2
  -4   4   3 58.9167 2.52848   1
  -4   0   3 58.2148 1.43896   5
   4   0   3 71.1041 3.35115   3
   4  -4   3 62.7415 3.29557   5
   0   4   3 50.2335 2.77646   2
   4   0   3 61.4882 3.26130   4
  -4   4   3 61.9074 2.97933   5
  -4   4   3 63.7229 2.38888   4
  -4   4   3 63.1969 2.19142   2
  -4   0   3 63.0519 2.57177   2
   4   0   3 50.5604 2.91274   2
   4  -4   3 59.3579 2.98876   4
   0  -4   3 59.0607 2.89754   1
   0   4   3 65.2459 3.12629   1
   4   0   3 69.0323 3.46680   5
   4   0   3 52.3849 2.90665   3
   0   4   3 61.2192 3.10330   3
   0   4   3 47.0340 3.10843   5
  -4   4   3 66.1230 2.24896   2
   0  -4   3 60.8106 2.94204   4
   0  -4   3 65.2569 2.88893   5
  -4   0   3 59.1915 2.81276   1
   4   0   3 61.4514 3.07038   4
   0   4   3 58.4602 3.16033   4
   4  -4   3 63.0880 3.03484   3
   4   0   3 59.5065 3.03567   1
  -4   0   3 58.9023 1.83236   4
   4  -4   3 61.6448 2.62442   1
   0   4   3 64.9231 3.07654   2
   0  -4   3 61.5571 3.06513   2
   0  -4   3 62.0394 3.04175   3
  -4   4   3 53.9375 2.03462   3
   4  -4   3 65.7409 3.04040   2
  -4   0   3 57.1967 1.59923   5
  -4   4   3 55.5851 2.04690   3
  -4   0   3 62.1485 2.25179   3
   4   0   4 178.780 5.98649   2
   4  -4   4 180.450 5.74828   3
  -4   4   4 159.904 4.91447   1
  -4   0   4 167.145 4.37884   3
   0   4   4 165.354 5.52505   1
   4   0   4 194.418 6.63193   5
  -4   4   4 153.772 4.13711   4
   4   0   4 197.245 6.13064   4
  -4   4   4 127.806 4.13408   2
   4  -4   4 192.405 6.43662   5
   4  -4   4 171.812 5.96370   5
   0   4   4 130.416 5.17745   4
  -4   0   4 163.106 5.26367   1
   4  -4   4 155.244 4.86529   1
   0  -4   4 137.904 4.87182   4
   4   0   4 175.373 5.95785   3
   4  -4   4 151.521 5.21183   2
   0   4   4 156.043 6.04504   5
   4  -4   4 173.512 5.61197   4
   0  -4   4 162.170 4.93274   5
   0  -4   4 139.330 4.70110   5
   0   4   4 143.389 5.07649   2
  -4   0   4 165.804 3.73132   4
   0  -4   4 170.153 5.46967   3
   4   0   4 150.009 5.30829   1
  -4   0   4 160.710 3.67367   5
   0   4   4 189.233 5.88923   2
  -4   0   4 156.321 3.44349   5
  -4   4   4 154.729 4.06724   3
   4   0   4 143.835 5.27912   3
  -4   4   4 167.595 5.43062   5
  -4   4   4 168.718 4.51747   4
   4   0   4 192.814 6.36512   4
   0  -4   4 135.624 4.89891   1
   0   4   4 163.812 5.54910   3
   0  -4   4 175.430 5.67885   2
   0   4   4 161.281 5.43376   3
  -4   0   4 166.945 4.76492   2
  -4   4   4 178.052 4.30771   3
  -4   0   5 97.0652 4.17270   2
   0  -4   5 97.3336 4.56932   3
   4  -4   5 100.672 4.71608   4
   0   4   5 96.0253 4.65308   1
   4  -4   5 97.4507 4.46221   1
   0   4   5 95.3022 5.16560   5
   4  -4   5 91.5682 4.57119   2
   4   0   5 96.9563 4.83783   4
   4  -4   5 100.338 5.00251   5
  -4   4   5 99.5664 3.80521   3
   4   0   5 106.919 5.27998   4
   4   0   5 106.375 5.40316   5
   0  -4   5 102.839 4.46703   5
  -4   4   5 101.970 4.08850   2
   0   4   5 95.4465 4.74361   4
   0   4   5 96.2990 4.57400   4
   0  -4   5 84.6323 4.06163   5
  -4   4   5 101.980 4.50864   1
   0   4   5 97.6839 4.76708   2
  -4   4   5 104.178 4.02676   4
  -4   0   5 98.0972 3.78604   3
  -4   0   5 97.9234 3.38230   5
   0  -4   5 105.545 4.84920   1
  -4   4   5 98.8159 3.73669   4
  -4   4   5 87.4192 4.36570   5
  -4   0   5 96.4369 4.60832   1
   4   0   5 102.198 5.04111   3
  -4   0   5 110.341 3.74528   5
  -4   0   5 94.8455 3.44845   4
  -4   0   5 97.7313 3.43029   4
   0  -4   5 84.7292 4.54763   2
   4  -4   5 112.128 5.09408   3
   4  -4   5 110.730 5.42079   5
   0   4   5 88.8125 4.26278   3
   0   4   5 93.8632 4.50218   2
   0   4   5 100.791 4.69324   3
   4   0   5 94.1579 4.84757   2
  -4   4   5 92.8630 3.65973   3
   4   0   5 112.342 5.17786   3
   0  -4   5 106.003 4.61545   4
   4   0   5 100.172 4.80240   1
   4   0   6 4.14882 1.44985   4
   0  -4   6 3.65107 1.32063   5
   4   0   6 4.64666 1.61168   3
  -4   4   6 3.40994 1.10511   3
  -4   0   6 7.33277 1.79073   1
   0   4   6 2.88473 1.57520   5
   4  -4   6 5.83731 1.70727   3
  -4   4   6 4.10102 1.60427   5
  -4   4   6 3.18499 1.06947   4
   0  -4   6 4.57090 1.56698   1
  -4   0   6 2.41767 0.97691   3
   4  -4   6 3.98937 1.57651   5
  -4   0   6 4.42967 1.06712   5
   0  -4   6 3.57089 1.27806   5
   0   4   6 4.62259 1.57168   4
   4   0   6 4.25943 1.55559   5
   0   4   6 3.44334 1.25471   3
   4  -4   6 2.99101 1.51345   4
  -4   4   6 3.39641 1.34903   3
   4   0   6 2.18269 1.57431   2
   4   0   6 1.33862 1.44458   4
   0   4   6 3.89463 1.54318   4
   4  -4   6 3.40718 1.46957   2
   0  -4   6 1.54676 1.10122   3
   4   0   6 5.62755 1.69341   1
  -4   0   6 3.90115 0.99701   4
   4  -4   6 3.17493 1.52872   1
   0   4   6 6.11585 1.61578   2
  -4   4   6 2.48173 1.16560   1
   0   4   6 3.67638 1.36328   1
  -4   4   6 1.61539 0.98205   4
   4   0   6 2.05401 1.47522   3
  -4   0   6 3.83650 1.38164   2
  -4   4   6 5.49212 1.43063   2
  -4   0   6 3.09887 1.03873   5
   0   4   6 6.55197 1.62555   3
  -4   0   6 4.08048 1.08918   4
   4  -4   6 1.66990 1.24650   5
   0  -4   6 3.90965 1.43818   4
   0  -4   6 3.11558 1.33188   2
   0   4   6 2.35498 1.36267   2
   4   0   6 1.05069 1.36485   5
   4  -4   7 127.532 6.80953   3
   0   4   7 107.553 6.08394   2
   0   4   7 124.995 6.63328   2
   0   4   7 121.343 7.11244   5
   0  -4   7 133.376 6.80136   2
  -4   4   7 137.054 5.74900   3
  -4   4   7 116.176 5.47231   2
   0  -4   7 121.107 6.32191   3
  -4   0   7 111.861 4.85245   4
  -4   0   7 136.814 6.78922   1
   4  -4   7 135.234 6.66530   1
   0   4   7 123.894 6.26742   4
   4  -4   7 131.317 7.08462   5
   4   0   7 117.174 6.47869   4
  -4   0   7 119.745 5.15123   4
   4   0   7 121.778 6.48585   1
  -4   0   7 125.533 5.48252   5
   0  -4   7 141.750 6.41405   5
   0  -4   7 128.151 6.39270   4
  -4   4   7 131.026 6.57854   5
   0   4   7 131.634 6.60244   1
   4   0   7 92.8238 6.76161   4
   0   4   7 112.226 6.18961   3
  -4   4   7 122.363 6.24292   1
   0  -4   7 124.103 6.60922   1
  -4   4   7 119.520 5.28129   4
   4   0   7 113.334 6.78796   5
  -4   4   7 119.948 5.48193   3
   4  -4   7 125.114 6.58214   4
   4   0   7 133.720 7.08066   2
   4  -4   7 145.630 7.20134   2
  -4   0   7 126.342 5.17655   5
   4   0   7 110.902 6.52656   3
  -4   0   7 118.965 5.95584   2
   4   0   7 84.4897 5.72711   3
   0   4   7 138.006 6.88959   4
  -4   0   7 105.790 5.34714   3
   0  -4   7 133.836 6.33434   5
  -4   4   7 116.042 5.62086   4
   0   4   7 132.848 6.47346   3
   4  -4   7 136.784 7.08983   5
   4   0   7 105.908 6.75244   5
   4   0   8 63.6235 5.64137   2
  -4   4   8 54.7706 4.12274   4
   4  -4   8 57.7026 5.40235   5
  -4   0   8 60.3851 4.30349   5
   0  -4   8 51.9383 5.09046   3
   0   4   8 71.7304 5.61567   3
   4  -4   8 55.9858 5.12276   4
   0   4   8 49.0261 4.75721   3
   0  -4   8 63.1012 5.00754   5
  -4   4   8 58.7450 4.98341   1
  -4   4   8 63.4425 5.36361   5
   0  -4   8 54.9270 4.93067   5
   0  -4   8 49.7417 4.66560   4
   0   4   8 61.7425 5.82014   5
   4   0   8 68.6303 5.94780   5
   0   4   8 54.8211 4.97869   2
   4   0   8 51.9591 5.05218   1
   4   0   8 67.3611 5.68928   3
   0   4   8 56.9238 5.10442   4
  -4   4   8 56.8436 4.53100   2
   4   0   8 61.9057 5.63970   4
  -4   0   8 46.5238 3.89496   4
   4  -4   8 33.7712 4.53087   3
   4  -4   8 59.7947 5.25971   1
  -4   0   8 63.4607 5.39802   1
  -4   0   8 54.1965 4.21047   3
  -4   0   8 59.6226 4.13380   5
   0   4   8 59.6202 4.91823   4
   4  -4   8 61.4766 5.38387   5
   0  -4   8 55.1313 5.18662   1
   0   4   8 52.8766 4.82981   1
  -4   4   8 62.7960 4.42115   3
   4   0   8 54.6037 5.22677   4
  -4   0   8 56.2862 3.93270   4
   4  -4   8 39.2180 4.59101   2
   4   0   8 64.5527 6.00878   5
   0   4   8 46.4620 4.98617   2
   4  -4   8 29.7250 5.12141   4
   0  -4   8 57.1944 5.23258   2
  -4   0   8 60.9042 4.80469   2
  -4   4   8 55.0894 4.26465   3
  -4   4   8 67.7551 4.67319   2
  -4   4   8 52.7190 4.25361   4
   4   0   8 48.3557 5.20385   3
  -2   5  -8 13.9048 3.26807   2
  -2   5  -8 17.0910 3.00803   4
   2  -5  -8 22.8434 3.96818   5
  -2  -3  -8 23.3698 3.64343   1
  -5   2  -8 20.5179 3.65870   2
   3   2  -8 30.2794 3.79117   2
  -5   2  -8 27.9384 3.94141   1
  -5   3  -8 28.2573 4.03725   3
   3  -5  -8 27.0984 4.34787   5
  -3   5  -8 15.8421 3.61086   2
   2   3  -8 13.7569 3.09449   2
  -3  -2  -8 21.3418 3.65799   1
   3   2  -8 24.0026 3.31892   3
   2  -5  -8 30.4210 3.81982   1
  -3   5  -8 20.6823 3.43650   4
  -2  -3  -8 27.8610 4.52478   5
  -2   5  -8 24.1203 3.67605   3
  -3   5  -8 24.2899 3.70693   1
   5  -3  -8 22.0092 3.00465   2
   3   2  -8 17.7671 3.55749   1
  -5   3  -8 17.9216 3.47104   2
   2   3  -8 25.1128 3.68874   1
  -5   3  -8 30.4486 4.22372   1
   5  -3  -8 19.2917 3.62775   1
   2   3  -8 20.1683 3.23931   3
   3  -5  -8 18.0130 3.33899   1
  -2   5  -8 21.7546 3.68645   1
  -3   5  -8 31.7225 4.07426   3
   5  -2  -8 23.0626 3.11670   2
   5  -2  -8 18.9080 3.55722   1
  -2   5  -7 11.4806 2.42390   4
   5  -3  -7 15.6267 2.33627   5
  -3   5  -7 10.9604 2.55873   1
  -3   5  -7 7.43372 2.21597   3
  -2   5  -7 11.5133 2.52131   1
   3  -5  -7 8.82300 2.43985   5
  -3  -2  -7 10.3775 2.56281   5
  -2  -3  -7 11.4582 2.39265   1
  -2   5  -7 12.3616 2.57852   2
   3   2  -7 9.77174 2.51610   1
  -2  -3  -7 7.93280 2.51214   5
   2  -5  -7 13.0147 2.83912   5
   2   3  -7 10.2181 1.97606   4
  -5   2  -7 12.7229 2.50338   2
   2   3  -7 9.98482 2.31988   1
  -2   5  -7 7.59929 1.98827   3
   3   2  -7 7.98848 2.15839   2
  -3   5  -7 10.8327 2.54639   2
   5  -3  -7 9.22333 1.90489   2
   5  -2  -7 10.3344 1.92469   2
   5  -2  -7 8.21522 2.32300   1
   2  -5  -7 13.9351 2.65201   1
  -3  -2  -7 7.56399 2.42816   1
   3  -5  -7 10.9675 2.37049   1
  -5   2  -7 8.52999 2.42628   1
   5  -3  -7 10.5493 2.28894   1
   2   3  -7 6.67155 2.17939   2
  -5   3  -7 8.78742 2.19138   1
  -5   3  -7 12.4810 2.67916   3
  -5   3  -7 15.8628 2.77275   2
  -3   5  -7 8.43920 2.40936   4
   3   2  -7 9.78462 1.98669   3
   2   3  -7 9.32138 2.07313   3
   3   2  -6 9.46816 1.69081   3
   2   3  -6 5.89890 1.66163   1
   5  -2  -6 10.2372 1.67426   2
  -2   5  -6 10.5953 1.96809   4
  -3   5  -6 7.77130 1.79795   3
   3   2  -6 8.20449 1.41459   4
  -3  -2  -6 10.1273 2.37151   5
   5  -3  -6 11.7249 1.65370   2
  -2  -3  -6 12.6710 2.32444   5
   3   2  -6 8.93887 1.77186   1
  -2   5  -6 6.93794 1.71557   1
  -5   3  -6 9.12032 2.04106   2
   5  -3  -6 8.25806 1.65857   5
  -3  -2  -6 12.4296 2.21020   1
  -2   5  -6 7.67711 1.79998   2
   2   3  -6 10.2233 1.93625   2
  -3   5  -6 14.1164 2.27037   1
   3   2  -6 9.70131 1.88714   2
   3  -5  -6 9.45185 1.88917   1
  -5   2  -6 12.1597 2.21507   3
   5  -3  -6 9.96832 1.88916   1
  -3   5  -6 7.77696 1.77071   2
  -2  -3  -6 9.59554 1.93022   1
   2   3  -6 8.70737 1.46761   4
   5  -2  -6 6.85644 1.84740   1
  -5   2  -6 11.4915 2.09698   2
  -5   2  -6 10.4526 2.09807   1
  -5   3  -6 11.6636 2.22118   3
  -2   5  -6 8.43745 1.81306   3
  -5   3  -6 10.2246 2.08046   1
  -3   5  -6 14.0647 2.14206   4
   2  -5  -6 8.12429 2.05041   5
   2   3  -6 8.60534 1.84661   3
   3  -5  -6 6.29685 1.98730   5
   2  -5  -6 9.35615 1.75229   1
  -3   5  -5 92.1674 4.68798   2
  -5   3  -5 129.011 5.59124   2
   5  -3  -5 120.192 4.53490   5
   3   2  -5 130.075 5.17935   2
   5  -2  -5 125.679 3.83764   3
  -3   5  -5 138.433 5.39888   1
  -3   5  -5 126.221 5.32245   4
   2  -5  -5 135.065 6.12018   5
   2   3  -5 123.722 4.45619   4
  -3  -2  -5 140.405 6.37189   5
   5  -2  -5 120.652 4.09211   5
  -2   5  -5 81.2919 4.56934   2
  -2   5  -5 132.433 5.32826   4
   3   2  -5 112.377 4.04778   4
  -2  -3  -5 115.551 5.48741   1
  -2  -3  -5 94.7017 5.37603   5
   2   3  -5 107.787 4.89504   2
   3  -5  -5 129.468 5.88710   5
   3   2  -5 100.522 4.77548   1
   2   3  -5 126.389 5.34840   1
  -2   5  -5 130.310 5.31790   1
   5  -2  -5 113.449 4.18454   2
  -5   2  -5 106.989 5.08725   1
   3  -5  -5 120.193 5.00110   1
   3   2  -5 136.156 4.91047   3
   5  -2  -5 119.970 4.93225   1
  -5   3  -5 123.194 5.42185   3
   2  -5  -5 130.361 5.27533   1
   5  -3  -5 130.931 4.25820   2
  -5   3  -5 105.717 4.88985   1
  -5   3  -5 124.356 5.39116   4
  -3   5  -5 125.103 5.43388   3
  -5   2  -5 130.484 5.66155   3
   5  -3  -5 109.380 4.75984   1
  -3  -2  -5 124.585 5.62281   1
  -5   2  -5 139.980 5.77940   2
  -2   5  -5 131.384 5.47686   3
   2   3  -5 136.855 5.09243   3
  -2  -3  -4 98.3601 4.75226   4
   5  -2  -4 95.9851 3.88769   1
   3   2  -4 104.881 4.34388   1
   2  -5  -4 102.895 4.93441   5
  -2   5  -4 96.5091 4.05762   1
   5  -2  -4 95.0970 3.22212   2
   5  -2  -4 87.4654 3.03276   5
   3   2  -4 88.6293 3.20391   4
   3  -5  -4 102.063 4.80442   5
  -3  -2  -4 100.171 4.60511   1
  -3   5  -4 94.1636 4.25481   3
   3  -5  -4 89.0921 3.77560   1
  -2   5  -4 96.3889 4.25129   4
   3  -5  -4 100.270 4.10289   4
  -5   3  -4 96.1033 4.13330   1
   2  -5  -4 93.7005 4.25136   4
  -2   5  -4 89.8739 4.02183   5
   2   3  -4 96.9312 3.68665   4
   2   3  -4 92.8227 3.87994   3
  -2  -3  -4 82.8441 4.51919   5
  -3   5  -4 93.0119 4.25578   2
  -3   5  -4 74.2335 3.77862   4
   5  -3  -4 89.5638 3.04566   2
  -2   5  -4 90.4966 4.20640   2
  -2  -3  -4 104.787 4.67321   1
  -5   2  -4 87.5663 4.11850   3
  -3   5  -4 92.7155 4.29969   5
  -5   2  -4 104.340 4.35942   1
  -5   2  -4 105.130 4.61008   2
  -3  -2  -4 92.7180 4.65051   5
   2   3  -4 103.979 4.25736   2
  -5   3  -4 93.4192 4.26607   2
   3   2  -4 94.3465 3.72612   3
  -5   3  -4 84.9930 4.07035   4
   5  -3  -4 94.6212 3.57477   5
  -3   5  -4 95.7264 3.97596   1
   5  -2  -4 97.9482 2.71362   3
  -5   3  -4 97.4181 4.31340   3
   3   2  -4 94.2558 3.96134   2
   2   3  -4 96.0277 4.25985   1
   5  -3  -4 103.322 3.91971   1
  -2   5  -4 90.8256 4.16229   3
   2  -5  -4 94.3948 4.04701   1
  -2   5  -3 36.4726 2.52047   3
   2  -5  -3 37.3409 2.29794   1
  -2  -3  -3 36.6210 2.64262   4
  -5   3  -3 34.4056 2.30378   4
   3  -5  -3 41.4084 2.81809   5
   5  -2  -3 37.9599 1.69141   2
  -5   2  -3 36.2808 2.20708   1
  -2   5  -3 33.5253 2.34509   2
  -2  -3  -3 35.8960 2.68483   5
  -2   5  -3 39.2568 2.48677   5
  -2   5  -3 38.8014 2.27234   1
   3   2  -3 38.6253 2.29091   2
  -5   3  -3 34.0618 2.30461   2
   2   3  -3 36.5708 2.31885   2
   2  -5  -3 40.5775 2.88613   5
  -5   3  -3 38.0523 2.23308   1
  -5   2  -3 39.7125 2.54948   2
   5  -3  -3 41.1309 1.58512   2
   2   3  -3 29.0889 2.19685   1
   3  -5  -3 36.4380 2.13254   1
   3  -5  -3 43.5343 2.27156   3
   2  -5  -3 41.7011 2.45029   3
   3   2  -3 35.2067 2.09930   3
  -3   5  -3 38.7297 2.47892   2
   3   2  -3 36.8778 2.40599   1
   5  -3  -3 41.8451 2.15841   1
   3  -5  -3 32.7710 2.19983   4
  -3  -2  -3 32.5601 2.50841   5
  -3  -2  -3 32.1629 2.36844   1
  -3   5  -3 33.3718 2.37253   5
  -3  -2  -3 39.5668 2.74353   4
  -3   5  -3 35.6224 2.38438   4
   2   3  -3 42.7932 1.89061   5
   3   2  -3 32.8221 1.76350   4
   2  -5  -3 41.4633 2.62081   4
  -3   5  -3 40.3102 2.22783   1
   5  -3  -3 36.1853 1.97311   5
   2   3  -3 30.6671 2.05336   3
   5  -2  -3 35.9583 2.08824   1
   5  -2  -3 33.8232 1.57249   5
   5  -2  -3 37.7004 1.26109   3
  -5   2  -3 37.9844 2.43425   3
  -5   3  -3 37.9208 2.41029   3
   2   3  -3 34.5581 1.97079   4
  -2   5  -3 38.9386 2.47254   4
  -2  -3  -3 38.3967 2.58616   1
  -3   5  -3 37.7167 2.53222   3
  -3  -2  -2 195.030 5.48627   4
  -2   5  -2 184.325 4.87659   3
   3   2  -2 176.951 3.76213   4
   5  -3  -2 175.521 1.92363   2
   3   2  -2 171.214 2.54646   5
   2   3  -2 184.980 4.56998   3
   2  -5  -2 186.169 4.71293   3
  -5   2  -2 182.797 4.57523   4
  -3  -2  -2 188.388 5.30644   3
  -3   5  -2 141.393 4.14383   2
  -3  -2  -2 158.796 4.82984   5
  -2  -3  -2 150.735 4.89992   5
   5  -3  -2 178.817 3.99640   5
  -3   5  -2 171.511 3.89255   1
   2  -5  -2 185.426 4.38497   1
  -3   5  -2 189.104 4.93212   4
  -2  -3  -2 179.626 5.45954   4
   3  -5  -2 172.624 3.91961   1
  -2  -3  -2 176.216 5.19081   3
  -3   5  -2 145.914 4.41881   3
   2  -5  -2 181.242 5.49967   5
  -5   3  -2 146.801 4.14792   4
   5  -2  -2 189.615 2.84707   2
   3  -5  -2 185.182 4.72572   4
   3  -5  -2 197.131 5.64971   5
   2  -5  -2 187.482 5.04641   4
  -2   5  -2 174.602 4.67952   4
   2   3  -2 192.627 4.95280   1
   5  -2  -2 185.525 3.97486   1
   2   3  -2 145.263 3.83961   4
  -5   2  -2 171.863 4.58664   2
   3   2  -2 192.593 4.66084   2
  -2   5  -2 190.805 4.35767   1
   5  -3  -2 193.258 3.70316   1
  -5   2  -2 163.544 4.01977   1
  -5   3  -2 156.427 4.24246   2
   3   2  -2 158.628 4.42759   1
  -2   5  -2 171.283 4.62532   2
  -3   5  -2 144.815 4.53483   5
   3  -5  -2 184.984 4.34958   3
  -5   3  -2 178.896 3.90980   1
  -5   2  -2 175.039 4.60313   3
  -2   5  -2 138.932 4.30031   5
   2   3  -2 186.041 3.51814   5
  -5   3  -2 170.910 4.37653   3
   2   3  -2 179.163 4.68039   2
   3   2  -2 184.998 4.23921   3
   2  -5  -2 159.579 4.15952   2
   5  -2  -2 181.644 3.15107   5
   5  -2  -1 460.733 4.92578   5
   3   2  -1 457.492 4.56208   5
   2   3  -1 422.543 6.70502   3
  -2  -3  -1 481.367 7.94161   3
  -2   5  -1 447.275 5.86678   1
  -3   5  -1 418.184 7.30562   5
   3   2  -1 460.897 6.74591   2
  -2  -3  -1 483.792 7.70514   5
  -2  -3  -1 379.768 6.89560   2
  -2   5  -1 443.552 7.11767   4
   2  -5  -1 455.749 7.42947   4
   2  -5  -1 482.626 7.03281   3
  -2  -3  -1 431.221 7.50838   4
  -3  -2  -1 451.792 7.52153   2
   2  -5  -1 449.214 8.04540   5
   2   3  -1 446.153 5.67694   5
   5  -2  -1 480.634 5.36149   1
  -3  -2  -1 454.372 7.00925   5
   3  -5  -1 461.079 5.65907   2
  -5   2  -1 479.480 6.49490   3
   5  -3  -1 402.356 5.59373   5
  -5   3  -1 470.473 6.07341   2
  -2   5  -1 460.756 7.14676   3
   3   2  -1 473.518 6.67092   3
   2   3  -1 487.205 7.24341   2
   3  -5  -1 461.374 6.90801   4
   3   2  -1 440.968 5.95161   4
  -3   5  -1 451.656 6.93454   3
  -3  -2  -1 494.280 7.89793   4
  -5   3  -1 441.384 4.63072   1
   3  -5  -1 442.719 6.19067   3
  -3   5  -1 445.030 6.39423   2
   3  -5  -1 459.182 7.94351   5
  -5   3  -1 459.924 7.14279   5
  -2   5  -1 426.771 6.61371   2
  -2   5  -1 442.291 7.39171   5
   5  -3  -1 460.976 4.32100   1
   5  -3  -1 435.197 3.52537   4
  -3   5  -1 462.293 7.21358   4
   5  -2  -1 419.098 3.56446   2
  -5   3   0 14.3103 0.84999   3
   3   2   0 13.0127 1.16645   3
  -2  -3   0 13.8377 1.26338   2
   3  -5   0 15.6877 1.09327   2
  -3   5   0 15.2282 1.09550   2
   3  -5   0 14.1213 1.22888   4
  -3  -2   0 12.7373 1.22844   4
   2  -5   0 13.1973 1.12291   2
  -3  -2   0 9.87789 1.08679   2
  -2   5   0 10.4337 1.19987   5
   5  -3   0 13.3294 0.65977   1
   3  -5   0 12.4805 1.06867   3
   5  -3   0 11.6865 0.75452   3
  -3   5   0 17.1086 1.51678   5
  -3   5   0 13.1221 1.19539   4
   2   3   0 14.5333 1.20959   5
   5  -3   0 12.1715 0.63329   1
   5  -3   0 15.5982 0.78477   2
   3   2   0 13.9774 1.25108   2
  -5   3   0 11.3545 0.83966   4
  -2  -3   0 13.6404 1.26792   3
   3   2   0 11.2325 1.16293   4
   5  -2   0 10.9043 0.75923   3
   5  -2   0 15.3633 0.90827   4
   2  -5   0 11.3851 0.92647   1
   5  -2   0 13.9611 0.91395   1
  -3  -2   0 14.5921 1.07304   5
   5  -2   0 15.4229 0.93415   3
   5  -3   0 13.0545 1.11111   5
   5  -2   0 12.2223 0.94313   5
  -5   2   0 13.6416 1.00088   5
  -3  -2   0 17.0369 1.35863   3
  -2  -3   0 10.0703 1.06522   5
   3   2   0 10.0179 1.01771   1
   2  -5   0 12.0252 1.14537   3
  -3   5   0 14.7454 1.16500   3
  -3  -2   0 14.8755 1.31588   1
   2   3   0 11.9289 1.21364   3
   3  -5   0 12.3004 1.29482   5
   5  -3   0 14.7508 0.92657   4
   5  -2   0 14.5940 0.86787   2
   2  -5   0 13.5227 1.23633   4
  -2   5   0 14.2525 1.04054   1
   2   3   0 17.7396 1.42339   1
  -5   3   0 13.9651 1.15365   5
   2   3   0 13.1156 1.25503   4
  -3   5   0 11.0653 0.79296   1
   2   3   0 16.2600 1.39876   2
   2  -5   0 10.3093 1.23895   5
   5  -2   0 11.8531 0.86375   4
   5  -2   0 14.1890 0.86944   2
   5  -3   0 13.4785 0.68119   2
  -2   5   0 10.9479 1.17099   4
  -2   5   0 14.1384 1.22517   3
  -2   5   0 13.1902 1.12022   2
  -2  -3   0 12.3051 1.17795   1
   3   2   0 13.7684 1.08894   5
   3  -5   0 15.0833 0.86346   1
  -2  -3   0 14.3884 1.34307   4
   3  -5   1 384.759 6.59957   4
   3  -5   1 413.416 7.29079   5
  -3   5   1 433.963 4.97448   1
  -2   5   1 445.087 6.33906   2
  -2   5   1 459.319 7.20282   4
   3   2   1 467.335 7.76212   4
  -5   3   1 455.904 5.79182   5
   3  -5   1 429.572 6.66856   3
  -5   3   1 457.697 3.54757   4
  -3   5   1 441.101 5.09605   1
   2   3   1 451.376 7.15141   1
   3  -5   1 480.714 5.33583   1
   3   2   1 391.360 6.55283   1
   2  -5   1 465.510 7.76200   5
   2   3   1 467.029 7.74775   5
  -5   2   1 460.136 3.98859   2
  -2  -3   1 467.450 7.08859   3
  -3  -2   1 480.576 7.21211   1
   5  -2   1 428.447 5.33687   1
   5  -2   1 444.332 6.73197   5
   5  -3   1 460.490 6.35527   4
  -2  -3   1 430.082 6.76371   4
  -2  -3   1 417.544 6.74713   1
   3   2   1 466.170 7.35117   5
   3   2   1 403.928 6.97870   3
  -3   5   1 446.604 5.61820   2
   3  -5   1 427.955 6.26140   2
  -5   3   1 452.493 4.35368   1
  -2   5   1 474.538 8.20324   5
   5  -2   1 440.784 5.61017   1
  -3  -2   1 456.364 4.79018   5
  -3   5   1 467.657 6.33999   3
   2   3   1 414.954 7.25475   3
   5  -2   1 392.491 6.51328   5
  -2   5   1 464.428 6.04729   1
  -2  -3   1 405.877 5.99153   5
  -3   5   1 465.001 6.83465   4
  -2  -3   1 417.590 6.90471   2
   5  -3   1 401.506 5.72068   3
   5  -3   1 471.982 5.75837   2
   2  -5   1 442.028 7.11474   4
   2  -5   1 472.742 6.93023   2
   5  -3   1 470.227 7.17196   5
   3   2   1 454.994 7.03153   1
  -2   5   1 438.594 5.70826   1
   2   3   1 407.030 7.50839   4
   5  -2   1 481.550 6.30746   4
   3   2   1 363.505 6.53501   2
   5  -3   1 434.223 4.84151   1
  -5   2   1 463.707 5.31894   1
  -5   2   1 470.375 4.79554   5
  -3  -2   1 412.365 6.30144   3
  -3   5   1 380.413 7.23494   5
   5  -2   1 402.629 5.69283   3
   2  -5   1 470.507 6.02915   1
   2   3   1 462.350 7.13589   1
   5  -3   2 187.242 4.01816   1
   3   2   2 148.405 4.65837   5
   5  -3   2 192.007 4.81951   4
  -3   5   2 188.284 5.45199   5
  -2   5   2 154.356 3.92345   1
  -5   2   2 167.309 2.73012   2
   5  -3   2 177.234 5.01616   5
  -3   5   2 177.360 3.82257   2
   3   2   2 182.998 5.14941   2
   3   2   2 160.689 4.50808   1
   2   3   2 211.016 5.70576   5
  -2  -3   2 187.013 4.87921   1
  -3  -2   2 183.049 3.97686   4
  -3   5   2 188.451 3.92147   2
  -2  -3   2 178.200 4.54139   3
   3   2   2 138.954 4.62354   3
  -3   5   2 155.616 3.72614   1
   5  -2   2 179.345 5.24334   5
   2   3   2 198.715 5.42790   3
  -3   5   2 181.419 4.15049   3
   2   3   2 156.327 4.57599   1
  -2   5   2 145.111 4.91803   5
   5  -2   2 192.384 4.73435   4
  -2  -3   2 146.430 3.37241   5
   3  -5   2 206.929 5.32941   4
  -3   5   2 200.316 4.75341   4
   2  -5   2 175.516 4.81120   3
  -3  -2   2 184.537 4.35188   3
   2  -5   2 176.767 4.95958   5
  -5   2   2 179.048 2.89400   5
  -5   3   2 168.176 3.67822   5
   2   3   2 178.605 5.10302   2
   2   3   2 165.550 4.57883   1
   3  -5   2 195.407 5.34101   5
   3   2   2 175.885 4.90773   2
   2  -5   2 149.979 4.52915   4
  -5   2   2 177.651 3.92853   1
   5  -2   2 199.344 5.24491   5
  -3  -2   2 162.298 4.31257   2
   5  -3   2 179.236 4.37082   2
   3  -5   2 173.683 4.75031   3
  -2  -3   2 180.420 4.31640   4
   2   3   2 183.592 5.44852   4
   2  -5   2 190.095 4.34372   1
  -2   5   2 158.871 4.60740   4
  -2   5   2 188.475 4.64929   3
  -3  -2   2 204.259 5.08589   1
  -5   3   2 167.624 1.84976   2
  -5   3   2 159.636 3.37527   1
   5  -2   2 182.433 4.58219   2
   5  -2   2 178.015 4.32581   1
   2  -5   2 185.058 4.84802   2
  -2   5   2 182.036 4.35155   2
   3  -5   2 179.503 4.64420   2
   3  -5   2 185.584 4.03708   1
  -3  -2   2 187.357 2.86030   5
   5  -2   2 165.704 4.34795   3
   5  -3   2 193.990 4.64203   3
   3   2   2 172.002 5.09667   4
  -2  -3   2 152.458 4.34892   2
  -3  -2   3 44.7505 1.67682   5
  -2  -3   3 31.4110 2.23500   1
   5  -2   3 36.5204 2.39868   4
  -5   3   3 40.3108 1.21083   3
  -3   5   3 35.1345 2.05534   3
   3  -5   3 37.6317 2.14504   1
  -3   5   3 38.7424 2.05445   2
  -3  -2   3 40.4903 1.99822   4
   2  -5   3 37.5766 2.51271   3
   2   3   3 44.7205 2.70690   1
   5  -3   3 39.3023 2.19210   1
   2   3   3 35.2648 2.52718   2
   2   3   3 39.5411 2.75607   5
   3  -5   3 32.2199 2.37188   4
   5  -3   3 32.6021 2.19999   2
   2   3   3 39.0043 2.67466   4
   3   2   3 43.0504 2.81761   4
   2  -5   3 39.3793 2.52209   2
   3   2   3 41.6940 2.80730   3
   5  -3   3 37.4414 2.63328   5
   2   3   3 31.4284 2.30214   2
   2  -5   3 39.3803 2.26116   1
  -5   3   3 34.3181 1.93109   5
   2   3   3 32.5101 2.46634   3
  -2  -3   3 39.4483 1.88922   5
   5  -3   3 38.6931 2.73870   5
  -2  -3   3 25.1099 2.03379   3
  -2   5   3 39.7182 2.51626   4
   3  -5   3 33.2826 2.47206   5
   3   2   3 40.0452 2.73195   5
  -2  -3   3 36.0960 2.32217   2
  -5   2   3 38.0239 2.13433   1
  -5   3   3 35.8995 1.11041   4
  -5   3   3 38.3798 1.18967   4
  -2  -3   3 42.8870 2.29567   4
   5  -3   3 39.0902 2.50438   4
   3  -5   3 40.7797 2.58047   2
   5  -2   3 39.6027 2.74632   5
   5  -2   3 41.2638 2.71843   5
   3   2   3 38.9008 2.58920   3
  -5   3   3 44.2349 2.29309   1
   2  -5   3 45.5779 2.70174   4
   5  -2   3 38.8357 2.49719   2
  -3  -2   3 39.9575 2.22018   3
   3  -5   3 37.3569 2.47956   3
   3   2   3 32.6444 2.38645   2
   3   2   3 44.0488 2.71474   1
  -3   5   3 38.1342 2.05948   2
  -3   5   3 36.5607 2.59320   5
   5  -2   3 35.3603 2.26016   1
  -2   5   3 37.9575 2.24487   2
   3   2   3 24.3731 2.30331   2
  -3   5   3 39.1566 2.32741   4
  -2   5   3 37.1870 2.26188   2
  -5   3   3 38.6366 1.19662   3
  -2   5   3 42.2228 2.89488   5
  -2   5   3 40.7513 2.41392   3
   2  -5   3 45.6452 2.77357   5
  -5   3   3 37.6303 1.50448   2
  -2   5   3 30.7218 2.06306   1
   5  -2   3 37.2340 2.57100   4
   2   3   3 39.2128 2.65457   3
  -5   2   3 39.7333 1.72299   2
  -3  -2   3 28.2847 2.09492   1
  -3  -2   3 35.9116 1.47915   5
  -5   2   3 40.8317 1.74221   5
  -3   5   3 34.3840 2.05523   1
  -3  -2   3 38.3907 2.30649   2
  -5   2   3 38.4886 1.30443   3
   5  -2   3 42.6567 2.56569   3
   5  -3   3 37.8065 2.39502   3
   5  -2   4 92.1178 4.03889   1
  -2   5   4 106.300 4.12276   3
  -2   5   4 82.2965 3.61389   2
   3   2   4 77.4500 4.10888   4
   3  -5   4 69.3813 3.95933   4
   2   3   4 97.0143 4.47333   2
   3   2   4 100.433 4.60086   3
  -3  -2   4 90.2506 3.63277   3
   2  -5   4 86.6826 4.13334   3
  -2  -3   4 81.1840 3.06007   5
   5  -2   4 95.1003 4.57318   5
   2   3   4 87.5895 4.31581   4
  -5   3   4 89.4460 2.56891   3
   2   3   4 84.3292 4.48507   5
  -3  -2   4 81.3689 3.74198   2
   3   2   4 98.1798 4.49829   2
   2   3   4 89.7085 4.24869   2
  -2  -3   4 97.1634 3.78835   4
  -3   5   4 91.2398 4.48231   5
  -5   2   4 92.2712 3.20987   5
   5  -2   4 85.4982 4.41063   5
   3   2   4 88.1425 4.34803   2
  -3  -2   4 97.1794 3.00809   5
  -3  -2   4 104.841 4.32485   1
   3   2   4 97.8394 4.80510   5
  -5   2   4 84.3578 2.21070   4
   3   2   4 103.453 4.59380   1
   5  -3   4 90.1328 4.26844   4
   5  -3   4 75.9018 3.94581   3
   5  -2   4 91.2594 4.21795   2
  -5   2   4 85.7385 2.16575   4
  -3  -2   4 93.6368 2.90402   5
   2  -5   4 65.8591 3.35963   1
  -3   5   4 98.1522 3.77830   2
   3  -5   4 83.1208 4.11216   3
  -2   5   4 86.7716 3.73862   2
   5  -2   4 93.7119 4.47858   4
  -3   5   4 76.2091 3.33654   2
   3   2   4 86.9596 4.21803   4
  -2  -3   4 90.5852 4.08597   1
  -5   2   4 94.4827 2.69632   3
  -5   3   4 90.0773 3.75614   1
   2  -5   4 90.3159 4.20613   2
   5  -2   4 89.0564 4.18241   4
  -3  -2   4 93.9967 3.40696   4
   3   2   4 96.8917 4.46096   3
  -2   5   4 96.0820 3.93220   3
   5  -3   4 81.6025 4.00166   2
   5  -3   4 104.917 4.84053   5
   3  -5   4 70.1555 3.44604   1
   5  -2   4 86.3368 4.07816   3
   5  -3   4 89.5823 3.80432   1
  -2   5   4 92.4727 4.20476   4
   2  -5   4 81.0162 3.95795   4
  -3   5   4 87.8597 3.86741   4
  -2  -3   4 97.6858 3.45787   5
  -5   3   4 98.2927 2.53965   4
  -2   5   4 99.1809 4.76393   5
  -3   5   4 88.8733 3.50881   3
   2   3   4 74.2793 3.89820   1
   2   3   4 88.2385 4.30713   3
   2   3   4 69.9223 3.81308   3
  -5   3   4 87.9052 2.55359   3
  -2  -3   4 93.7865 3.91226   3
   5  -3   4 102.392 4.97860   5
   3  -5   4 92.0804 4.18669   2
  -5   3   4 86.9518 2.51594   4
  -3   5   4 97.6584 3.70225   3
  -3   5   4 97.2507 3.93624   1
   2  -5   4 88.2732 4.18299   5
  -5   3   4 96.4907 3.09985   2
  -5   2   4 69.9278 2.88388   2
   3  -5   4 96.3384 4.47783   5
  -5   2   4 79.2705 3.57598   1
  -2  -3   4 91.9837 4.07521   2
  -2   5   4 89.9060 3.97391   1
  -5   3   4 98.5758 3.65424   5
  -2   5   5 105.970 5.49938   5
  -5   3   5 98.3732 4.55336   1
  -5   3   5 124.492 3.56785   4
  -2  -3   5 113.069 4.23139   5
  -5   2   5 124.319 3.47517   4
  -5   3   5 121.561 3.69637   3
   5  -2   5 115.060 5.09184   1
   3   2   5 128.729 5.64095   3
  -3  -2   5 122.466 4.76180   3
  -3   5   5 118.826 4.52610   3
  -3   5   5 109.876 4.39913   4
  -3  -2   5 114.801 3.82233   5
  -3   5   5 130.218 5.81845   5
  -2   5   5 104.166 4.77675   4
   3   2   5 116.320 5.43737   4
   5  -2   5 125.075 5.53962   2
   3  -5   5 99.3445 5.01795   5
   2  -5   5 98.4125 4.87792   5
  -3   5   5 135.476 5.03537   2
  -3   5   5 119.585 4.69980   2
   5  -3   5 106.576 5.06591   4
  -2  -3   5 131.640 4.86801   4
   5  -3   5 141.089 6.28200   5
   3   2   5 136.926 6.29091   5
   2   3   5 132.517 6.10554   5
   2   3   5 90.7172 5.14421   3
   2  -5   5 112.183 4.91671   1
  -2   5   5 130.937 5.06035   3
   3   2   5 139.458 5.88030   1
  -5   2   5 105.181 4.65539   1
   2   3   5 133.878 5.63114   1
  -3   5   5 116.061 4.84744   4
   3  -5   5 107.271 4.99171   1
   3  -5   5 132.000 5.71476   5
  -3  -2   5 135.437 4.32004   5
   3   2   5 119.601 5.69024   2
  -5   2   5 121.183 4.29843   2
  -5   3   5 123.969 3.65871   4
   5  -2   5 110.127 5.51414   5
  -5   2   5 115.966 3.23420   4
  -5   3   5 108.220 4.41853   5
   3  -5   5 104.667 4.96926   4
  -2   5   5 112.696 4.73443   2
   5  -3   5 124.456 5.12776   1
   2  -5   5 112.146 5.21438   4
  -3   5   5 115.532 4.48110   3
  -3  -2   5 128.426 4.47401   4
  -2   5   5 101.568 4.41459   3
  -2   5   5 121.491 4.93297   2
   2   3   5 130.838 5.59327   2
   3  -5   5 120.114 5.31554   2
   5  -2   5 139.676 6.12457   4
  -5   3   5 116.202 4.22383   2
  -3  -2   5 111.246 5.12179   1
   5  -3   5 106.209 5.09286   2
   2  -5   5 127.478 5.43852   5
   5  -2   5 133.475 6.12843   5
  -5   2   5 106.914 3.64723   3
  -3  -2   5 119.905 5.12121   2
   3  -5   5 125.801 5.50384   3
  -2   5   5 111.222 4.87043   1
   2   3   5 114.710 5.31198   2
   5  -2   5 130.859 5.60751   4
  -5   3   5 121.903 3.70921   3
   3   2   5 128.615 5.72469   4
   5  -2   5 123.086 5.46277   3
   2  -5   5 134.110 5.61632   2
   2   3   5 128.734 5.57166   4
   2   3   5 127.144 5.74686   4
  -2  -3   5 134.784 5.63445   1
  -3   5   5 120.142 4.87453   1
  -2  -3   5 145.706 5.67519   2
   2   3   5 116.642 5.24379   3
   3   2   5 103.132 5.01783   3
   2  -5   5 99.0529 4.92603   3
  -2  -3   5 121.044 4.41843   5
   5  -3   5 124.856 5.80568   5
   3   2   5 113.978 5.47274   2
  -5   2   5 112.016 4.08352   5
  -2  -3   5 103.617 4.60592   3
   5  -3   5 103.066 5.39972   3
   2   3   6 16.2236 2.38556   1
   5  -2   6 9.96363 2.01929   4
  -2  -3   6 8.26456 1.85482   2
   5  -2   6 12.7264 2.48023   5
   5  -3   6 12.6954 2.43221   5
  -5   3   6 8.66721 1.42524   3
  -3  -2   6 9.26013 1.44238   5
   3  -5   6 13.4841 2.18810   3
   5  -3   6 8.51132 2.01659   3
   2  -5   6 14.2872 2.28487   3
  -3   5   6 7.41066 1.47296   3
  -5   2   6 7.74046 1.50019   2
  -2   5   6 10.8065 1.88883   1
  -5   3   6 13.2010 1.83274   2
   5  -3   6 4.80834 1.79894   5
  -2  -3   6 9.11316 1.98440   1
   2  -5   6 12.5284 2.09193   5
   3   2   6 9.41978 2.14038   3
  -3   5   6 12.3783 2.28547   5
  -5   3   6 11.9933 1.46989   4
  -5   3   6 13.4494 2.14517   1
  -5   3   6 11.6833 1.83952   5
   5  -2   6 13.2124 2.33552   2
  -2   5   6 8.50024 1.71673   3
   5  -3   6 8.06876 2.17051   4
   3  -5   6 13.4300 2.25866   5
  -2  -3   6 13.4420 1.98463   4
  -2   5   6 14.0107 2.03694   4
   2  -5   6 6.30634 1.75632   5
  -2  -3   6 10.3492 1.68569   5
  -3   5   6 13.1491 1.97348   2
  -2   5   6 17.5525 2.84621   5
  -2  -3   6 8.03098 1.45056   5
   3  -5   6 7.99024 1.84280   4
  -2   5   6 11.9050 1.95191   3
   2   3   6 6.13146 1.90014   3
   2   3   6 15.4713 2.47406   2
   5  -2   6 9.97771 1.95168   1
   3  -5   6 8.94517 1.97959   5
  -5   3   6 10.3648 1.44437   3
  -3   5   6 10.9851 1.78850   2
   3   2   6 8.98743 1.93819   1
   5  -3   6 7.58976 1.77665   1
   5  -2   6 12.3036 2.19263   5
  -5   2   6 10.7106 1.49068   3
   2   3   6 8.01392 1.85798   4
   3   2   6 7.04891 1.90267   4
  -3  -2   6 11.3909 2.01673   2
  -3   5   6 8.29563 1.77269   1
   2  -5   6 10.7347 1.90859   1
  -5   2   6 10.0748 1.39852   3
   3   2   6 8.26883 1.88714   2
  -5   3   6 10.2282 1.34441   4
   5  -2   6 12.2515 2.27530   4
  -3  -2   6 7.81020 1.55372   4
  -5   2   6 11.3389 1.36407   4
   2   3   6 13.8991 2.62405   5
  -5   2   6 7.91296 1.44399   5
  -5   2   6 11.4949 2.10337   1
  -2  -3   6 11.7801 1.97004   3
  -2   5   6 8.04526 1.71027   2
  -2   5   6 13.0254 2.06945   4
   2   3   6 8.27867 1.81883   2
   3   2   6 6.95393 2.07911   5
   3   2   6 10.3096 2.04348   3
  -5   2   6 10.7525 1.38741   4
  -3   5   6 9.47230 1.62583   3
   2   3   6 10.2436 2.09222   3
  -3   5   6 8.47397 1.78032   4
   3  -5   6 12.4462 2.28672   2
   3  -5   6 5.48757 1.72020   1
  -3  -2   6 11.6547 2.01006   3
   2   3   6 9.14879 2.03285   4
   2  -5   6 7.61989 1.92932   4
   5  -3   6 9.21105 1.96921   2
   5  -3   6 8.55717 2.10789   4
   3   2   6 13.6277 2.26355   2
  -2   5   6 10.9280 1.89128   2
   3   2   6 12.8402 2.26559   4
  -3  -2   6 8.80719 1.48003   5
   2  -5   6 8.60106 1.86619   2
  -3  -2   6 11.3023 2.09124   1
   5  -2   6 16.0347 2.40049   3
  -3   5   6 11.5763 1.82337   4
  -3  -2   7 10.9073 1.97537   5
   5  -3   7 11.2350 2.41068   1
   2   3   7 4.29514 1.98574   1
   2   3   7 7.16763 2.05474   4
  -2   5   7 10.4059 2.30097   2
   2   3   7 6.19083 2.34459   3
   2  -5   7 8.24434 2.26198   3
   5  -3   7 10.3329 2.30671   3
  -3   5   7 8.20419 2.14118   1
  -2   5   7 13.6580 2.41401   3
   3   2   7 12.2559 2.59223   3
  -3  -2   7 8.96913 2.16704   2
  -3  -2   7 8.11591 1.75429   4
   3  -5   7 7.99376 2.15305   3
   3   2   7 10.2146 2.72072   2
  -2  -3   7 11.6266 2.38407   3
   5  -2   7 11.5769 2.74183   5
  -5   2   7 14.7496 2.17372   2
  -3   5   7 8.09536 1.91225   4
   5  -2   7 10.5908 2.88319   4
   5  -3   7 11.4151 2.71778   4
   3  -5   7 12.4266 2.47176   5
  -3   5   7 13.5392 2.30477   2
  -5   3   7 12.4425 2.18887   5
  -3   5   7 6.37425 1.96889   3
  -3  -2   7 9.82482 1.85907   5
  -2   5   7 5.61327 2.20526   5
  -2   5   7 9.89357 2.35627   1
  -5   2   7 10.9975 1.79815   3
  -5   2   7 9.46180 2.23433   1
   5  -3   7 9.20277 2.43628   5
   3  -5   7 8.46797 2.40609   5
   3   2   7 10.5908 2.72887   5
   3   2   7 5.27832 2.16270   2
  -2   5   7 9.44396 2.07475   3
   2  -5   7 12.3155 2.54606   5
   2  -5   7 7.14233 2.21427   1
  -5   3   7 12.8484 1.94396   3
   5  -3   7 10.1374 2.51634   2
  -5   2   7 6.60631 1.66517   3
  -2   5   7 8.45368 1.95110   4
  -5   2   7 12.5018 2.10674   5
   5  -3   7 6.34782 2.32925   5
  -3  -2   7 4.22775 1.79327   3
   3  -5   7 8.98339 2.38768   1
   2  -5   7 8.08275 2.29419   5
  -5   2   7 10.9094 1.61558   4
  -5   3   7 10.7252 2.65161   1
  -5   3   7 9.54211 1.63969   4
   2  -5   7 18.1592 2.92816   2
   2  -5   7 6.85698 2.07198   4
  -2  -3   7 12.3730 2.20490   4
   3  -5   7 7.81960 2.28832   4
  -2  -3   7 7.71727 1.82454   5
   2   3   7 10.1304 2.37995   2
   3   2   7 4.31756 2.19074   4
   5  -2   7 5.05018 2.62553   3
  -2  -3   7 17.5813 2.91014   1
   2   3   7 8.58742 2.19161   3
  -2  -3   7 5.57471 2.14608   2
   2   3   7 12.7777 2.59480   2
  -5   2   7 11.0219 1.80660   4
  -3  -2   7 9.12810 2.33501   1
   3  -5   7 12.7397 2.53755   2
  -3   5   7 8.95821 1.97503   2
   5  -2   7 10.0030 2.47345   1
   5  -2   7 8.57479 2.46597   4
  -3   5   7 10.6245 2.26884   4
  -2   5   7 13.2751 2.37924   4
   5  -2   7 9.71164 2.39802   2
  -2  -3   7 12.1508 2.16850   5
   2   3   7 9.89709 2.32258   4
  -5   3   7 8.46274 1.88132   3
  -3   5   7 14.6014 3.02660   5
   5  -2   7 6.40636 2.41522   5
  -5   3   7 10.7780 1.76709   4
  -2   5   7 9.53966 2.19466   2
   3   2   7 14.2700 2.83939   4
   3   2   7 5.17440 2.17025   3
  -5   2   7 8.30746 1.73251   5
  -5   3   7 11.1870 2.06465   2
  -3   5   7 10.3711 2.25605   3
   2   3   7 7.08914 2.30517   5
   3   2   7 7.17442 1.99787   1
   5  -3   7 7.13166 2.33857   4
   5  -3   8 33.5191 4.32005   3
   3   2   8 20.4746 3.63083   3
  -5   3   8 25.7601 2.71243   4
  -2  -3   8 25.4508 3.27827   5
   3  -5   8 24.4126 3.91329   3
  -5   3   8 17.9297 3.37067   1
  -5   2   8 19.5375 2.82285   5
   5  -2   8 14.5350 3.65226   3
   2   3   8 31.2147 4.29465   3
   5  -3   8 16.5240 4.21543   5
  -2  -3   8 30.3349 3.52117   5
   3   2   8 26.8363 3.78200   1
   3   2   8 13.9522 3.40243   3
   5  -2   8 20.8302 3.46359   1
  -5   2   8 26.6525 3.24522   2
   2  -5   8 15.8462 3.38200   5
   2   3   8 21.5492 3.89170   2
   5  -3   8 14.9134 3.69107   4
  -5   2   8 24.9853 3.14745   5
   5  -2   8 25.1227 4.08585   5
   2   3   8 19.3251 3.60517   1
  -5   3   8 23.5806 2.83035   3
  -5   3   8 26.1403 3.35284   5
  -3  -2   8 21.7307 3.06313   5
   2   3   8 21.9535 3.62482   2
  -3  -2   8 20.5802 3.44737   1
  -5   2   8 22.2263 2.80253   3
   2   3   8 18.5395 3.92890   4
   2  -5   8 20.4232 3.72329   3
  -2   5   8 13.9477 3.91009   5
   3  -5   8 23.3654 3.69687   4
  -5   2   8 22.1545 2.82849   3
   3   2   8 21.6421 3.75061   2
   3   2   8 29.8540 4.58344   5
   5  -3   8 24.0565 3.95919   4
  -3   5   8 27.6180 4.16326   5
   2   3   8 30.1200 4.65923   5
   2  -5   8 19.0273 3.61837   4
  -3   5   8 27.7215 3.70553   1
   3   2   8 21.0579 3.66465   2
   5  -2   8 24.1298 4.04244   4
   5  -3   8 18.6324 3.54344   2
  -5   3   8 21.1548 2.73158   3
  -2   5   8 22.3127 3.51068   1
  -2   5   8 15.1015 2.86357   3
  -3   5   8 19.1958 2.88042   3
   5  -2   8 21.1389 3.84095   2
   3  -5   8 25.5618 3.71812   5
   2   3   8 25.8686 3.85231   4
   3   2   8 26.9236 3.75572   4
  -3   5   8 22.7048 3.02476   4
  -5   2   8 25.5506 2.62803   4
  -3  -2   8 21.2304 2.90275   4
  -2   5   8 18.5312 3.40614   4
  -2   5   8 18.2980 3.03112   4
   3   2   8 17.2076 3.98684   4
   5  -2   8 32.5608 4.30142   3
  -5   2   8 26.8798 2.82478   4
  -3   5   8 25.7921 3.43882   2
   3  -5   8 19.3355 3.80279   2
   5  -2   8 22.5009 4.08869   5
  -3  -2   8 18.8268 2.94085   5
   3  -5   8 18.9539 3.78803   1
   2  -5   8 22.1165 3.45927   1
  -2  -3   8 14.8491 3.10741   3
   2   3   8 31.3715 4.04528   3
   5  -2   8 28.7512 4.04197   4
   5  -3   8 26.6790 3.81505   1
  -5   3   8 22.8455 2.73094   4
  -5   3   8 15.9445 3.05216   2
  -3  -2   8 17.5631 3.04270   3
  -2   5   8 28.5663 3.72509   2
  -2  -3   8 24.4426 3.33305   4
  -5   3   8 25.7487 3.19290   5
  -5   2   8 21.3522 3.44855   1
   3  -5   8 12.7809 3.43374   5
   2  -5   8 25.7410 4.10960   2
  -3   5   8 20.0209 3.26188   2
  -2  -3   8 26.8052 3.25946   4
  -3   5   8 18.4213 3.18023   4
  -2   5   8 24.2905 3.48908   2
  -3  -2   8 23.9705 3.07390   4
   3   2   8 22.7222 4.31279   5
  -2   5   8 24.3584 3.50101   3
  -3   5   8 27.9226 3.49140   3
   5  -3   8 18.1764 4.12462   5
  -2  -3   8 21.6157 3.50851   2
  -2  -3   8 18.0222 3.32838   1
   2  -5   8 16.5169 3.41610   5
   4   1  -8 0.41725 2.46453   1
   5  -1  -8 1.34203 2.20145   1
   1   4  -8 1.37197 2.36057   2
   1   4  -8 5.05661 2.07638   4
   1   4  -8 0.29560 2.04614   1
  -1   5  -8-0.63355 2.49927   2
   4  -5  -8 0.16956 2.45355   5
   4   1  -8-0.42718 2.01477   2
  -5   4  -8 5.08236 2.88638   1
  -5   1  -8 1.07790 2.56829   1
  -1   5  -8 1.06806 2.07074   4
  -5   1  -8 0.96953 2.67266   2
   1  -5  -8-0.15048 2.77182   5
  -4   5  -8-0.24771 2.29235   1
  -1  -4  -8 3.30488 3.15645   5
  -4  -1  -8 2.87050 2.53453   1
   1  -5  -8 0.76984 2.39372   1
   5  -1  -8 4.11480 2.19199   2
  -4   5  -8 0.95276 2.15163   2
  -1   5  -8 1.87537 2.33431   1
  -5   4  -8-0.08735 2.36530   2
   4   1  -8 1.37050 1.91511   3
  -1  -4  -8 0.29397 2.63761   1
  -5   4  -8 5.20307 2.65829   3
   4  -5  -8 1.54473 2.15771   1
   5  -4  -8 0.86299 2.09362   5
  -4   5  -8 2.55344 2.75326   3
   5  -4  -8 7.21906 2.78341   1
   1   4  -8 1.56983 2.24895   3
  -1   5  -8-0.34746 1.98851   3
   1   4  -7 15.8592 2.70847   1
   1   4  -7 16.5829 2.73804   2
  -5   1  -7 22.3552 3.29738   2
   5  -4  -7 16.1102 2.69879   5
   4   1  -7 19.4647 2.78340   2
  -1   5  -7 17.2247 2.84394   1
  -4   5  -7 20.8889 3.13866   4
   1  -5  -7 19.9169 2.97347   1
  -1  -4  -7 26.2501 3.88520   5
  -4   5  -7 14.7035 2.98491   2
   1  -5  -7 26.8208 3.62782   5
  -1   5  -7 20.3696 2.84537   4
   1   4  -7 21.5276 2.63202   4
  -5   1  -7 21.5724 3.16380   1
   5  -4  -7 21.7799 2.59060   2
  -1  -4  -7 28.0154 3.40874   1
  -5   4  -7 21.7836 3.18212   2
   5  -1  -7 19.8496 2.60380   2
  -1   5  -7 20.6291 3.26809   2
   4  -5  -7 27.9090 3.54442   5
   4  -5  -7 29.0146 3.28107   1
  -5   4  -7 24.8476 3.33577   3
  -4  -1  -7 20.2197 3.23596   1
   5  -1  -7 13.7823 2.72074   1
   5  -4  -7 24.7995 3.30068   1
   5  -1  -7 24.3478 2.44597   3
   4   1  -7 18.1091 2.28147   3
  -4   5  -7 22.5696 3.24574   3
  -5   4  -7 24.0721 3.13646   1
  -1   5  -7 19.9104 2.97726   3
   1   4  -7 23.6335 3.25161   3
  -4   5  -7 19.4283 2.95320   1
   4   1  -7 24.5485 3.23626   1
   5  -1  -6 17.8168 2.06338   2
  -1   5  -6 24.1087 2.75314   2
   4  -5  -6 22.1847 2.86942   5
  -5   4  -6 20.7686 2.61812   4
  -1   5  -6 19.5352 2.55705   3
  -5   4  -6 26.5184 2.86507   1
  -5   1  -6 21.4734 2.81824   2
   5  -4  -6 26.1779 2.32788   2
   1   4  -6 22.4267 2.48149   4
  -1  -4  -6 20.8943 3.04799   5
   4   1  -6 25.9652 2.79234   1
  -4   5  -6 16.9171 2.37263   4
  -4  -1  -6 20.0806 2.75914   5
   1  -5  -6 12.8375 2.66068   5
  -5   4  -6 24.4371 2.85451   2
   4   1  -6 20.4954 2.38521   2
   5  -4  -6 17.6126 2.38492   1
  -1  -4  -6 26.1490 3.01259   1
  -4   5  -6 18.6914 2.60964   2
   5  -4  -6 14.3359 2.13588   5
  -5   1  -6 20.1939 2.62741   1
   1   4  -6 14.6176 2.55072   2
   4  -5  -6 18.6305 2.38763   1
  -1   5  -6 23.5653 2.74300   1
  -1   5  -6 21.5182 2.54508   4
   1   4  -6 23.9833 2.62824   3
   1  -5  -6 21.5162 2.60947   1
   1   4  -6 22.9560 2.72893   1
  -4   5  -6 22.4576 2.61571   1
  -4  -1  -6 25.0920 3.00488   1
   5  -1  -6 22.8723 2.08779   3
  -5   4  -6 21.8710 2.69966   3
   4   1  -6 22.1876 2.19525   3
  -4   5  -6 21.2096 2.68331   3
   5  -1  -6 16.8743 2.31776   1
   5  -1  -5 6.20935 1.31649   1
   4   1  -5 5.21027 0.96381   4
   5  -4  -5 6.10806 1.32423   1
  -5   1  -5 6.56350 1.66976   2
  -1  -4  -5 2.90453 1.52445   5
  -4  -1  -5 4.15647 1.38086   5
  -1   5  -5 2.47868 1.06585   1
  -1   5  -5 5.49729 1.37601   2
   5  -4  -5 4.28683 0.93777   2
  -4   5  -5 7.32545 1.51447   4
   5  -1  -5 5.61095 1.15455   2
  -1   5  -5 7.65882 1.48238   3
  -4   5  -5 4.25007 1.25854   1
   4   1  -5 2.57727 1.10096   1
  -5   4  -5 2.76447 1.31296   1
  -4   5  -5 5.63772 1.44788   3
   1  -5  -5 4.19714 1.56504   5
   1   4  -5 7.36699 1.41192   4
   1   4  -5 5.08760 1.33639   3
  -1   5  -5 9.19408 1.66204   4
  -1  -4  -5 5.18296 1.36473   1
   4  -5  -5 3.94854 1.34964   5
   5  -4  -5 4.99743 1.29588   5
  -5   4  -5 7.89788 1.66597   3
  -5   4  -5 4.77157 1.35192   2
  -4   5  -5 4.59528 1.29746   2
  -5   4  -5 5.61793 1.43544   4
  -4  -1  -5 5.39366 1.39702   1
  -5   1  -5 4.20180 1.31289   1
   1   4  -5 4.44996 1.53494   2
   1   4  -5 3.53918 1.13657   1
   4   1  -5 6.40609 1.28155   2
   5  -1  -5 5.96135 1.01524   3
   1  -5  -5 5.50644 1.48386   4
   4  -5  -5 3.21013 1.17122   1
   1  -5  -5 4.82224 1.32751   1
   4   1  -5 6.69458 1.15349   3
   5  -4  -4 23.4148 1.53221   2
  -1   5  -4 26.6206 2.38943   2
   1  -5  -4 21.1624 2.08786   1
  -4  -1  -4 19.1519 2.18821   5
   1  -5  -4 18.4200 2.06822   4
   1  -5  -4 19.8887 2.35682   5
  -5   4  -4 22.5272 2.09549   1
  -4   5  -4 23.4659 2.24281   2
   4   1  -4 17.1749 1.70902   2
  -1   5  -4 21.9891 2.05830   1
  -1  -4  -4 19.7689 2.31560   5
   4   1  -4 16.8513 1.30027   4
   1   4  -4 22.7375 2.08507   3
  -5   4  -4 25.0775 2.26929   2
   5  -4  -4 22.3476 1.99850   5
   5  -1  -4 20.3178 1.90202   1
   1   4  -4 22.0431 2.12639   2
  -5   1  -4 23.5025 2.32065   2
  -5   4  -4 18.8874 1.95442   3
  -1   5  -4 22.5628 1.97410   5
  -1   5  -4 20.2005 2.01902   4
  -1  -4  -4 18.9298 2.14416   1
  -4  -1  -4 18.3782 2.01078   1
   4   1  -4 15.4085 1.73711   1
   1   4  -4 20.9220 1.88498   4
   5  -1  -4 20.0085 1.64304   2
  -5   1  -4 26.5443 2.30567   1
  -5   4  -4 17.8874 1.97597   4
   4  -5  -4 17.9386 1.72493   1
   4  -5  -4 20.2451 2.12611   5
   1   4  -4 22.2935 2.11893   1
  -4   5  -4 21.6206 2.12714   4
   5  -4  -4 19.6851 1.76671   1
  -1  -4  -4 16.7726 2.04395   4
   4  -5  -4 16.9855 1.62769   4
   5  -1  -4 22.7304 1.41840   3
  -4   5  -4 23.4430 2.06608   1
  -4   5  -4 21.5564 2.18434   3
   4   1  -4 19.3043 1.58880   3
  -1   5  -4 15.4747 2.05461   3
   4   1  -3 10.2072 1.08263   3
   1   4  -3 10.5512 1.34420   3
   5  -4  -3 12.8507 1.24479   1
  -5   4  -3 11.6877 1.43923   2
   4  -5  -3 11.2151 1.16975   1
  -4   5  -3 7.84340 1.38313   5
   5  -1  -3 10.1554 1.03607   2
   4   1  -3 9.37973 0.88209   4
  -5   4  -3 8.78986 1.27155   4
   4   1  -3 12.5707 1.40976   1
   1  -5  -3 10.9470 1.54888   4
  -4  -1  -3 11.2663 1.58233   5
  -5   1  -3 10.9975 1.45138   2
  -1  -4  -3 11.1033 1.62588   4
  -1   5  -3 13.9870 1.44370   5
   4  -5  -3 10.4289 1.49366   5
  -1  -4  -3 13.2464 1.81105   5
   1  -5  -3 11.4269 1.63905   5
   1   4  -3 12.1827 1.48383   1
  -1   5  -3 8.79763 1.23187   4
   1  -5  -3 10.0401 1.44741   3
  -1  -4  -3 13.4509 1.64827   3
   5  -1  -3 9.17508 0.79166   3
   1   4  -3 12.6344 1.23597   5
  -1  -4  -3 9.31140 1.36909   1
  -4  -1  -3 9.41085 1.33112   1
  -5   1  -3 10.2339 1.32124   1
  -4   5  -3 8.42281 1.40346   2
  -1   5  -3 10.0684 1.36320   3
   5  -1  -3 10.6713 1.28226   1
  -5   4  -3 9.61932 1.17249   1
   5  -4  -3 11.7619 1.38921   5
  -4   5  -3 6.45885 1.16926   4
  -1   5  -3 13.2403 1.43157   1
  -1   5  -3 8.96430 1.30837   2
   4   1  -3 9.27045 1.17200   2
   1   4  -3 8.76401 1.26826   2
   4  -5  -3 10.9035 1.19755   4
   1  -5  -3 8.29024 1.21404   1
  -5   4  -3 12.0483 1.42747   3
  -4   5  -3 12.6004 1.48944   3
  -4   5  -3 12.4413 1.27671   1
   1   4  -3 10.3414 1.27429   4
   5  -1  -2 29.0499 1.07422   3
  -4  -1  -2 21.8792 1.85998   5
   4  -5  -2 31.2453 1.55188   1
   1   4  -2 27.1069 1.93863   3
   5  -1  -2 28.2617 1.72803   1
  -4   5  -2 30.5759 2.07891   4
  -4   5  -2 30.6190 2.02049   3
  -5   1  -2 26.6816 1.74762   1
   1   4  -2 31.4811 2.02157   1
  -1  -4  -2 30.2758 2.33290   5
   1  -5  -2 33.6413 2.48779   5
   1  -5  -2 25.3342 1.92958   3
  -1  -4  -2 29.4048 2.24575   4
  -5   4  -2 31.1818 1.92537   2
   1  -5  -2 33.2292 2.10593   2
   1   4  -2 31.9506 1.75253   5
   4  -5  -2 23.3593 1.41234   3
  -1   5  -2 26.3245 1.88834   5
  -1  -4  -2 28.4726 2.09040   2
  -4   5  -2 30.2658 1.92349   2
   1  -5  -2 30.8327 2.22747   4
  -5   4  -2 26.4907 1.82872   4
   5  -4  -2 30.3353 1.95432   5
   4   1  -2 31.0429 1.63354   3
   4   1  -2 36.0380 2.08208   1
   5  -4  -2 28.2150 1.25070   4
  -5   4  -2 26.1419 1.97907   5
   1   4  -2 28.8231 1.89247   4
   4  -5  -2 22.5994 1.60283   4
  -4   5  -2 29.5764 2.13781   5
  -5   4  -2 29.9982 1.63133   1
  -1  -4  -2 31.1252 2.22541   3
   5  -1  -2 29.6054 1.39580   2
   4   1  -2 25.5036 1.28123   4
  -1   5  -2 34.6784 2.18580   2
   4   1  -2 22.4725 1.57426   2
  -1   5  -2 30.4170 2.06514   3
   1   4  -2 28.8843 1.99144   2
  -4  -1  -2 31.2552 2.19186   4
   5  -4  -2 27.6593 1.37201   1
  -1   5  -2 20.7581 1.71981   4
  -5   4  -2 20.0519 1.61977   3
  -4   5  -2 22.6105 1.38335   1
   4  -5  -2 24.6667 1.98283   5
  -1   5  -2 28.9887 1.92327   1
   4  -5  -1 48.0564 2.11656   4
  -4   5  -1 45.3511 2.13914   3
   1   4  -1 44.5116 2.25113   4
   4   1  -1 43.2791 2.12720   1
   5  -1  -1 45.1284 1.16886   5
   1   4  -1 44.7476 2.32835   3
   5  -1  -1 43.4330 1.14161   4
  -1  -4  -1 50.7117 2.71653   4
   1  -5  -1 33.8568 2.06983   3
   4  -5  -1 50.0217 1.88366   3
  -4   5  -1 43.0713 2.38967   5
   4   1  -1 41.5276 1.67036   4
   5  -4  -1 45.1498 1.12249   3
  -4   5  -1 45.6925 1.98280   2
  -1   5  -1 48.6099 2.46892   5
  -4  -1  -1 46.8952 2.44093   2
   1  -5  -1 43.4752 2.19002   2
  -4   5  -1 41.7235 2.14322   4
  -1  -4  -1 45.1247 2.41643   2
   5  -1  -1 47.3709 1.12827   4
   1   4  -1 43.9045 2.09720   5
   1   4  -1 33.8924 1.97289   1
  -4  -1  -1 47.8835 2.24250   5
  -1  -4  -1 44.4446 2.43641   3
   4   1  -1 40.9840 1.94192   2
   4   1  -1 34.0546 1.75194   3
   5  -1  -1 45.8526 1.16093   5
  -1   5  -1 48.9052 2.43098   3
   4  -5  -1 39.6589 1.42696   2
  -5   4  -1 47.0165 1.30093   1
   1   4  -1 48.5688 2.42170   2
  -5   4  -1 39.5387 1.76350   2
   5  -1  -1 38.4784 1.29760   3
  -1  -4  -1 48.4852 2.62323   5
   5  -1  -1 45.6409 1.60177   2
   5  -4  -1 46.2759 2.22307   5
  -5   4  -1 42.6563 2.05421   4
   5  -4  -1 44.2383 1.55073   4
   1  -5  -1 45.5723 2.69008   5
  -1   5  -1 46.0667 2.39742   4
   1  -5  -1 44.4993 2.49807   4
  -5   4  -1 42.2178 2.29203   5
   5  -4  -1 43.6040 1.07899   1
   4   1  -1 44.4178 1.03613   5
  -4  -1  -1 48.5389 2.38818   4
  -1   5  -1 37.3617 2.08028   2
  -4   5  -1 38.3510 1.36463   1
   5  -1  -1 43.1265 1.88718   1
  -1   5  -1 47.8444 2.11865   1
   4  -5  -1 46.7614 2.51428   5
  -5   4  -1 50.7280 2.14088   3
  -4  -1  -1 49.8791 2.45664   3
  -4  -1   0 218.600 4.51017   4
  -4   5   0 222.790 4.26068   3
   1  -5   0 212.584 4.93091   3
   5  -4   0 204.667 3.32862   3
   1  -5   0 216.991 4.82340   2
  -4  -1   0 232.534 4.91812   1
  -4  -1   0 217.949 3.78394   5
  -1  -4   0 213.985 4.79471   1
   5  -1   0 189.682 3.65045   4
   5  -4   0 217.369 4.83507   5
   5  -1   0 170.910 3.46932   2
  -5   4   0 213.436 2.91371   2
   1   4   0 239.002 5.06186   1
  -1   5   0 214.859 4.39912   1
  -1   5   0 223.445 5.42503   5
   5  -1   0 226.417 4.13759   1
   4   1   0 184.898 4.19931   3
  -1   5   0 184.006 4.63916   3
   1  -5   0 217.647 4.39364   1
  -4  -1   0 222.702 4.76358   3
  -4   5   0 219.900 5.24415   5
   4  -5   0 177.087 4.76214   5
   1   4   0 170.423 4.46695   5
  -1  -4   0 203.153 4.84164   2
   5  -1   0 224.000 3.72427   5
   4  -5   0 183.567 3.82759   3
   1   4   0 214.002 5.06070   3
  -5   4   0 217.044 3.92178   4
   4   1   0 218.682 3.96893   5
   4   1   0 217.532 4.57290   2
  -4   5   0 205.057 3.60312   2
   5  -1   0 184.474 3.54106   5
  -4   5   0 213.718 2.21488   1
  -1   5   0 225.222 5.17751   4
   4  -5   0 218.004 3.63727   2
   4   1   0 229.921 4.71859   4
   1   4   0 218.613 5.03704   2
  -4   5   0 219.677 4.57341   4
  -4   5   0 219.957 2.29272   1
  -1  -4   0 202.425 5.00167   5
   5  -4   0 223.894 4.04133   4
   5  -1   0 213.185 3.57611   4
   4  -5   0 172.472 4.03199   4
  -1  -4   0 213.606 5.07511   3
   1   4   0 196.565 4.83084   4
  -4  -1   0 236.815 4.91754   2
  -5   4   0 213.436 4.74726   5
   1  -5   0 220.567 5.40762   5
  -5   4   0 213.503 3.42906   3
   5  -4   0 207.129 2.69060   2
  -5   1   0 229.970 4.28308   1
   1  -5   0 221.627 5.22128   4
   5  -1   0 241.778 4.04094   3
  -1  -4   0 237.431 5.50245   4
  -1   5   0 232.366 4.94287   2
   5  -1   0 183.247 3.58716   3
   4   1   0 213.279 4.63801   1
   5  -4   1 44.8639 1.98599   3
  -5   4   1 45.0018 2.16583   5
  -1   5   1 37.6544 2.10916   2
  -1   5   1 46.1835 2.12737   1
  -1  -4   1 41.8084 2.20851   1
   1   4   1 44.7613 2.25615   1
  -1  -4   1 47.5973 2.41969   2
  -4   5   1 46.3571 1.79508   3
   5  -1   1 48.6127 2.17053   2
   4  -5   1 47.4660 2.34723   4
   4   1   1 47.5431 2.38517   3
  -4   5   1 36.5600 1.84194   4
  -1   5   1 45.0617 2.06919   1
  -4  -1   1 44.9770 1.05776   5
   1   4   1 53.2425 2.74173   4
   1  -5   1 41.0395 2.25227   4
   5  -1   1 44.7354 1.99361   1
   4  -5   1 45.7316 2.50778   5
  -1  -4   1 49.4758 2.42849   4
   1  -5   1 48.9392 2.36189   2
   5  -1   1 48.1117 2.22457   2
   4   1   1 50.9490 2.51586   4
   5  -4   1 53.2656 2.59601   5
   5  -1   1 47.5029 2.17587   5
   4  -5   1 42.8794 1.37596   1
  -1  -4   1 44.8515 2.18832   5
  -5   1   1 47.4880 1.74423   2
  -5   1   1 48.7525 1.51676   3
   4   1   1 45.9232 2.25265   1
   1   4   1 46.9434 2.49427   3
  -5   4   1 45.8634 1.52539   4
  -4  -1   1 48.4983 2.08528   3
   5  -4   1 42.6651 2.04792   4
   1  -5   1 45.9572 2.35682   3
   5  -1   1 50.1628 2.27432   5
  -5   1   1 42.9748 1.87974   1
   1  -5   1 39.4959 2.25391   5
   1   4   1 48.6072 2.38143   1
  -4  -1   1 43.7912 2.06390   2
  -4  -1   1 32.2139 1.61880   4
   1  -5   1 41.9674 2.02148   1
   4  -5   1 42.7598 1.90193   2
  -4   5   1 47.5107 1.35893   1
   5  -1   1 36.3741 1.82903   4
   4   1   1 46.5173 2.22359   1
  -5   4   1 42.7918 1.02212   1
  -1  -4   1 37.9987 2.18416   3
   5  -4   1 40.6822 1.74633   2
  -1   5   1 43.5600 2.60978   5
   5  -1   1 44.4405 2.15871   3
   1   4   1 38.9307 2.42215   5
  -4  -1   1 51.2221 2.34090   1
   5  -1   1 43.4556 1.91342   1
   4   1   1 49.9120 2.40829   2
  -1   5   1 54.8050 2.65741   4
   5  -1   1 42.9966 2.13133   4
   4   1   1 49.2955 2.30943   5
   5  -4   1 41.2857 1.22321   1
  -4   5   1 51.8422 1.44365   1
   1   4   1 44.0085 2.36770   2
   5  -1   1 49.0358 2.16671   3
  -1   5   1 43.0960 2.32174   3
  -4   5   1 47.2800 1.54315   2
  -5   4   1 44.6958 1.11748   3
  -4   5   1 45.0286 2.45124   5
   4  -5   1 34.0337 1.87487   3
  -1   5   2 27.5961 2.06888   4
  -1  -4   2 29.1657 1.78533   5
   5  -4   2 29.9296 1.94184   3
  -4  -1   2 26.3331 1.70578   2
   4   1   2 24.9688 1.93155   5
  -5   4   2 26.5474 0.70932   3
  -5   1   2 24.2675 1.36234   2
   4  -5   2 23.9514 1.82861   3
  -4   5   2 22.7326 1.33022   3
  -4   5   2 28.0327 1.46016   1
   1   4   2 34.9920 2.13301   1
  -5   4   2 25.5709 1.76848   5
   1  -5   2 27.4523 1.83987   1
   4  -5   2 32.1261 1.95653   2
  -5   1   2 27.8450 1.71726   1
  -4  -1   2 30.4216 1.47500   4
  -1   5   2 30.0494 1.85597   1
  -1   5   2 28.8322 1.91833   2
  -5   4   2 30.5110 1.40407   1
   4   1   2 29.7747 2.15011   3
   4  -5   2 32.2212 2.30800   5
   5  -4   2 28.6676 1.46640   1
   5  -4   2 28.8158 1.77509   2
   4   1   2 30.3363 2.15372   2
  -1  -4   2 32.0159 1.98548   4
   4   1   2 27.3909 2.02181   3
  -4   5   2 26.4772 1.29350   2
   5  -1   2 28.9061 2.03114   3
   5  -1   2 32.8450 2.10446   5
   4   1   2 22.2392 1.82857   2
  -4   5   2 23.5391 1.23860   2
   5  -4   2 21.6931 1.73836   4
  -4  -1   2 27.0012 1.84748   1
  -1   5   2 28.5844 2.28054   5
  -4   5   2 29.1078 1.65492   4
   5  -4   2 27.2651 2.10897   5
  -5   1   2 26.2098 1.10949   3
   4   1   2 30.3926 1.97804   1
   4  -5   2 31.0764 2.08786   4
   1   4   2 27.2920 2.21493   5
   1  -5   2 31.6964 2.14378   4
   1  -5   2 22.1071 1.80513   3
  -1  -4   2 22.7702 1.78187   1
   1   4   2 28.1726 2.02300   1
   1   4   2 28.5604 2.22609   4
   5  -1   2 30.2282 1.96873   3
  -5   4   2 28.2237 1.16755   4
  -1   5   2 30.9179 2.08815   3
  -4  -1   2 23.4234 1.51464   3
   1   4   2 29.9308 2.14841   3
   4  -5   2 22.3242 1.37772   1
   5  -1   2 29.2773 2.04319   5
   5  -1   2 23.8334 1.67897   1
   5  -1   2 28.0641 2.02266   4
   4   1   2 29.1695 2.14484   4
   1  -5   2 27.0767 1.92566   5
  -1  -4   2 26.4270 1.93199   3
  -5   4   2 27.1909 0.73132   3
   5  -1   2 33.2827 2.09641   2
   1  -5   2 32.2235 2.10055   2
   5  -1   2 30.7263 2.02915   2
   5  -1   2 28.9949 1.89987   4
  -1  -4   2 29.9123 2.02504   2
   1   4   2 27.0249 1.98530   2
  -4   5   2 28.6048 2.13904   5
  -4   5   3 11.2688 1.07447   2
   5  -4   3 13.1133 1.47918   3
  -1   5   3 12.8931 1.69842   4
   5  -4   3 12.4193 1.37899   2
   4  -5   3 8.14943 1.30528   3
   1   4   3 12.8150 1.54392   3
  -4   5   3 13.0413 1.26843   1
  -5   1   3 11.6690 0.53807   4
  -1  -4   3 13.6189 1.27809   5
  -1   5   3 12.2489 1.72226   5
  -1  -4   3 13.2869 1.56720   3
   1  -5   3 9.79049 1.34018   5
   5  -1   3 13.7615 1.69069   5
   5  -1   3 12.0719 1.51189   2
  -5   1   3 11.8514 0.66854   5
  -1   5   3 12.2542 1.46031   3
   5  -1   3 11.2113 1.46050   4
  -4   5   3 10.8764 1.13346   4
   4   1   3 15.0908 1.78468   5
  -5   4   3 13.0924 0.79196   3
   4  -5   3 10.9985 1.21417   1
   1  -5   3 12.8876 1.51667   4
  -4  -1   3 14.4079 1.52953   1
  -1  -4   3 12.2510 1.38900   4
  -4   5   3 15.3973 1.22950   2
   4  -5   3 10.4796 1.46846   5
  -5   1   3 11.3796 0.60351   5
  -1   5   3 15.8594 1.56722   2
  -5   4   3 12.3194 0.87189   2
   5  -4   3 11.3336 1.21051   1
   5  -1   3 11.5612 1.39848   1
  -5   4   3 11.0412 1.12832   1
  -1   5   3 12.7743 1.40890   1
   4   1   3 12.7972 1.57706   1
   1   4   3 14.1266 1.74453   5
   4   1   3 13.0076 1.57740   3
   1  -5   3 8.86621 1.33377   2
  -5   1   3 14.3131 1.15026   2
  -4   5   3 14.5387 1.61647   5
   5  -1   3 9.83642 1.33463   4
   1   4   3 14.1684 1.55025   2
   5  -1   3 15.0788 1.65231   5
  -4   5   3 11.1606 1.08332   3
   4   1   3 12.3307 1.51254   4
  -1   5   3 11.3660 1.37962   2
  -4  -1   3 11.1801 0.54663   5
  -5   1   3 12.2414 0.88652   3
  -4  -1   3 12.6587 1.20600   3
  -5   1   3 11.3041 1.29170   1
  -4  -1   3 12.5021 1.03223   4
  -5   4   3 12.7975 0.93616   4
   1  -5   3 11.7835 1.46766   3
  -5   4   3 11.6464 0.78002   3
   1   4   3 12.1346 1.48100   1
  -5   4   3 11.3014 0.81082   2
  -1  -4   3 9.33919 1.38850   2
   4   1   3 10.8514 1.49863   4
   5  -4   3 12.3004 1.60142   5
   4  -5   3 15.0214 1.57971   2
  -5   1   3 10.5126 0.51597   4
  -4  -1   3 11.2547 0.56614   5
   1   4   3 9.25670 1.42598   4
   5  -1   3 9.58217 1.39687   3
   4   1   3 12.1356 1.54615   2
   1   4   3 15.3739 1.74999   2
   4   1   3 14.4734 1.72023   3
   4   1   3 10.6214 1.50454   2
  -1  -4   3 10.1777 1.30905   1
   5  -1   3 11.6231 1.41551   3
   4  -5   3 10.9090 1.45514   4
   1  -5   3 12.7243 1.40887   1
  -4  -1   3 11.3203 1.27131   2
  -4   5   3 13.0067 1.14265   3
   5  -4   3 9.34832 1.36119   4
  -5   4   3 7.79755 1.15791   5
   1  -5   4 18.3079 1.90376   5
  -5   4   4 22.8123 2.01735   5
   5  -4   4 18.8154 2.01397   3
  -1  -4   4 15.4686 1.77921   3
   5  -4   4 17.4545 2.20546   5
   4  -5   4 21.2660 2.18129   3
  -1  -4   4 18.9773 1.67635   5
  -1   5   4 18.4621 2.27156   5
   4   1   4 24.7042 2.35806   2
   1  -5   4 24.3559 2.23475   3
   5  -4   4 21.8830 2.15027   4
  -4   5   4 24.3729 1.91707   1
  -5   1   4 20.4510 1.19053   5
  -4   5   4 22.1554 1.70348   2
  -4  -1   4 19.6023 1.74379   3
   5  -1   4 20.4624 2.09962   3
  -1   5   4 22.4234 2.05456   2
   1   4   4 16.6654 2.13702   5
  -5   1   4 20.7886 1.32437   5
  -5   4   4 17.9907 1.27469   3
  -4  -1   4 15.9379 1.68567   2
  -5   1   4 23.3767 1.50116   3
  -4   5   4 18.8255 2.03478   5
  -5   1   4 21.3553 1.13235   4
   5  -1   4 19.1063 2.00890   4
  -4  -1   4 20.8894 1.17969   5
   5  -1   4 15.8756 1.96062   3
  -4   5   4 25.1195 1.84945   2
  -4  -1   4 20.2652 1.22827   5
   1   4   4 21.1152 2.08802   2
   4   1   4 23.1991 2.30293   2
   4   1   4 20.2603 2.17482   3
  -1   5   4 20.5070 2.11868   4
   5  -4   4 21.8795 1.90365   1
  -1   5   4 23.8801 2.07069   2
   4  -5   4 25.1044 2.22541   2
   4   1   4 20.2015 2.15865   4
  -4  -1   4 21.1767 1.53648   4
   4  -5   4 17.4653 1.76247   1
   5  -1   4 20.1568 2.17100   5
   4   1   4 20.2860 2.20403   4
   1   4   4 23.8192 2.26434   3
  -5   4   4 23.4403 1.42658   4
   5  -1   4 23.7773 2.45654   5
  -4   5   4 19.6985 1.57863   3
   4  -5   4 21.4214 2.15478   4
   1  -5   4 22.9980 2.17072   2
   4   1   4 14.8498 2.07316   5
  -5   4   4 17.7760 1.32767   4
   5  -4   4 20.8087 2.06366   2
  -1  -4   4 16.9979 1.77983   4
   1  -5   4 20.9618 2.05751   4
   5  -1   4 13.8879 1.83770   4
  -4   5   4 24.7068 1.88292   4
  -1   5   4 24.7982 2.19559   3
  -5   4   4 19.8797 1.32568   3
   1   4   4 24.7281 2.43574   4
  -1  -4   4 18.1024 1.63872   5
  -5   4   4 21.5070 1.50692   2
   4  -5   4 17.4797 2.05218   5
  -5   1   4 24.5498 2.04861   1
   1   4   4 17.9701 2.01175   1
   5  -4   4 21.1315 2.25241   5
  -5   1   4 22.4769 1.17878   4
   4   1   4 20.4750 2.15438   1
   1   4   4 22.6937 2.29812   2
   1  -5   4 20.1658 1.95854   1
  -1   5   4 21.0533 2.05511   1
   5  -1   4 18.6394 2.03345   2
  -1  -4   4 18.0447 2.08447   1
  -1   5   4 17.7247 1.86189   3
   1   4   4 16.5926 1.91622   3
  -1  -4   4 25.2525 2.28751   2
  -5   1   4 22.1094 1.67405   2
  -4   5   4 17.8314 1.51904   3
   4   1   4 19.8346 2.19548   3
   5  -1   4 17.2666 1.98639   1
  -4  -1   4 18.1529 1.95961   1
  -5   4   4 17.3913 1.77776   1
  -5   4   5 5.03513 0.94969   3
  -5   1   5 2.98176 0.97871   2
   5  -4   5 3.12107 1.27164   4
   4   1   5 4.06396 1.36544   2
  -1  -4   5 6.39737 1.54322   2
   5  -1   5 3.56151 1.32002   1
  -4   5   5 6.01308 1.18726   4
   5  -4   5 5.44387 1.35402   3
  -1  -4   5 8.67925 1.63409   1
   4   1   5 6.63104 1.54173   1
  -1  -4   5 6.18343 1.31517   4
   1   4   5 5.37848 1.46242   4
   5  -1   5 8.28900 1.69540   3
   1   4   5 6.39018 1.50901   1
   1   4   5 6.93049 1.52154   2
   4  -5   5 9.52185 1.78429   5
  -4   5   5 3.25429 0.98457   2
  -5   4   5 5.73240 0.92582   3
   4  -5   5 6.17643 1.50687   5
   1   4   5 5.12354 1.63700   5
   5  -1   5 9.98166 1.80833   5
   5  -1   5 3.36812 1.45602   5
   5  -4   5 4.45794 1.54560   5
   5  -4   5 8.41993 1.47719   1
  -1   5   5 6.82052 1.52277   3
   1   4   5 1.71805 1.11838   3
  -5   4   5 6.53800 1.10490   2
  -4  -1   5 5.16444 0.93749   5
  -5   1   5 6.84695 0.98049   5
  -1  -4   5 4.77537 1.16201   5
  -1  -4   5 6.15310 1.52740   3
  -5   1   5 4.40641 0.75193   4
   5  -4   5 7.34212 1.55362   2
   4  -5   5 8.97901 1.49638   1
  -1   5   5 5.80236 1.37573   2
   1   4   5 4.40399 1.26277   3
   1  -5   5 11.5582 1.75132   1
  -4   5   5 5.45806 1.10126   2
   5  -1   5 6.24814 1.50007   3
  -1   5   5 6.98379 1.52585   1
   1  -5   5 8.11356 1.50160   5
   1  -5   5 4.23348 1.28741   3
  -4  -1   5 4.73123 0.82409   5
  -5   4   5 4.66130 0.93018   4
   5  -1   5 3.82491 1.24162   4
  -1   5   5 7.52268 1.61581   2
  -4  -1   5 6.17208 1.21841   3
   1  -5   5 6.84238 1.39909   5
   4  -5   5 5.07908 1.37000   4
  -5   1   5 6.18779 0.91954   4
  -4   5   5 6.71462 1.30039   4
   1  -5   5 8.09503 1.63301   4
   4   1   5 5.46937 1.47363   2
  -5   4   5 6.45348 1.38019   5
  -4   5   5 4.61171 1.36876   5
   4  -5   5 4.35783 1.41498   3
   4   1   5 2.64664 1.06152   3
   5  -4   5 5.68340 1.46416   5
  -5   1   5 6.97065 1.06967   3
   5  -1   5 11.5360 1.97658   2
  -4  -1   5 5.56605 1.08128   4
  -5   1   5 4.54513 1.33553   1
  -5   4   5 5.98282 1.00760   4
  -4   5   5 9.20998 1.55560   1
  -1   5   5 5.97852 1.41684   4
   1   4   5 3.61698 1.14115   2
   4   1   5 4.86883 1.43443   4
   1   4   5 6.12541 1.52248   4
   4   1   5 5.82136 1.67141   5
  -5   4   5 6.01209 1.37247   1
  -5   1   5 6.33961 1.00260   5
   4   1   5 6.53530 1.65169   4
  -4  -1   5 9.07100 1.76403   1
  -1  -4   5 6.29228 1.30104   5
   5  -1   5 3.50421 1.25616   4
  -4  -1   5 9.82832 1.60965   2
   4  -5   5 5.58563 1.37524   2
  -1   5   5 6.54984 1.49529   3
  -4   5   5 5.89131 1.12804   3
  -4   5   5 6.73920 1.19297   3
  -1   5   5 4.54837 1.38222   5
   1  -5   5 7.09472 1.52765   2
   4   1   5 5.81951 1.45952   3
  -5   4   6 18.8680 1.93376   3
   5  -4   6 21.1261 2.80176   3
   5  -4   6 23.0425 2.77058   4
   4  -5   6 18.1437 2.69819   3
  -5   1   6 20.1459 1.96445   5
  -4  -1   6 20.8761 2.02127   5
   1   4   6 13.7754 2.39687   2
  -1  -4   6 21.2201 2.51010   3
  -4  -1   6 18.9572 2.16841   3
   1  -5   6 22.7173 2.58572   5
   1   4   6 23.1363 2.71129   1
  -1  -4   6 16.0142 2.11537   5
  -1   5   6 21.5254 2.74833   2
   5  -1   6 16.9071 2.74050   5
   4  -5   6 19.9536 2.72571   5
  -1  -4   6 21.5868 2.44814   4
  -5   1   6 19.3354 1.81348   5
  -5   4   6 17.2196 2.29475   1
  -5   4   6 26.9804 2.84653   5
  -4   5   6 19.1523 2.09814   4
   1  -5   6 19.6194 2.52127   5
   5  -1   6 17.1383 2.59705   3
  -1   5   6 19.6938 2.56092   4
  -5   4   6 18.5442 1.88460   4
   1   4   6 18.7495 2.48911   3
   5  -1   6 19.5068 2.65080   3
  -4   5   6 15.5908 1.96414   2
   4   1   6 18.8180 2.75187   2
  -4   5   6 17.0778 2.20320   1
   5  -4   6 22.9133 2.86811   5
   4  -5   6 16.9732 2.62192   5
   4  -5   6 18.3242 2.45507   4
   1   4   6 26.3339 2.94712   4
  -1   5   6 26.4005 2.83248   2
   1  -5   6 22.0611 2.70971   4
  -5   1   6 19.7590 1.79900   4
  -4   5   6 14.5848 2.31861   5
   5  -1   6 24.8124 2.86390   4
  -1   5   6 18.3762 2.36828   3
  -1  -4   6 22.2866 2.78381   2
   1   4   6 18.5922 2.52182   2
   5  -1   6 16.8517 2.40036   1
  -5   1   6 20.6398 1.71724   4
  -1  -4   6 23.0586 2.43000   5
   5  -4   6 23.6374 2.76809   1
   5  -4   6 19.4265 2.71463   5
  -4  -1   6 19.0508 1.97681   4
   5  -1   6 14.2080 2.52226   2
  -4   5   6 18.6478 2.06742   2
   4  -5   6 25.2141 2.89005   2
   4   1   6 23.9124 2.90853   3
  -5   1   6 17.1288 2.41590   1
  -1   5   6 13.9503 2.20726   1
   4   1   6 20.0902 2.80163   2
  -1  -4   6 19.1151 2.52691   1
   1  -5   6 14.0157 2.29950   1
  -5   4   6 18.2872 1.92912   2
   1   4   6 19.2214 2.62011   4
  -1   5   6 19.7377 2.58559   4
   4   1   6 19.2797 2.77105   4
   5  -1   6 30.2216 3.40488   4
  -4  -1   6 23.3142 2.77032   1
   1   4   6 18.5365 2.75584   5
   4  -5   6 28.2718 3.14845   1
   4   1   6 22.2174 2.78003   4
   1  -5   6 19.3339 2.71228   2
  -4  -1   6 20.1806 1.83405   5
   5  -4   6 22.5750 2.75313   2
  -5   1   6 20.6210 2.21186   2
  -4   5   6 20.2826 2.13111   3
  -4  -1   6 23.1282 2.51896   2
   5  -1   6 20.1339 2.77799   5
  -5   4   6 15.9884 1.74447   3
   1   4   6 14.4650 2.34498   3
  -1   5   6 21.4389 2.52287   3
   4   1   6 13.7002 2.60734   5
   1  -5   6 22.0658 2.66093   3
   4   1   6 20.4831 2.81484   3
  -4   5   6 17.2758 2.12224   4
  -1   5   6 14.7025 2.66764   5
  -5   1   6 21.9811 1.99743   3
  -4   5   6 20.9637 2.12185   3
  -5   4   6 20.3852 1.91694   4
   4   1   6 26.8292 3.01799   1
  -1  -4   7 19.9304 2.96058   2
  -5   1   7 24.5594 2.80054   2
   5  -4   7 23.5880 3.51243   3
   1  -5   7 9.40874 2.48446   5
  -5   1   7 27.6960 2.62417   3
  -1  -4   7 27.3562 3.55433   3
  -1   5   7 19.3836 2.93896   4
  -4  -1   7 28.6592 2.93139   3
   4  -5   7 27.2721 3.53515   4
   4  -5   7 12.1078 2.91591   3
   5  -1   7 15.4304 3.05660   5
   1  -5   7 23.4459 3.22835   2
   4   1   7 8.42932 2.85081   5
  -5   1   7 27.3677 2.79482   5
  -1  -4   7 20.3764 2.70125   5
  -1  -4   7 29.2982 3.19311   5
  -1   5   7 27.9021 3.12976   4
   4  -5   7 21.6277 2.95380   1
  -5   4   7 18.3661 2.18676   3
   5  -1   7 18.0514 3.31035   5
  -4   5   7 23.3985 2.67675   3
  -1  -4   7 24.1253 3.02790   4
   5  -4   7 17.6871 2.82461   1
  -4   5   7 19.2894 3.36929   5
   1   4   7 20.3959 2.96547   3
  -4  -1   7 18.7738 3.00985   1
   5  -1   7 23.8065 3.29571   4
  -1   5   7 19.3655 3.44440   5
  -4   5   7 21.6076 2.93916   1
   4   1   7 19.6498 3.21186   3
   5  -4   7 20.6408 3.03861   4
   5  -4   7 22.4057 3.20217   2
  -5   4   7 23.4011 3.03008   5
  -5   4   7 27.1135 2.60725   3
  -4  -1   7 21.1110 2.20474   5
  -4   5   7 28.7593 2.95194   2
   4   1   7 16.4636 3.33069   5
   5  -4   7 28.7215 3.66648   5
   4   1   7 20.3816 2.98908   4
   1  -5   7 27.2327 3.33147   1
   1  -5   7 29.0973 3.55288   4
  -4  -1   7 16.9225 2.14193   5
   1   4   7 22.2096 3.38306   2
  -4   5   7 22.8646 2.59906   4
  -4   5   7 25.9128 2.65586   3
  -5   1   7 19.8440 2.14857   4
   5  -4   7 19.6187 3.10628   5
  -5   1   7 21.7679 2.15133   4
  -4   5   7 23.2074 2.73736   2
   4  -5   7 27.5419 3.51336   5
   1  -5   7 24.9758 3.07693   5
   4   1   7 22.7453 3.18669   1
   4  -5   7 24.9935 3.43290   5
  -5   4   7 23.9108 2.35808   4
   5  -1   7 18.9549 3.22092   3
   4   1   7 28.9915 3.68430   2
   1   4   7 23.6396 3.08195   2
  -1   5   7 18.9680 2.68465   1
   4   1   7 16.4987 2.92372   2
   5  -1   7 15.2730 2.82629   1
   1   4   7 24.3971 3.13486   4
   1   4   7 27.1806 3.82009   5
  -5   4   7 19.1067 2.57750   2
  -5   4   7 17.0190 2.76674   1
  -1   5   7 23.8532 2.99362   2
  -5   4   7 26.2814 2.53880   4
  -4  -1   7 17.8831 2.60440   2
  -4   5   7 27.0614 2.86282   4
   1   4   7 19.6785 3.06393   1
  -1   5   7 25.6371 3.03859   3
   1   4   7 28.0320 3.67852   4
   5  -1   7 24.8682 3.53780   4
  -5   1   7 21.9537 3.02021   1
  -1  -4   7 18.5403 2.79536   1
  -5   1   7 21.1648 2.26811   5
  -4  -1   7 22.6027 2.44707   4
   1  -5   7 25.0572 3.28569   3
   5  -4   7 23.4076 3.47043   4
   4   1   7 28.1587 3.70856   4
   5  -1   7 28.1379 3.66245   2
  -1   5   7 17.2174 2.86911   2
  -4  -1   7 22.0735 2.57533   4
  -1   5   7 26.5979 3.18969   3
   1   4   7 19.2322 2.99364   3
   5  -1   7 19.0912 3.13021   3
   4   1   7 22.8013 3.15541   3
   4  -5   7 24.6315 3.46924   2
   5  -1   8 6.45301 2.96676   4
  -1  -4   8-0.08490 2.54616   2
  -4  -1   8 1.79100 2.29555   2
   4  -5   8 0.94018 2.44171   1
  -5   4   8 5.45603 2.63415   5
   4   1   8 4.90963 2.96898   3
  -1   5   8 0.82597 2.02128   3
   5  -1   8 0.94123 2.71322   5
  -4  -1   8 0.89597 2.57921   1
  -4   5   8 0.87132 1.84093   3
   1   4   8 0.20652 2.56939   5
   5  -4   8 1.83180 2.18951   1
   5  -4   8 4.16343 2.70721   3
  -5   4   8 1.91338 1.66890   3
   5  -4   8 1.04471 2.86012   5
   1  -5   8 0.16761 2.54830   3
   5  -4   8 0.51296 2.31678   5
   4  -5   8 2.24629 2.40823   5
   1   4   8-0.04145 2.08088   2
  -5   1   8 3.04792 1.84926   5
  -4  -1   8 1.35060 1.63164   5
  -4  -1   8 1.02949 1.91225   3
  -1  -4   8 0.34212 2.54949   1
  -1  -4   8 2.02164 2.40052   5
  -5   1   8 0.06485 1.92641   2
  -4   5   8 0.29604 2.49039   5
   4  -5   8 1.10268 2.48712   3
  -5   4   8 0.37229 1.61084   4
  -5   1   8 2.66655 1.80269   3
  -1  -4   8 0.57715 2.02713   4
  -5   4   8 1.88832 1.85467   2
   4   1   8 6.33728 3.01539   3
   4   1   8-0.87918 3.05383   5
   4   1   8 1.59204 2.71840   2
   1  -5   8 3.98809 2.47455   4
  -5   1   8 2.15184 2.26716   1
   4   1   8 2.71484 2.80021   2
  -1   5   8 5.54376 2.77988   2
  -1   5   8 1.85820 2.17481   4
  -1   5   8 2.73510 2.43325   2
  -4  -1   8 3.41676 1.89729   4
  -4  -1   8 1.52303 1.75471   5
  -5   4   8 2.22505 1.73163   3
   1  -5   8 4.00408 2.32638   5
  -4   5   8 2.24254 1.97476   2
   1   4   8 1.02092 2.50353   2
  -5   1   8-0.31824 1.65879   3
   4  -5   8 0.17708 2.47966   5
   1   4   8-0.92268 2.49291   1
   5  -4   8 1.44044 2.64984   4
   1   4   8 0.07812 2.32401   4
  -1   5   8 0.30143 2.20609   3
  -4   5   8 1.89785 1.88952   4
   5  -4   8 0.19125 2.51124   4
  -5   1   8-0.02476 1.60640   5
   1  -5   8 4.51979 2.94741   2
  -1   5   8 2.35358 3.06645   5
   4  -5   8 3.91627 2.38229   4
   5  -1   8 1.97291 2.43641   3
  -4   5   8-0.08792 1.90337   3
  -1   5   8 4.04041 2.55899   4
   4   1   8 1.42912 3.00361   5
  -5   1   8 2.51727 1.60033   4
   5  -4   8 1.23322 2.26525   2
   5  -1   8 12.6512 3.05656   1
  -5   4   8 1.63396 1.71380   4
  -4   5   8 5.70414 2.40948   1
   1   4   8 1.42301 2.31346   4
  -1  -4   8 1.49565 2.32290   3
   4   1   8 4.55064 2.67022   4
   1   4   8 0.55016 2.39486   3
   5  -1   8-0.36265 2.34243   3
  -4   5   8 2.64496 1.97426   2
   5  -1   8-0.14683 2.35282   4
  -4  -1   8 6.60991 2.06371   4
   4   1   8-0.90856 2.51813   1
   1   4   8-0.04204 2.36885   3
   5  -1   8 0.94252 2.55818   2
   4   1   8 7.30707 2.55722   4
  -1   5   8 0.27124 2.24045   1
   1  -5   8-0.08365 2.35833   1
   5  -1   8 0.86447 3.10686   5
   4  -5   8 1.81887 2.74488   2
  -5   1   8 1.00228 1.61863   4
  -4   5   8 13.8150 2.79699   4
  -5   4   8 0.61310 2.10847   1
  -1  -4   8 1.22872 1.96911   5
   0  -5  -7 89.6186 6.56208   5
  -5   5  -7 105.057 6.10396   4
  -5   0  -7 108.896 6.47889   1
   5  -5  -7 97.9234 5.87652   5
   0   5  -7 88.1935 5.75633   2
   5   0  -7 94.1131 5.21109   2
   0   5  -7 88.0729 5.17886   4
  -5   5  -7 99.6333 6.09829   2
   5   0  -7 83.7656 4.37298   3
   0  -5  -7 83.9043 5.69798   1
   0   5  -7 109.502 6.06133   3
   5  -5  -7 92.1736 5.47918   1
  -5   5  -7 62.5506 5.12468   1
   0   5  -7 83.2392 5.58552   1
  -5   5  -7 89.3642 5.85732   3
   5   0  -7 97.4329 5.86887   1
   0   5  -6 32.9829 3.20248   1
   5   0  -6 36.5935 3.37588   1
   0  -5  -6 41.7346 3.72177   1
  -5   5  -6 31.9688 3.32404   4
   0  -5  -6 33.1245 3.70401   5
  -5   0  -6 34.8023 3.40142   1
   5  -5  -6 30.2804 3.11618   5
   0   5  -6 23.9526 3.01493   2
   0   5  -6 36.9255 3.10371   4
  -5   5  -6 42.3418 3.86694   2
   5  -5  -6 35.1883 3.09237   1
   0   5  -6 34.0355 3.26136   3
  -5   5  -6 35.4007 3.37321   1
   5   0  -6 29.4611 2.38253   3
  -5   5  -6 30.8190 3.17278   3
   5   0  -6 40.2373 3.12779   2
   5   0  -5 163.028 5.94673   1
   0   5  -5 175.777 6.33835   1
   0  -5  -5 128.074 6.36846   5
  -5   5  -5 176.445 6.56246   2
   0  -5  -5 149.390 6.39275   4
   0   5  -5 174.641 6.56665   2
   0  -5  -5 150.285 6.16689   1
  -5   0  -5 151.306 6.19945   1
   5   0  -5 177.820 4.92429   3
   5   0  -5 164.021 5.43859   2
  -5   5  -5 161.679 6.04227   1
   5  -5  -5 148.110 5.93968   5
   0   5  -5 166.296 5.86331   4
  -5   5  -5 174.946 6.48975   3
  -5   5  -5 165.432 6.36518   4
   0   5  -5 164.576 6.11257   3
   5  -5  -5 175.508 5.93364   1
   0   5  -4 12.0188 1.76186   3
   5  -5  -4 16.3803 1.88695   5
   0   5  -4 16.9929 1.78264   4
   5   0  -4 18.6907 1.65042   2
   0   5  -4 15.4987 1.66192   5
   0   5  -4 16.3901 1.90724   2
  -5   0  -4 8.62903 1.63671   5
   0  -5  -4 18.0351 2.01226   1
   5   0  -4 16.8734 1.07395   4
  -5   5  -4 13.5733 1.81267   4
   5   0  -4 13.6742 1.69488   1
  -5   5  -4 19.2145 2.07322   2
   5  -5  -4 13.8738 1.56056   1
   0   5  -4 15.2238 1.80900   1
  -5   5  -4 11.6423 1.57104   1
   0  -5  -4 13.1194 1.87030   4
  -5   0  -4 16.7384 1.98284   1
  -5   5  -4 14.6542 1.82562   3
   5   0  -4 15.2384 1.32795   3
   0  -5  -4 17.8495 2.28172   5
   5   0  -3 93.1192 2.86614   3
  -5   0  -3 93.7118 4.22049   5
   0  -5  -3 99.1411 4.16783   1
   5   0  -3 91.9612 3.76088   1
   0   5  -3 98.3702 3.97159   1
   5   0  -3 94.3736 2.05674   4
  -5   5  -3 87.3734 4.06988   5
  -5   0  -3 94.9045 3.93302   1
   0  -5  -3 81.4425 4.24875   5
   0   5  -3 95.7404 3.89119   4
  -5   5  -3 97.5146 3.49576   1
   0   5  -3 76.9254 3.37954   5
   0  -5  -3 108.568 4.71767   4
  -5   5  -3 82.1370 3.70893   2
   0   5  -3 92.0811 3.90300   3
   5  -5  -3 89.8255 3.09311   1
   5   0  -3 98.6605 3.29316   2
   5  -5  -3 102.065 4.21043   5
   5  -5  -3 97.4406 3.13986   4
   0  -5  -3 109.438 4.48585   3
  -5   5  -3 81.4175 3.70069   4
   0   5  -3 99.0286 4.12111   2
  -5   5  -3 88.0620 3.83945   3
   0  -5  -2 68.2929 3.42508   3
   5   0  -2 71.8801 2.24186   3
   5   0  -2 86.3743 1.77115   4
   0   5  -2 66.0505 3.11253   4
  -5   0  -2 57.7354 2.98018   5
   5  -5  -2 74.9396 2.60109   4
   0  -5  -2 74.0969 3.77257   5
   0   5  -2 77.3242 3.35169   3
   0  -5  -2 87.5610 3.60244   2
   5  -5  -2 87.3535 2.39102   1
  -5   5  -2 76.9109 3.14429   3
   5   0  -2 84.6912 3.20709   1
  -5   5  -2 77.1391 2.54774   1
  -5   5  -2 89.4037 3.80329   5
  -5   5  -2 81.3966 3.17695   2
  -5   5  -2 80.5055 3.35604   4
   0   5  -2 85.3385 3.37791   1
   0   5  -2 91.4084 3.37558   5
   0   5  -2 84.3817 3.50424   2
   5   0  -2 84.2527 2.73923   2
   5  -5  -2 83.2628 2.12415   3
   0  -5  -2 90.6635 3.96684   4
   5  -5  -2 87.7650 3.61134   5
   5   0  -1 849.523 9.29988   1
   0   5  -1 803.166 10.3111   2
  -5   5  -1 866.581 5.64645   1
  -5   5  -1 830.502 9.65191   4
   0  -5  -1 815.803 10.2859   2
   0  -5  -1 748.364 11.0352   5
  -5   5  -1 837.143 10.7446   5
   5   0  -1 851.915 7.74884   3
   5  -5  -1 845.175 6.80844   3
   0   5  -1 817.841 9.99698   5
  -5   5  -1 851.194 8.47370   2
   5  -5  -1 781.625 4.77058   2
   5  -5  -1 852.324 8.28008   4
  -5   5  -1 863.357 9.17788   3
   0   5  -1 938.919 11.0919   4
   0  -5  -1 819.324 11.2942   4
   5  -5  -1 877.326 10.6648   5
   5   0  -1 757.352 6.37005   4
   0   5  -1 801.778 10.3146   3
   0  -5  -1 867.651 10.9698   3
   0   5   0 31.3884 2.09129   5
  -5   5   0 31.5313 2.03062   5
   0  -5   0 33.9889 2.25053   5
   5   0   0 30.0037 1.66214   2
   5  -5   0 34.9365 1.61588   3
   5   0   0 35.4604 1.80550   4
   0  -5   0 35.3679 2.16607   3
   5  -5   0 36.1015 2.17894   5
   5   0   0 39.7161 1.88404   3
   5  -5   0 33.2231 1.78075   4
   5   0   0 30.9312 1.47048   5
  -5   0   0 28.8349 1.55516   4
   5   0   0 31.2320 1.78555   1
   0  -5   0 34.4422 1.94356   1
  -5   0   0 34.8039 1.91816   2
   5   0   0 31.3481 1.42723   5
   0   5   0 33.3294 2.15385   3
   0   5   0 33.7905 1.96381   1
  -5   0   0 35.4656 1.94743   1
  -5   5   0 28.2195 1.60267   4
   0  -5   0 25.7794 1.81842   2
   0   5   0 36.5269 2.21513   4
  -5   0   0 30.3631 1.70021   3
  -5   5   0 30.3447 1.29804   2
   0  -5   0 35.4279 2.33797   4
   5  -5   0 28.5503 1.19049   2
  -5   5   0 33.6631 1.63375   3
   0   5   0 32.8144 2.05523   2
   0  -5   1 798.903 10.1085   2
   0   5   1 861.424 10.6603   2
   0  -5   1 851.651 10.4567   5
  -5   0   1 859.623 8.76159   2
   5   0   1 810.761 9.67966   2
  -5   5   1 846.911 4.73764   2
  -5   5   1 757.722 7.83299   4
   0   5   1 766.686 9.49120   1
   5   0   1 793.181 9.23032   5
   0   5   1 789.986 11.1489   5
   5   0   1 812.199 9.39917   1
   5   0   1 856.737 9.50904   1
   5   0   1 839.349 10.1053   4
   5   0   1 846.576 9.96642   2
  -5   5   1 825.691 6.75912   3
   5  -5   1 918.186 10.1776   4
   5  -5   1 848.729 5.24020   1
   0   5   1 767.633 10.6436   4
   0   5   1 865.582 9.96803   1
  -5   0   1 833.471 6.97301   4
   5  -5   1 893.987 8.42158   2
   0   5   1 874.302 11.0828   3
   5  -5   1 848.406 11.0219   5
   5   0   1 858.203 9.91446   3
  -5   0   1 837.116 9.33533   1
  -5   5   1 804.114 10.1303   5
  -5   0   1 785.065 7.90473   3
  -5   5   1 816.955 3.95025   1
  -5   5   1 810.427 3.93411   1
   0  -5   1 881.718 10.7998   4
   0  -5   1 873.861 10.8169   3
  -5   5   2 84.0541 1.66561   2
   5  -5   2 74.1080 3.15233   3
  -5   0   2 84.0473 2.84510   2
  -5   5   2 81.3884 3.44101   5
  -5   5   2 83.9245 2.29465   1
   5   0   2 87.0829 3.66377   3
   5  -5   2 76.1134 2.36762   1
   0  -5   2 87.1272 3.63118   3
  -5   5   2 82.6346 2.04621   3
   5   0   2 87.9544 3.61446   2
   0   5   2 80.5212 3.23622   1
   5   0   2 64.9732 3.15659   5
   5  -5   2 76.0410 3.32228   4
   5   0   2 87.0459 3.58843   2
   5   0   2 85.3738 3.39865   4
   5   0   2 76.4575 3.19201   1
  -5   0   2 73.3222 1.87118   4
  -5   0   2 77.3442 3.09312   1
  -5   5   2 81.5960 1.69576   2
   0  -5   2 74.6921 3.17992   1
   0   5   2 86.7005 3.70587   3
  -5   5   2 76.0347 2.49223   4
   0  -5   2 64.5728 3.05995   4
   5  -5   2 84.3244 3.76992   5
   0   5   2 78.0629 3.65714   4
   5   0   2 81.1684 3.21491   1
   0   5   2 60.2925 3.05127   2
   5   0   2 68.3597 3.26263   4
  -5   0   2 73.3186 2.37501   3
   0   5   2 81.1757 3.93912   5
   0  -5   2 59.3553 2.87133   5
   5   0   2 85.3626 3.47214   3
   5  -5   2 80.7098 3.03867   2
   0  -5   2 71.0102 3.26985   2
   0   5   2 71.6237 3.21015   1
   5  -5   3 86.4721 3.79855   3
  -5   0   3 94.4067 2.92690   3
  -5   5   3 87.0983 3.85040   5
  -5   0   3 103.005 3.89250   1
   0  -5   3 100.432 4.00198   1
   0  -5   3 104.914 4.26606   3
   0   5   3 107.300 4.14360   2
  -5   5   3 94.6851 2.56693   3
   5   0   3 107.070 4.43819   3
   5  -5   3 91.9192 3.25335   1
   0  -5   3 105.683 4.17639   4
   0   5   3 106.893 4.29717   2
  -5   5   3 94.9912 2.51480   2
   5   0   3 95.6845 4.20653   2
   5   0   3 84.8034 4.05885   5
   0  -5   3 86.6514 3.57404   5
   0   5   3 83.4376 3.90892   3
   0   5   3 97.5008 4.69660   5
   5   0   3 93.7775 4.03724   3
   5   0   3 99.3690 4.17193   4
   5   0   3 110.993 4.43155   2
   5  -5   3 110.515 4.31233   4
  -5   5   3 89.2204 2.87734   4
  -5   5   3 96.2279 3.15945   1
  -5   0   3 96.8880 2.28690   4
   0   5   3 86.9096 4.23191   4
  -5   5   3 100.778 2.59557   2
   5   0   3 101.600 4.16184   1
   5  -5   3 84.8742 3.57021   2
   0   5   3 112.979 4.26413   1
  -5   5   3 100.449 2.56678   3
   0  -5   3 91.9309 4.08577   2
  -5   0   3 97.5205 3.36310   2
   5  -5   3 111.092 4.66995   5
   5   0   3 79.8212 3.98953   4
  -5   0   4 17.7796 0.92344   5
   0  -5   4 20.2020 1.97880   5
   0  -5   4 16.7025 1.90482   3
   5  -5   4 16.5739 1.91551   3
   5  -5   4 17.4445 2.02697   4
   0   5   4 14.0522 2.18188   5
  -5   5   4 13.4673 1.50769   1
   5   0   4 22.9563 2.28375   1
   0   5   4 17.1316 1.95666   1
  -5   0   4 15.7393 1.40689   3
  -5   5   4 17.3460 1.50083   4
   5   0   4 19.3934 2.20445   2
   5   0   4 17.9843 2.04331   4
  -5   0   4 14.5895 1.70656   1
   0   5   4 18.1713 2.01657   3
  -5   5   4 16.1377 1.81416   5
  -5   5   4 15.7439 1.34124   2
   0  -5   4 18.7928 1.97812   4
   0   5   4 16.9470 1.96710   2
  -5   0   4 21.5345 1.27394   4
   5  -5   4 20.7048 1.82631   1
   5  -5   4 17.2513 2.16323   5
   0   5   4 15.7525 1.99452   4
  -5   0   4 19.7180 1.76933   2
  -5   5   4 18.5486 1.44074   2
   5   0   4 19.8786 2.18775   2
   5  -5   4 13.2082 1.77626   2
  -5   0   4 15.5193 0.81282   5
   0   5   4 15.0628 1.86234   2
  -5   5   4 18.5807 1.40922   3
   0   5   4 18.7821 2.02574   3
   0  -5   4 14.8126 1.83534   2
   5   0   4 13.8501 1.94367   5
   5   0   4 17.6056 2.04060   3
   5   0   4 14.3264 1.90870   3
   5  -5   4 13.1858 1.88436   5
   5   0   4 14.6734 2.09947   4
  -5   5   4 17.0575 1.33644   3
   0  -5   4 19.3499 1.98863   1
  -5   0   5 184.298 4.35781   4
   5  -5   5 183.823 6.79053   3
   5  -5   5 139.260 6.23101   5
   0  -5   5 165.003 6.26206   3
  -5   0   5 159.494 4.78149   3
   5  -5   5 154.617 5.64729   1
  -5   5   5 169.659 4.82771   2
   0   5   5 170.750 6.32547   2
   0   5   5 140.906 6.70350   5
  -5   0   5 175.677 4.07852   5
  -5   5   5 151.381 5.43094   1
   5   0   5 168.317 6.66978   3
   5   0   5 142.235 6.26178   2
   0   5   5 154.825 6.18424   2
   5   0   5 171.893 7.16814   5
   5  -5   5 120.706 6.17469   5
   0  -5   5 156.726 5.64791   5
  -5   5   5 181.919 6.42637   5
   5  -5   5 143.475 6.04201   4
   0  -5   5 172.766 6.54711   2
   0  -5   5 157.326 5.97068   4
   0   5   5 165.862 6.19927   3
  -5   0   5 194.256 6.53324   1
  -5   5   5 160.199 4.82849   4
  -5   5   5 166.887 4.77533   4
   5   0   5 169.791 6.94274   4
   0   5   5 169.156 6.66626   4
   5  -5   5 178.209 6.55434   2
   0  -5   5 138.314 5.39960   5
   5   0   5 158.177 6.44992   3
  -5   0   5 149.518 4.14814   4
   0   5   5 151.674 6.04381   3
  -5   5   5 172.265 4.63962   3
   0  -5   5 178.651 6.41670   1
   5   0   5 145.751 6.15098   4
   0   5   5 181.020 6.63656   1
  -5   0   5 168.180 5.58896   2
  -5   0   5 172.230 3.75510   5
   5   0   5 174.444 6.59058   1
  -5   5   5 164.920 4.64236   3
  -5   5   5 156.955 4.79119   2
   5   0   5 168.769 6.83996   5
  -5   0   6 32.4812 2.22054   4
   5  -5   6 29.0063 3.12771   3
  -5   5   6 33.0357 2.55515   2
   5  -5   6 33.9455 3.45881   5
   0  -5   6 35.9550 3.31524   3
   5   0   6 28.5757 3.38198   3
   5  -5   6 36.3154 3.25991   1
  -5   5   6 33.0127 2.47428   4
   5   0   6 37.7168 3.53333   3
  -5   5   6 38.6928 3.17518   1
   5   0   6 29.4100 3.18127   4
   5   0   6 37.7377 3.81788   5
  -5   0   6 28.1603 2.12314   5
  -5   0   6 33.0866 2.10217   5
   0   5   6 35.7183 3.43252   4
   5  -5   6 24.5677 3.22033   5
   0  -5   6 32.0321 3.00040   5
  -5   5   6 32.9105 2.64846   4
   5  -5   6 37.6827 3.48699   2
   0  -5   6 34.3270 3.02922   5
   0   5   6 33.8268 3.35523   4
   0  -5   6 38.5757 3.35458   4
   0   5   6 28.0591 3.02746   3
   0  -5   6 30.7627 3.14548   1
   5  -5   6 23.5767 2.94579   4
   0   5   6 28.9492 3.13671   2
  -5   5   6 31.0599 2.49392   3
  -5   5   6 23.5291 2.78671   5
   5   0   6 26.8328 3.57072   5
   5   0   6 36.4813 3.59179   2
   0   5   6 25.1367 3.53741   5
   5   0   6 18.3750 3.21091   4
  -5   0   6 26.9775 2.53464   3
  -5   0   6 35.8511 2.35241   4
  -5   5   6 28.2111 2.44233   2
  -5   0   6 29.9981 3.11333   1
  -5   5   6 34.0270 2.50191   3
   0   5   6 28.7566 3.06024   2
   0  -5   6 40.4164 3.61448   2
  -5   0   6 32.5624 2.94872   2
   0   5   6 32.6864 3.14039   3
   5   0   6 36.0949 3.41234   1
   0   5   6 34.0661 3.25549   1
  -5   5   7 91.5435 4.51815   3
  -5   5   7 89.7521 4.41539   3
   5  -5   7 80.2026 5.59339   3
  -5   0   7 94.9554 4.73761   3
   0   5   7 100.620 5.90019   2
   5   0   7 72.3248 6.02893   5
   5   0   7 98.7506 5.98074   1
   0  -5   7 95.1295 6.02226   2
   0  -5   7 85.9338 5.59175   3
   5   0   7 76.6566 6.10660   4
   0   5   7 91.0535 6.44038   5
  -5   5   7 93.4236 5.44763   1
  -5   5   7 92.5661 5.60204   5
   0   5   7 105.127 6.08746   3
  -5   5   7 85.5874 4.51501   4
   0   5   7 88.7954 5.54232   4
  -5   0   7 76.8347 5.35922   1
   0  -5   7 78.8602 5.05968   5
   0   5   7 89.6453 5.60787   2
   5   0   7 64.2600 5.21778   4
  -5   5   7 94.6394 4.79606   2
   5   0   7 118.344 6.89452   3
   0   5   7 101.170 5.92930   1
  -5   5   7 86.7954 4.42571   4
   5  -5   7 73.7206 5.44966   4
   0  -5   7 51.6327 4.68554   4
  -5   0   7 76.8981 3.80199   4
   5   0   7 92.4902 5.97702   3
   0  -5   7 84.9815 5.52616   1
  -5   5   7 97.4795 4.79221   2
   0   5   7 86.7070 5.85538   4
   0  -5   7 62.9962 4.67016   5
   5  -5   7 99.4039 6.16915   2
  -5   0   7 83.7958 4.11768   4
  -5   0   7 86.5146 4.11739   5
   5  -5   7 73.7616 5.49474   5
  -5   0   7 90.3494 3.90491   5
  -5   0   7 95.2519 5.20897   2
   0   5   7 90.7460 5.58831   3
   5  -5   7 81.2912 5.30805   1
   5  -5   7 61.3629 5.53007   5
   5   0   7 85.7033 6.45863   5
   5   0   7 70.3383 5.70627   2
   6  -3  -7 1.42160 1.64918   1
  -3  -3  -7-1.21740 2.36303   5
  -3  -3  -7 2.76949 2.22330   1
   6  -3  -7-0.07029 1.26911   2
   3   3  -7 0.52795 1.61954   1
  -3   6  -7-0.35748 1.71811   3
  -3   6  -7 1.74470 1.70360   1
   3   3  -7-0.93799 1.33037   4
  -6   3  -7-0.49068 1.97464   2
   3   3  -7-0.37113 1.63112   2
  -3   6  -7-1.01565 2.02272   2
   3  -6  -7 2.09991 2.12858   5
  -3   6  -7 0.37346 1.81756   4
   3  -6  -7 5.20468 2.06586   1
  -6   3  -7-0.87251 1.65442   1
   3   3  -7 0.08405 1.37287   3
  -6   3  -7-1.35426 2.09975   3
  -3   6  -6 3.09726 1.42106   3
  -6   3  -6 11.6445 2.39549   2
  -3  -3  -6 8.00805 2.38540   5
   3   3  -6 8.67714 1.98363   2
   6  -3  -6 7.37373 1.76165   1
   3   3  -6 4.97571 1.29867   4
   3   3  -6 8.15403 1.92621   1
   3  -6  -6 5.68888 1.66509   1
  -3   6  -6 5.47197 1.63847   2
   6  -3  -6 7.35768 1.44669   2
  -3  -3  -6 7.44812 2.06753   1
  -3   6  -6 7.83760 1.80554   1
   6  -3  -6 7.51572 1.42271   5
  -3   6  -6 12.4097 2.34542   4
   3  -6  -6 7.43267 1.91980   5
  -6   3  -6 8.77736 1.98828   1
  -6   3  -6 6.74351 1.99523   3
   3   3  -6 9.85554 1.88124   3
  -3   6  -5 1.88893 1.33119   3
   3   3  -5-0.41993 0.79314   3
   6  -3  -5-0.21486 0.74180   5
   3   3  -5-0.14759 0.80872   4
  -3   6  -5 0.02456 0.99237   4
   3   3  -5 1.38490 1.02339   2
  -3  -3  -5 2.26700 1.34641   5
  -6   3  -5-0.74170 0.88124   2
   3   3  -5-0.46707 0.97960   1
   6  -3  -5-0.08244 0.61058   2
   6  -3  -5 2.41878 1.17189   1
  -3   6  -5-0.31371 0.89355   2
  -3  -3  -5 1.37660 1.19339   1
   3  -6  -5 2.52651 1.39889   5
   3  -6  -5 0.17497 0.74107   1
  -3   6  -5-0.79584 0.90982   1
  -6   3  -5-0.25950 0.98673   3
  -6   3  -5 3.46139 1.32450   1
   3  -6  -5 1.20526 1.08411   4
   6  -3  -4 49.3797 2.80512   1
  -3   6  -4 48.5151 3.20557   5
   3  -6  -4 59.4293 3.91013   5
   6  -3  -4 48.9076 2.15678   2
  -3  -3  -4 55.3319 3.76249   5
  -6   3  -4 55.7883 3.15544   1
   3   3  -4 51.7627 3.30485   1
  -6   3  -4 54.2662 3.42610   2
  -6   3  -4 51.5788 3.35205   3
   6  -3  -4 58.2472 2.56426   5
   3  -6  -4 53.7255 3.11152   1
   3   3  -4 59.5472 3.24724   3
  -3  -3  -4 51.5033 3.44998   1
  -3   6  -4 54.5543 3.12755   1
  -3   6  -4 51.9305 3.30186   4
   3  -6  -4 50.1944 3.21604   4
   3   3  -4 45.7636 2.58890   4
  -3  -3  -4 44.9065 3.37717   4
   3   3  -4 53.6471 3.18577   2
  -3   6  -4 33.9775 3.01991   2
  -3   6  -4 54.4372 3.40986   3
  -6   3  -3 0.73885 0.60510   2
  -3   6  -3 1.49284 0.97438   3
  -3   6  -3-0.42807 0.57390   2
  -6   3  -3 0.50559 0.62374   4
  -6   3  -3 0.99336 0.58470   1
  -3  -3  -3-0.02123 0.62829   5
   3  -6  -3 0.33658 0.73344   5
   6  -3  -3 0.35485 0.53689   1
   3  -6  -3 0.30953 0.49345   3
  -6   3  -3-0.29381 0.59683   3
   3   3  -3-0.08770 0.47433   1
   3   3  -3 0.50198 0.60140   3
  -3   6  -3 0.11206 0.55837   1
   3  -6  -3 0.21427 0.56909   1
   3   3  -3 0.14235 0.43643   4
   6  -3  -3 0.09440 0.23712   2
   3   3  -3 0.01624 0.50059   2
  -3  -3  -3-0.37656 0.75226   1
   3  -6  -3-0.47454 0.64093   4
  -3   6  -3 0.36258 0.66950   4
   6  -3  -3-0.21191 0.45260   5
  -3  -3  -3 0.61038 0.82636   4
  -3   6  -3 0.13389 0.65370   5
   3  -6  -2 81.9550 3.04054   2
  -3   6  -2 74.6272 3.35417   3
  -3   6  -2 59.7582 2.92162   2
   3   3  -2 74.4321 3.04552   3
  -3   6  -2 84.1215 3.65480   5
   3   3  -2 89.5029 3.61455   1
   3   3  -2 81.9546 2.19918   5
   6  -3  -2 76.7896 2.55913   1
  -6   3  -2 59.0546 2.83468   2
  -3  -3  -2 77.3110 3.63616   5
   3  -6  -2 82.1203 3.23686   3
   6  -3  -2 69.3800 2.41369   5
  -6   3  -2 60.3605 2.87678   4
   3  -6  -2 78.6070 3.94581   5
   6  -3  -2 71.2797 1.13538   2
  -3   6  -2 80.6942 3.42488   4
   3   3  -2 82.0621 2.99188   4
  -3   6  -2 80.4460 2.91028   1
  -6   3  -2 79.3184 2.71705   1
   3   3  -2 83.5173 3.39054   2
   3  -6  -2 81.9814 3.58981   4
  -3  -3  -2 89.7143 3.95265   3
  -6   3  -2 78.1572 3.23910   3
  -3  -3  -2 58.1261 3.30782   4
  -6   3  -1-0.21019 0.40726   5
   3   3  -1 1.48677 0.67209   2
   3  -6  -1-0.10516 0.48772   5
  -3   6  -1-0.17392 0.41013   3
  -6   3  -1 0.19123 0.38671   4
   3   3  -1 0.67079 0.54914   3
  -6   3  -1 0.18053 0.38670   3
   3   3  -1 0.45819 0.38167   4
   3  -6  -1 0.16528 0.38934   3
   6  -3  -1 0.04388 0.12644   4
   6  -3  -1 0.07563 0.11527   4
  -3   6  -1-0.25111 0.46079   5
  -3  -3  -1 0.95736 0.59586   5
   3   3  -1 0.70269 0.41137   5
  -6   3  -1 0.13229 0.32861   2
  -3  -3  -1-0.04629 0.52581   2
  -3   6  -1 0.44940 0.36048   1
   3  -6  -1-0.14908 0.32010   2
  -3   6  -1 0.84098 0.61413   4
   6  -3  -1-0.05061 0.29359   5
   3  -6  -1-0.55008 0.51997   4
  -3  -3  -1 0.99384 0.62336   4
   3   3  -1 0.59491 0.56831   1
  -3  -3  -1 2.00230 0.75676   3
   6  -3  -1-0.03560 0.21201   1
  -3   6  -1 1.23269 0.68702   2
  -6   3   0 68.7647 2.58941   5
  -3   6   0 67.0760 2.78919   3
   3   3   0 69.8120 2.97208   4
   6  -3   0 66.9647 1.80676   2
   3  -6   0 68.5623 2.83513   3
   6  -3   0 71.6420 2.08687   3
  -3   6   0 59.3588 2.11671   1
   3   3   0 72.2962 3.06435   3
  -3  -3   0 74.9106 3.10065   1
   3  -6   0 75.7697 2.76430   2
  -3  -3   0 69.3764 3.09121   4
  -3  -3   0 69.5286 2.72329   5
   3  -6   0 72.9547 3.00929   4
  -6   3   0 63.4084 2.06329   4
   6  -3   0 70.4404 2.62468   5
  -3   6   0 72.8226 3.33646   5
   6  -3   0 72.7456 1.93568   1
   6  -3   0 59.6654 1.96279   4
   3   3   0 54.0568 2.65857   1
   3  -6   0 75.9889 2.30815   1
   3  -6   0 69.1686 3.29137   5
   6  -3   0 68.8391 1.81722   2
  -3   6   0 55.5227 2.73951   4
  -3  -3   0 78.8329 3.25458   3
   3   3   0 61.3380 2.56107   5
  -3  -3   0 62.4933 2.83555   2
   3   3   0 73.2760 3.08691   2
   6  -3   0 71.1163 1.83995   1
  -3   6   0 80.5048 2.89618   2
   6  -3   0 73.0438 1.99345   3
  -3  -3   1 0.08588 0.32695   5
   3  -6   1-0.18120 0.39433   5
  -3  -3   1 0.52201 0.52991   3
   6  -3   1-0.10225 0.29038   3
   3  -6   1 0.37463 0.41233   2
   3  -6   1 0.46795 0.63758   3
   3   3   1 0.53580 0.58498   1
   3   3   1 0.34251 0.72369   4
  -3   6   1 0.10104 0.34577   2
  -3  -3   1 0.06647 0.33605   2
  -3   6   1-0.01736 0.61554   5
   3   3   1 0.25972 0.58965   3
   6  -3   1-0.05059 0.39693   5
  -6   3   1 0.27659 0.31173   1
  -3  -3   1 0.66904 0.55940   4
   3   3   1 0.49331 0.54446   2
  -6   3   1 0.18773 0.29983   5
   6  -3   1-0.02034 0.30097   4
  -3  -3   1 0.18830 0.43514   1
   3   3   1 0.23175 0.40266   1
  -3   6   1 0.65621 0.62023   4
   3   3   1 0.36856 0.56392   5
   3  -6   1 0.12730 0.53059   4
  -3   6   1-0.19121 0.40005   3
  -3   6   1 0.10793 0.30763   1
   6  -3   1 0.51600 0.32685   1
   6  -3   1-0.05286 0.29379   2
   6  -3   1 0.39746 0.37175   1
  -3   6   1 0.02436 0.28924   1
   3  -6   1 0.17127 0.30748   1
  -3  -3   2 69.7943 3.13875   2
   3  -6   2 83.3127 2.93967   1
   3   3   2 84.5419 3.94558   4
  -3   6   2 70.2330 2.77499   2
   3  -6   2 80.6418 3.51576   3
  -3  -3   2 82.5690 2.45509   5
  -3  -3   2 74.7354 3.20430   3
   3   3   2 76.8484 3.69373   3
  -3   6   2 66.2273 2.89228   3
   6  -3   2 80.3242 3.53923   5
  -3   6   2 82.7695 3.96491   5
  -3   6   2 91.8899 3.60044   4
   6  -3   2 83.3181 3.20280   3
   3  -6   2 89.1695 3.89335   5
   6  -3   2 93.3424 3.97088   5
  -3  -3   2 87.5603 3.64541   1
   6  -3   2 75.5803 3.19022   4
  -6   3   2 77.3084 2.36225   5
  -6   3   2 76.7609 2.58215   1
  -3   6   2 86.0901 2.95792   1
   6  -3   2 90.0524 3.30584   2
   3   3   2 84.3265 3.51263   1
   3   3   2 67.4625 3.31801   2
   3   3   2 84.9296 3.62498   1
   6  -3   2 82.2841 2.89623   1
  -3  -3   2 87.1885 3.21067   4
   3  -6   2 87.7722 3.51663   2
   3   3   2 73.4416 3.72028   5
   3  -6   2 63.5736 3.20312   4
   3  -6   3 0.64816 0.76692   2
  -3  -3   3 0.19225 0.32949   5
  -3  -3   3-0.01768 0.59088   1
   6  -3   3 0.87893 0.70568   3
  -3   6   3 1.24165 0.79002   4
  -3   6   3-0.02739 0.48458   1
   3  -6   3 0.60436 0.79514   3
   6  -3   3-0.17649 0.66612   5
  -3  -3   3 0.10738 0.53358   3
  -6   3   3 0.31410 0.50777   1
  -6   3   3 0.78038 0.53597   5
   3   3   3 1.82675 0.90286   3
   3   3   3 0.64190 0.66456   5
   3   3   3 0.38389 0.70346   2
  -6   3   3 0.15141 0.27421   2
  -3   6   3 0.43547 0.72860   5
  -3   6   3-0.18123 0.48975   2
  -3   6   3-0.26290 0.46093   2
   3   3   3-0.10603 0.73510   4
   6  -3   3-0.22311 0.62279   5
   3  -6   3 0.01901 0.47623   4
   6  -3   3-0.10456 0.62196   4
   3  -6   3 0.11918 0.66095   5
  -3  -3   3 0.06595 0.55540   2
   6  -3   3-0.14859 0.55995   2
  -3  -3   3-0.18043 0.48357   4
   6  -3   3 0.19508 0.56111   1
  -3   6   3-0.21510 0.49907   3
   3   3   3-0.19737 0.61945   3
   3  -6   3 0.21911 0.46601   1
   3   3   3 0.27809 0.71758   2
   3   3   3 0.47639 0.72544   1
  -3  -3   4 54.0560 2.80355   4
   6  -3   4 49.0122 2.96533   1
   3   3   4 38.0422 3.21082   5
  -3  -3   4 61.7305 3.48874   1
   3   3   4 55.9173 3.57009   2
  -6   3   4 49.1573 1.58905   3
   6  -3   4 55.0900 3.75037   5
  -3   6   4 54.3922 2.98168   2
   6  -3   4 57.9674 3.52916   4
  -3   6   4 49.4603 2.87764   3
   3   3   4 52.2961 3.40837   1
   3  -6   4 51.0529 3.28375   3
  -3   6   4 48.7667 3.48867   5
  -6   3   4 50.7823 1.61577   3
  -3   6   4 58.2623 3.15847   1
  -3  -3   4 51.5863 2.35722   5
   3   3   4 49.3692 3.43681   3
   6  -3   4 64.3474 4.14410   5
   3  -6   4 49.4876 3.38880   5
   3  -6   4 53.5677 3.45236   4
   3   3   4 53.4840 3.53800   2
  -3   6   4 50.0919 3.12860   4
  -3  -3   4 55.8498 3.19656   3
  -6   3   4 39.5020 2.59584   1
  -6   3   4 53.5616 2.50656   5
   3   3   4 48.1032 3.43889   4
   3  -6   4 55.0479 3.12744   1
  -3   6   4 52.7880 2.87867   2
   3  -6   4 58.4169 3.47432   2
  -3  -3   4 48.9141 2.22083   5
  -6   3   4 50.6918 2.20149   2
  -3   6   4 54.0829 2.95980   3
   6  -3   4 47.7709 3.15003   2
   3   3   4 46.6914 3.30375   3
  -3  -3   4 52.7606 3.18548   2
   6  -3   4 52.8414 3.33932   3
   6  -3   5-0.07847 1.02533   3
   6  -3   5-0.36022 0.97511   5
  -3  -3   5 0.28149 0.69433   5
   3  -6   5 0.05217 0.95778   5
   3   3   5-0.29233 0.78427   1
  -3  -3   5-0.43476 0.73523   4
   3  -6   5-0.46990 1.04208   3
  -3  -3   5-0.59166 0.91499   2
  -6   3   5-0.31593 0.50282   3
   3   3   5 0.31293 1.36460   5
   3  -6   5-0.35923 1.08402   2
  -6   3   5 0.04284 0.80062   1
   3  -6   5 1.75671 1.13318   5
  -3   6   5 1.08475 1.04264   1
  -3   6   5 0.21213 0.78240   2
   3   3   5 1.22963 1.05296   2
  -6   3   5 0.58342 0.47381   3
   6  -3   5-0.43430 1.08268   5
  -3   6   5 1.20755 1.49081   5
   3   3   5-0.02708 1.09726   4
  -6   3   5 0.17877 0.36520   4
   6  -3   5-0.23467 1.09074   2
  -3  -3   5-1.00883 1.07059   1
   3   3   5-0.73964 1.18859   4
   3  -6   5-0.11050 0.82053   1
   3  -6   5 0.28454 1.01607   4
  -3   6   5 0.49614 0.87934   2
   3   3   5-0.55026 1.12661   2
  -6   3   5-0.21839 0.71936   5
   6  -3   5-0.23054 1.13539   4
  -6   3   5 0.01479 0.36041   4
   6  -3   5 1.60930 1.06083   4
  -3   6   5-0.82787 1.02758   4
   3   3   5 0.89445 1.19197   3
   6  -3   5 0.02235 0.88896   1
  -3  -3   5-0.72769 0.94300   3
  -3   6   5 0.65119 0.92841   3
  -3  -3   5-0.17239 0.62252   5
  -3   6   5 0.56862 0.86524   3
   3   3   5-0.18365 1.07582   3
  -6   3   5 0.94343 0.76561   2
  -3   6   6 10.8002 1.82248   4
  -3  -3   6 5.17797 1.98832   2
   3  -6   6 6.33853 1.73403   2
   6  -3   6 2.15873 1.80935   3
  -6   3   6 8.12438 1.18510   3
   3  -6   6 7.16206 1.84675   4
   3   3   6 6.21939 1.98003   2
   3   3   6 6.87255 2.22487   5
  -3  -3   6 8.77990 1.88007   3
   3   3   6 8.59974 2.01668   1
  -6   3   6 6.56797 1.15159   3
   3  -6   6 11.6107 2.31500   5
  -3  -3   6 18.5515 2.21118   4
   3  -6   6 5.58100 1.74476   5
  -3   6   6 5.33875 1.45685   3
   3   3   6 6.69008 1.82206   3
  -6   3   6 8.29346 1.13868   4
  -3   6   6 6.75688 1.56622   2
  -3   6   6 5.96517 1.69007   1
  -6   3   6 6.58435 1.43264   5
  -3  -3   6 9.06500 2.05502   1
  -3   6   6 8.56196 2.36381   5
  -6   3   6 7.50987 1.03231   4
   6  -3   6 5.71376 1.76692   4
   6  -3   6 6.12807 1.72405   1
  -6   3   6 8.54668 2.00132   1
  -3  -3   6 8.15631 1.45700   5
  -6   3   6 10.2551 1.62921   2
   3   3   6 5.73853 1.90718   4
   3   3   6 7.35170 1.89684   2
   6  -3   6 4.03346 2.17516   5
  -3   6   6 8.18863 1.71144   2
  -3   6   6 4.71948 1.59394   4
   6  -3   6 5.58689 1.96572   2
   3   3   6 5.80277 1.96433   4
   6  -3   6 6.81266 2.25465   5
   6  -3   6 11.8065 2.36444   4
   3  -6   6 7.21995 1.86428   3
  -3  -3   6 4.39143 1.17980   5
   3  -6   6 10.1991 1.93969   1
   3   3   6 7.58891 1.90081   3
  -3   6   6 5.98292 1.48548   3
  -6   3   7 1.06380 1.15977   3
  -3  -3   7 0.06944 1.72844   2
   6  -3   7 2.57940 2.14888   1
  -3  -3   7-0.57018 1.40745   5
   6  -3   7-0.74824 1.95917   3
   3   3   7-0.14917 1.97268   4
  -3   6   7 2.12845 1.78593   2
   3   3   7-1.48781 2.08874   1
   3  -6   7-0.80625 1.90174   5
  -3   6   7-0.37783 1.46028   1
   3  -6   7 2.31557 1.91125   1
  -3   6   7-0.08363 1.44247   3
  -3   6   7-0.57259 1.55463   2
   3   3   7 0.03903 1.96118   3
  -6   3   7 0.89372 1.71160   1
  -6   3   7-0.59614 1.14619   3
   3   3   7-0.72467 1.60717   2
  -3  -3   7 0.29101 1.53339   1
  -3   6   7-0.14041 1.42329   4
  -6   3   7 0.37234 1.36096   5
   3   3   7 0.41601 1.98580   2
  -3  -3   7 1.10478 1.82560   3
  -6   3   7-0.04171 0.87366   4
   6  -3   7-0.95188 1.72146   4
   6  -3   7 0.89647 2.03383   5
   3  -6   7 1.47638 1.95965   4
   6  -3   7-0.17676 2.18800   5
   3  -6   7-0.52383 1.98880   3
  -3   6   7-0.36037 1.44442   3
  -3   6   7 2.11246 2.37640   5
  -3  -3   7 1.68069 1.44992   4
   3   3   7 3.39484 2.18273   3
  -3   6   7 0.12723 1.53964   4
  -6   3   7-0.24041 0.96012   4
   3   3   7 0.92118 1.95281   4
   6  -3   7 1.86579 2.02412   2
   6  -3   7 1.94699 1.95538   4
  -6   3   7-0.39990 1.37181   5
   3  -6   7 1.05093 2.00572   5
   3  -6   7-0.18760 1.98459   2
   3   3   7-0.63368 1.94041   5
  -6   3   7-0.16330 1.23685   2
  -3  -3   7 1.08648 1.25045   5
   2   4  -7 53.6348 4.44572   2
   4   2  -7 62.8090 4.86885   1
   2   4  -7 59.4570 4.80583   1
   6  -2  -7 55.0854 3.71954   2
   4  -6  -7 53.1097 4.78118   5
  -2  -4  -7 49.3578 4.68210   1
  -4   6  -7 36.7010 4.11632   2
  -2   6  -7 52.9276 4.38111   4
   2   4  -7 55.2078 3.86659   4
  -2   6  -7 45.4930 4.35921   1
   4   2  -7 48.4108 4.17832   2
  -2  -4  -7 51.0557 5.18678   5
   6  -4  -7 52.7110 3.60649   2
  -6   2  -7 43.0704 4.47365   2
   2  -6  -7 50.5056 4.32774   1
  -4   6  -7 51.0887 4.52519   4
  -6   4  -7 57.0501 4.77729   2
  -4  -2  -7 43.0668 4.45631   1
  -4  -2  -7 60.5387 5.44785   5
  -2   6  -7 36.9278 4.10073   3
  -6   2  -7 47.7373 4.34764   1
   4  -6  -7 42.1948 3.95590   1
   6  -4  -7 53.4048 3.93951   5
  -6   4  -7 41.9330 4.08636   1
   6  -4  -7 55.3739 4.40736   1
  -4   6  -7 54.5152 4.66972   1
  -6   4  -7 43.0886 4.31919   3
   6  -2  -7 55.7367 4.41220   1
  -4   6  -7 38.9298 4.09075   3
   4   2  -7 52.7840 3.79196   3
   2   4  -7 55.0230 4.26154   3
  -2   6  -7 45.7718 4.59433   2
   2  -6  -7 50.9274 4.82614   5
  -6   2  -6 39.6232 3.50618   1
   4  -6  -6 29.2065 3.50362   5
   2  -6  -6 38.7707 3.93168   5
   4   2  -6 45.7927 3.75015   1
  -2   6  -6 31.6319 3.29517   2
   2   4  -6 37.1894 3.36835   1
   2  -6  -6 33.1112 3.26085   1
   4   2  -6 39.1498 3.25570   2
  -2  -4  -6 29.5864 3.44837   1
  -2   6  -6 34.2323 3.31718   1
  -6   4  -6 45.2600 3.87271   2
   6  -4  -6 35.4445 2.90558   5
  -4  -2  -6 44.1761 4.13622   5
  -4  -2  -6 36.7395 3.64155   1
  -4   6  -6 33.4372 3.44699   2
   6  -4  -6 39.3472 2.71472   2
   4   2  -6 35.9759 2.61805   4
   2   4  -6 42.5720 3.08489   4
  -2   6  -6 43.1789 3.56448   4
   6  -2  -6 35.7476 2.88505   2
  -6   4  -6 37.8004 3.38349   1
   4  -6  -6 35.2217 3.10717   1
   2   4  -6 32.5184 3.45380   2
  -6   2  -6 37.5689 3.62944   2
   6  -4  -6 42.3195 3.44940   1
  -4   6  -6 36.9372 3.42915   4
  -4   6  -6 42.0091 3.49041   1
  -6   4  -6 43.0419 3.79710   3
  -4   6  -6 44.7445 3.77742   3
  -2  -4  -6 42.5989 4.29305   5
   4   2  -6 36.9642 3.02080   3
  -2   6  -6 38.3570 3.52571   3
   6  -2  -6 44.2003 3.58848   1
   2   4  -6 40.2196 3.28074   3
   6  -2  -5 66.6604 3.81702   1
  -2   6  -5 58.1854 3.72467   1
  -6   2  -5 44.7092 3.63591   2
  -6   4  -5 58.9641 3.67063   1
  -2   6  -5 67.7115 4.19304   2
   4  -6  -5 47.5012 3.73650   5
   2  -6  -5 64.3402 4.58308   5
  -4  -2  -5 58.7440 4.12301   1
  -2  -4  -5 65.9475 4.28834   1
  -4   6  -5 55.8066 3.79025   4
  -2  -4  -5 62.3445 4.48422   5
   6  -4  -5 61.2990 2.79591   2
   4   2  -5 59.8572 2.93917   4
  -2   6  -5 64.4301 3.93685   4
   2   4  -5 55.3023 3.21693   4
  -6   4  -5 67.5642 4.24321   2
   6  -2  -5 61.3188 2.47375   3
   2  -6  -5 51.6401 3.56420   1
  -6   4  -5 55.7418 3.75707   4
   6  -2  -5 62.6809 3.08878   2
  -6   2  -5 60.6123 3.87216   1
  -4   6  -5 64.0717 4.10083   2
   4   2  -5 68.0691 3.82840   2
  -4  -2  -5 57.0317 4.42862   5
   2   4  -5 65.3519 4.01741   2
  -4   6  -5 59.7634 3.69049   1
   4  -6  -5 52.2418 3.34128   1
   2   4  -5 59.5818 3.91364   1
   6  -4  -5 64.9300 3.51185   5
   4   2  -5 59.7320 3.80470   1
   2  -6  -5 51.7735 3.82661   4
   6  -4  -5 58.5078 3.51535   1
  -6   4  -5 66.1658 4.14271   3
  -4   6  -5 63.8213 4.01670   3
   4   2  -5 53.7266 3.10908   3
  -2   6  -5 57.4387 3.75827   3
   2   4  -5 57.0330 3.49588   3
  -4   6  -4 59.6601 3.27395   1
   4   2  -4 60.4961 2.99957   3
   2   4  -4 63.7005 3.46116   3
   2   4  -4 57.1061 3.43526   1
   6  -2  -4 64.9466 3.27481   1
  -4   6  -4 66.6348 3.82248   5
  -2   6  -4 67.3669 3.68987   5
   6  -2  -4 61.1707 2.65628   2
   4   2  -4 69.7840 3.74027   1
  -4   6  -4 45.7799 3.41520   2
   4  -6  -4 79.9703 4.39727   5
   4  -6  -4 69.8557 3.49355   4
  -6   4  -4 54.0483 3.51967   4
   2   4  -4 62.6431 3.15487   4
   2  -6  -4 70.0190 4.34661   5
  -6   2  -4 73.5752 3.74227   1
   6  -4  -4 64.3402 2.30077   2
   6  -2  -4 63.7826 2.19011   5
  -4  -2  -4 74.6276 4.42227   5
   2  -6  -4 64.4794 3.60421   1
  -6   2  -4 67.3773 3.90954   2
  -2  -4  -4 68.5290 4.03881   1
  -4   6  -4 58.5883 3.57032   4
   6  -2  -4 67.9708 2.05153   3
   4   2  -4 61.6629 2.70899   4
  -2   6  -4 67.6261 3.75966   4
   4  -6  -4 69.0600 3.34801   1
   2   4  -4 55.6708 3.34868   2
  -2   6  -4 66.7288 3.46933   1
  -6   4  -4 69.5537 3.84974   2
   4   2  -4 57.9623 3.20023   2
  -6   4  -4 65.2219 3.43103   1
   6  -4  -4 62.2447 3.08170   5
  -4  -2  -4 61.6801 3.73647   1
  -2  -4  -4 69.5793 4.29253   5
   2  -6  -4 75.4178 4.12489   4
   6  -4  -4 61.5592 3.12253   1
  -6   4  -4 67.6178 3.81534   3
  -2  -4  -4 50.9285 3.68605   4
  -4   6  -4 66.7778 3.75498   3
  -2   6  -4 69.4658 3.89733   2
  -2   6  -4 57.8753 3.76430   3
   2  -6  -3 70.6016 4.05871   5
  -6   4  -3 67.6957 2.98792   1
  -2   6  -3 68.4649 3.57242   3
  -6   4  -3 66.1887 3.32173   2
   4   2  -3 62.0134 2.80235   3
   2   4  -3 61.7085 3.18275   3
  -4   6  -3 61.8770 2.83900   1
  -2  -4  -3 60.7246 3.71880   5
   4   2  -3 71.3454 3.41019   1
  -4  -2  -3 69.5893 3.62759   1
   6  -2  -3 58.1112 1.64577   5
   2  -6  -3 55.4814 2.96997   1
   6  -4  -3 63.9685 2.96221   5
   2  -6  -3 65.4076 3.33249   3
  -2   6  -3 59.6574 2.98891   1
   6  -2  -3 56.0865 2.71727   1
   4  -6  -3 62.9456 3.64637   5
  -4  -2  -3 67.9652 3.74212   5
  -4   6  -3 63.5288 3.38879   4
   4  -6  -3 55.9216 2.65090   3
   4  -6  -3 63.1575 3.11306   4
  -4   6  -3 68.5682 3.66738   5
  -4  -2  -3 58.1275 3.45982   4
  -2  -4  -3 47.4108 3.09328   1
  -6   4  -3 64.5058 3.30010   4
  -6   2  -3 60.7105 2.99691   1
   2   4  -3 66.4984 3.44099   1
   4  -6  -3 63.9486 2.81675   1
   4   2  -3 62.0140 2.42742   4
  -2  -4  -3 71.6722 3.88818   3
   6  -2  -3 57.9639 2.13005   2
   2   4  -3 63.2748 2.57022   5
  -4   6  -3 60.7202 3.20561   2
  -2   6  -3 54.9575 3.14759   2
   2   4  -3 65.2925 2.98565   4
   4   2  -3 66.5237 3.12838   2
   2  -6  -3 68.5302 3.62112   4
   2   4  -3 47.0042 2.98006   2
  -2   6  -3 63.8070 3.37891   5
  -2  -4  -3 62.0991 3.65197   4
  -2   6  -3 58.7979 3.18782   4
   6  -2  -3 61.4511 1.35822   3
  -6   2  -3 54.2494 3.17336   2
  -6   4  -3 60.4001 3.14385   3
   6  -4  -3 64.9210 2.64432   1
  -4   6  -3 64.4864 3.35994   3
  -4   6  -2 121.882 3.32959   1
  -4  -2  -2 122.540 4.60606   3
  -2   6  -2 103.333 4.06439   3
   4   2  -2 130.153 3.82736   3
   4   2  -2 119.218 3.28754   4
  -2  -4  -2 108.925 4.55087   4
   2  -6  -2 131.717 4.43715   3
   2   4  -2 133.902 3.49642   5
   4   2  -2 139.811 4.19820   2
  -2   6  -2 125.459 4.31846   2
  -2  -4  -2 105.760 4.40097   5
   4  -6  -2 111.186 3.48186   3
   2   4  -2 121.432 4.23727   1
  -4  -2  -2 111.751 4.21117   5
   4   2  -2 126.882 4.34748   1
  -4  -2  -2 132.842 4.75157   4
   6  -2  -2 138.813 3.71062   1
  -4   6  -2 148.940 4.69351   3
   2   4  -2 143.156 4.26678   4
  -2   6  -2 142.682 4.13390   1
   2  -6  -2 137.810 5.26001   5
  -4   6  -2 141.555 4.85272   5
  -4   6  -2 125.875 4.42908   4
   6  -2  -2 130.470 2.33609   5
   2  -6  -2 140.932 4.31341   2
   6  -2  -2 133.667 2.59613   2
   4  -6  -2 118.363 3.22968   1
  -6   4  -2 132.489 4.09502   2
   2   4  -2 131.403 4.28986   3
  -6   4  -2 122.533 4.03197   4
   4   2  -2 126.084 1.63500   5
   6  -4  -2 111.906 3.58642   5
  -6   4  -2 147.894 4.84564   5
  -2   6  -2 133.843 4.55075   4
   4  -6  -2 134.940 4.26027   4
   2  -6  -2 105.094 4.34705   4
  -6   4  -2 136.220 3.34838   1
   2   4  -2 121.791 4.23836   2
   6  -4  -2 126.180 1.88376   4
  -4   6  -2 132.770 4.20439   2
   4  -6  -2 136.148 5.04605   5
  -6   2  -2 136.445 3.87617   1
  -2  -4  -2 136.379 4.85328   2
  -2  -4  -2 137.210 4.93619   3
  -6   4  -2 110.436 3.78664   3
  -2   6  -2 122.127 4.33920   5
   6  -4  -2 132.250 3.04632   1
   6  -4  -1 199.325 4.63390   5
   6  -2  -1 221.595 2.64028   3
  -4   6  -1 188.602 4.80859   3
   6  -4  -1 218.795 2.68957   1
  -2   6  -1 224.326 5.59027   3
  -4   6  -1 222.499 5.39092   4
  -2   6  -1 227.689 5.40066   2
   4   2  -1 214.792 5.26010   1
   2   4  -1 215.366 5.37736   1
  -6   4  -1 177.423 4.88566   5
   2  -6  -1 200.971 4.79526   2
   4  -6  -1 198.030 4.90548   4
  -2  -4  -1 220.668 5.91620   3
  -4   6  -1 216.244 5.75611   5
   6  -2  -1 197.039 3.32157   5
   4   2  -1 230.046 3.40528   5
   2   4  -1 190.911 4.36169   5
   6  -2  -1 219.405 2.46753   4
   2  -6  -1 212.375 5.91281   4
   2   4  -1 230.293 5.54608   3
  -2  -4  -1 230.559 5.92268   5
  -4  -2  -1 234.968 5.85408   2
  -6   4  -1 217.487 4.72061   4
  -4  -2  -1 216.926 5.62055   3
  -2   6  -1 182.796 5.34206   5
  -4   6  -1 183.313 4.39490   2
  -6   4  -1 227.839 4.43583   2
   6  -2  -1 208.165 2.17568   4
   2  -6  -1 236.045 6.40303   5
   4   2  -1 164.063 4.31888   3
   4  -6  -1 230.740 4.74759   3
  -2   6  -1 191.080 5.24738   4
   6  -4  -1 220.476 3.17288   4
   2   4  -1 237.206 5.40598   4
   4   2  -1 246.385 4.77196   4
  -4  -2  -1 226.660 5.16816   5
  -2  -4  -1 215.126 5.93931   4
   6  -2  -1 229.283 4.23490   1
  -2  -4  -1 235.234 5.87930   2
  -4  -2  -1 245.762 6.01493   4
   4  -6  -1 188.733 5.51716   5
  -2   6  -1 198.667 4.41482   1
   2  -6  -1 200.030 5.12095   3
  -4   6  -1 212.655 3.66819   1
   6  -2  -1 228.218 2.67331   3
  -6   4  -1 215.910 4.49479   3
   6  -2  -1 203.990 3.07367   2
   2   4  -1 220.183 5.48617   2
   4   2  -1 193.391 4.76954   2
   4  -6  -1 222.758 4.12020   2
   6  -2   0 38.0770 1.83210   5
   2   4   0 38.5892 2.31391   2
   4  -6   0 38.4193 1.77932   2
   6  -4   0 37.0110 1.45642   3
   2  -6   0 38.5137 1.89943   1
   6  -2   0 35.9783 1.58093   2
  -6   4   0 30.4371 1.53686   4
  -4   6   0 28.6983 1.82300   3
  -2   6   0 39.3320 2.25339   3
   4   2   0 40.2321 2.22621   1
  -6   4   0 30.2917 1.87808   5
  -6   4   0 36.9929 1.47075   3
  -4   6   0 34.0936 1.27050   1
   2   4   0 39.5835 2.30574   1
  -2  -4   0 30.0939 2.06114   5
   2   4   0 33.4346 2.03993   5
   4  -6   0 38.5867 2.15834   4
  -4  -2   0 37.4835 2.25662   3
  -4   6   0 31.3580 2.19257   5
  -2   6   0 40.7648 2.53773   5
   6  -2   0 36.4335 1.60597   2
   4  -6   0 35.7036 2.42516   5
   6  -2   0 40.4532 1.58652   3
  -4  -2   0 38.2168 2.19244   4
  -2   6   0 32.6588 2.17282   4
   2  -6   0 35.1429 2.17154   3
  -4  -2   0 30.5567 1.65622   5
  -2  -4   0 36.9225 2.38567   4
   6  -2   0 31.7556 1.65479   1
   2  -6   0 35.9761 2.04667   2
   6  -2   0 37.6648 1.54773   4
   6  -2   0 39.7694 1.76002   1
   6  -4   0 37.7708 2.07545   5
   2  -6   0 35.5555 2.26910   4
   6  -4   0 35.7020 1.62556   4
  -2  -4   0 25.8579 1.89892   2
   4   2   0 32.6619 2.07904   2
   4  -6   0 38.8642 2.00692   3
   6  -4   0 33.9907 0.82161   1
   2  -6   0 37.0942 2.45925   5
   4   2   0 30.0599 1.95286   4
  -2   6   0 33.8516 1.82109   1
   6  -2   0 28.7501 1.55512   5
  -4  -2   0 33.5478 2.12078   2
   6  -4   0 34.3921 1.12580   2
   2   4   0 28.6832 2.06304   3
   6  -2   0 30.1404 1.53630   4
  -4   6   0 34.8687 1.75287   2
  -2  -4   0 40.1061 2.41017   3
  -4   6   0 34.7492 2.07580   4
   4   2   0 35.8852 2.10038   3
  -2  -4   0 35.3438 2.20523   1
   6  -2   0 31.9443 1.53080   3
  -4   6   0 34.4883 1.27702   1
   6  -4   0 33.7666 0.86405   1
   4   2   0 35.8516 1.86205   5
  -2   6   0 30.9788 1.94217   2
  -4  -2   0 24.9079 1.85288   1
   2   4   0 33.7803 2.15987   4
   2  -6   1 197.474 4.99461   2
  -2   6   1 231.824 5.20517   2
  -2   6   1 229.000 6.28733   5
  -4   6   1 232.841 3.60054   1
  -2  -4   1 210.473 5.44445   2
  -4   6   1 216.845 4.57487   3
   4  -6   1 231.164 5.25571   3
  -2   6   1 187.446 4.37181   1
  -6   2   1 221.837 3.36879   5
   6  -2   1 231.480 5.17738   5
  -2  -4   1 223.148 5.57631   4
  -6   4   1 228.254 4.78339   5
  -4   6   1 241.105 5.31402   4
  -2   6   1 176.386 5.03434   4
   2   4   1 201.655 5.22104   1
  -2   6   1 204.726 4.47304   1
   2  -6   1 229.215 6.02146   5
   6  -2   1 220.694 4.28797   1
  -2  -4   1 228.184 5.61691   3
   2   4   1 229.797 5.91752   3
  -6   2   1 213.832 3.43052   2
  -4  -2   1 221.105 3.32664   5
   6  -2   1 201.149 5.07923   5
  -2   6   1 228.079 5.43681   3
  -4  -2   1 215.189 5.05018   3
   2  -6   1 176.502 4.96294   3
   4   2   1 218.364 5.34646   5
   6  -2   1 225.685 4.75635   2
   6  -2   1 226.435 4.94244   3
   4   2   1 232.297 5.80550   3
  -2  -4   1 226.334 5.03972   5
   6  -4   1 245.307 4.76289   3
   2   4   1 219.497 5.90203   5
   4  -6   1 187.745 4.38555   2
  -4   6   1 188.446 3.81455   2
   2   4   1 223.136 5.43449   1
  -2  -4   1 239.254 5.61814   1
   6  -4   1 206.434 3.04305   1
   6  -4   1 225.116 4.79992   4
   6  -4   1 178.033 4.90979   5
   6  -2   1 221.783 4.41823   1
   6  -2   1 231.245 4.70676   4
   2  -6   1 162.537 4.83343   4
   4  -6   1 221.556 3.62060   1
  -6   4   1 231.784 3.21503   4
   6  -4   1 215.402 4.08526   2
  -4   6   1 227.749 3.54354   1
   2   4   1 213.614 5.59588   2
   4   2   1 215.807 5.68504   4
  -4  -2   1 228.509 5.01403   4
   2  -6   1 237.994 4.81434   1
   6  -2   1 237.327 4.77976   2
   4  -6   1 216.427 5.41048   4
   6  -2   1 164.037 4.38874   4
   4   2   1 232.646 5.63319   2
   2   4   1 234.707 6.10589   4
  -4  -2   1 236.743 5.34193   2
   6  -2   1 236.318 4.72911   3
   4   2   1 186.159 4.93318   1
  -4   6   1 193.832 5.55313   5
  -6   4   1 215.712 2.72993   1
   4  -6   1 219.093 5.89192   5
  -4  -2   1 240.469 5.58287   1
   4   2   1 226.537 5.38876   1
   6  -4   1 229.334 3.24359   1
  -6   2   1 232.257 4.33548   1
   6  -4   2 132.425 4.14827   3
  -2  -4   2 128.648 4.37168   2
   6  -4   2 131.841 3.27854   1
  -4   6   2 107.171 3.07497   2
  -4   6   2 122.419 3.26768   1
   2   4   2 135.610 4.62575   1
   4   2   2 127.302 4.74428   4
   4  -6   2 137.426 4.97106   5
  -2   6   2 114.982 3.88126   2
  -4  -2   2 131.757 4.39538   1
  -2  -4   2 139.639 4.50249   3
  -6   2   2 128.875 2.63450   2
   2   4   2 136.859 4.89525   3
   2  -6   2 132.493 3.96336   1
  -2   6   2 108.535 4.00471   3
  -4  -2   2 128.695 3.90920   3
   4   2   2 143.916 4.86539   2
  -6   4   2 131.794 3.69930   5
  -6   4   2 118.060 1.66427   4
   6  -2   2 115.444 3.70566   1
   6  -2   2 128.732 4.29300   3
   4   2   2 122.394 4.33485   1
   4   2   2 118.439 4.15568   1
   4   2   2 113.529 4.29636   5
   4  -6   2 139.256 4.49533   3
   2  -6   2 131.194 4.58233   3
  -2   6   2 143.345 5.26393   5
  -2  -4   2 137.816 4.58333   1
  -2  -4   2 107.956 3.35974   5
   6  -2   2 134.053 4.56217   5
   6  -2   2 103.652 4.12992   5
  -4   6   2 138.986 4.12629   4
   6  -2   2 119.921 3.97613   4
   2  -6   2 128.407 4.58003   5
   2  -6   2 106.928 4.14085   4
  -6   2   2 120.760 2.11335   5
   6  -4   2 133.783 4.34618   4
   2   4   2 131.627 4.97306   5
  -4  -2   2 141.382 4.36584   2
  -2   6   2 111.265 4.21529   4
   6  -2   2 128.876 4.18613   2
   2   4   2 111.677 4.07441   1
   4   2   2 99.3414 4.03540   2
   4  -6   2 131.577 4.58236   4
  -2   6   2 126.474 3.83763   1
  -2  -4   2 136.924 4.25015   4
   6  -4   2 130.427 3.88206   2
  -4  -2   2 141.283 3.77715   4
   2   4   2 125.121 4.88281   4
  -2   6   2 138.646 4.14429   1
  -4  -2   2 120.594 1.72188   5
   4   2   2 130.533 4.72863   3
  -4   6   2 97.5129 2.94994   2
   6  -2   2 130.235 4.38167   4
  -6   2   2 125.443 3.55966   1
  -4   6   2 96.3943 4.26730   5
   6  -4   2 119.225 4.44459   5
   4  -6   2 135.068 4.20889   2
   6  -2   2 133.014 4.15851   3
   2   4   2 134.027 4.69695   2
   2  -6   2 137.013 4.44733   2
  -6   4   2 126.199 2.88921   1
  -4   6   2 128.931 3.61963   3
   4  -6   2 128.009 3.42728   1
  -6   2   3 65.0417 2.90543   1
   2  -6   3 70.3389 3.21344   1
  -4  -2   3 64.0955 1.43691   5
   6  -4   3 71.1292 2.90515   1
   6  -2   3 70.7749 3.73895   5
   2  -6   3 62.0096 3.37534   3
   2   4   3 65.0260 3.54872   2
  -6   2   3 60.2452 1.35923   3
   2   4   3 65.5015 3.79054   5
  -2   6   3 63.6446 3.10820   2
  -4  -2   3 51.9543 2.96849   1
   2   4   3 71.9022 3.75760   2
   4   2   3 60.5495 3.52000   5
  -6   2   3 57.5406 1.62348   5
   4   2   3 62.9453 3.56222   4
  -6   4   3 57.8904 1.20400   4
  -6   4   3 59.0933 1.24374   4
   2   4   3 68.0814 3.79055   4
   6  -4   3 72.1316 3.93833   5
   2  -6   3 64.0153 3.46490   5
  -4  -2   3 62.5485 2.59976   4
   6  -4   3 60.7551 3.49027   5
   4  -6   3 63.9227 3.43093   3
  -6   4   3 60.9581 1.55323   2
   6  -2   3 66.7339 3.64256   5
   6  -4   3 66.6285 3.38521   4
   4  -6   3 58.4758 3.09841   2
   4  -6   3 71.9015 3.69022   4
   4   2   3 59.0503 3.44454   3
  -6   2   3 63.0702 2.20425   2
  -4   6   3 65.1423 2.60327   2
   2   4   3 51.0396 3.27092   3
   4   2   3 54.7088 3.40003   3
  -2   6   3 67.3798 3.14532   2
   4   2   3 66.3612 3.54356   2
   4   2   3 72.4445 3.81908   2
  -4  -2   3 65.3065 2.95098   3
  -4   6   3 72.9099 3.88635   5
   6  -2   3 60.3276 3.29731   2
  -2  -4   3 53.9561 3.08549   1
  -4   6   3 60.6144 2.70629   3
   2  -6   3 52.3385 3.21613   4
   2   4   3 67.2473 3.51139   1
   4  -6   3 64.1717 3.61139   5
  -6   4   3 56.5842 2.49059   1
   4   2   3 64.1498 3.39319   1
  -2  -4   3 74.0248 3.47693   3
  -4   6   3 66.8091 3.09232   4
   6  -4   3 49.0601 2.84435   2
  -2   6   3 70.9866 3.62112   4
  -2   6   3 67.4950 3.31583   3
   4  -6   3 61.8280 2.81252   1
   6  -4   3 65.0011 3.32568   3
  -2   6   3 59.8933 3.02273   1
  -4  -2   3 58.1308 1.44296   5
  -2   6   3 43.3399 3.17175   5
   6  -2   3 61.6463 3.23013   4
   6  -2   3 66.9289 3.56089   4
  -4   6   3 65.5357 2.64071   2
   6  -2   3 66.9226 3.24072   1
   2  -6   3 65.1420 3.43343   2
   6  -2   3 55.6577 3.10824   3
  -6   4   3 64.9220 1.56163   2
  -2  -4   3 54.2630 3.12234   2
  -2  -4   3 49.2276 2.42420   5
  -4   6   3 66.3930 2.81679   1
  -2  -4   3 60.7737 3.02230   4
  -6   4   3 67.1542 2.90658   5
  -4  -2   3 63.2642 3.14916   2
   6  -4   4 57.8134 3.53084   3
  -4   6   4 64.8362 3.21074   1
  -2  -4   4 57.7299 3.32484   3
  -6   4   4 66.7729 1.82692   3
  -4  -2   4 49.4372 3.19485   1
  -2  -4   4 62.9420 3.61232   1
   4  -6   4 58.4692 3.66420   4
   2  -6   4 74.8932 4.01965   3
  -4  -2   4 63.0860 2.09820   5
   6  -2   4 81.6728 4.46974   5
   6  -4   4 69.4473 4.17237   5
  -4   6   4 67.0991 3.08387   2
  -2  -4   4 63.9730 3.29335   4
   4   2   4 68.7909 4.09942   3
  -6   4   4 69.1463 3.33851   1
  -2   6   4 62.2041 3.31808   2
  -2   6   4 69.9339 4.32350   5
   6  -2   4 74.2930 3.97782   2
   6  -4   4 74.3370 4.47973   5
  -4   6   4 68.1234 3.13564   3
   4   2   4 61.4931 3.76170   2
   6  -2   4 72.6933 3.92877   3
   4  -6   4 68.4285 4.05863   5
   4   2   4 58.2357 3.81965   2
   2   4   4 76.7031 4.29887   4
   4  -6   4 72.5192 3.48747   1
   4   2   4 65.0714 4.09216   5
  -2   6   4 64.8477 3.49265   1
  -6   2   4 65.7937 2.08203   3
  -2  -4   4 65.6494 2.92940   5
   6  -2   4 67.1101 4.18740   5
   6  -2   4 69.5770 3.86625   4
  -6   2   4 59.5688 2.17872   5
  -6   4   4 70.3611 3.31438   5
   4   2   4 73.8686 4.12826   4
   2   4   4 70.1945 4.05382   3
  -4   6   4 63.1771 2.93892   2
  -2   6   4 66.6517 3.55783   3
   2   4   4 67.4063 3.78200   2
  -6   4   4 63.1384 1.84320   4
  -2   6   4 62.4585 3.39915   2
  -2  -4   4 53.7540 2.70253   5
   6  -4   4 67.1955 3.76701   4
  -6   4   4 57.6570 1.77358   4
   6  -2   4 62.4850 3.47166   1
   2  -6   4 75.0097 4.04561   4
   4  -6   4 67.1535 3.84986   3
  -4  -2   4 63.1134 1.98228   5
  -4  -2   4 54.8267 2.75368   4
   2  -6   4 67.6725 3.78971   5
   6  -4   4 58.8341 3.46702   2
  -4   6   4 67.1616 3.35924   4
  -2   6   4 67.1163 3.73553   4
   2   4   4 72.5785 4.03510   2
   2   4   4 66.7130 3.77108   1
   6  -4   4 64.5846 3.26628   1
  -4  -2   4 65.0601 3.28328   3
   4   2   4 62.6328 3.93341   4
   4   2   4 67.2482 3.89643   1
   4  -6   4 71.8013 3.86404   2
  -6   4   4 67.5806 2.33536   2
  -6   4   4 62.6585 1.78328   3
   6  -2   4 67.6711 4.02618   4
   2  -6   4 47.2992 3.27481   2
  -6   2   4 60.9046 3.27029   1
  -2   6   4 69.5060 3.55948   3
   2   4   4 72.6934 4.01849   3
  -4   6   4 61.4522 3.80524   5
   2  -6   4 68.6792 3.53812   1
  -4   6   4 59.7960 2.97624   3
   4   2   4 67.7019 3.97045   3
  -6   2   4 63.7377 2.64213   2
  -2  -4   4 59.7540 3.46699   2
   2   4   4 74.0706 4.44491   5
  -4  -2   4 65.0228 3.41393   2
   6  -4   5 58.4853 4.07959   3
  -4   6   5 57.3180 3.12323   3
  -2  -4   5 59.4949 3.14147   5
  -2   6   5 57.6255 3.91875   4
   2  -6   5 54.8513 3.78959   3
  -6   2   5 61.2509 2.50045   3
  -2  -4   5 67.9135 3.92483   3
   6  -2   5 65.1276 4.34130   4
  -6   4   5 51.2026 3.22279   5
  -2   6   5 60.3653 3.60393   2
  -2   6   5 62.5888 3.69545   3
  -4  -2   5 64.3472 3.54407   3
  -2   6   5 60.8037 4.40519   5
   6  -4   5 63.2485 3.65035   1
  -6   2   5 64.3294 2.75607   5
   4   2   5 63.5678 4.11399   1
  -4   6   5 66.0669 3.62992   4
   4   2   5 64.7377 4.53390   5
  -4   6   5 51.6005 3.92511   5
  -4   6   5 63.7319 3.30559   2
   4  -6   5 67.0630 4.18569   4
   6  -4   5 57.5902 4.38487   5
  -6   4   5 54.2563 2.25808   3
   2   4   5 49.7476 4.18111   5
   4  -6   5 58.3150 4.00740   5
   4  -6   5 56.9222 4.02837   5
   4   2   5 56.5040 3.96761   2
   2   4   5 56.6112 3.85143   2
  -2   6   5 60.5647 3.73078   1
   6  -2   5 59.4604 3.71860   1
   6  -2   5 62.3747 4.55524   5
  -4  -2   5 56.9948 2.44990   5
  -2  -4   5 55.0533 3.10323   5
   2   4   5 67.9731 4.33342   2
   4   2   5 63.0439 4.17597   3
   2   4   5 51.1138 3.70103   4
   4   2   5 63.2716 4.24925   4
  -2   6   5 52.9167 3.43479   2
  -4   6   5 64.5881 3.37659   2
   6  -2   5 59.8688 3.97329   4
   6  -4   5 51.2094 3.66900   4
   4   2   5 65.8427 4.27280   2
  -6   4   5 45.8296 3.40621   1
   6  -4   5 57.6331 4.12505   5
  -2  -4   5 65.5664 4.05896   2
   2  -6   5 64.1450 4.03874   4
   6  -2   5 62.8587 4.16321   2
  -6   2   5 55.0993 1.80201   4
  -2  -4   5 53.0943 3.32695   4
  -4  -2   5 60.1775 3.01357   4
   2  -6   5 51.6662 3.57859   5
   6  -2   5 70.8783 4.53991   5
  -4   6   5 67.7897 3.68437   1
  -6   4   5 53.8736 2.69571   2
   6  -4   5 49.2585 3.63625   2
   2   4   5 60.3836 4.08322   3
  -6   2   5 54.7683 1.88825   4
  -6   4   5 60.4031 2.24588   4
   2   4   5 64.9667 4.41546   4
   2  -6   5 58.6114 3.80118   5
   4  -6   5 48.2965 3.35777   1
   4   2   5 55.2399 4.08597   4
  -6   2   5 57.2545 3.53075   1
  -6   4   5 57.3305 2.31548   3
  -6   2   5 65.3294 2.57389   5
   4  -6   5 58.8050 3.94752   2
   2  -6   5 61.5855 3.77613   1
  -4  -2   5 57.5202 2.42573   5
   2   4   5 54.4254 3.83407   1
   2  -6   5 57.2452 3.89999   2
  -6   2   5 63.9523 3.10725   2
   2   4   5 57.1725 3.87246   3
   4   2   5 64.2597 4.15686   3
  -4   6   5 62.8209 3.26086   3
  -4  -2   5 48.5070 3.38169   2
  -2   6   5 59.7625 3.60048   3
   4  -6   5 38.9994 3.52741   3
   6  -2   5 68.1166 4.26375   3
  -6   4   5 61.9961 2.34625   4
  -4  -2   5 53.5210 3.91797   1
  -2  -4   5 59.0624 4.08988   1
  -6   2   6 44.3627 2.59019   5
   6  -4   6 42.2318 3.87095   3
  -4   6   6 42.0441 3.34958   1
   2   4   6 26.4938 3.50987   5
  -2   6   6 39.5947 3.54916   1
  -6   4   6 34.4371 2.28342   3
  -4   6   6 39.3014 2.97127   3
   4  -6   6 39.9068 3.81545   3
   6  -2   6 42.1975 3.52837   1
  -4   6   6 44.4342 4.06714   5
   6  -2   6 38.6677 3.70655   3
  -6   2   6 40.9061 2.50316   3
  -2  -4   6 39.7063 3.46903   3
  -4  -2   6 41.1530 3.13860   3
   2  -6   6 39.3909 3.67697   5
  -2   6   6 43.4782 4.06783   5
   2  -6   6 36.4722 3.77865   3
  -4   6   6 36.7636 3.01204   2
   4   2   6 26.4782 3.30057   3
  -2  -4   6 44.7511 3.75305   2
  -6   2   6 43.3452 2.68584   5
  -4  -2   6 43.0448 3.59041   2
   4  -6   6 35.3596 3.57690   4
   2   4   6 37.8113 3.64896   2
  -6   2   6 41.6193 2.00870   4
   6  -4   6 40.4937 3.69911   2
   4   2   6 50.6244 4.33429   4
  -2   6   6 36.7759 3.35134   2
  -6   4   6 44.8326 2.54308   3
  -4  -2   6 42.6329 2.62542   5
   2  -6   6 41.6808 3.60706   5
   4   2   6 46.3936 4.00569   2
   6  -2   6 53.2836 4.63539   5
  -2  -4   6 46.4715 3.14232   5
  -2   6   6 36.4629 3.39123   4
  -6   4   6 40.1284 3.40848   1
   6  -2   6 43.5530 4.09402   5
  -4   6   6 43.2100 3.06897   3
  -6   4   6 46.9541 3.31888   5
   4  -6   6 39.7867 3.82977   5
   2   4   6 30.2807 3.27886   4
   6  -4   6 38.1931 3.78762   5
   4   2   6 39.6228 3.81449   4
   6  -2   6 37.4410 3.64109   4
  -2   6   6 48.6261 3.65700   4
  -6   4   6 44.4429 2.36248   4
  -6   4   6 43.2862 2.34852   4
   6  -4   6 39.7328 3.60991   4
   4  -6   6 41.8913 3.90790   5
  -6   2   6 44.1342 2.57415   3
   2   4   6 45.1719 3.81297   2
  -4   6   6 38.4556 3.02039   4
   4   2   6 51.3463 4.15201   2
   2  -6   6 42.1906 3.71501   4
  -2  -4   6 48.3586 3.46363   4
  -4  -2   6 38.8705 2.79879   4
   4  -6   6 39.8523 3.37081   1
   2  -6   6 31.7398 3.21151   1
   4  -6   6 39.2274 3.58846   2
   6  -2   6 21.2273 3.41869   2
   6  -2   6 28.7003 3.47044   4
  -4   6   6 39.8226 2.98284   2
  -4   6   6 29.2113 2.96140   4
   6  -4   6 34.1513 3.12360   1
  -6   2   6 46.7560 3.67562   1
  -6   2   6 39.0342 2.02918   4
  -6   4   6 41.1791 2.80219   2
  -2   6   6 31.6035 2.99360   3
   2  -6   6 40.7686 3.75664   2
   4   2   6 36.3177 3.97665   5
   2   4   6 35.3332 3.53697   3
  -4  -2   6 39.9782 2.44693   5
   6  -4   6 41.3778 4.03287   4
  -6   2   6 46.0465 3.07825   2
   2   4   6 39.4800 3.76248   4
   2   4   6 38.2894 3.49192   3
  -2   6   6 40.2533 3.29748   3
   6  -4   6 30.7146 3.66046   5
   4   2   6 42.3042 3.79433   3
   2   4   6 38.7601 3.62784   1
  -4  -2   6 35.8635 3.50826   1
  -2  -4   6 30.7688 3.28662   1
   4   2   6 33.3989 3.44904   1
  -2   6   6 41.2233 3.39300   2
  -2  -4   6 37.5395 2.83556   5
   6  -2   6 43.6266 3.84586   3
   2   4   7 58.3813 4.72743   1
   6  -4   7 52.8671 4.68195   3
   4   2   7 55.0650 4.62268   1
  -6   2   7 50.3037 2.81965   4
   4  -6   7 51.3380 4.67327   5
   6  -4   7 60.1371 5.19450   5
   2   4   7 50.4788 4.63134   4
  -6   4   7 48.5771 3.09724   3
   4  -6   7 52.7498 4.70850   3
   2  -6   7 42.0504 4.12681   3
  -6   2   7 54.5592 3.29069   3
  -2   6   7 40.5294 3.95974   1
  -2  -4   7 43.7824 4.25208   3
  -2   6   7 42.8647 4.30920   4
  -6   2   7 51.2575 3.23236   5
  -4  -2   7 48.2539 3.45937   4
   4   2   7 51.7569 4.70999   2
  -2   6   7 49.3824 4.07414   4
   2   4   7 55.0288 5.27689   5
  -2   6   7 56.4258 5.10892   5
  -4   6   7 45.1030 3.93046   1
  -4   6   7 29.4638 3.46493   4
   2   4   7 61.7180 5.01058   3
  -4   6   7 51.4308 3.86252   2
  -6   4   7 50.8714 3.95274   5
  -6   2   7 53.1900 3.36557   5
   4  -6   7 47.1321 4.25698   1
   2   4   7 50.8206 4.63412   2
  -4  -2   7 46.6557 3.21237   5
   6  -4   7 51.2005 4.43835   1
  -6   4   7 51.9757 3.14306   3
   4   2   7 52.0956 5.17708   5
   4   2   7 49.4933 4.60483   3
   2   4   7 51.9412 4.69681   2
   4   2   7 53.3529 4.74515   2
   4  -6   7 48.3444 4.45672   2
  -6   2   7 51.4643 3.28771   3
   6  -2   7 41.2519 4.68275   3
   4   2   7 45.3403 4.66230   4
  -2   6   7 52.0364 4.14818   2
  -2  -4   7 42.1763 3.77435   4
   2   4   7 45.4714 4.56468   4
  -6   2   7 51.7749 4.42931   1
  -6   2   7 56.7781 3.83809   2
  -2   6   7 52.4490 4.20305   2
  -4   6   7 48.1133 3.65647   3
  -4   6   7 50.9575 4.83813   5
   6  -4   7 60.5588 4.95488   4
  -6   4   7 51.3237 2.90861   4
   6  -2   7 59.2485 4.79953   1
  -6   4   7 51.6690 4.34200   1
   2  -6   7 67.5453 5.02967   4
  -6   2   7 50.3378 2.59093   4
  -2  -4   7 40.4531 4.39125   1
   4   2   7 45.3148 4.50777   4
   2  -6   7 50.5662 4.28470   5
   2  -6   7 52.2115 4.40158   5
   6  -2   7 57.4418 5.00597   2
   6  -2   7 55.0165 5.10242   5
  -4  -2   7 48.8833 3.84062   3
  -6   4   7 39.0342 2.89664   4
   6  -4   7 50.1454 4.61326   2
  -2   6   7 57.3848 4.27914   3
   2  -6   7 52.0006 4.47361   1
   6  -2   7 46.8358 4.81162   4
  -6   4   7 49.7792 3.50459   2
  -2  -4   7 51.5294 3.79270   5
   6  -4   7 43.1974 4.79357   4
  -4   6   7 55.6863 3.97454   4
  -4  -2   7 49.2343 3.45125   4
   2  -6   7 49.1043 4.54671   2
   4  -6   7 34.4502 4.11554   5
  -4   6   7 52.8859 3.82318   2
  -2  -4   7 37.1677 4.23849   2
  -4  -2   7 35.3552 3.99314   2
  -2  -4   7 48.8804 3.57042   5
  -4  -2   7 45.2996 4.42154   1
   6  -2   7 42.3997 4.84191   5
   2   4   7 48.6050 4.36946   3
  -2   6   7 41.6992 3.82417   3
   6  -2   7 43.3370 4.48671   4
  -4  -2   7 47.0787 3.02230   5
   4   2   7 47.5960 4.45650   3
  -4   6   7 51.4221 3.83691   3
   6  -4   7 47.3454 4.75217   5
   6  -2   7 56.7005 4.99758   3
   4  -6   7 50.3273 4.52450   4
  -1   6  -7 0.88019 1.86848   3
   1   5  -7 2.29352 1.81540   3
   1   5  -7 3.88454 1.89252   1
  -5   6  -7 2.16712 1.89703   1
  -1  -5  -7 2.56786 2.21965   5
   5   1  -7 3.87509 1.57523   3
  -1   6  -7 4.19803 2.03368   4
   5   1  -7 1.80078 1.71784   1
  -6   1  -7 7.85766 2.39992   1
  -5  -1  -7-0.11751 2.13726   1
  -5   6  -7 1.51785 2.14387   2
  -5   6  -7 3.02587 2.24962   4
   6  -1  -7 2.91550 1.54947   2
   5  -6  -7 1.04787 1.92604   5
   1  -6  -7 3.42718 2.17197   5
   6  -1  -7 2.54498 1.69551   1
   6  -5  -7 5.22940 2.00314   5
   1   5  -7 2.59221 1.59655   4
  -6   1  -7 1.30971 2.04715   2
   6  -1  -7 2.23542 1.24609   3
   1   5  -7 5.65071 2.34572   2
   1  -6  -7 2.85020 2.04873   1
  -6   5  -7 1.58713 1.77438   3
   5  -6  -7 3.58116 1.86722   1
  -1  -5  -7 6.51797 2.69721   1
  -6   5  -7 6.05513 2.24866   1
   5   1  -7 5.75152 2.05843   2
  -6   5  -7 0.61350 2.08045   2
  -1   6  -7 6.30243 2.33843   2
  -1   6  -7 4.66272 2.23829   1
   6  -5  -7 2.76855 1.91056   1
  -5   6  -7 2.56467 1.75642   3
  -1   6  -6 3.87075 1.85828   3
   1   5  -6 5.45589 1.63249   3
  -5   6  -6 7.63107 1.85166   1
   6  -1  -6 5.63400 1.68073   1
  -1   6  -6 6.92339 1.72730   1
   1   5  -6 3.59609 1.78132   2
  -6   5  -6 0.88744 1.26547   3
  -1  -5  -6 1.87941 1.55460   5
   6  -1  -6 6.02757 1.24945   3
  -1   6  -6 2.36262 1.65749   2
   5   1  -6 5.01527 1.65561   1
   5  -6  -6 3.89055 1.79004   5
  -6   5  -6 3.85221 1.51849   4
  -5   6  -6 4.86505 1.72146   4
   1   5  -6 4.16600 1.84748   1
  -1   6  -6 6.43883 1.71986   4
   1  -6  -6 4.15649 1.51914   1
  -5   6  -6 2.31022 1.47595   3
   1   5  -6 4.35473 1.50117   4
  -6   5  -6 10.5615 2.23673   2
  -5   6  -6 8.28647 2.02368   2
   6  -1  -6 2.91771 1.31593   2
  -1  -5  -6 0.95095 1.50104   1
  -6   1  -6 3.74717 1.69381   1
   5   1  -6 5.08381 1.51129   2
  -6   1  -6 7.59223 2.04205   2
  -5  -1  -6 5.88066 2.00672   1
   5  -6  -6 7.19487 1.68077   1
   1  -6  -6 6.08106 2.10410   5
   6  -5  -6 5.55263 1.64600   5
  -6   5  -6 10.7403 2.19639   1
   6  -5  -6 2.39835 1.31105   1
   5   1  -6 3.68093 1.21478   3
  -6   5  -5 8.28647 1.60944   3
  -1   6  -5 8.99250 1.71106   3
  -5   6  -5 8.49183 1.65895   1
   5   1  -5 9.65489 1.78507   1
   5  -6  -5 11.1518 1.93632   5
  -5  -1  -5 8.29739 1.84542   5
   1   5  -5 6.02813 1.55892   2
   1   5  -5 11.1405 1.91063   3
  -1   6  -5 12.5156 1.88642   4
   6  -1  -5 8.23676 1.39788   2
   1  -6  -5 10.5697 2.20742   5
   6  -5  -5 6.49567 1.42261   5
  -1  -5  -5 8.81812 1.95142   5
  -6   1  -5 12.9567 2.16126   2
   5   1  -5 10.4736 1.16223   4
  -6   5  -5 6.85547 1.54440   2
   1   5  -5 8.86477 1.61139   4
  -5   6  -5 9.45443 1.81097   4
  -5  -1  -5 8.54606 1.85772   1
  -1   6  -5 11.2721 1.83900   1
   1   5  -5 9.93562 1.75846   1
  -1  -5  -5 4.14444 1.48202   1
   1  -6  -5 6.70060 1.58713   1
  -5   6  -5 6.57443 1.61785   2
  -6   1  -5 9.66697 1.94730   1
   5   1  -5 15.4878 1.97471   2
   6  -5  -5 8.36207 1.52788   1
  -1   6  -5 8.62836 1.67398   2
  -6   5  -5 11.4501 1.88316   4
   5  -6  -5 9.82351 1.57244   1
   1  -6  -5 7.03516 1.65150   4
  -1  -5  -5 9.94080 2.01596   4
   6  -1  -5 10.4685 1.15714   3
   6  -1  -5 7.62384 1.49126   1
  -5   6  -5 10.2106 2.02072   3
   5   1  -5 8.93131 1.32686   3
  -6   5  -5 6.89769 1.48517   1
  -1   6  -4 15.6176 2.03216   3
  -6   1  -4 13.0463 1.79484   1
  -1  -5  -4 16.0859 2.04884   1
   5  -6  -4 15.8251 1.62296   1
   6  -1  -4 15.2851 1.79453   1
   5   1  -4 21.4827 2.19195   1
  -1   6  -4 14.6489 1.77107   5
  -5   6  -4 16.5186 2.13266   5
   1   5  -4 15.3017 1.88690   1
  -6   5  -4 16.6914 1.75316   1
  -1   6  -4 17.5520 2.04543   2
   1   5  -4 14.8355 1.53940   5
  -6   5  -4 15.4915 1.94852   2
   5   1  -4 12.5818 1.10736   4
  -1  -5  -4 18.0174 2.40936   5
   1  -6  -4 15.9522 2.26331   5
   5  -6  -4 15.1758 2.03359   5
   6  -1  -4 12.6384 1.51754   2
  -5  -1  -4 13.4303 1.98583   5
  -1   6  -4 12.9674 1.74126   1
  -5   6  -4 18.2383 2.07335   4
  -1   6  -4 13.7273 1.79813   4
   1   5  -4 18.4879 1.90743   4
   5  -6  -4 17.2484 1.70583   4
  -5   6  -4 16.4781 2.02513   2
   1   5  -4 12.4808 1.86547   3
   5   1  -4 17.0346 1.77217   2
   1  -6  -4 15.4806 2.10203   4
   1   5  -4 13.5122 1.80828   2
   6  -5  -4 18.6962 1.75209   1
   1  -6  -4 17.5366 2.09657   1
  -1  -5  -4 15.0340 2.10903   4
   6  -5  -4 17.2625 1.93304   5
  -5  -1  -4 14.6819 2.07840   1
  -5   6  -4 15.8894 1.79086   1
  -6   5  -4 16.6237 1.96952   3
   6  -1  -4 16.4574 1.25125   3
  -5   6  -4 21.8629 2.23659   3
  -6   5  -4 15.9975 1.98270   4
   5   1  -4 16.1238 1.59549   3
  -6   5  -3 9.95463 1.39343   2
   6  -1  -3 8.51151 1.19957   1
  -1   6  -3 10.6017 1.49363   3
   1   5  -3 10.8472 1.58640   3
   1   5  -3 10.5253 1.39908   4
  -6   5  -3 8.52864 1.53084   5
  -5   6  -3 9.76624 1.59815   5
   1   5  -3 10.5112 1.28519   5
  -6   5  -3 9.67604 1.19287   1
   6  -5  -3 12.2117 1.45619   5
   1  -6  -3 13.3002 1.96033   5
  -1   6  -3 11.5397 1.48849   1
  -5  -1  -3 12.6423 1.74292   5
  -1   6  -3 10.2447 1.50938   2
  -5  -1  -3 10.7266 1.54924   1
   1  -6  -3 9.69328 1.46876   1
  -6   5  -3 9.88960 1.45941   4
  -6   1  -3 10.3786 1.42306   1
   5   1  -3 12.9727 1.54924   1
  -5   6  -3 13.5367 1.66614   4
   1   5  -3 12.1650 1.55865   1
   5   1  -3 10.7958 0.89682   4
   5  -6  -3 12.0466 1.19927   1
  -5   6  -3 10.4959 1.46563   2
   6  -1  -3 11.0054 1.12018   2
  -1   6  -3 12.3591 1.59988   4
   5  -6  -3 10.6393 1.68342   5
  -1  -5  -3 12.7259 1.80486   3
   6  -5  -3 12.9803 1.24497   1
   5   1  -3 12.2457 1.31263   2
  -1   6  -3 10.4579 1.49439   5
   5  -6  -3 9.64352 1.24977   4
   1  -6  -3 11.2077 1.69137   4
   1   5  -3 13.6312 1.63895   2
  -1  -5  -3 7.96524 1.63581   4
   1  -6  -3 9.19270 1.45212   3
   6  -5  -3 9.63281 0.89192   4
  -6   5  -3 9.09087 1.33697   3
  -5   6  -3 10.1408 1.21523   1
   6  -1  -3 12.4669 0.88002   3
  -5   6  -3 10.5294 1.49805   3
  -1  -5  -3 9.55463 1.66060   5
   5   1  -3 10.3770 1.14718   3
  -1   6  -2 65.9752 3.26424   2
   1  -6  -2 45.7744 3.16269   5
   6  -1  -2 57.6859 1.68559   3
  -1   6  -2 60.0391 3.14210   3
   1   5  -2 58.6980 3.03037   3
   5   1  -2 53.3121 2.28978   3
  -5   6  -2 61.8469 2.89483   2
  -6   5  -2 57.8491 2.72808   2
   5   1  -2 47.6648 1.83986   4
  -1  -5  -2 57.3581 3.36157   4
  -6   5  -2 62.1451 2.98646   4
  -5  -1  -2 59.1213 3.14786   5
   1  -6  -2 58.8799 3.18587   3
  -6   5  -2 61.2813 2.89438   3
  -5   6  -2 45.8434 2.73809   3
  -1   6  -2 54.5300 2.91474   5
  -1   6  -2 58.0085 3.05706   4
   6  -1  -2 62.5742 2.75484   1
  -1  -5  -2 61.6299 3.27239   2
   1   5  -2 48.5515 2.69959   4
   5   1  -2 57.1175 2.86353   1
   1   5  -2 54.6207 2.92255   1
  -1  -5  -2 65.0314 3.70014   5
  -6   5  -2 51.8389 2.99344   5
   5  -6  -2 60.6901 3.30473   5
   5  -6  -2 55.4782 2.22845   3
   6  -5  -2 60.0861 2.93444   5
   5  -6  -2 57.3330 2.03361   1
  -5   6  -2 62.5318 3.11612   4
   1  -6  -2 61.8518 3.08569   2
  -1   6  -2 54.4867 2.71938   1
  -6   5  -2 59.7546 2.18209   1
   6  -5  -2 50.3598 1.77416   1
   5  -6  -2 58.3497 2.67117   4
   6  -5  -2 54.1446 1.93590   4
   1  -6  -2 57.7159 3.29253   4
   6  -1  -2 56.0373 2.15757   2
  -5  -1  -2 60.0967 3.17931   4
   1   5  -2 57.5147 3.13357   2
   5   1  -2 55.6826 2.55832   2
   1   5  -2 57.4907 2.64808   5
  -5   6  -2 57.0646 3.33502   5
  -1  -5  -2 68.0946 3.55407   3
  -5   6  -2 48.2927 2.06448   1
  -5   6  -1 32.5160 1.23727   1
   5   1  -1 42.7159 2.34961   1
   1   5  -1 38.6441 2.33875   1
  -1   6  -1 24.6755 2.00943   4
   5   1  -1 32.3923 1.84943   3
  -1   6  -1 32.2215 2.26024   3
   1   5  -1 33.0931 2.22740   3
   5  -6  -1 27.5699 1.53595   3
   5   1  -1 33.0261 0.95040   5
  -6   5  -1 37.0657 2.45289   5
   6  -1  -1 36.3544 1.45707   3
   5   1  -1 33.6084 1.00363   5
  -1   6  -1 35.9434 2.33822   5
   1   5  -1 31.4593 2.00794   5
   1  -6  -1 38.3230 2.71925   5
   1  -6  -1 25.9561 2.00786   3
   5   1  -1 36.5463 1.70768   4
   6  -5  -1 33.2726 1.16173   3
  -1  -5  -1 34.2031 2.49562   4
  -1  -5  -1 32.6690 2.25707   2
   1  -6  -1 31.6883 2.39978   4
  -5   6  -1 34.6028 2.14203   4
   6  -1  -1 37.4375 1.94207   1
  -5   6  -1 35.8795 2.06198   3
  -5  -1  -1 36.6536 2.11866   5
   5  -6  -1 37.8366 1.46979   2
   5  -6  -1 39.2525 2.09719   4
  -5  -1  -1 31.6387 2.21545   2
   6  -1  -1 39.5208 1.24978   4
  -6   5  -1 34.0162 0.99596   1
   1  -6  -1 35.3041 2.19816   2
   1   5  -1 35.7544 2.29469   4
  -5   6  -1 33.9545 2.36827   5
  -6   5  -1 40.1529 1.88632   2
   6  -1  -1 34.4357 1.13185   5
  -1  -5  -1 35.0831 2.38939   3
   6  -5  -1 31.1687 1.52469   4
   6  -1  -1 33.9198 1.23233   4
  -5   6  -1 36.5219 1.96270   2
  -1  -5  -1 28.2802 2.32795   5
   6  -5  -1 29.7880 2.03126   5
  -5  -1  -1 25.4725 1.92809   4
   6  -1  -1 32.2636 1.06174   5
   5  -6  -1 32.9719 2.27745   5
  -1   6  -1 40.7031 2.43025   2
  -6   5  -1 29.9810 1.88456   4
   1   5  -1 30.5216 2.17165   2
  -5  -1  -1 39.6950 2.43283   3
  -6   5  -1 40.8089 2.05117   3
  -1   6  -1 35.7811 2.05297   1
   6  -1  -1 34.2902 1.60307   2
   5   1  -1 36.6614 2.00795   2
   5  -6   0 1.99450 0.45813   2
  -1  -5   0 1.35984 0.63640   1
  -6   5   0 2.01300 0.47484   3
   6  -5   0 2.95987 0.51947   3
   6  -1   0 1.56922 0.46888   4
   6  -1   0 2.47232 0.53445   3
  -1   6   0 3.29493 0.89507   4
   1  -6   0 1.78530 0.74086   3
  -6   5   0 2.20419 0.72138   5
   6  -1   0 1.23423 0.40094   5
   6  -1   0 1.82800 0.51933   1
   6  -1   0 1.95188 0.48754   2
  -1   6   0 3.56259 0.93972   3
   5  -6   0 0.95024 0.45537   3
   1   5   0 3.65927 0.89107   1
  -5  -1   0 3.23855 0.79534   2
  -5  -1   0 2.99127 0.78368   1
  -1  -5   0 2.79083 0.74194   2
   5   1   0 2.04616 0.50664   5
  -1   6   0 1.07606 0.54555   1
   5   1   0 1.17479 0.49238   3
  -1  -5   0 1.86214 0.87863   4
  -1  -5   0 1.49044 0.67583   5
  -5  -1   0 1.05334 0.56299   3
   1  -6   0 0.92703 0.51211   4
   6  -5   0 2.32194 0.70808   5
   6  -1   0 2.14529 0.49384   5
  -5  -1   0 1.60718 0.48232   5
   1  -6   0 1.94814 0.64436   2
   6  -1   0 1.66560 0.53122   2
  -6   5   0 2.84914 0.65573   4
  -5   6   0 1.75896 0.72177   5
  -5   6   0 2.30729 0.49073   2
   6  -1   0 2.44538 0.49913   4
   6  -5   0 3.40453 0.64310   4
   1   5   0 1.50639 0.70951   3
   6  -1   0 2.77983 0.59103   3
  -6   5   0 1.59742 0.33810   2
  -5  -1   0 2.66697 0.67857   4
   1  -6   0 2.57644 0.65436   1
   1   5   0 1.18582 0.46517   2
   5  -6   0 2.02485 0.59959   4
   1   5   0 2.96910 0.94722   4
  -6   1   0 1.89663 0.56036   1
  -5   6   0 1.21565 0.48781   3
   5   1   0 2.85668 0.64237   4
  -5   6   0 2.69627 0.67176   4
   1  -6   0 1.80566 0.75219   5
  -1   6   0 2.51242 0.82613   5
   1   5   0 2.94305 0.89311   5
   6  -5   0 2.75452 0.39897   2
  -1  -5   0 3.52988 0.85207   3
   5   1   0 2.62897 0.69147   2
   5  -6   0 4.00261 0.95095   5
   5   1   0 2.51452 0.67757   1
  -1   6   0 2.17956 0.73919   2
  -5  -1   1 35.6056 2.14644   1
  -1   6   1 37.8068 2.17377   1
   1  -6   1 31.9284 2.16171   2
  -1   6   1 36.8721 2.27701   2
   6  -5   1 37.8050 1.96543   3
  -5  -1   1 37.1062 2.09382   2
   1   5   1 42.6450 2.56459   2
   6  -1   1 32.9586 1.85395   1
  -6   1   1 38.7687 2.02158   1
  -5   6   1 35.0540 1.74940   3
   5  -6   1 35.6515 2.06558   3
   1   5   1 41.0306 2.42561   1
  -1   6   1 37.7895 2.44269   3
   5   1   1 37.4170 2.22601   1
  -1  -5   1 29.1035 2.16859   3
   6  -5   1 25.8627 2.10531   5
   6  -1   1 36.0114 2.11309   3
  -1   6   1 31.7453 2.29771   4
  -5  -1   1 34.9200 1.97254   3
   1  -6   1 34.9747 2.38232   5
  -6   1   1 36.7297 1.76495   2
   1  -6   1 31.2443 2.27818   4
  -6   5   1 35.7128 1.59428   4
  -1  -5   1 31.6468 2.23490   2
  -1   6   1 35.9464 2.63015   5
   5   1   1 36.2075 2.16119   5
   6  -1   1 34.1406 1.93254   1
  -6   1   1 40.0815 1.60404   3
   1   5   1 35.2640 2.43258   3
   5  -6   1 33.8419 1.20556   1
   1   5   1 33.1426 2.17653   1
   6  -1   1 38.2383 2.14306   2
   5   1   1 38.4825 2.22889   1
  -1   6   1 38.1179 2.19721   1
   5   1   1 37.3627 2.34616   3
   6  -5   1 32.7776 1.66045   2
  -6   5   1 37.2096 2.16964   5
  -5   6   1 37.6539 2.48335   5
   6  -1   1 36.5712 2.11339   5
   1  -6   1 28.0334 2.11104   3
   6  -5   1 36.7024 2.09530   4
   5  -6   1 36.9720 2.28504   4
  -5   6   1 38.2192 2.05881   4
   5  -6   1 28.2240 2.21389   5
   6  -1   1 32.6585 1.93425   5
  -1  -5   1 32.4984 2.17439   5
  -1  -5   1 38.1781 2.41212   4
   5   1   1 39.2334 2.33329   2
   1   5   1 32.6272 2.39083   4
   5   1   1 36.2086 2.35007   4
   6  -5   1 35.1793 1.03307   1
  -5   6   1 35.4579 1.05649   1
   6  -1   1 36.8257 2.14331   4
   5  -6   1 38.6271 1.94888   2
   1   5   1 41.6303 2.69168   5
   1  -6   1 38.0761 2.13126   1
   6  -1   1 40.3627 2.12992   3
  -5   6   1 36.6505 1.44450   2
  -5  -1   1 33.3856 1.80182   4
   6  -1   1 29.5610 1.84177   2
  -1  -5   1 34.3113 2.20273   1
  -5   6   1 35.7343 1.09913   1
   6  -1   1 35.4992 1.92432   4
  -6   5   1 31.2802 1.12720   3
  -1  -5   2 59.6201 3.11527   2
  -1   6   2 51.5919 2.74588   1
   6  -5   2 61.7086 2.87767   3
  -5   6   2 56.3400 2.14096   3
   6  -1   2 54.3716 2.85166   5
  -1   6   2 57.0493 3.41973   5
  -5   6   2 48.9886 1.90404   1
   5  -6   2 62.6602 2.99833   3
  -5  -1   2 55.7537 2.64479   2
  -6   1   2 46.7834 2.02246   2
  -5   6   2 55.6737 2.47545   4
   1   5   2 58.6594 3.16439   2
   5   1   2 55.1881 3.01063   5
   6  -1   2 50.3881 2.68838   4
  -1  -5   2 41.4332 2.60974   4
   1  -6   2 53.2265 2.93156   5
  -1  -5   2 41.3047 2.41863   5
  -5   6   2 61.7327 3.32525   5
   6  -1   2 59.7331 3.04981   2
  -5   6   2 59.7286 1.88409   2
   5   1   2 63.8451 3.08752   1
  -1   6   2 58.4532 3.13264   3
   1   5   2 57.3340 3.42259   5
  -6   1   2 56.1978 1.77765   3
   5   1   2 52.9628 2.96997   2
   6  -1   2 60.7626 3.08001   3
   1  -6   2 47.8707 2.87376   3
   5   1   2 55.4344 3.10475   3
   6  -1   2 53.5601 2.90886   5
  -1  -5   2 53.3229 2.95621   3
   5  -6   2 61.7556 3.14687   4
   6  -1   2 60.6695 2.75249   1
   5  -6   2 55.5703 3.22903   5
  -6   1   2 55.8156 2.64478   1
   1  -6   2 49.1388 2.85456   4
  -1  -5   2 58.3466 3.05400   1
   6  -1   2 53.3303 2.69593   1
  -5  -1   2 51.1523 2.74784   1
   6  -1   2 60.2497 3.02036   2
   1   5   2 54.0091 3.26430   4
  -6   5   2 57.7909 1.85033   4
  -5  -1   2 58.0858 2.47959   3
   1   5   2 64.2434 3.08257   1
  -1   6   2 58.7013 2.78229   1
  -6   5   2 50.7559 2.62003   5
   1   5   2 57.6276 3.24398   3
  -1   6   2 46.9632 2.99800   4
  -6   5   2 57.3904 1.82191   1
  -5  -1   2 54.3472 2.12731   4
   1  -6   2 37.1844 2.36669   1
   6  -5   2 55.2503 2.57630   2
   5   1   2 55.5935 3.11580   4
   5  -6   2 46.3934 2.06809   1
   6  -5   2 55.3475 3.23644   5
   5  -6   2 59.7883 2.80171   2
   6  -1   2 56.3350 3.05383   4
   5   1   2 66.4545 3.42954   2
   5   1   2 63.4489 3.24808   3
   6  -1   2 58.3512 2.89991   3
  -1   6   2 54.5696 2.88932   2
   1   5   2 57.9231 3.07906   1
   6  -5   2 52.6280 1.94303   1
   5   1   2 45.9311 2.65481   1
   1  -6   2 58.5611 3.08164   2
   6  -5   2 53.6483 2.81679   4
  -5   6   2 55.5616 1.84222   2
  -5  -1   3 13.1905 1.32831   3
  -5  -1   3 11.7663 1.39381   2
   6  -5   3 14.1956 1.67173   3
  -6   1   3 10.5302 1.11919   2
   1   5   3 12.1017 1.80967   5
   5  -6   3 11.3104 1.59091   3
   6  -1   3 16.4075 1.78500   3
   1   5   3 12.0913 1.62691   2
   6  -5   3 10.6651 1.66820   5
   5   1   3 6.72011 1.47331   3
   6  -1   3 8.82583 1.47503   3
  -5   6   3 13.3405 1.26223   1
   1  -6   3 13.0151 1.66431   3
   6  -1   3 7.23213 1.33686   2
  -6   5   3 10.9647 0.67315   2
   1   5   3 13.1448 1.79312   4
   1   5   3 10.6688 1.63695   3
  -1  -5   3 10.3554 1.29012   5
  -1   6   3 13.1129 1.53970   2
  -5   6   3 10.7267 1.21575   4
  -6   5   3 10.5805 1.38437   5
  -1   6   3 12.6058 1.53382   1
   1  -6   3 10.1690 1.44324   4
  -5   6   3 11.1165 0.99522   2
   6  -1   3 13.5371 1.69320   2
   5   1   3 10.4506 1.60620   5
   6  -1   3 15.6126 1.86293   5
  -5  -1   3 11.3316 1.54991   1
   5   1   3 7.87297 1.40711   2
   1   5   3 10.7148 1.46708   2
   6  -1   3 15.9681 1.77171   5
   1   5   3 12.2017 1.56568   1
   1  -6   3 11.7504 1.51160   5
   5   1   3 12.8525 1.72198   2
  -6   5   3 10.6030 0.58783   3
   5  -6   3 12.0522 1.51391   2
  -5   6   3 16.4675 1.94088   5
   6  -5   3 11.3389 1.52233   4
  -5   6   3 12.2167 1.06412   2
  -1  -5   3 11.9409 1.46829   4
  -5   6   3 9.87072 1.02746   3
   5  -6   3 13.5412 1.70254   4
  -6   1   3 12.5708 0.92481   3
   6  -5   3 12.2068 1.47488   2
  -6   5   3 14.7572 1.00609   4
  -5   6   3 13.2924 1.16390   3
   5  -6   3 11.7793 1.25864   1
   1  -6   3 8.54546 1.32734   1
  -1   6   3 9.69610 1.43783   2
  -5  -1   3 10.8852 1.00953   4
  -1   6   3 10.9334 1.57407   4
   6  -1   3 13.1631 1.60717   1
   5   1   3 12.3515 1.68729   4
   5  -6   3 11.5013 1.76550   5
  -6   5   3 11.6287 0.64722   2
   6  -1   3 12.4866 1.57653   4
  -1  -5   3 13.0094 1.65150   3
   6  -1   3 13.4652 1.71893   4
  -1   6   3 9.02756 1.46979   3
   5   1   3 12.8217 1.68285   4
   1   5   3 7.13202 1.30769   1
  -6   5   3 14.9295 1.32158   1
   5   1   3 11.4204 1.61955   3
   1  -6   3 12.1331 1.61581   2
   6  -5   3 10.6703 1.13996   1
  -1  -5   3 13.0680 1.57470   1
  -1  -5   3 12.6099 1.61806   2
  -6   5   3 11.9403 0.62117   3
  -1   6   3 13.3273 1.94026   5
   5   1   3 9.31275 1.43912   1
  -6   1   3 13.6853 1.50604   1
   1  -6   4 16.6410 1.93164   1
   6  -5   4 12.2882 1.78023   3
  -6   5   4 17.8576 1.86990   5
   5  -6   4 19.0398 2.12408   3
  -5  -1   4 15.1018 1.85633   1
  -1  -5   4 17.7451 1.75783   5
   6  -5   4 15.3160 2.11128   5
  -1  -5   4 11.5487 1.75110   1
   5   1   4 13.4212 2.09828   2
   1  -6   4 13.0821 1.79690   3
  -5   6   4 17.1270 1.46766   3
   1   5   4 13.5076 1.91226   2
  -1  -5   4 17.8444 2.11546   3
  -5   6   4 19.5621 2.18578   5
  -6   1   4 15.3109 1.22413   3
  -5   6   4 18.0806 1.70035   1
  -6   5   4 15.9640 1.02975   3
  -1   6   4 14.7301 2.16911   4
  -1   6   4 16.2844 2.27106   5
  -1   6   4 17.9897 1.94658   2
  -6   5   4 18.1336 1.23529   2
   5   1   4 13.7260 1.92750   3
  -5  -1   4 13.2704 1.24814   4
   1   5   4 16.4587 2.23753   5
  -1   6   4 15.7072 1.92254   3
   5   1   4 14.9865 2.01916   4
  -1   6   4 16.6775 1.96681   1
   5   1   4 15.5872 2.13955   5
   6  -1   4 14.1661 2.23833   5
  -5  -1   4 18.1952 1.66659   3
   5  -6   4 18.0461 2.33303   5
   5  -6   4 15.0085 1.74513   1
   5   1   4 17.5246 2.14757   2
   6  -5   4 13.4808 1.98495   5
   6  -5   4 15.0788 1.58020   1
  -6   5   4 18.8868 1.25538   4
   1   5   4 15.9948 1.99598   3
   6  -1   4 18.6418 2.16844   4
   1   5   4 19.1799 2.25288   2
  -6   5   4 20.7449 1.86007   1
   5  -6   4 11.5793 2.02514   4
   6  -1   4 13.1446 1.82230   2
  -6   5   4 19.3281 1.34043   4
   6  -5   4 15.1708 1.84687   2
   6  -1   4 18.5850 2.26355   5
  -5   6   4 14.1306 1.34629   2
   5   1   4 16.9007 2.13543   3
  -1  -5   4 16.7016 1.97368   4
  -5   6   4 15.0597 1.53453   4
   6  -1   4 16.3071 1.98145   1
   6  -5   4 16.1676 1.99630   4
   1   5   4 20.5620 2.47663   4
   1  -6   4 16.6900 2.08370   4
  -6   5   4 17.5770 1.19972   2
   1   5   4 15.4407 1.91664   1
   1   5   4 17.5915 2.14033   3
   5   1   4 13.4360 1.97185   4
   5   1   4 12.1442 1.87723   1
   5  -6   4 13.9441 1.82248   2
   6  -1   4 16.1802 2.13029   4
  -5   6   4 18.3235 1.47062   2
  -6   1   4 16.8075 1.87358   1
  -1   6   4 18.8612 1.99908   3
   6  -1   4 20.9000 2.27613   3
   1  -6   4 15.2887 2.00054   2
  -5   6   4 14.9669 1.38359   3
   1  -6   4 14.1324 1.85183   5
  -1  -5   4 15.6885 2.00157   2
   6  -1   4 18.4347 2.13800   3
  -1   6   4 15.8454 1.86021   2
  -6   1   4 10.2854 1.43062   2
  -5  -1   4 12.7448 1.74358   2
  -6   5   4 18.1716 1.14748   3
  -6   5   5 10.7356 1.13020   3
   6  -1   5 10.5353 1.92388   3
   6  -1   5 14.4351 2.12713   4
  -1  -5   5 9.47372 1.64706   4
   6  -5   5 10.9704 1.87869   3
   1   5   5 10.6475 2.15389   5
   5   1   5 6.59739 1.53228   1
   5   1   5 10.5215 1.99580   2
   1   5   5 10.6243 1.81584   2
  -1  -5   5 10.4709 1.79960   3
   5  -6   5 8.75702 1.76921   3
   5   1   5 10.3390 1.93954   4
  -6   5   5 10.1979 1.18856   2
  -6   1   5 9.75292 1.28461   3
  -5   6   5 8.14892 1.43283   1
  -6   1   5 7.83626 0.75760   5
  -6   5   5 10.0082 1.74431   5
   6  -5   5 8.21725 1.98737   5
  -5  -1   5 8.98907 0.82075   5
  -6   1   5 9.61043 0.91363   5
   1   5   5 10.8176 1.85574   1
  -1  -5   5 10.7129 1.68318   5
   6  -5   5 8.15981 1.51982   1
   6  -5   5 8.16816 1.92863   5
  -5   6   5 9.18777 1.78978   5
  -1   6   5 10.9910 1.77508   3
  -5   6   5 9.70662 1.36388   2
  -5  -1   5 7.07417 0.80867   5
  -6   5   5 8.70901 1.47786   1
   6  -1   5 11.0131 1.85875   1
   5  -6   5 10.3156 1.61588   1
  -5   6   5 9.52221 1.31275   2
  -1   6   5 8.01255 1.61561   2
   1  -6   5 10.7713 1.70820   5
   5   1   5 7.92203 1.75710   3
  -1   6   5 8.44915 1.82892   5
   6  -1   5 10.3218 2.00101   3
   5  -6   5 8.03200 1.80143   5
  -5   6   5 6.78238 1.22641   4
  -6   5   5 11.0544 1.12837   3
  -6   5   5 8.95760 1.12634   4
   1  -6   5 4.30106 1.48897   3
  -1   6   5 9.96615 1.72450   2
  -6   5   5 10.7924 1.23094   2
   6  -5   5 13.4803 2.05900   4
  -5   6   5 11.0131 1.46566   4
   6  -1   5 12.4224 2.07877   2
  -5  -1   5 6.02732 1.23057   3
  -6   5   5 11.0145 1.17690   4
  -6   1   5 9.72432 0.82735   4
   5  -6   5 10.8525 1.94352   4
   1   5   5 8.08178 1.80803   2
   1  -6   5 9.35361 1.86828   2
   1  -6   5 7.06335 1.69746   4
   6  -1   5 8.43984 1.89080   5
  -5  -1   5 9.85594 1.68971   1
  -1   6   5 7.07668 1.57012   3
   5  -6   5 10.7070 2.04616   5
   1   5   5 14.3321 2.27382   4
  -5   6   5 10.7930 1.38540   3
   1  -6   5 9.42639 1.82864   5
  -1   6   5 9.52630 1.91993   4
  -6   1   5 10.5157 0.87592   4
   5  -6   5 7.64161 1.74614   2
  -5  -1   5 8.48410 1.27293   4
   6  -1   5 14.3611 2.42121   4
   5   1   5 7.75181 2.05745   5
   1   5   5 9.93901 1.79271   3
   5   1   5 8.82628 1.76127   2
   5   1   5 9.35172 1.96172   4
   6  -1   5 12.8250 2.27630   5
   6  -5   5 8.54407 1.82945   2
  -1  -5   5 8.67067 1.46530   5
   1   5   5 12.3540 1.99573   3
  -1   6   5 10.2261 1.77899   1
  -6   1   5 9.57535 1.64336   1
  -1  -5   5 9.91725 1.81457   2
   1  -6   5 7.44249 1.84944   1
  -6   1   5 9.13021 1.43212   2
  -5   6   5 13.0560 1.48521   3
  -5  -1   5 9.83620 1.66174   2
   5   1   5 8.75231 1.89549   3
  -1  -5   5 9.64430 1.74023   1
   5   1   6 3.67362 1.99782   3
   1  -6   6 7.76986 2.05489   2
   6  -1   6 1.61215 1.59389   4
   1   5   6 9.30692 2.45466   4
   5  -6   6 6.31419 1.71659   1
   6  -5   6 5.20322 1.64856   4
  -5   6   6 5.63232 1.31663   3
   6  -1   6 4.66126 1.90611   3
  -1  -5   6 5.01931 1.67196   2
  -6   1   6 6.07585 1.48667   2
  -5  -1   6 3.84018 1.54967   2
  -1   6   6 3.11658 1.51675   1
  -6   5   6 3.59756 0.99562   3
   6  -5   6 6.51980 2.02466   3
  -1   6   6 2.53172 1.62616   5
   5  -6   6 2.20220 1.37391   3
   6  -1   6 6.40691 1.83790   1
   6  -1   6 4.50355 1.87143   5
  -6   1   6 6.24086 1.06695   5
  -1  -5   6 4.69353 1.38695   5
   6  -5   6 10.6129 2.52207   5
  -6   1   6 3.77164 1.19821   3
  -1  -5   6 4.70726 1.58257   1
  -6   5   6 4.71791 1.57483   5
  -6   1   6 5.59460 1.01650   5
   5   1   6 7.87627 2.17784   2
  -1   6   6 4.13461 1.59429   4
   1  -6   6 3.73880 1.57928   5
   1   5   6 2.30699 1.66492   4
  -5   6   6 5.43110 1.35635   2
  -1   6   6 3.73839 1.56286   3
   1  -6   6 1.84616 1.58137   3
   1   5   6 4.16937 1.79570   3
  -6   5   6 6.22564 1.14159   3
  -5   6   6 4.19429 1.27889   2
  -6   5   6 8.59315 1.36635   4
  -5  -1   6 4.01051 0.93474   5
  -1   6   6 5.90642 1.77413   2
   1   5   6 3.60961 1.45080   2
  -5   6   6 5.19593 1.87516   5
   1   5   6 4.35755 1.73640   1
  -6   5   6 3.12406 1.03194   2
  -1  -5   6 4.45059 1.38468   5
  -6   1   6 2.88840 1.49304   1
   6  -1   6 1.43385 1.60935   5
   1  -6   6 3.51856 1.43056   1
  -5   6   6 5.93069 1.46664   3
   5   1   6 4.48801 2.24859   5
  -5   6   6 3.26586 1.15903   4
   1   5   6 5.47019 1.93842   5
   5   1   6 6.33054 2.03146   4
  -5  -1   6 3.95471 1.58040   1
   5  -6   6 6.95964 2.08457   4
   6  -1   6 10.0124 2.39803   3
   5   1   6 4.09030 1.86124   3
   1  -6   6 6.37849 1.71840   4
   5  -6   6 1.98544 1.74729   5
  -1  -5   6 4.85265 1.57062   4
   1   5   6 3.70673 1.60702   2
  -6   1   6 4.12635 0.82251   4
  -5   6   6 4.57717 1.62716   1
  -5  -1   6 5.68378 1.18593   4
   5   1   6 5.00709 1.73099   2
   5   1   6 10.0814 2.18065   1
  -1   6   6 5.95740 1.68712   2
   6  -1   6 1.61878 1.68982   2
  -6   5   6 3.16649 1.01972   4
   5  -6   6 4.29611 1.79458   5
  -5   6   6 3.55534 1.22601   4
  -1   6   6 4.25515 1.71153   4
  -6   1   6 4.96095 0.85840   4
   6  -5   6 7.24510 1.86917   1
   6  -5   6 4.72948 2.05805   5
  -1  -5   6 1.51852 1.24995   3
  -5  -1   6 5.29077 1.48381   3
   5   1   6 2.52788 1.81016   4
   6  -1   6 1.83060 1.86619   4
   6  -5   6 3.77112 1.67504   2
  -5  -1   6 6.27935 1.22622   4
  -6   5   6 6.09231 1.23462   2
   5  -6   6 3.76037 1.77308   2
   1  -6   6 4.65467 1.59869   5
  -6   5   6 9.70428 1.92498   1
  -5  -1   6 4.31138 0.86012   5
  -1   6   6 3.72093 1.49500   3
   1   5   6 1.43768 1.47805   3
   1   5   7 0.92499 1.78421   3
  -1  -5   7 4.25967 2.34412   2
  -6   1   7 2.46789 1.61002   2
  -1   6   7 0.76918 2.19050   5
   5  -6   7 1.16987 1.70694   1
   6  -1   7 3.04295 2.15798   3
  -5   6   7 2.38675 1.36265   3
  -5  -1   7 3.49416 1.85288   2
   5   1   7 3.99398 2.08128   3
   6  -5   7 5.50528 2.28273   5
  -6   5   7 3.21091 1.22368   3
   6  -5   7 6.65138 2.45974   3
  -1  -5   7 0.49571 1.89644   3
   5  -6   7 2.95222 2.09658   3
   5  -6   7 2.69455 2.20645   5
  -5   6   7 3.42696 1.50635   3
  -5  -1   7 3.67235 1.19280   5
   5   1   7 5.53414 2.55366   5
   6  -5   7 3.19476 2.04175   5
  -1   6   7 1.81130 1.70977   2
   5   1   7 1.01648 2.05446   4
  -6   5   7 1.05640 1.10340   3
  -1  -5   7 1.38995 1.81836   4
  -1   6   7 2.48814 1.80907   3
  -6   5   7 2.40865 2.37845   5
   1   5   7 0.88636 2.32905   5
  -1  -5   7 1.93978 1.59742   5
   1  -6   7 1.38961 1.70092   5
  -5   6   7 0.68144 1.83499   5
   1   5   7 2.76623 2.16175   1
   5   1   7 4.35321 2.14354   2
   5   1   7 1.88529 2.16949   2
   5   1   7 0.21984 1.97256   1
  -5  -1   7 3.50793 1.26325   5
   5   1   7 1.46568 1.95302   5
  -6   5   7 4.23415 1.36450   4
  -1   6   7 6.64306 2.13560   1
  -5  -1   7 1.35395 1.48326   3
   6  -1   7 5.37918 2.76706   5
  -1   6   7 2.32301 1.78911   3
   1   5   7 6.99016 2.46927   2
  -5   6   7 5.42353 1.72131   2
  -6   5   7 2.60051 1.39689   2
   6  -1   7 2.33266 2.06282   3
  -1   6   7 3.31088 1.82116   4
   1   5   7 0.49814 1.90339   4
  -5  -1   7 0.14535 1.63053   1
  -5   6   7 2.53971 1.37884   4
  -1  -5   7 3.09187 2.09168   1
  -6   5   7 2.09443 1.18058   4
   1  -6   7 5.51301 2.26657   1
   1  -6   7 2.04230 1.78497   5
  -6   1   7 2.60375 1.84474   1
   6  -5   7 3.32352 2.26524   4
   1  -6   7 0.78209 1.69312   3
   6  -1   7 1.86103 2.12198   4
   1  -6   7 8.07652 2.70653   4
  -6   1   7 4.84754 1.53713   3
  -6   1   7 2.21867 0.96654   4
  -6   1   7 3.42059 1.07444   4
  -5  -1   7 3.02240 1.30287   4
   1   5   7 3.41930 2.18658   2
   5   1   7 4.86198 2.56275   3
   1   5   7 1.61508 1.65900   3
   5  -6   7 2.69528 2.26649   5
  -6   1   7 4.04245 1.25174   5
   1  -6   7 1.49910 2.16902   2
  -5   6   7 2.98428 1.48200   4
  -5   6   7 2.04264 1.80666   1
   6  -1   7 0.87901 2.28828   2
  -1   6   7 2.05466 2.15893   4
   1   5   7 4.06325 2.18576   4
  -1  -5   7 2.89366 1.69389   5
  -5   6   7 3.66421 1.69603   2
   5   1   7 0.46960 1.86347   4
   6  -5   7 2.73439 1.98042   1
   6  -1   7 4.32388 2.65443   4
  -5  -1   7 1.37772 1.27376   4
   5  -6   7 5.22839 2.44156   4
   6  -5   7 1.17711 2.16156   2
   6  -1   7 10.6741 3.53199   5
  -1   6   7 5.30614 2.06155   2
  -6   1   7 3.03797 1.19986   5
  -6   5   7 2.32378 1.53439   2
   6  -1   7-0.10699 1.58951   1
  -6   5   7 3.98666 1.82496   1
   5  -6   7 0.65119 1.93571   2
   0   6  -7 0.07092 1.95876   3
   0   6  -7 3.97621 2.34723   2
   6  -6  -7 4.55013 2.15575   5
   0  -6  -7 0.37909 2.50716   5
  -6   0  -7 4.11351 2.37097   1
   0   6  -7 2.09471 1.94380   4
  -6   6  -7 0.53146 2.09841   4
   6   0  -7 4.41181 1.96877   2
  -6   6  -7 0.15703 1.74369   2
   0  -6  -7 1.56379 2.08160   1
   0   6  -7 4.83132 2.22597   1
   6   0  -7 2.72823 2.13689   1
   6  -6  -7 0.56721 1.72682   1
   6   0  -7 1.55177 1.27485   3
  -6   6  -7 0.34830 2.13134   3
  -6   6  -7 3.57311 2.08610   1
  -6   6  -6 60.0012 4.86956   2
   6   0  -6 58.0592 4.26550   1
   0   6  -6 59.2905 4.37806   1
   6  -6  -6 46.6083 3.95745   5
   0   6  -6 56.1942 4.05299   4
  -6   0  -6 54.8713 4.51513   1
   6   0  -6 67.5719 4.04206   2
   0  -6  -6 66.0511 4.67749   1
  -6   6  -6 61.6538 4.32374   1
   0   6  -6 56.3265 4.35822   2
  -6   6  -6 65.2075 4.67459   4
   0  -6  -6 55.1340 4.99907   5
   6  -6  -6 57.8881 3.90351   1
   6   0  -6 62.6024 3.28176   3
  -6   6  -6 56.2933 4.36687   3
   0   6  -6 66.6377 4.58704   3
   6   0  -5 59.8761 3.88917   1
   0  -6  -5 71.7380 4.43337   1
   0  -6  -5 65.1460 4.86311   5
   6   0  -5 72.3283 3.68918   2
   6  -6  -5 61.1063 3.58451   1
   6  -6  -5 68.8592 4.18415   5
  -6   6  -5 69.7690 4.42867   4
  -6   0  -5 65.9848 4.31023   1
   0   6  -5 66.2631 3.97392   4
  -6   6  -5 56.9254 3.91309   2
  -6   6  -5 71.3412 4.04313   1
   0   6  -5 58.9343 3.98788   1
   0  -6  -5 66.7799 4.53828   4
   0   6  -5 50.9459 3.94515   2
  -6   6  -5 48.6011 3.72255   3
   6   0  -5 64.8017 3.02966   3
   0   6  -5 64.7291 4.35605   3
   0   6  -4 164.072 6.18608   3
   6   0  -4 209.655 6.36632   1
  -6   6  -4 211.271 6.11258   1
  -6   6  -4 225.920 6.99885   3
   6   0  -4 199.382 3.12860   4
  -6   6  -4 185.328 6.29913   2
   0  -6  -4 216.959 7.09426   1
  -6   6  -4 214.881 6.92049   4
   0   6  -4 191.655 6.35276   1
   0  -6  -4 189.954 7.38234   5
   6  -6  -4 209.477 6.80020   5
   6  -6  -4 202.330 4.93295   4
   0   6  -4 195.227 6.65749   2
   0   6  -4 218.028 6.59039   4
   6  -6  -4 200.166 5.39299   1
   6   0  -4 209.061 5.54818   2
  -6   0  -4 225.268 7.10010   1
   0  -6  -4 203.389 7.38636   4
   0   6  -4 194.957 5.85788   5
   6   0  -4 211.550 4.70856   3
   6   0  -3 12.2389 1.09269   3
   0   6  -3 10.4132 1.56168   3
   0   6  -3 9.53628 1.30700   5
   6  -6  -3 10.5332 1.56163   5
   6   0  -3 10.7078 1.26508   2
   6   0  -3 9.12233 1.37302   1
   6   0  -3 11.4287 0.65493   4
  -6   0  -3 13.4797 1.72166   1
  -6   6  -3 9.17926 1.44977   4
   0  -6  -3 9.96215 1.63112   3
   0   6  -3 12.8568 1.61433   4
   6  -6  -3 11.2666 1.21366   4
  -6   6  -3 11.5225 1.54530   2
  -6   6  -3 8.72795 1.50272   5
   6  -6  -3 11.1966 1.11058   1
   0  -6  -3 5.50341 1.45788   5
   0   6  -3 13.7002 1.67582   1
  -6   6  -3 14.2642 1.46759   1
   0  -6  -3 9.83869 1.65762   4
  -6   6  -3 13.7073 1.63438   3
   0   6  -3 11.9779 1.65031   2
   0   6  -2 122.789 4.69234   3
   6   0  -2 120.603 3.15877   3
   0  -6  -2 99.8091 4.31393   2
   6  -6  -2 116.668 2.64686   3
   0  -6  -2 137.500 5.48326   5
   6  -6  -2 133.844 2.78386   1
   6   0  -2 115.713 2.24481   4
   0   6  -2 104.298 4.22564   4
  -6   6  -2 122.212 4.14950   2
  -6   6  -2 137.001 4.64161   4
  -6   6  -2 104.557 4.55507   5
   0   6  -2 118.175 4.30616   1
   6  -6  -2 130.191 3.67142   4
  -6   6  -2 110.088 3.16769   1
   0  -6  -2 123.601 5.00391   4
   0   6  -2 124.679 4.35177   5
   0   6  -2 111.131 4.37614   2
   6   0  -2 118.122 3.59753   2
   6  -6  -2 114.835 4.49817   5
   6   0  -2 133.552 4.29057   1
   0  -6  -2 101.244 4.40530   3
  -6   6  -2 121.656 4.20334   3
   6   0  -1 68.1341 2.94483   1
   0   6  -1 84.0536 3.46238   1
   6   0  -1 73.8730 1.29869   5
   0  -6  -1 84.2488 3.76508   3
   0   6  -1 80.7400 3.63154   3
   6   0  -1 90.1441 2.44822   4
   6   0  -1 81.7289 2.67528   3
  -6   6  -1 78.8084 2.79906   2
   0  -6  -1 81.8087 3.57460   2
   6   0  -1 79.0168 1.43637   5
   0  -6  -1 72.0729 3.81214   5
   6  -6  -1 75.5749 1.51836   2
  -6   6  -1 77.5163 3.26868   4
   6  -6  -1 86.1385 2.41319   3
  -6   6  -1 72.5198 1.34501   1
  -6   6  -1 76.9012 3.63425   5
   6  -6  -1 65.8589 3.24946   5
   0   6  -1 86.5108 3.71815   4
   0  -6  -1 69.2507 3.63839   4
   0   6  -1 65.6674 3.21968   5
   6  -6  -1 76.3332 2.77724   4
   0   6  -1 85.8215 3.70670   2
   6   0  -1 78.4499 2.82761   2
  -6   6  -1 82.1483 3.07433   3
   0  -6   0 153.264 4.60795   1
  -6   0   0 126.369 3.55739   4
   6  -6   0 153.988 3.64535   3
   0   6   0 120.172 4.51241   3
  -6   6   0 127.500 4.54152   5
  -6   0   0 167.594 4.58773   1
   6  -6   0 156.905 5.06731   5
  -6   0   0 160.601 4.28213   3
   6   0   0 164.873 4.48637   1
   0  -6   0 124.017 4.71895   5
  -6   6   0 147.674 3.71223   3
   0  -6   0 163.084 4.90827   2
  -6   0   0 138.529 4.17421   2
   6   0   0 144.055 3.49387   5
   0   6   0 164.229 4.78686   1
   0   6   0 153.472 5.02259   4
   6   0   0 143.548 3.30913   5
   6  -6   0 122.393 3.76890   4
  -6   6   0 129.237 2.92457   2
   6   0   0 148.848 4.00966   3
  -6   6   0 144.283 3.96979   4
   0  -6   0 113.975 4.54546   4
   0  -6   0 148.381 4.89314   3
   0   6   0 141.914 4.86103   5
   6   0   0 163.333 4.21573   4
   6   0   0 129.340 3.86318   2
   0   6   0 148.495 4.82294   2
   6  -6   0 137.623 2.83830   2
   0  -6   1 83.0352 3.39476   1
   0   6   1 79.1377 3.59531   2
  -6   0   1 76.2456 2.98140   2
   0  -6   1 88.5023 3.76079   2
   6  -6   1 84.3486 3.11567   3
   6   0   1 79.3498 3.14421   1
   6  -6   1 75.8622 3.61196   5
   6  -6   1 73.8016 1.36533   1
  -6   0   1 86.5526 3.33474   1
   0   6   1 74.1004 3.60581   3
  -6   6   1 66.6293 3.25642   5
   0  -6   1 82.8642 3.66427   3
   0  -6   1 71.0583 3.40659   5
  -6   6   1 81.1792 2.35206   3
   6   0   1 82.9909 3.06612   5
   6   0   1 80.1675 3.36053   3
  -6   0   1 88.6166 2.92734   3
   6   0   1 63.4607 2.83707   5
   6   0   1 63.6846 2.94102   2
   6   0   1 81.4363 3.23008   4
   6   0   1 54.6995 2.85698   2
   0   6   1 77.3706 3.69887   4
   0   6   1 59.7321 2.91451   1
   6   0   1 81.5396 3.25337   1
  -6   6   1 72.8971 2.73426   4
   0   6   1 75.2507 3.81944   5
  -6   6   1 72.2781 1.51185   2
   0  -6   1 82.2529 3.70852   4
   6  -6   1 81.5922 3.33894   4
   6   0   1 81.3641 3.39859   4
  -6   0   1 68.5827 2.21249   4
   6  -6   1 67.6765 2.48273   2
   6   0   1 88.1139 3.43601   3
   0   6   1 89.8493 3.57764   1
   0  -6   2 133.519 4.66477   5
  -6   6   2 138.505 2.76636   1
   0  -6   2 117.433 4.58178   2
   6   0   2 120.754 4.21929   1
   6  -6   2 127.821 4.37655   3
  -6   6   2 132.428 2.72345   3
   0   6   2 127.296 4.74404   2
   0  -6   2 125.145 4.65712   3
  -6   0   2 93.5115 3.67343   1
   0  -6   2 135.874 4.61804   1
   6   0   2 116.099 4.41819   2
   0   6   2 129.206 5.37498   5
   6  -6   2 99.8913 4.45171   5
   0   6   2 115.419 4.35187   1
   6   0   2 120.539 4.59385   5
   6  -6   2 135.478 4.65303   4
  -6   0   2 127.988 3.79424   2
  -6   0   2 124.001 3.30564   3
   6   0   2 135.674 4.63322   4
   6   0   2 132.473 4.74518   2
   6  -6   2 132.200 4.11520   2
   6   0   2 131.888 4.44917   1
   0  -6   2 128.179 4.68071   4
  -6   6   2 135.950 3.56591   4
  -6   6   2 97.9791 4.07052   5
   6   0   2 109.838 4.46381   4
  -6   0   2 120.283 2.46299   4
   6  -6   2 109.796 2.92675   1
  -6   6   2 118.618 1.55987   2
   0   6   2 123.298 4.82140   3
   6   0   2 101.801 4.24600   3
   6   0   2 124.187 4.48477   3
   0   6   2 126.462 4.37849   1
   0   6   2 138.808 5.25874   4
  -6   0   3 9.81756 1.27867   2
   6  -6   3 9.08751 1.52065   3
  -6   6   3 11.1858 0.78184   2
   6   0   3 8.56794 1.50093   3
  -6   0   3 12.3934 1.13136   3
   0  -6   3 6.86047 1.24930   5
   6  -6   3 14.9790 1.97556   5
   0  -6   3 11.9599 1.59578   1
   0   6   3 6.89390 1.43347   2
   0   6   3 11.0294 1.73636   3
   6   0   3 13.4542 1.83900   4
   6   0   3 9.68327 1.56678   2
   6   0   3 7.54936 1.52917   5
  -6   6   3 9.35108 1.05119   1
  -6   0   3 13.6572 1.64173   1
  -6   6   3 10.8082 1.08164   4
   0   6   3 10.4287 1.81988   5
   6   0   3 12.2185 1.64138   4
  -6   6   3 9.23313 1.44879   5
   6   0   3 9.55978 1.58580   2
   0   6   3 10.0179 1.53167   1
   6  -6   3 11.7799 1.69263   4
   0  -6   3 12.3456 1.69127   3
   6   0   3 10.6180 1.53504   3
  -6   6   3 13.2857 0.95716   3
   0   6   3 13.0656 1.71362   1
   0   6   3 10.3116 1.69381   4
   6   0   3 9.34587 1.56420   1
  -6   0   3 8.54820 0.65391   4
   6  -6   3 9.16806 1.36773   2
   0   6   3 9.92153 1.49859   2
  -6   6   3 10.2675 0.78817   2
   6  -6   3 8.98666 1.07113   1
   0  -6   3 15.2757 1.79015   4
  -6   6   3 12.5588 0.92459   3
   0  -6   3 11.4980 1.62745   2
   0   6   4 179.785 6.23816   2
   6  -6   4 214.332 6.94201   3
  -6   6   4 194.532 4.06278   3
   0  -6   4 209.450 6.90164   3
   0  -6   4 193.672 6.46275   1
   6   0   4 161.639 6.53245   5
  -6   0   4 182.717 4.68982   3
   6   0   4 187.703 6.71589   2
   0   6   4 191.728 6.64230   3
   0   6   4 172.429 6.17607   2
   0  -6   4 215.036 6.36636   5
  -6   6   4 228.182 5.73785   1
   6   0   4 198.859 6.95372   3
   0  -6   4 163.756 6.18166   2
   6  -6   4 204.037 5.60483   1
   6   0   4 202.123 6.96586   4
   6   0   4 196.252 6.86852   2
   6  -6   4 195.554 6.63836   4
   6  -6   4 203.072 7.38067   5
   0   6   4 201.498 7.55636   5
   0  -6   4 218.772 6.82661   4
   6   0   4 203.111 7.03794   5
  -6   6   4 193.186 4.03292   2
  -6   6   4 211.425 4.84618   4
  -6   6   4 211.040 4.26486   2
  -6   6   4 206.205 6.59174   5
   0   6   4 201.529 7.31939   4
  -6   0   4 204.407 3.43766   4
   0   6   4 200.062 6.59724   1
   6  -6   4 191.817 6.25924   2
   6   0   4 183.117 6.88352   4
   6   0   4 211.574 6.89126   1
  -6   0   4 203.725 6.40623   1
   6   0   4 200.110 6.81251   3
  -6   6   4 210.025 4.26814   3
  -6   0   4 200.803 5.58636   2
  -6   0   5 58.4498 3.81859   1
   0  -6   5 71.0868 4.26808   1
   6   0   5 65.5849 4.56229   2
   6  -6   5 72.6465 4.52575   3
  -6   6   5 67.1528 4.15052   5
   0  -6   5 63.1270 4.14174   3
   6   0   5 49.5834 4.00967   5
   6  -6   5 57.6871 3.46099   1
   0   6   5 56.4455 4.45003   5
  -6   0   5 67.7265 2.39183   4
   6   0   5 72.4009 4.58882   4
   0   6   5 62.0775 4.06576   3
   0   6   5 65.8450 4.46352   4
   6  -6   5 76.3598 4.91466   5
   6   0   5 68.0641 4.76230   5
  -6   0   5 76.5307 3.76309   2
   0  -6   5 64.2845 3.79072   5
  -6   6   5 68.1038 3.07830   4
  -6   6   5 57.3641 2.82306   4
  -6   6   5 65.4338 2.96902   2
  -6   6   5 67.4931 2.77201   3
   0   6   5 67.2561 4.18314   2
   6  -6   5 62.9401 4.14867   4
   6   0   5 70.1092 4.55805   2
   0  -6   5 71.8251 4.27597   4
  -6   6   5 61.3914 3.57420   1
   6   0   5 71.5897 4.57574   3
   6  -6   5 64.1021 4.63838   5
   6  -6   5 62.2477 4.05187   2
   0   6   5 55.2210 3.86468   2
   6   0   5 57.9938 4.32801   4
  -6   0   5 60.4647 2.24404   4
  -6   6   5 54.5072 2.66839   2
   0   6   5 50.2820 3.89204   1
   0   6   5 69.8278 4.27028   3
   6   0   5 75.1824 4.49569   1
   0  -6   5 78.7070 4.72048   2
   6   0   5 59.1486 4.14651   3
  -6   6   5 71.0103 2.89103   3
  -6   0   5 65.7628 3.15594   3
   0  -6   5 62.5172 3.76185   5
   6  -6   6 62.4857 5.07280   5
   6  -6   6 61.4748 4.83813   3
  -6   6   6 58.3310 4.33565   5
   0  -6   6 60.1235 4.76131   3
  -6   6   6 55.5068 3.82133   1
  -6   6   6 62.4788 3.28042   2
  -6   0   6 54.5378 1.96408   5
   6   0   6 62.7219 4.78737   4
   6   0   6 56.1811 4.45692   2
   6  -6   6 71.1481 4.86818   4
   0  -6   6 60.8813 4.15470   5
   0   6   6 58.9504 4.29351   4
   6   0   6 55.8309 4.91675   5
  -6   6   6 49.6283 3.15805   4
   0   6   6 56.8901 4.41020   3
  -6   6   6 54.5756 3.12023   2
   0   6   6 67.0969 4.60792   2
   6  -6   6 66.2360 5.18458   5
  -6   0   6 66.1969 3.50643   3
  -6   0   6 60.3935 1.96328   5
  -6   6   6 63.2611 3.26506   4
   0   6   6 48.3366 4.36012   4
   0  -6   6 64.5245 4.44189   4
  -6   0   6 57.6324 4.46382   1
  -6   0   6 52.8959 2.52928   4
   6  -6   6 65.8176 4.16875   1
  -6   6   6 52.9419 2.92826   3
   6   0   6 67.7499 5.11981   5
   6  -6   6 53.7918 4.17849   2
   0   6   6 61.6664 4.50659   2
   6   0   6 62.1390 4.87921   4
   0  -6   6 61.0487 4.09315   5
  -6   0   6 59.7657 2.64579   4
   0   6   6 53.9430 5.09247   5
   6   0   6 70.6497 5.13926   3
   6   0   6 39.9460 4.01107   2
   0  -6   6 52.2028 4.38658   2
  -6   0   6 64.1072 3.99776   2
   0   6   6 71.6854 4.71004   1
   6   0   6 61.5645 4.69896   3
   0   6   6 56.1187 4.15844   3
   0  -6   6 64.2110 4.64285   1
   6   0   6 61.0271 4.48936   1
  -6   6   6 56.5066 3.03616   3
   6   0   7-0.53885 1.99254   3
   0   6   7 2.54050 1.92407   4
   0  -6   7 3.97419 1.84637   5
   6   0   7 0.65147 1.90659   3
   0  -6   7 4.28806 2.08670   2
  -6   0   7 1.50906 1.61407   2
  -6   6   7 4.33469 1.40366   3
  -6   0   7 3.01247 0.87960   5
   6   0   7 2.63328 2.48661   2
  -6   0   7 4.71010 0.97641   5
   6  -6   7 1.49209 2.29049   3
   6   0   7 2.59721 2.24694   5
   0   6   7 2.25599 2.00786   1
  -6   0   7 2.98042 1.62136   3
   0  -6   7 3.14967 1.84014   5
   6   0   7 1.80661 1.90582   2
   6  -6   7 6.56477 2.68927   5
  -6   6   7 3.60331 1.31834   3
   0   6   7 1.23663 2.15645   5
   0   6   7 0.21546 1.85644   3
   6   0   7 0.38331 2.70609   5
   0   6   7 3.68977 2.06458   2
  -6   6   7 1.43340 1.37293   2
   6  -6   7 0.04294 1.92872   5
   6  -6   7 1.74424 1.90491   4
   6   0   7 1.05411 2.21723   4
  -6   0   7 1.23218 1.92862   1
   0  -6   7 4.18339 2.44483   1
   6   0   7 3.06986 1.91386   1
  -6   0   7 2.27015 1.08302   4
   0  -6   7 5.88574 2.21002   4
   0   6   7 7.93306 2.42672   2
  -6   6   7 1.14956 1.83038   5
   0   6   7 2.69792 2.25767   4
   0  -6   7 3.66822 2.28531   3
   6   0   7 4.41606 2.35512   4
  -6   0   7 4.80759 1.25003   4
  -6   6   7 3.32230 1.34194   4
  -6   6   7 2.37151 1.44295   2
  -6   6   7 2.60299 1.77293   1
   6  -6   7 2.79063 2.01727   2
   6  -6   7 1.76175 1.97007   1
  -6   6   7 3.05158 1.35988   4
   0   6   7 1.20886 1.89105   3
   4   3  -7 3.51666 1.90073   3
   3   4  -7-0.06079 1.74329   3
   4  -7  -7 2.76572 2.53655   5
   7  -4  -7 2.66636 2.05358   1
  -4   7  -7 4.25812 2.00805   1
   7  -3  -7 4.42756 1.53675   2
  -3   7  -7 8.27070 2.64847   3
   3   4  -7 2.51940 2.15147   1
   4   3  -7 4.93144 2.24225   1
  -3   7  -7 3.84317 1.93922   1
  -3   7  -7 5.89191 2.10092   4
   7  -3  -7 3.56081 2.11271   1
   3  -7  -7 3.19997 2.23923   5
   7  -4  -7 6.92653 1.68451   2
  -3  -4  -7 17.5894 3.44929   5
   7  -4  -7 8.80478 1.91905   5
   4   3  -7 4.18019 1.53992   4
  -4   7  -7 2.27847 1.99768   4
   3   4  -7 5.38576 1.75440   4
  -7   4  -7 1.50390 2.23612   2
  -4  -3  -7 1.00141 2.36953   5
  -3  -4  -7 3.96071 2.15968   1
  -4  -3  -7 1.97218 2.45559   1
  -4   7  -7 4.02150 2.30556   2
  -3   7  -7 4.34982 2.53659   2
   4   3  -7 4.16302 2.08409   2
   3   4  -7 2.31514 2.13426   2
   4  -7  -7 3.12212 1.87366   1
   3  -7  -7 2.34685 2.06711   1
  -7   3  -7 4.80162 2.14228   1
  -7   3  -7 3.05341 2.11936   2
  -7   4  -7 3.57940 2.01355   1
  -7   4  -7 2.88952 2.38374   3
  -4   7  -7 3.40180 2.30912   3
   4  -7  -6 24.2094 3.33909   5
  -4  -3  -6 27.2328 3.63663   5
   3   4  -6 31.7073 3.43812   1
   4   3  -6 24.0688 2.86158   2
   3   4  -6 30.4012 2.68224   4
  -3  -4  -6 24.5608 3.46690   5
   4   3  -6 32.3937 3.31184   1
   3  -7  -6 26.2132 3.53497   5
   4   3  -6 27.5588 2.40625   4
  -7   3  -6 22.1371 2.99579   2
  -4   7  -6 26.1682 3.07992   4
  -7   4  -6 30.0945 3.41631   2
  -3  -4  -6 28.8949 3.44481   1
  -3   7  -6 25.9706 2.95751   4
   3  -7  -6 27.2421 3.00853   1
  -7   4  -6 21.3860 2.67720   1
  -3   7  -6 24.4136 2.88690   1
  -3   7  -6 28.3100 3.26609   2
  -4   7  -6 21.2966 3.00080   2
   3   4  -6 31.1815 3.22441   2
  -4  -3  -6 29.8271 3.51622   1
  -7   3  -6 24.7643 2.93749   1
   7  -4  -6 27.7530 2.97525   1
   4  -7  -6 27.7604 2.94937   1
  -7   4  -6 25.8776 3.23788   3
   7  -4  -6 27.5838 2.20804   2
   7  -3  -6 26.9041 2.99166   1
   7  -4  -6 28.6745 2.62635   5
   7  -3  -6 27.1479 2.30601   2
  -4   7  -6 31.5280 3.22437   1
  -4   7  -6 26.2326 3.27040   3
  -3   7  -6 31.9016 3.55610   3
   4   3  -6 32.1712 2.83251   3
   3   4  -6 26.1460 2.75944   3
  -3   7  -5 143.241 5.76244   1
   7  -3  -5 139.931 4.19198   2
  -4   7  -5 135.771 5.93895   4
  -7   3  -5 132.929 6.21089   2
  -4  -3  -5 153.896 7.17236   5
  -7   4  -5 142.297 5.72400   1
   3   4  -5 135.960 5.89565   1
   7  -4  -5 133.757 4.65663   5
  -3  -4  -5 128.844 6.54077   5
   7  -3  -5 135.586 3.91809   5
   4  -7  -5 152.892 5.77940   1
   4  -7  -5 140.324 6.63965   5
   7  -4  -5 138.154 5.39349   1
   7  -4  -5 154.848 4.05767   2
  -3  -4  -5 142.761 6.54278   1
  -4  -3  -5 129.718 6.29001   1
   4   3  -5 135.253 4.59812   4
  -7   4  -5 146.621 6.37292   2
   3   4  -5 146.575 5.13795   4
   3  -7  -5 136.264 5.66846   1
  -7   3  -5 146.233 5.93428   1
  -4   7  -5 130.327 5.99951   2
  -3   7  -5 129.597 6.22745   2
   4   3  -5 118.332 5.28501   2
   3   4  -5 147.824 6.06345   2
   3  -7  -5 154.415 7.13068   5
  -3   7  -5 127.204 5.72128   5
   3  -7  -5 153.518 6.29443   4
   4  -7  -5 131.020 5.45912   4
  -7   3  -5 147.545 6.36128   3
  -7   4  -5 150.550 6.39634   3
  -3   7  -5 124.392 5.69107   4
  -4   7  -5 120.338 5.84381   3
  -3   7  -5 118.773 5.70741   3
   7  -3  -5 152.205 5.66656   1
   4   3  -5 150.456 5.40543   3
  -4   7  -5 130.512 5.49626   1
   3   4  -5 149.282 5.73964   3
   4   3  -5 142.084 6.04875   1
  -4   7  -4 1.84694 1.00081   3
  -3  -4  -4 1.38062 1.16460   5
  -3   7  -4 0.82986 0.82925   3
   4   3  -4 2.54725 0.92585   3
   3   4  -4 0.35343 0.79610   3
  -7   3  -4 2.42336 1.08741   3
  -4   7  -4 2.39344 1.15309   5
  -3   7  -4 1.55827 1.08716   5
   7  -4  -4 2.89745 0.99981   1
   7  -3  -4 1.65829 0.78543   1
  -4   7  -4 2.61237 1.00755   1
   4  -7  -4 0.67560 0.86022   5
  -3   7  -4 2.64121 0.98634   1
   7  -4  -4 1.70990 0.79996   5
   7  -3  -4 1.17899 0.51400   5
  -4   7  -4 0.66217 0.72397   4
  -7   4  -4 1.23943 0.86258   4
   7  -4  -4 1.88513 0.46517   2
  -3   7  -4 1.03116 0.89355   4
   4   3  -4 0.53062 0.57601   4
   3   4  -4 0.93566 0.70707   4
  -7   4  -4 2.61934 1.11690   2
  -3  -4  -4 2.53104 1.18713   1
   3   4  -4 0.12923 0.81179   2
   7  -3  -4 2.01914 0.59434   2
  -3  -4  -4 1.91801 1.37466   4
   4  -7  -4 2.56905 0.99598   1
  -4  -3  -4 0.99536 1.07761   1
  -7   3  -4 1.22079 0.90092   1
  -7   4  -4 2.72596 0.91840   1
   3  -7  -4 1.90297 0.89296   1
  -3   7  -4 5.04194 1.41640   2
   4   3  -4 0.47561 0.89897   1
   3   4  -4 1.28507 1.02662   1
   3  -7  -4 0.44866 0.91450   4
   4  -7  -4 1.84826 0.96073   4
   4   3  -4 1.06831 0.80795   2
  -7   3  -4 2.42995 1.14146   2
  -4  -3  -4 2.07395 1.10889   5
  -7   4  -4 0.78011 0.87713   3
  -4   7  -4 1.75454 1.00993   2
   3  -7  -4 1.96106 1.14091   5
  -4   7  -3 61.3270 3.53984   3
  -3   7  -3 48.0140 3.35663   3
   7  -4  -3 55.8475 2.56381   1
  -7   4  -3 63.4522 2.95159   1
   4   3  -3 52.1586 2.90248   3
   3   4  -3 64.5876 3.33261   3
  -7   3  -3 57.6253 2.91633   1
  -3   7  -3 53.8858 3.43157   5
   7  -4  -3 55.1159 2.65193   5
  -4   7  -3 52.0602 3.51588   5
  -4   7  -3 64.4820 2.98750   1
  -3   7  -3 66.8662 3.19999   1
  -3  -4  -3 48.0335 3.47233   4
  -3  -4  -3 70.0601 4.12141   3
   7  -3  -3 54.3902 1.99546   5
  -3  -4  -3 46.5497 3.38330   5
   3  -7  -3 56.2888 3.20931   3
   4  -7  -3 56.7518 2.94711   3
  -7   4  -3 60.9995 3.43535   2
  -4  -3  -3 66.4566 3.86498   5
   3  -7  -3 62.1220 3.20570   1
  -7   4  -3 63.6142 3.49897   4
   4  -7  -3 63.2144 2.98374   1
  -3   7  -3 62.3831 3.61055   4
   7  -3  -3 60.4255 1.79439   2
   4   3  -3 69.0529 2.88532   4
   3   4  -3 68.2029 3.10731   4
   4   3  -3 42.1489 3.07517   1
   3   4  -3 65.0707 3.61456   1
  -4   7  -3 65.0353 3.63883   4
  -4   7  -3 65.0193 3.56007   2
   3  -7  -3 58.3137 3.86174   5
  -3   7  -3 64.7336 3.63511   2
   4  -7  -3 63.3471 3.40422   4
   3  -7  -3 64.9991 3.57848   4
   3   4  -3 58.6324 2.30185   5
  -7   3  -3 56.6042 3.31402   2
   3   4  -3 65.5364 3.49341   2
   7  -3  -3 59.2329 2.76968   1
  -4  -3  -3 53.6513 3.58364   4
  -7   3  -3 51.2864 3.17164   3
  -7   4  -3 64.7722 3.50933   3
   4   3  -3 59.4653 3.23894   2
   4  -7  -3 66.2751 4.03039   5
   3   4  -2 4.28186 1.02824   2
   4   3  -2 4.06296 0.93824   2
  -4  -3  -2 3.81054 1.09151   4
  -4   7  -2 3.03101 0.85022   3
   7  -3  -2 3.28722 0.59394   5
   7  -4  -2 3.19741 0.57605   1
  -3   7  -2 3.43486 0.95771   3
   3   4  -2 1.92345 0.51489   5
  -3   7  -2 2.75055 0.97033   5
   4  -7  -2 3.22979 0.79485   2
  -3  -4  -2 2.93441 1.00607   3
  -4   7  -2 3.77314 0.77925   1
   3   4  -2 3.71846 0.97110   3
  -3  -4  -2 3.32965 1.09280   4
   7  -4  -2 2.82980 0.64628   5
   4  -7  -2 4.75459 1.19213   5
  -4   7  -2 3.59899 1.02446   5
   3  -7  -2 2.32576 1.21847   5
   4  -7  -2 1.80677 0.60728   3
  -4  -3  -2 2.94834 0.95441   5
  -4  -3  -2 3.81939 1.04504   3
   4   3  -2 3.37074 0.86790   3
  -7   4  -2 4.38709 0.99791   4
  -7   3  -2 5.10497 0.98400   2
   4   3  -2 4.23397 0.95734   1
   3  -7  -2 2.87058 0.93393   4
  -7   4  -2 3.16457 0.84498   2
  -4   7  -2 2.02548 0.82917   4
  -3   7  -2 2.77531 0.82044   4
  -7   4  -2 2.78259 0.60574   1
   7  -3  -2 2.88578 0.30749   2
   3   4  -2 3.19389 0.84280   4
   4   3  -2 1.78089 0.61931   4
   7  -3  -2 3.08470 0.68885   1
  -3  -4  -2 4.85348 1.27285   2
   3  -7  -2 2.73204 0.83813   3
  -4   7  -2 2.43137 0.81136   2
  -3   7  -2 3.06948 0.76794   1
  -3   7  -2 1.16559 0.71009   2
   3   4  -2 2.41957 0.92182   1
   3  -7  -2 3.60873 0.86927   2
   4   3  -2 2.32835 0.41639   5
  -7   4  -2 2.75395 0.79509   3
   4  -7  -2 3.35390 0.94708   4
  -3  -4  -2 2.35505 0.82870   5
   3  -7  -1 105.849 4.66989   5
   7  -3  -1 110.899 1.41472   3
  -3   7  -1 115.936 4.22843   3
   3  -7  -1 107.067 3.91908   3
  -3  -4  -1 88.7760 4.02388   2
   4  -7  -1 121.118 3.95895   3
   3   4  -1 118.255 4.28623   1
   4   3  -1 112.327 4.15778   1
   7  -3  -1 108.381 2.87442   1
  -4   7  -1 126.038 4.78470   5
   4   3  -1 106.564 3.60150   4
   3   4  -1 122.969 3.52805   5
   4  -7  -1 126.896 3.63776   2
   7  -4  -1 126.590 3.71878   5
  -7   4  -1 107.682 3.24534   2
  -4  -3  -1 117.493 4.49656   2
   3   4  -1 125.286 4.35071   3
   7  -3  -1 114.169 1.92521   2
  -3  -4  -1 121.039 4.43088   5
  -4  -3  -1 117.477 4.61296   3
   4   3  -1 115.237 4.04378   3
  -4  -3  -1 119.257 4.16192   5
   4  -7  -1 114.042 4.71705   5
  -4   7  -1 117.262 4.23917   3
  -7   4  -1 110.122 3.50004   4
  -3  -4  -1 91.5562 4.12802   3
   7  -3  -1 121.523 3.21821   5
   7  -3  -1 109.335 1.98213   2
   3  -7  -1 115.126 3.79264   2
  -4   7  -1 111.039 4.30757   4
  -3   7  -1 120.416 4.50948   4
   7  -3  -1 117.887 1.83785   4
   7  -4  -1 126.554 2.48171   1
   3   4  -1 127.175 4.18563   4
   7  -4  -1 123.079 2.25264   4
   3  -7  -1 112.167 4.35402   4
  -4   7  -1 125.146 3.22685   1
  -3   7  -1 95.9184 3.14782   1
   7  -3  -1 114.118 1.92946   4
  -3  -4  -1 117.523 4.61104   4
  -4  -3  -1 116.480 4.55083   4
   4   3  -1 118.098 2.99483   5
  -3   7  -1 118.494 4.06700   2
  -3   7  -1 114.508 4.53484   5
  -7   4  -1 125.717 3.68851   3
  -7   4  -1 96.9696 3.76232   5
   3   4  -1 118.463 4.32046   2
   4   3  -1 123.238 4.24940   2
  -4   7  -1 128.933 4.09602   2
   4  -7  -1 132.365 4.47246   4
   3   4   0 106.737 4.09052   2
  -3  -4   0 107.773 4.18970   1
   3   4   0 90.8687 3.50287   5
  -4  -3   0 109.650 4.11311   1
   4  -7   0 106.296 3.41137   2
   4   3   0 112.238 3.99817   4
  -4   7   0 80.2197 3.28771   3
   3  -7   0 104.217 3.59225   2
   3  -7   0 91.9559 3.63976   3
  -3   7   0 82.1157 3.46982   3
  -7   3   0 106.464 3.30467   5
   4  -7   0 114.367 3.86164   3
   7  -3   0 102.728 2.66199   1
   7  -3   0 104.767 3.30919   5
   7  -4   0 103.266 2.19056   2
   7  -4   0 104.801 3.55753   5
  -4  -3   0 112.232 4.17979   2
   4  -7   0 111.376 4.57496   5
  -7   4   0 102.280 3.56833   5
  -4   7   0 100.879 4.29163   5
   7  -4   0 98.8547 2.47523   3
  -3  -4   0 108.197 3.81303   5
   7  -3   0 91.0745 2.67796   3
   4   3   0 99.4396 3.38976   5
   3  -7   0 77.6420 3.92939   5
   3   4   0 108.554 4.17328   3
  -4   7   0 90.4322 2.53488   1
   3   4   0 118.744 4.29148   1
   3  -7   0 93.6649 2.99592   1
   4   3   0 85.4468 3.62148   1
   7  -3   0 102.151 2.73927   1
   7  -3   0 102.351 2.56940   2
   7  -4   0 87.7113 2.67888   4
   7  -4   0 94.3681 2.06145   1
  -4   7   0 97.9783 3.84321   4
  -3   7   0 116.539 4.32310   4
   4  -7   0 84.0908 3.52189   4
   3   4   0 103.541 3.99881   4
   7  -4   0 109.490 2.26198   2
   3  -7   0 108.449 4.18117   4
   7  -4   0 84.4253 1.94964   1
  -4  -3   0 79.1040 3.57563   3
  -3  -4   0 98.6695 4.05250   4
   7  -4   0 108.788 2.74407   3
  -3   7   0 103.128 3.18168   1
  -4  -3   0 81.1665 3.50879   4
  -3  -4   0 107.517 4.11415   2
  -3   7   0 84.9408 3.96903   5
   7  -3   0 106.493 2.78257   4
   7  -3   0 95.4400 2.85173   4
   4   3   0 109.103 4.07125   3
  -4   7   0 99.6979 3.36493   2
  -3  -4   0 91.0304 3.83188   3
  -7   4   0 99.7326 2.84548   4
  -4  -3   0 106.414 3.42844   5
  -3   7   0 111.786 3.82062   2
   7  -3   0 91.8832 2.42317   2
   4   3   0 112.823 4.10888   2
   7  -3   0 106.581 2.62018   3
  -4   7   0 100.689 2.70322   1
   3   4   1 124.106 4.43829   1
   3  -7   1 118.789 4.04476   2
  -4   7   1 87.0248 3.68299   4
   4   3   1 114.468 4.51158   4
   7  -4   1 117.575 2.59227   1
   4   3   1 91.2248 3.75183   1
  -4  -3   1 120.887 3.10043   5
   3   4   1 115.266 4.45577   2
  -4  -3   1 114.685 4.19044   1
   4   3   1 117.313 4.37553   2
  -3  -4   1 95.8300 3.89517   2
   3   4   1 118.632 4.58805   3
  -4   7   1 114.829 3.80200   3
  -3  -4   1 134.010 4.54566   1
   3   4   1 113.286 4.39449   5
  -3  -4   1 131.575 4.59216   3
  -4  -3   1 118.138 4.17247   4
  -4  -3   1 118.534 4.22216   3
  -3   7   1 118.017 3.39610   1
  -4   7   1 110.338 4.63061   5
  -3  -4   1 103.176 3.55970   5
  -7   4   1 111.673 2.18245   4
   4   3   1 113.719 4.29027   5
  -7   4   1 113.142 3.38918   5
   3  -7   1 114.477 4.21097   3
  -3  -4   1 109.718 4.23780   4
   7  -4   1 113.092 4.05732   5
  -4  -3   1 123.625 4.28035   2
   7  -3   1 94.7250 3.59478   5
  -7   3   1 124.363 3.11130   1
   7  -3   1 102.806 3.45716   3
   3  -7   1 121.887 4.44428   4
   7  -3   1 123.923 4.18875   5
   4  -7   1 115.947 4.14373   3
   3   4   1 114.072 4.20604   1
   4   3   1 98.9568 3.95936   1
  -3   7   1 112.742 4.04898   3
   7  -3   1 86.4798 3.11956   4
   7  -4   1 125.303 3.76416   4
   7  -3   1 121.113 3.46281   2
   7  -4   1 131.047 3.66610   3
   7  -3   1 100.164 2.88336   1
  -3   7   1 104.857 4.08316   4
   4  -7   1 116.532 4.27384   4
   7  -4   1 99.3288 3.00393   2
   7  -3   1 119.749 3.26956   1
  -7   3   1 106.703 2.92636   5
   7  -3   1 122.977 3.61163   2
   3   4   1 124.234 4.72530   4
   4  -7   1 118.658 4.72954   5
   3  -7   1 125.923 4.84629   5
  -4   7   1 104.906 2.88328   1
   4   3   1 122.101 4.51259   3
  -3   7   1 101.601 3.22530   1
   7  -4   1 122.640 2.78824   1
   7  -3   1 97.4179 3.45009   4
  -7   4   1 116.039 2.45095   1
  -4   7   1 120.524 2.98546   1
   4  -7   1 121.589 3.08547   1
  -4   7   1 114.536 3.43376   2
   3  -7   1 123.185 3.51058   1
   7  -3   1 128.062 3.59322   3
  -3   7   1 108.926 3.72972   2
  -3   7   1 117.650 4.89532   5
   4  -7   1 110.750 3.82484   2
  -4   7   2 3.04748 0.67087   1
   7  -3   2 1.82107 0.66368   3
  -4   7   2 2.37106 0.61073   1
   4  -7   2 4.36251 0.97766   2
  -3   7   2 2.80953 0.96068   2
  -3  -4   2 4.81702 1.06938   2
   7  -4   2 2.10694 0.76516   3
   7  -3   2 3.86438 0.79605   1
   3   4   2 3.73705 1.10280   2
  -4  -3   2 4.80557 1.05484   2
   3  -7   2 2.96948 0.87140   2
   7  -3   2 1.56723 0.54399   1
  -4  -3   2 3.62749 0.88817   3
  -3   7   2 2.88914 0.76217   3
   4  -7   2 5.35083 1.09912   3
   7  -4   2 3.93622 1.00413   5
  -4   7   2 2.85615 0.74681   3
   4  -7   2 3.23548 1.00990   5
  -4  -3   2 3.62034 0.54140   5
   4   3   2 3.71567 1.00548   2
   7  -3   2 4.33888 0.99852   5
   3  -7   2 4.01056 1.16443   4
  -7   3   2 3.14006 0.32716   2
  -7   4   2 2.37301 0.58346   5
   4   3   2 4.44300 1.12643   3
   3  -7   2 3.53813 0.92385   1
  -3  -4   2 2.30937 0.78697   4
   7  -4   2 2.97195 0.97592   5
   7  -4   2 2.82800 0.61680   1
   3  -7   2 3.04235 0.94907   3
  -7   3   2 2.95029 0.61518   1
   4   3   2 3.78283 1.16170   2
   3  -7   2 2.53302 0.85591   5
   7  -3   2 3.20626 0.76531   4
  -3  -4   2 2.52462 0.76445   3
  -3   7   2 3.71755 0.96284   4
   7  -4   2 3.72404 0.94297   4
   4  -7   2 2.37557 0.89512   4
   3   4   2 3.59391 1.07803   3
  -7   3   2 3.70154 0.53638   5
   3   4   2 4.81865 1.37079   5
   4   3   2 3.21555 1.10233   4
  -4   7   2 4.00298 0.93003   4
   7  -3   2 4.53968 0.92195   2
   3   4   2 5.43857 1.04327   1
  -4   7   2 3.82978 0.77216   2
   4   3   2 3.28178 0.92243   1
  -4  -3   2 4.11162 0.90572   4
   3   4   2 4.90151 1.21369   4
   4   3   2 3.46031 1.07793   1
   7  -4   2 4.61063 0.85377   2
  -3  -4   2 3.92864 0.72558   5
   4   3   2 6.75593 1.39248   5
   7  -3   2 3.84564 0.92051   4
  -3  -4   2 2.77444 0.92531   1
  -4  -3   2 4.63284 1.04030   1
  -7   4   2 3.05862 0.58962   1
   4  -7   2 3.84548 0.75216   1
  -3   7   2 3.06460 0.70251   1
  -3   7   2 4.59670 0.84231   1
  -4   7   2 3.70650 1.14503   5
   7  -3   2 2.04519 0.80337   5
   3   4   2 2.87146 0.86593   1
  -3   7   2 2.84134 0.94783   5
  -4  -3   3 63.9667 3.42613   2
   7  -4   3 65.0240 2.94010   1
  -7   4   3 63.1772 2.78440   1
  -7   3   3 61.5976 1.78596   2
  -4   7   3 51.9428 2.62351   2
   4  -7   3 56.2337 3.45443   3
  -7   3   3 61.8402 2.82827   1
   3  -7   3 52.7247 2.88968   1
   3  -7   3 64.2886 3.68532   3
  -3   7   3 64.9793 3.15408   2
  -3  -4   3 57.2267 2.49993   5
   4   3   3 62.8882 3.83155   5
   7  -4   3 62.3123 3.70101   5
   4   3   3 62.5636 3.80332   3
  -4  -3   3 65.3557 3.31611   3
  -4   7   3 68.2917 4.04977   5
   3   4   3 67.5132 3.85953   2
   4  -7   3 63.9503 3.82433   5
  -3   7   3 59.2000 3.15826   3
   4   3   3 38.4075 3.07636   2
   7  -3   3 62.5104 3.42660   4
   4   3   3 60.8559 3.50574   1
   3   4   3 55.9281 3.56604   3
   3   4   3 69.5352 4.03232   5
   7  -3   3 65.9538 3.79893   5
  -3  -4   3 61.7598 3.50090   1
  -4  -3   3 65.2799 3.58946   1
   7  -3   3 71.3955 4.05348   5
  -4  -3   3 55.9992 1.80366   5
   7  -4   3 67.4452 4.03458   5
   7  -3   3 64.3471 3.37948   2
  -3  -4   3 64.6828 3.41136   3
  -3   7   3 62.8580 3.06733   2
   3   4   3 51.8612 3.46311   2
   4   3   3 63.1619 3.68399   1
  -3  -4   3 52.5890 2.92890   4
   4   3   3 59.8743 3.67017   2
  -4   7   3 62.6248 2.88114   2
  -3   7   3 56.0103 3.29689   4
  -4   7   3 64.9258 3.29040   4
   7  -4   3 57.2791 3.46170   4
  -3   7   3 61.8280 3.08823   1
  -7   4   3 54.9764 2.45759   5
  -7   3   3 66.9042 2.10004   5
   4  -7   3 62.8445 3.62150   4
   3  -7   3 61.9868 3.61424   4
   3   4   3 57.3635 3.39500   1
   7  -4   3 66.8891 3.36937   2
  -4  -3   3 70.3557 3.14464   4
   3   4   3 68.6318 3.79896   1
   3   4   3 63.8186 3.97327   4
   4   3   3 44.7042 3.47988   4
   3  -7   3 66.2579 3.86097   5
   7  -3   3 44.4863 3.03566   4
  -4  -3   3 61.9461 1.92552   5
   4   3   3 61.8105 3.67846   3
   4  -7   3 70.0532 3.64296   2
  -3   7   3 65.8984 4.06580   5
  -4   7   3 68.4120 3.04396   1
   3  -7   3 59.9029 3.52046   2
   7  -3   3 64.7360 3.21001   1
  -4   7   3 60.6243 2.97402   3
  -3  -4   3 52.1008 3.21621   2
   7  -3   3 45.3169 2.96356   3
   4  -7   3 62.1944 2.92399   1
   7  -4   3 68.3763 3.51579   3
  -3  -4   4 0.13957 0.89037   1
  -4  -3   4 0.76048 0.84654   1
   3  -7   4 3.52961 1.30307   2
   7  -4   4 0.55761 1.02287   3
  -7   4   4 1.17730 0.43371   2
  -3  -4   4 1.10825 0.97596   2
  -3   7   4 2.18793 0.95078   3
   7  -3   4 2.34821 0.98051   3
  -7   3   4 3.15960 0.69900   2
  -3   7   4 1.26704 1.08716   5
  -7   4   4 2.07421 0.90720   1
   4  -7   4 2.28950 1.07018   3
   3  -7   4 1.55191 1.03887   3
   4   3   4-0.16818 0.89014   5
   7  -3   4-0.05371 0.79118   5
   3   4   4 1.49898 1.09087   3
  -3  -4   4 1.99777 0.93538   3
  -3   7   4 11.3228 1.78206   4
  -4  -3   4 0.91967 0.78409   3
  -4   7   4 1.49112 0.88604   1
  -3   7   4 0.22665 0.74954   1
   7  -4   4 1.23475 1.02724   5
  -3  -4   4 1.10932 0.58199   5
  -4  -3   4 1.05968 0.46048   5
   7  -3   4 1.23961 0.98377   1
  -4   7   4 2.59323 0.96801   3
   3   4   4 1.32297 1.06946   2
   7  -3   4 0.97621 0.92478   2
   3   4   4 1.72531 1.10786   5
  -4   7   4 1.00706 1.02908   5
   3   4   4 2.79798 1.33474   4
  -4  -3   4 1.71773 0.48667   5
  -7   3   4 2.78215 0.96057   1
   7  -3   4 2.55948 1.27654   5
   4  -7   4 0.85808 0.81204   1
   7  -4   4 1.41724 1.24892   5
  -7   3   4 2.49985 0.60754   5
  -3   7   4 4.97409 1.28960   2
  -7   4   4 1.49558 0.68812   5
   7  -3   4 2.86028 1.18630   4
   3  -7   4 0.71637 0.68190   1
   3  -7   4 0.24638 0.72203   4
  -4   7   4 2.53392 0.89754   2
   4  -7   4 1.68918 1.14111   4
  -4   7   4 1.21658 0.69242   2
   4   3   4 1.41697 0.90488   2
  -3  -4   4 2.09073 0.90466   4
  -4  -3   4 0.54169 0.65354   4
  -4   7   4 2.27603 0.89976   4
  -3  -4   4 1.15183 0.60646   5
   7  -4   4 4.67504 1.34964   4
   7  -4   4 2.14674 0.94148   1
   7  -4   4 1.61896 0.91459   2
  -4  -3   4 1.29026 0.99369   2
   4   3   4-0.08177 0.93440   4
   3   4   4-0.32414 0.96291   2
   7  -3   4 1.96953 1.22507   4
  -4   7   4 0.70145 0.67315   3
   4  -7   4 3.52689 1.36163   5
  -3   7   4 2.09831 0.94474   2
   3   4   4 0.85552 0.98979   3
   3  -7   4 3.77031 1.30954   5
   4   3   4 1.69250 1.17215   2
   4   3   4 1.29861 1.19456   3
   4   3   4 1.21298 1.01129   3
   3   4   4 1.19056 1.01395   1
   4  -7   4 0.98338 0.89963   2
   4   3   4 2.77332 1.20873   1
   7  -4   5 144.787 7.03933   5
   7  -4   5 151.377 6.48602   3
  -4   7   5 131.879 5.07405   3
   4  -7   5 138.314 6.21699   4
   7  -3   5 132.997 5.55901   1
   3   4   5 147.955 6.38520   3
  -4   7   5 133.569 5.30728   1
   4  -7   5 149.537 6.66806   5
   3  -7   5 151.629 6.45176   3
  -4  -3   5 148.256 6.20460   1
  -3  -4   5 139.496 6.08529   1
  -7   4   5 124.599 2.45578   3
   7  -4   5 136.361 5.44409   1
   7  -3   5 114.740 6.09094   5
   7  -4   5 155.568 6.93644   5
  -4  -3   5 151.075 3.89687   5
  -4  -3   5 155.951 5.85456   3
  -3   7   5 127.232 5.38761   3
  -7   3   5 141.831 4.12675   5
  -3   7   5 149.083 6.89015   5
  -7   4   5 122.724 4.49048   5
   3   4   5 121.073 6.04789   3
   3   4   5 99.8090 6.11369   5
   4   3   5 132.096 6.72498   5
  -4   7   5 132.359 6.18824   5
   7  -3   5 125.650 6.63474   5
   4   3   5 135.667 6.13021   1
   3   4   5 135.259 6.16281   2
  -3   7   5 154.553 5.56868   2
   7  -4   5 140.150 6.19279   4
   3   4   5 151.594 6.52900   4
   4   3   5 141.598 6.44956   4
   7  -3   5 133.770 6.23881   4
   3   4   5 139.856 6.25748   2
   4   3   5 120.039 6.09782   2
  -3   7   5 140.736 5.41450   2
  -4   7   5 138.973 5.08144   2
   4   3   5 116.469 5.92589   2
  -4  -3   5 138.909 3.69387   5
  -3  -4   5 120.608 4.11646   5
   3  -7   5 126.497 6.04503   4
  -7   4   5 142.756 2.50670   3
  -3  -4   5 154.766 5.51729   4
  -4  -3   5 121.644 4.76851   4
   7  -3   5 146.376 6.26826   2
   7  -4   5 147.682 6.22450   2
  -4   7   5 140.152 5.02609   2
  -4   7   5 145.416 5.68456   4
  -3   7   5 131.973 5.68142   4
  -7   4   5 136.839 5.27272   1
   3   4   5 155.804 6.93903   4
   4   3   5 103.341 5.90364   4
   4  -7   5 137.451 5.45574   1
   4   3   5 139.622 6.43705   3
   3  -7   5 144.118 6.29040   5
   3   4   5 137.075 6.19517   1
  -3  -4   5 120.127 5.35397   3
   7  -3   5 112.319 5.87077   4
   4  -7   5 154.246 6.46752   2
  -7   3   5 121.358 5.21449   1
  -3  -4   5 146.503 4.47425   5
   3  -7   5 147.138 6.24311   2
   4  -7   5 143.569 6.32981   3
   7  -4   5 139.045 6.41170   4
   3  -7   5 135.132 5.48876   1
  -7   4   5 133.381 3.86077   2
  -3   7   5 134.563 5.31303   3
  -4   7   5 134.780 5.00086   3
   4   3   5 139.223 6.28140   3
  -7   3   5 152.620 4.35793   2
  -7   3   5 136.979 2.84111   3
  -3  -4   5 115.256 5.40836   2
  -4  -3   5 136.366 5.81275   2
   7  -3   5 146.899 6.29680   3
  -3   7   5 145.104 5.60734   1
   7  -4   6 21.4008 3.17912   3
  -7   4   6 25.1455 2.82017   1
  -4   7   6 22.9924 2.42934   3
  -4  -3   6 25.0594 1.90356   5
  -4  -3   6 25.7597 3.06329   1
  -3  -4   6 22.4348 2.91615   1
  -3   7   6 26.6300 2.87172   1
  -3   7   6 28.0938 2.84472   4
   4  -7   6 22.4432 3.07892   3
   3  -7   6 28.7457 3.35560   3
  -7   4   6 29.2673 1.65519   3
  -3   7   6 21.7390 3.34542   5
  -3  -4   6 21.4154 2.69858   3
   7  -3   6 26.2208 2.94066   1
  -4   7   6 22.9604 2.70912   1
  -3   7   6 27.3874 2.77021   2
  -4  -3   6 19.5263 2.48648   3
  -3   7   6 20.5240 2.52982   3
   4   3   6 27.8272 3.43649   3
   4  -7   6 26.4266 2.90927   1
   7  -3   6 21.2831 3.51819   5
  -7   4   6 28.4635 2.54013   5
   3   4   6 30.5606 3.63063   4
   4  -7   6 24.1172 3.39358   5
   4  -7   6 19.0385 2.97426   4
   4   3   6 23.2899 3.23583   2
  -4   7   6 27.6631 2.71068   2
   3  -7   6 21.4452 2.98627   5
   3   4   6 17.7618 3.04875   5
  -7   3   6 23.7706 1.62669   3
   3   4   6 23.7627 3.15293   2
   4   3   6 26.4320 3.30448   2
  -7   4   6 22.5566 1.48351   3
   4   3   6 20.3414 3.14845   4
   4   3   6 21.5109 3.28541   5
  -4  -3   6 26.9626 2.06909   5
  -7   3   6 26.7313 2.18440   5
   3  -7   6 19.7312 2.97138   5
   7  -3   6 25.6246 3.64683   5
  -7   3   6 28.7299 1.73222   3
   7  -4   6 27.5651 3.67904   5
   4  -7   6 32.2569 3.71599   5
  -4   7   6 23.4712 3.32120   5
  -3  -4   6 23.9776 2.22660   5
   3   4   6 26.6176 3.24798   3
   7  -4   6 27.3014 3.25755   4
  -4   7   6 29.3925 2.74534   4
   3   4   6 15.1915 2.75708   4
   7  -4   6 31.5976 3.78522   5
  -7   3   6 26.4930 2.28591   2
   3   4   6 19.4838 2.99052   2
  -7   4   6 23.7160 1.13760   4
  -4   7   6 30.8013 2.75853   2
  -3   7   6 24.2572 2.63133   3
   3   4   6 27.6025 3.24207   3
  -4  -3   6 25.8599 2.48977   4
  -7   3   6 23.7935 1.98080   5
  -7   4   6 16.2167 1.02353   4
   4   3   6 32.2833 3.57983   4
   7  -3   6 29.9265 3.62310   4
   3  -7   6 22.9862 3.10343   4
   7  -4   6 25.8578 3.08587   2
  -4   7   6 25.8897 2.75770   4
  -3   7   6 24.4596 2.85098   4
  -3  -4   6 25.4812 2.24244   5
  -3  -4   6 27.4810 2.70166   4
   7  -3   6 30.6657 3.51153   2
  -7   3   6 23.7420 2.78415   1
   7  -3   6 28.0697 3.46836   4
   7  -4   6 24.7223 2.92634   1
   7  -4   6 21.5839 3.24999   4
   4  -7   6 27.8029 3.15182   2
   3  -7   6 25.6858 2.91508   1
   3  -7   6 24.0190 2.93789   2
  -7   4   6 28.4467 2.23864   2
   3   4   6 20.2253 2.90890   1
   4   3   6 27.6399 3.31001   1
   4   3   6 24.5611 3.10034   3
  -4   7   6 27.5902 2.70326   3
  -3  -4   6 30.0679 3.25297   2
  -4  -3   6 16.9003 2.55767   2
   7  -3   6 21.8915 2.98272   3
  -3   7   6 23.1900 2.73193   2
   3   4   7 4.63390 2.43409   3
  -7   4   7 2.92076 1.43105   2
  -3   7   7 4.01736 1.86044   3
   4   3   7 6.53502 2.64545   3
  -7   3   7 1.73869 1.54599   2
  -4  -3   7 6.52423 1.84311   4
  -3  -4   7 1.47798 1.92730   2
   7  -3   7 3.28250 2.50164   3
  -4  -3   7 3.06289 2.05552   2
  -3  -4   7 4.48469 1.89475   4
   7  -4   7 6.68223 2.59025   3
  -4   7   7 0.02763 1.55124   4
  -4   7   7 9.43801 2.05438   3
   7  -3   7 2.60010 2.41731   3
   7  -4   7 3.97765 2.38063   5
  -7   3   7 4.22868 1.19430   3
  -3  -4   7 4.85259 1.68573   5
  -3   7   7 3.31137 2.28415   5
   4   3   7 5.32662 2.27051   1
  -4  -3   7 5.57452 1.45543   5
  -4   7   7-1.07598 1.97649   5
  -7   4   7 4.90298 1.77195   5
   4  -7   7 5.04415 2.20214   1
   4  -7   7 0.56529 2.20087   5
  -4   7   7 7.98545 2.05237   2
   7  -4   7 5.17381 2.87562   5
  -7   3   7 1.76426 1.31695   5
  -3   7   7 5.77851 2.04981   3
  -3  -4   7 5.87099 1.65423   5
   3  -7   7 1.07249 2.19206   5
   4   3   7 5.62998 2.93883   5
  -7   3   7 3.51710 2.11881   1
  -7   4   7 5.30345 1.19576   3
   4   3   7 0.56771 2.28871   2
  -3   7   7 7.37257 2.23557   2
  -4   7   7 2.85968 1.72024   2
   3   4   7 4.17898 2.26283   3
   3  -7   7 8.85126 2.56514   1
   3   4   7 1.71376 2.01376   2
  -7   3   7 4.39828 1.25081   3
   3  -7   7 5.11298 2.30448   5
   7  -3   7 3.04520 2.51460   5
   4   3   7 5.94544 2.61536   3
   4  -7   7 8.55227 2.76672   5
  -3   7   7 2.41460 1.76277   4
  -7   4   7 4.51326 1.14117   3
   3   4   7 2.50848 1.88677   4
   4   3   7 9.18787 2.83904   4
   7  -3   7 4.86228 2.29632   1
  -4   7   7 4.17955 1.99906   1
   7  -3   7 2.55404 2.10877   4
   7  -4   7 3.53489 2.15755   4
   3   4   7 4.42657 2.71319   5
   4  -7   7 4.29560 2.37132   3
   7  -3   7 3.14666 2.63309   5
   4  -7   7 0.66272 2.04401   4
   7  -4   7 5.05773 2.13436   1
  -7   4   7 2.53533 1.99525   1
  -7   3   7 4.24215 0.63997   4
   3   4   7 1.17172 2.35868   2
  -4  -3   7 2.77966 2.18223   1
  -3  -4   7 8.30026 2.54665   1
  -4  -3   7 4.96107 2.20822   3
  -4  -3   7 2.59010 1.34494   5
   3  -7   7 4.84774 2.44580   3
  -7   4   7 4.65079 0.77886   4
  -3   7   7 5.38506 2.10696   2
   3   4   7 5.03603 2.65414   1
  -4   7   7 3.23497 1.83053   4
  -3   7   7 3.39895 1.97083   4
   4   3   7 2.84511 2.27468   2
   3   4   7 0.08726 2.41291   4
   7  -3   7 2.42928 2.06075   2
   4   3   7 2.14777 2.16157   4
  -3  -4   7 2.17904 1.89448   3
   7  -4   7 5.02967 2.34529   2
   3  -7   7 5.96209 2.31479   4
   7  -3   7 11.4485 3.75033   4
   7  -4   7 8.59927 3.08278   4
  -7   3   7 4.79941 1.54116   5
  -3   7   7 4.09027 1.93889   1
  -4   7   7 4.17069 1.70325   3
   4  -7   7 1.72302 2.28774   2
   3  -7   7 3.20648 2.03434   2
   2   5  -7 54.7497 4.77389   1
   5  -7  -7 55.4088 4.37736   1
  -5   7  -7 53.5055 4.78946   4
   2  -7  -7 45.6015 5.18795   5
   5  -7  -7 24.7373 4.24816   5
   7  -2  -7 59.3837 3.87220   2
  -2  -5  -7 34.7319 4.79294   5
   5   2  -7 66.4269 4.75175   2
  -7   2  -7 56.2812 5.07017   2
   2   5  -7 54.4896 4.03758   4
  -2   7  -7 57.1823 4.72899   4
  -2  -5  -7 55.6017 5.03129   1
  -7   5  -7 60.3474 5.09380   2
   2  -7  -7 57.4224 5.01013   1
  -2   7  -7 64.3921 5.46924   2
   5   2  -7 46.0982 4.59332   1
  -7   5  -7 56.8597 4.72242   1
   7  -5  -7 70.5210 4.92853   1
   2   5  -7 51.2192 4.66489   2
  -5   7  -7 55.0336 4.91611   2
   7  -5  -7 51.9945 4.07774   5
  -5  -2  -7 51.1749 4.94595   1
  -5   7  -7 52.3672 4.82004   1
  -7   2  -7 60.2502 4.94784   1
  -7   5  -7 62.8112 5.31430   3
  -5   7  -7 64.2182 5.17351   3
   5   2  -7 52.9087 3.87999   3
   7  -2  -7 36.1864 4.08043   1
  -2   7  -7 54.7249 4.75490   3
   2   5  -7 50.6997 4.27322   3
  -2   7  -7 69.4325 5.28496   1
  -5   7  -6 10.6418 2.34251   3
   5   2  -6 9.09314 1.73991   3
  -2   7  -6 8.74440 2.14275   3
   2   5  -6 11.3374 2.06812   3
  -5   7  -6 11.2765 2.22234   1
  -5  -2  -6 11.8785 2.62178   1
   2   5  -6 3.49219 1.89633   2
   7  -2  -6 11.3648 2.21839   1
   7  -5  -6 10.2328 1.86823   5
   7  -5  -6 10.8364 2.08811   1
  -2  -5  -6 10.0703 2.32402   1
  -2   7  -6 9.68550 2.20278   1
   2  -7  -6 10.3568 2.30461   1
   2  -7  -6 5.09167 2.33576   5
  -2  -5  -6 11.1620 2.69117   5
  -5  -2  -6 11.0998 2.64405   5
   5   2  -6 9.82258 1.51699   4
   5   2  -6 9.22287 2.42719   1
   2   5  -6 14.0154 2.18577   4
  -7   5  -6 10.5381 2.28674   4
  -5   7  -6 13.7325 2.42390   4
  -7   2  -6 13.6604 2.53277   2
   7  -2  -6 11.7357 1.81613   2
  -7   5  -6 8.87656 2.17767   2
   5  -7  -6 13.5165 2.59174   5
   2   5  -6 12.9064 2.41627   1
  -2   7  -6 12.2056 2.44988   4
  -7   5  -6 18.9297 2.59052   1
  -5   7  -6 10.7786 2.25672   2
  -7   2  -6 12.5273 2.52269   1
  -2   7  -6 5.68986 2.35958   2
   5   2  -6 11.2535 2.06643   2
   5  -7  -6 8.67494 1.79761   1
  -7   5  -6 11.2507 2.51651   3
  -5   7  -5 5.36261 1.57112   3
   5   2  -5 5.30478 1.21580   3
  -7   2  -5 6.54585 1.61335   1
  -2   7  -5 8.82564 1.87568   3
   7  -5  -5 6.99052 1.42124   1
  -2   7  -5 8.85956 1.71814   5
  -2   7  -5 6.03906 1.67924   2
  -5   7  -5 10.1532 1.76044   1
   5   2  -5 3.52028 1.24135   2
  -5  -2  -5 7.07727 2.09013   5
  -2  -5  -5 5.78074 1.76556   4
   7  -5  -5 5.01037 1.31174   5
   7  -2  -5 5.42844 1.14729   2
   7  -2  -5 4.05613 1.29211   1
  -2  -5  -5 4.31468 1.84000   5
  -2   7  -5 9.44464 1.76007   1
   5   2  -5 6.32497 1.12045   4
  -7   5  -5 5.33055 1.64739   4
  -7   2  -5 4.27658 1.52736   2
   5   2  -5 4.94455 1.81550   1
   2   5  -5 7.26599 1.47852   4
  -2  -5  -5 9.95025 2.01630   1
  -5  -2  -5 4.83735 1.67416   1
   2   5  -5 5.86853 1.62958   1
   2  -7  -5 5.12578 1.43250   1
  -5   7  -5 6.66401 1.68790   2
   5  -7  -5 6.89122 1.40067   1
   5  -7  -5 4.81054 1.63838   5
  -7   5  -5 6.19540 1.57139   2
   2   5  -5 6.30688 1.63015   2
   2  -7  -5 7.49146 1.80104   4
  -7   5  -5 9.24558 1.69998   1
   5  -7  -5 6.48016 1.42663   4
  -5   7  -5 6.88570 1.73416   4
  -2   7  -5 5.94535 1.63738   4
  -7   5  -5 6.50985 1.64938   3
   2  -7  -5 6.99717 2.08052   5
   2   5  -5 4.14303 1.49849   3
  -2   7  -4 76.1609 4.29597   3
   5   2  -4 68.6195 3.43859   3
   2   5  -4 68.6465 3.82180   3
  -2   7  -4 73.5392 4.08127   5
   7  -2  -4 75.3146 3.72197   1
   5   2  -4 71.8155 2.79330   4
   7  -5  -4 68.6726 3.47259   5
  -2   7  -4 65.0969 3.66113   1
   2   5  -4 68.1048 3.18191   5
  -2   7  -4 73.5768 4.19014   2
  -5   7  -4 65.8495 4.06030   5
   5  -7  -4 62.7421 4.18156   5
   2  -7  -4 70.2507 4.62345   5
  -2  -5  -4 73.3468 4.69922   5
   5   2  -4 67.7487 4.09505   1
   2   5  -4 78.1913 4.19812   1
  -7   2  -4 81.1705 4.45822   2
  -5  -2  -4 59.8347 4.02967   1
  -7   5  -4 69.4785 3.98915   4
   2  -7  -4 74.5587 4.00697   1
  -5   7  -4 62.2023 3.81858   4
  -7   5  -4 60.2634 3.73318   2
  -2   7  -4 65.6349 3.87097   4
   2   5  -4 67.8978 3.52197   4
   5  -7  -4 71.4582 3.42266   1
   7  -2  -4 68.9284 2.89266   2
  -7   5  -4 84.5742 3.85408   1
  -5   7  -4 63.2886 3.80445   2
   2  -7  -4 80.0429 4.20440   3
  -7   2  -4 73.5254 3.92296   1
  -5  -2  -4 67.9345 4.50131   5
   5   2  -4 75.6248 3.70718   2
   2   5  -4 73.2784 4.09662   2
   2  -7  -4 69.5646 4.34366   4
   5  -7  -4 57.6981 3.37679   4
   7  -5  -4 66.1904 3.18726   1
  -2  -5  -4 70.1878 4.50556   4
   7  -2  -4 66.6292 1.72855   3
  -7   5  -4 73.1462 4.04443   3
  -5   7  -4 67.5343 3.60682   1
  -5   7  -4 69.4020 4.01881   3
   2   5  -3 395.628 8.01525   4
  -5   7  -3 403.683 7.31079   1
  -5   7  -3 479.557 9.82912   4
  -2   7  -3 471.056 9.88236   3
   7  -2  -3 464.360 6.12755   2
   5   2  -3 464.327 7.95669   3
   2   5  -3 463.716 9.23556   3
  -5   7  -3 457.585 9.20686   2
  -2   7  -3 366.680 8.54753   5
   2  -7  -3 487.687 11.3069   5
   7  -2  -3 404.661 7.74115   1
   7  -5  -3 451.570 8.30703   5
  -2  -5  -3 356.060 9.45833   5
   2  -7  -3 505.847 9.88458   3
  -2   7  -3 464.773 8.92602   1
  -2  -5  -3 444.070 10.1355   3
  -5  -2  -3 391.633 9.33348   5
   5   2  -3 451.959 8.54711   2
   5  -7  -3 474.153 7.56883   1
  -7   5  -3 479.708 9.44753   4
  -7   2  -3 413.024 8.12179   1
  -7   5  -3 442.076 8.82411   2
   2   5  -3 350.474 8.65359   1
   5   2  -3 446.536 6.54601   4
   5   2  -3 340.952 8.25402   1
  -5   7  -3 486.652 10.4644   5
  -2   7  -3 453.641 9.46768   4
  -2   7  -3 372.006 8.66029   2
   5  -7  -3 505.540 10.8470   5
   5  -7  -3 399.477 8.01373   4
   2  -7  -3 503.201 10.4401   4
  -7   5  -3 472.675 7.52688   1
   2   5  -3 448.486 9.48866   2
  -2  -5  -3 412.460 10.2321   4
   7  -5  -3 433.472 6.74193   1
   5  -7  -3 454.821 7.55308   3
  -7   5  -3 443.983 8.90181   3
  -5  -2  -3 481.441 10.4295   4
  -5   7  -3 474.924 9.56709   3
  -5   7  -2 20.6908 2.03189   3
  -2   7  -2 22.6602 2.08855   3
  -5   7  -2 22.4925 1.46904   1
   2   5  -2 23.8737 2.06615   3
   5   2  -2 22.5854 1.77712   3
  -7   5  -2 30.8445 2.12767   3
  -7   5  -2 22.3139 2.09408   5
   2  -7  -2 25.9657 2.33708   4
  -2  -5  -2 23.9892 2.31760   3
  -7   5  -2 24.3693 1.37652   1
  -5   7  -2 22.5283 1.91018   2
   7  -5  -2 25.2133 1.93915   5
   5  -7  -2 15.8989 1.97423   5
   2   5  -2 18.3038 1.51302   5
   2  -7  -2 22.9802 1.96481   2
   5  -7  -2 23.8552 1.70512   3
  -2  -5  -2 20.4672 2.21380   5
  -7   5  -2 20.7499 1.73448   2
  -5  -2  -2 20.7664 1.94356   5
  -5  -2  -2 25.3203 2.34102   3
   2  -7  -2 19.4880 1.96876   3
  -7   5  -2 22.8017 1.95860   4
  -5   7  -2 28.3088 2.41529   5
   2  -7  -2 23.3858 2.42724   5
  -5   7  -2 21.2672 1.95323   4
   2   5  -2 21.0916 1.89467   4
  -2   7  -2 20.5363 2.09713   4
   5  -7  -2 22.7576 1.92811   4
   5   2  -2 25.0018 1.61168   4
   2   5  -2 24.2956 2.10949   1
   7  -5  -2 22.3421 0.98599   4
   7  -2  -2 26.2284 1.28813   2
  -2  -5  -2 22.5710 2.33214   4
  -2   7  -2 25.5251 2.13355   2
   7  -2  -2 25.3772 1.75170   1
  -2   7  -2 20.7961 1.80742   1
  -5  -2  -2 24.4064 2.24292   4
   7  -5  -2 22.3683 1.20184   1
  -2  -5  -2 22.4249 2.18329   2
   2   5  -2 25.1649 2.17072   2
   5   2  -2 24.8464 1.91814   2
  -2   7  -2 26.4367 2.22748   5
   5   2  -2 18.4338 1.81720   1
  -5   7  -1 151.887 4.59033   3
   5  -7  -1 157.934 3.65751   2
  -2   7  -1 145.705 4.89037   3
  -5   7  -1 156.909 3.07844   1
   5   2  -1 157.307 4.89745   1
   2   5  -1 152.196 5.02709   3
  -5  -2  -1 165.162 4.70325   5
  -2   7  -1 137.877 4.97150   5
   7  -5  -1 155.228 3.13636   4
   2   5  -1 136.554 4.15667   5
   5  -7  -1 114.908 4.75297   5
   5  -7  -1 123.485 4.21993   4
   2   5  -1 161.464 5.02553   4
   2  -7  -1 150.543 5.63877   5
   7  -5  -1 156.770 4.60970   5
  -2  -5  -1 122.266 4.77288   5
  -5   7  -1 141.444 5.11157   5
   5  -7  -1 158.427 4.16590   3
   7  -2  -1 158.802 3.08157   5
   2  -7  -1 166.413 4.85820   2
  -5  -2  -1 160.702 5.19639   3
   7  -2  -1 147.891 2.64127   3
   7  -2  -1 164.768 3.14816   5
  -7   5  -1 159.761 4.30500   4
  -7   5  -1 147.901 3.77500   2
   7  -2  -1 156.992 2.27543   4
  -5   7  -1 154.085 4.82560   4
  -7   5  -1 173.101 5.27976   5
  -2  -5  -1 162.601 5.31271   2
  -2   7  -1 151.647 5.17479   4
   5   2  -1 165.875 4.57444   3
   5   2  -1 155.082 4.08930   4
   7  -5  -1 149.209 1.84374   3
   7  -2  -1 148.479 2.36616   4
   2  -7  -1 153.622 5.40294   4
  -5   7  -1 152.841 4.26654   2
  -2  -5  -1 131.317 5.03396   4
  -2   7  -1 157.835 4.91410   2
  -5  -2  -1 169.280 5.25123   4
   7  -2  -1 149.224 3.83458   1
   2   5  -1 156.583 5.02742   1
  -2  -5  -1 157.287 5.44235   3
  -2   7  -1 149.047 4.28229   1
   2  -7  -1 155.061 4.98999   3
   7  -2  -1 157.548 2.76122   3
  -7   5  -1 160.271 4.15356   3
   2   5  -1 166.483 5.24007   2
  -5  -2  -1 171.746 5.42721   2
   7  -2  -1 144.118 3.02973   2
   5   2  -1 151.419 2.83049   5
   5   2  -1 147.983 4.53520   2
   2   5   0 72.4372 3.53812   2
  -5  -2   0 73.3212 3.40508   3
  -2  -5   0 74.0077 3.42708   1
   5   2   0 60.7378 3.06776   2
   5  -7   0 71.0275 2.63734   2
  -5   7   0 58.5057 2.74060   3
  -5   7   0 71.8204 3.18403   4
  -5  -2   0 75.4090 3.42731   1
   2   5   0 68.8727 3.44927   3
   7  -5   0 73.3633 2.22211   3
   2   5   0 74.7308 3.34923   5
   2  -7   0 63.2073 2.97251   2
   7  -2   0 63.0275 2.30546   2
  -2   7   0 76.1009 3.50781   3
   7  -2   0 74.5350 2.60705   2
   5  -7   0 76.5038 3.86107   5
   2   5   0 76.2990 3.48274   1
   7  -2   0 67.3647 2.64290   1
   7  -2   0 71.1592 2.59121   1
  -5  -2   0 59.2458 2.97075   4
   2  -7   0 74.8581 3.01531   1
  -2  -5   0 69.4395 3.55357   3
   2  -7   0 70.8887 3.78062   5
   5   2   0 70.3739 2.78533   5
   5  -7   0 70.3542 2.90975   3
  -2  -5   0 62.4464 3.25934   5
  -5   7   0 74.4054 1.83414   1
   7  -2   0 74.4920 2.72563   5
   7  -2   0 75.8255 2.53466   3
   5   2   0 72.6349 3.33297   1
  -7   5   0 75.4491 2.63229   4
  -5   7   0 67.3223 1.69362   1
  -2  -5   0 77.1220 3.52994   2
   7  -5   0 73.6151 2.62878   4
  -2   7   0 71.0792 3.49660   4
   7  -2   0 67.9111 2.49656   5
   5  -7   0 77.5756 3.29967   4
   2   5   0 68.3011 3.39623   4
   2  -7   0 69.2127 3.50695   4
   5   2   0 71.7373 3.15262   4
  -2   7   0 59.4246 3.36191   5
  -5  -2   0 72.0608 3.36190   2
  -2  -5   0 63.6093 3.50637   4
   7  -2   0 69.9901 2.52618   4
  -7   5   0 64.5938 3.01339   5
  -5   7   0 66.8644 2.55978   2
   7  -2   0 68.5152 2.30393   4
   2  -7   0 75.6436 3.46428   3
   7  -5   0 70.0661 1.67238   2
  -2   7   0 78.6032 3.04029   1
   5   2   0 71.4896 3.19337   3
   7  -2   0 71.0146 2.40154   3
  -7   5   0 75.9694 2.32267   3
  -2   7   0 77.5451 3.38993   2
   7  -5   0 71.0524 3.18378   5
  -5  -2   0 71.5950 2.61681   5
  -5   7   0 67.5931 3.54305   5
  -2   7   1 165.866 4.95098   2
   5   2   1 168.501 5.09363   1
   2  -7   1 164.953 4.41710   1
   2  -7   1 135.041 4.55820   2
   7  -2   1 163.991 4.70340   5
   7  -5   1 166.837 4.20572   3
   7  -2   1 136.856 3.76390   1
   2   5   1 179.389 5.60774   2
  -5  -2   1 153.595 4.88653   1
  -5   7   1 155.639 4.14200   3
  -2  -5   1 147.697 4.94795   2
  -2   7   1 154.909 4.31892   1
  -2  -5   1 128.874 4.52016   1
   7  -2   1 166.668 4.59009   5
   5  -7   1 152.795 5.41180   5
  -2   7   1 172.081 5.32463   3
  -2  -5   1 150.515 4.68449   5
   7  -2   1 160.253 4.31153   2
   5   2   1 141.781 4.52121   5
  -7   5   1 160.108 4.55697   5
  -2  -5   1 177.686 5.51893   3
  -5   7   1 158.440 5.45780   5
  -7   2   1 162.986 4.09584   1
   5   2   1 158.574 5.09952   3
   2  -7   1 162.150 5.24087   3
   2   5   1 165.403 5.57511   5
   2   5   1 173.196 5.61934   3
  -5  -2   1 158.166 2.89332   5
   7  -2   1 155.095 4.49021   3
   2   5   1 163.351 5.05588   1
   7  -2   1 155.275 4.15538   4
  -2   7   1 150.515 5.17542   4
  -5   7   1 156.116 2.83192   1
   5   2   1 152.490 4.86071   1
  -7   5   1 160.302 3.16992   4
   2  -7   1 153.965 5.38985   5
   7  -2   1 165.133 4.37680   2
   7  -5   1 152.605 2.30530   1
   7  -5   1 158.975 4.40167   4
   7  -2   1 154.530 4.12987   1
   7  -5   1 155.839 2.33740   1
  -5   7   1 161.515 4.75646   4
  -5  -2   1 164.742 4.86578   2
  -2   7   1 148.839 5.56008   5
   2   5   1 129.422 5.00655   4
  -2  -5   1 148.516 5.04695   4
   7  -5   1 150.391 4.95328   5
   5  -7   1 159.258 5.01042   4
   5   2   1 163.138 5.39185   4
   7  -5   1 156.448 3.63282   2
  -5  -2   1 129.291 3.97277   4
   2  -7   1 146.374 5.12413   4
  -5   7   1 143.157 3.50915   2
  -5   7   1 144.193 2.79480   1
   7  -2   1 162.899 4.64546   4
  -2   7   1 148.868 4.29041   1
   5  -7   1 168.855 4.86624   3
  -5  -2   1 160.510 4.69479   3
  -7   5   1 152.798 1.91928   3
   5   2   1 180.595 5.33153   2
   5  -7   1 140.702 2.90483   1
   7  -2   1 169.838 4.36078   3
   2   5   1 159.196 5.08604   1
   5  -7   1 156.672 4.22080   2
   7  -5   2 24.2969 1.87876   3
  -2  -5   2 23.9838 2.11641   2
  -2   7   2 21.7154 1.91928   2
  -2   7   2 26.0620 1.98094   1
  -5  -2   2 20.8702 1.95135   2
   2   5   2 22.3821 2.15588   2
   5  -7   2 18.1308 1.81954   3
  -5   7   2 22.9735 1.62433   3
   7  -2   2 22.4730 2.01466   5
   2  -7   2 21.0012 2.04609   3
   2   5   2 22.6512 2.02121   1
  -5  -2   2 22.1610 1.76430   3
   2   5   2 21.4519 2.22713   5
  -2   7   2 16.0740 1.77847   3
   5  -7   2 23.1196 2.29843   5
  -7   2   2 22.8602 1.30137   2
  -5   7   2 24.2261 2.30491   5
  -7   5   2 22.8734 1.19484   1
   5   2   2 23.6458 2.13504   5
   5   2   2 17.0672 1.91590   3
  -7   5   2 18.5285 1.64841   5
   7  -2   2 16.2530 1.67387   2
   7  -2   2 24.2587 2.02011   3
   5  -7   2 18.2184 1.37482   1
   7  -2   2 21.8063 1.99836   5
   7  -2   2 19.5009 1.84184   4
   5   2   2 23.0282 2.11911   2
  -5   7   2 21.8341 1.40572   1
   5   2   2 24.9762 2.20385   2
   2  -7   2 23.1767 1.82497   1
   7  -2   2 20.7147 1.80738   4
  -7   5   2 21.3296 0.93647   4
   2   5   2 21.3274 2.03767   1
   7  -5   2 25.5510 2.07524   4
   5   2   2 17.8579 1.82075   1
  -7   2   2 20.0739 1.60206   1
   5  -7   2 27.0127 2.25143   4
  -5   7   2 22.1489 1.81167   4
   7  -5   2 19.6555 1.25268   1
  -5  -2   2 22.0286 1.98405   1
  -2   7   2 22.2900 2.10661   4
  -2  -5   2 17.5073 1.78824   4
  -2  -5   2 26.8708 2.23141   3
   5   2   2 23.2982 2.03380   1
   2   5   2 26.5635 2.52094   4
   7  -2   2 25.6028 1.96026   1
   7  -5   2 23.7205 1.74819   2
  -5  -2   2 18.8627 1.53584   4
  -2  -5   2 25.9582 1.88547   5
   5   2   2 24.5144 2.24363   4
  -2   7   2 23.0014 2.38533   5
   2  -7   2 23.7199 2.18070   5
   5  -7   2 18.9397 1.69554   2
  -2   7   2 23.1506 1.82148   1
   2   5   2 21.1716 2.16577   3
   7  -5   2 21.8364 2.12109   5
   7  -2   2 18.1669 1.73596   3
  -5   7   2 24.5859 1.43253   1
   7  -2   2 23.8720 1.74813   1
   7  -2   2 23.6020 1.90326   2
  -2  -5   2 24.1733 2.10965   1
   2  -7   2 25.4064 2.21216   4
   2  -7   2 21.6740 2.01675   2
  -5   7   2 20.8576 1.39034   2
   7  -5   3 460.133 9.19724   3
  -5   7   3 450.199 7.21184   1
  -5  -2   3 457.591 8.74843   2
  -5   7   3 468.439 6.88988   2
   5  -7   3 409.818 8.89427   3
  -7   2   3 468.298 6.29115   2
  -2   7   3 481.993 9.07762   2
   2  -7   3 432.114 9.49837   3
   7  -2   3 368.713 8.80515   5
   5   2   3 454.661 10.1035   5
  -7   2   3 463.810 8.44477   1
  -5  -2   3 431.547 7.96310   3
   2  -7   3 467.363 9.80720   5
  -2   7   3 444.354 9.18175   3
  -5   7   3 467.598 7.53890   3
   7  -5   3 453.599 7.21967   1
   7  -2   3 436.795 9.34308   3
  -7   5   3 446.835 7.99719   5
   5  -7   3 468.498 10.4805   5
   7  -2   3 488.411 9.50027   4
  -2  -5   3 440.256 9.35014   2
   2   5   3 455.953 9.95509   1
   7  -5   3 400.418 8.69203   4
  -2  -5   3 446.030 8.88022   4
  -5  -2   3 379.309 8.77093   1
   7  -2   3 406.291 9.65224   5
  -5   7   3 447.219 10.2268   5
   2   5   3 364.367 9.07116   3
   7  -2   3 381.732 8.67914   2
   2   5   3 448.088 10.6668   5
   7  -5   3 389.909 9.81942   5
  -2   7   3 431.327 8.44742   2
   5   2   3 479.414 10.2028   2
   2   5   3 445.521 9.52801   2
   5   2   3 509.485 10.1008   1
   5   2   3 483.101 10.2519   2
  -5   7   3 478.184 6.89271   2
   7  -5   3 387.159 9.39925   5
  -2  -5   3 490.549 8.12615   5
   7  -2   3 507.937 9.77647   2
   5  -7   3 384.834 9.07247   4
   2  -7   3 372.376 8.85336   4
  -5  -2   3 449.712 7.31977   4
  -5   7   3 482.594 8.45436   4
   5   2   3 467.363 9.58677   1
  -2   7   3 457.683 8.93158   1
  -2   7   3 434.790 9.53810   4
   7  -5   3 371.449 7.83792   2
  -2   7   3 480.261 8.90577   1
   2   5   3 364.164 9.61509   4
  -2  -5   3 353.148 8.60179   1
  -2  -5   3 443.053 9.23163   3
  -7   5   3 465.229 6.84969   1
   7  -2   3 468.016 8.92288   1
   7  -2   3 474.978 9.82089   4
   2  -7   3 471.166 8.90174   1
   5  -7   3 452.257 9.10750   2
   5   2   3 480.972 10.3892   3
   5  -7   3 474.915 7.63714   1
   5   2   3 421.339 9.50738   3
   2  -7   3 464.714 9.61743   2
  -2   7   3 469.298 10.9427   5
   7  -2   3 486.552 9.51845   3
   2   5   3 355.647 8.52510   1
   2   5   3 459.618 9.90789   2
  -5  -2   4 71.7071 3.74113   2
   7  -5   4 86.6943 4.43618   3
  -2   7   4 67.4309 4.05393   4
  -5   7   4 78.3830 3.31226   3
  -7   2   4 52.1421 3.26423   1
   2  -7   4 69.7573 3.76047   1
  -5   7   4 73.1651 3.04063   2
   5  -7   4 70.5539 4.17701   3
   2   5   4 56.9035 4.32931   5
  -5   7   4 73.8980 3.06588   2
  -5   7   4 76.9702 3.48048   1
   2  -7   4 52.3842 3.57079   3
   7  -5   4 73.8711 3.98996   2
  -2  -5   4 79.1499 4.16357   3
  -7   2   4 66.5239 1.73893   3
   7  -5   4 71.8069 4.47470   5
   2   5   4 75.7537 4.32571   2
   7  -2   4 57.6867 4.01079   5
   2   5   4 76.5295 4.33675   1
  -5  -2   4 76.8157 4.13778   1
   7  -5   4 79.4785 3.60303   1
  -2  -5   4 68.9222 3.27962   5
  -5   7   4 72.2567 4.34824   5
  -7   5   4 68.0892 1.86743   2
   7  -2   4 58.9751 3.92306   3
   5   2   4 67.0360 4.27326   3
   7  -2   4 80.0940 4.45264   2
   7  -2   4 72.0479 4.30440   5
  -7   5   4 80.6701 3.72023   5
   7  -5   4 66.6226 4.39937   5
  -2   7   4 71.8161 3.90141   3
   5   2   4 63.9359 4.18395   4
   5   2   4 72.4642 4.38094   2
  -5  -2   4 75.0345 3.11069   4
  -2  -5   4 75.1443 4.14236   1
   2   5   4 71.1634 4.13381   2
   7  -2   4 64.1789 3.94175   4
  -2   7   4 66.1961 3.62316   2
   5   2   4 61.2575 3.96596   2
   5  -7   4 58.9664 4.02709   5
   2  -7   4 78.8542 4.28362   5
  -2  -5   4 83.5106 4.08002   4
   5  -7   4 78.9863 4.39488   4
   2  -7   4 83.2780 4.49646   4
  -2   7   4 73.3260 3.84192   2
  -5   7   4 67.9513 3.40914   4
  -7   5   4 70.9325 3.31875   1
   7  -2   4 75.4282 4.05549   1
  -7   5   4 64.1679 1.55763   4
   2   5   4 75.4951 4.60660   4
   7  -5   4 74.5064 4.24850   4
   5  -7   4 76.2008 3.63233   1
   5   2   4 71.7452 4.39849   4
  -2   7   4 53.4840 4.08622   5
   5   2   4 74.6504 4.27410   1
   5  -7   4 61.5819 3.72142   2
  -2   7   4 76.7437 3.98242   1
  -5  -2   4 69.1382 3.47854   3
   5   2   4 68.0446 4.44645   5
  -7   2   4 73.0485 2.89300   2
   2   5   4 77.7297 4.50315   3
   7  -2   4 63.3041 4.07150   4
   2   5   4 75.6633 4.32597   3
  -5   7   4 62.1216 2.97210   3
   5   2   4 74.4501 4.40422   3
  -7   5   4 67.3129 1.90061   2
   2  -7   4 73.5448 4.30939   2
   7  -2   4 77.7979 4.28706   3
  -2  -5   4 58.2930 3.71081   2
   7  -2   5 3.74569 1.64947   5
  -2   7   5 3.68693 1.34961   1
   2  -7   5 8.77175 2.03675   2
   7  -2   5 6.90549 1.64480   3
  -2  -5   5 4.57922 1.54888   2
  -7   5   5 6.69943 0.61627   3
   7  -5   5 5.91448 1.74717   3
   2   5   5 7.96675 1.76893   1
  -7   2   5 5.23437 1.16021   2
   5   2   5 6.03728 1.81851   1
  -5  -2   5 6.57291 1.54864   2
  -7   5   5 5.18595 1.25033   1
   5  -7   5 3.98288 1.60965   3
  -2  -5   5 4.43915 1.13993   5
   2   5   5 8.91269 1.93153   3
  -7   2   5 6.49496 0.68319   5
   7  -2   5 8.94117 1.86168   4
  -7   2   5 7.99800 0.88262   3
   2  -7   5 5.60421 1.69890   3
  -2   7   5 7.12735 1.64871   2
   7  -5   5 6.00051 1.95125   5
  -7   5   5 8.79925 1.03379   2
  -7   5   5 5.86318 0.60619   3
  -2  -5   5 8.88913 1.82916   3
  -5  -2   5 10.9287 1.90798   1
   7  -5   5 9.46609 1.61958   1
  -7   5   5 5.12720 1.26788   5
   7  -2   5 5.15553 1.50571   1
  -5  -2   5 3.76812 0.47143   5
   7  -2   5 4.45939 1.72730   3
  -2   7   5 7.80647 2.11532   5
  -5  -2   5 4.78628 1.27045   3
  -5   7   5 6.24696 1.37148   3
  -2  -5   5 6.55712 1.30827   5
   5  -7   5 7.39891 1.49146   1
   2   5   5 4.06713 1.44016   2
   5   2   5 7.46553 1.88761   3
   7  -2   5 5.05120 1.91116   5
   7  -5   5 8.30342 2.15290   5
   5  -7   5 3.74102 1.47137   5
   5   2   5 6.64738 1.75944   4
  -7   5   5 7.86502 0.77074   4
  -7   2   5 6.39302 1.57784   1
   5   2   5 4.04481 1.52154   2
   2  -7   5 7.34565 1.64980   1
   5  -7   5 3.48698 1.29846   4
  -2   7   5 4.15179 1.36932   2
   2  -7   5 5.01109 1.53466   4
  -2  -5   5 8.24847 1.65355   4
  -5   7   5 7.19897 1.39695   1
  -5  -2   5 6.51847 1.15219   4
  -5   7   5 5.40287 1.19500   2
   5   2   5 11.2753 2.35650   5
  -5   7   5 6.16863 1.45987   4
   7  -2   5 8.12617 1.86214   2
  -7   5   5 6.09268 0.65048   4
  -2   7   5 5.51062 1.74306   4
  -5   7   5 7.67298 1.34485   2
   2   5   5 6.28204 1.76088   5
  -7   2   5 5.75732 0.64796   5
   2   5   5 5.59019 1.66968   4
   5   2   5 3.15916 1.55515   4
   7  -5   5 1.31819 1.31857   2
  -7   5   5 6.29375 0.96071   2
  -5   7   5 3.67985 1.52859   5
  -2  -5   5 4.62120 1.48118   1
   7  -2   5 2.36534 1.26515   4
  -2   7   5 6.33497 1.50334   3
   2   5   5 6.14404 1.61561   2
   2  -7   5 6.63012 1.69469   5
   5   2   5 10.3519 1.99973   3
  -5   7   5 9.59130 1.41525   3
   7  -5   5 4.51642 1.55197   4
  -2   7   5 4.79257 1.41710   3
   2   5   5 4.55674 1.58129   3
   5   2   5 7.54485 1.93262   2
   5  -7   5 6.98625 1.61290   2
   5  -7   5 4.53520 1.72425   5
   5   2   6 7.86606 2.16387   3
   2  -7   6 11.9591 2.24723   2
   7  -5   6 15.6380 2.56936   3
   7  -2   6 10.2811 2.31956   3
  -2  -5   6 8.38351 2.14192   2
   5   2   6 14.6890 2.77990   3
   2   5   6 7.34319 2.17488   3
  -7   5   6 14.5489 1.26879   3
  -5  -2   6 14.3366 2.21328   2
   5  -7   6 11.0702 2.17415   1
  -2  -5   6 12.4817 1.89618   5
   5  -7   6 10.1185 2.30167   3
  -7   2   6 8.87293 1.09725   5
  -7   2   6 13.2897 1.44578   3
  -5  -2   6 13.4001 1.71711   4
   5  -7   6 11.8863 2.51723   5
   2   5   6 11.8144 2.40565   3
   7  -5   6 13.0320 2.77547   5
  -7   5   6 13.5690 1.22170   3
  -2  -5   6 11.4463 2.29742   3
  -7   2   6 12.9840 1.38567   3
   5   2   6 11.3326 2.36874   2
  -7   2   6 12.6341 1.25357   5
   2   5   6 13.2289 2.47712   2
  -5  -2   6 12.7084 2.03033   3
   2   5   6 10.4516 2.41581   1
  -2   7   6 10.7754 2.04489   1
   2  -7   6 9.26941 2.18523   5
  -7   5   6 14.2912 1.63611   2
   5   2   6 8.90657 2.45288   5
  -2   7   6 11.1917 2.19335   2
   7  -2   6 13.1714 2.36154   1
  -2  -5   6 11.6071 1.86461   5
   5   2   6 10.3930 2.33893   1
  -2   7   6 13.8290 2.32758   2
   2   5   6 12.4539 2.90601   5
   7  -2   6 10.1343 2.72428   5
  -2   7   6 12.6412 2.70988   5
   7  -5   6 14.7507 2.85818   5
  -5   7   6 15.7607 1.97167   3
  -5   7   6 10.4094 1.78364   3
   7  -2   6 13.9580 2.64040   3
  -5   7   6 12.4487 1.89739   4
   2   5   6 9.14122 2.19794   4
   7  -2   6 17.8439 2.79971   4
   5   2   6 11.7609 2.60588   4
   2  -7   6 9.10461 1.99966   1
  -7   5   6 14.3705 1.17979   4
  -2   7   6 12.5845 2.16747   4
   5  -7   6 12.1423 2.56004   4
   7  -5   6 13.1818 2.50258   4
   5   2   6 12.2104 2.39093   2
  -5   7   6 10.5486 1.99731   1
   2  -7   6 14.1290 2.49350   5
  -5   7   6 13.4828 2.68989   5
  -7   5   6 11.9173 2.14995   1
   7  -2   6 18.8094 2.94830   2
  -5   7   6 12.6412 1.88843   2
   2  -7   6 9.42571 2.24478   4
   2   5   6 11.1091 2.25599   2
  -7   5   6 13.5951 1.15331   4
   7  -5   6 12.0021 2.12701   1
  -2  -5   6 12.9032 2.08828   4
  -5   7   6 15.8615 2.20142   4
  -7   5   6 15.8853 2.28600   5
  -5  -2   6 7.52060 2.09752   1
  -2  -5   6 9.21223 2.27800   1
   2   5   6 11.5661 2.42560   4
   2  -7   6 10.0472 2.37071   3
   5  -7   6 8.78617 2.33364   5
   5   2   6 7.67592 2.36428   4
   7  -2   6 6.35355 2.21976   5
  -7   5   6 13.1106 1.54027   2
   7  -5   6 11.6345 2.45517   2
  -5   7   6 9.73294 1.70319   2
   7  -2   6 8.41232 2.35390   4
  -5  -2   6 11.8562 1.16597   5
  -2   7   6 15.5528 2.58819   4
  -2   7   6 14.2350 2.19477   3
  -7   2   6 13.5631 2.32400   1
  -2   7   6 13.0457 2.30711   3
  -7   2   6 12.2061 1.77948   2
   5  -7   6 11.4693 2.47685   2
   5   2   7 55.6194 4.98609   1
   7  -5   7 61.2379 5.27575   3
  -5  -2   7 68.2621 5.41952   1
  -2  -5   7 42.6336 4.45502   1
   5  -7   7 58.7231 5.12674   3
  -2   7   7 54.5512 4.71057   1
   7  -2   7 48.6462 5.29692   5
   2  -7   7 50.6742 4.91650   3
  -5   7   7 55.9221 3.74997   3
  -5  -2   7 51.4015 2.53477   5
   7  -2   7 48.3520 4.55489   1
  -2  -5   7 68.1653 5.18280   3
  -7   2   7 56.6218 3.11457   3
  -5  -2   7 48.8462 4.04394   3
  -5   7   7 48.7115 4.68075   5
   2  -7   7 52.0603 4.80188   5
  -7   5   7 63.1451 2.70158   4
  -2   7   7 60.5238 5.79198   5
   7  -2   7 59.8838 5.20199   2
   2   5   7 59.1880 5.25942   4
  -2   7   7 67.1888 4.79950   2
  -5   7   7 57.9803 3.93700   2
  -7   2   7 50.8978 2.75636   5
  -7   5   7 63.2768 4.37867   5
   5   2   7 52.9208 5.47054   5
  -7   5   7 62.0841 4.57163   1
   2   5   7 54.2524 4.88638   3
   2   5   7 60.1086 5.89182   5
  -7   5   7 63.7961 3.62467   2
  -2  -5   7 63.7239 4.19614   5
   7  -5   7 40.4944 4.19141   1
  -7   2   7 64.5876 3.23096   3
   7  -5   7 42.8910 4.98658   5
   7  -2   7 68.2861 5.54111   3
   2  -7   7 59.8012 4.81028   5
  -2   7   7 48.2432 4.43043   3
  -2   7   7 63.2961 4.66391   4
  -5   7   7 52.5890 3.91165   4
   5   2   7 55.4274 5.06129   4
  -7   2   7 65.8262 2.92467   5
   7  -2   7 58.8425 5.30228   4
  -2  -5   7 48.9997 3.78084   5
   5  -7   7 58.5876 5.14962   4
   2   5   7 60.0947 5.02973   2
   2  -7   7 62.6507 5.12328   4
  -2   7   7 65.6961 4.77943   2
   5   2   7 61.8043 5.41023   2
   2   5   7 71.2264 5.45095   2
  -2  -5   7 59.1141 4.53076   4
   5   2   7 38.0725 4.41010   2
  -5   7   7 65.1584 4.12427   2
  -5   7   7 57.5208 4.07842   4
   5  -7   7 54.4778 4.52955   1
   7  -2   7 65.3933 5.95087   5
  -2   7   7 44.0929 4.33772   4
  -7   5   7 61.7054 2.85582   3
   5  -7   7 57.8786 5.10875   5
   7  -5   7 59.4533 5.07968   2
   5   2   7 64.5822 5.51283   4
   7  -5   7 53.5448 5.15745   5
   2   5   7 50.3757 4.70102   4
   7  -2   7 55.3374 5.49533   4
  -7   5   7 64.8770 2.92021   3
   5  -7   7 67.4481 5.30687   2
  -5  -2   7 58.2013 3.60960   4
  -7   5   7 63.3677 3.63805   2
   7  -5   7 71.3416 5.79983   4
   5  -7   7 59.7276 5.32752   5
   2  -7   7 61.8657 5.12666   2
  -7   2   7 42.2649 4.43322   1
   7  -5   7 54.8785 4.98832   4
   2  -7   7 52.7225 4.54765   1
   2   5   7 67.3699 5.26844   3
  -2  -5   7 58.0647 4.88614   2
  -2   7   7 63.2806 4.59718   3
  -5  -2   7 58.2444 4.54060   2
   5   2   7 58.8202 5.19224   3
   5   2   7 62.0261 5.33442   3
  -5   7   7 66.9791 4.08757   3
   7  -2   7 50.8002 5.07675   3
   2   5   7 54.6975 4.71464   1
  -5   7   7 61.5453 4.55596   1
  -6   7  -7-0.97780 2.15427   1
  -1   7  -7 1.44634 2.16565   3
   1   6  -7 2.35539 2.27384   3
   1   6  -7-0.40583 1.78443   4
   7  -1  -7 0.07792 1.55357   2
  -6   7  -7 2.18782 2.30474   2
   6   1  -7 0.14666 1.72962   1
   1   6  -7 0.98996 2.05735   1
  -1   7  -7 1.96268 1.87503   1
   6   1  -7 1.97359 1.83117   2
  -7   6  -7 1.25790 2.31406   4
   6  -7  -7 0.45106 2.13046   5
   7  -6  -7 0.25291 1.88752   5
   1  -7  -7 0.96248 2.40745   5
  -1  -6  -7 0.85980 1.98803   1
  -6   7  -7 0.39251 2.23274   4
  -1   7  -7 2.64484 2.13708   4
  -7   6  -7 0.64794 2.30013   2
  -1  -6  -7 1.89406 2.45087   5
   7  -1  -7-0.71249 1.88345   1
   1  -7  -7 2.59450 2.29555   1
  -6  -1  -7-0.45892 2.06392   1
  -7   1  -7-1.51634 2.42138   1
  -1   7  -7 1.13916 2.30563   2
   1   6  -7 2.85622 2.20037   2
   6  -7  -7-0.12320 1.80571   1
  -7   6  -7 2.03625 2.20650   1
   7  -6  -7-0.53412 1.83650   1
  -7   6  -7 0.44183 2.42061   3
   6   1  -7 2.52844 1.47853   3
  -6   7  -7-0.89975 2.09894   3
  -1   7  -6 26.4110 3.18365   4
   7  -1  -6 20.6822 2.79305   1
  -1   7  -6 33.3997 3.44215   1
   6   1  -6 32.2848 3.33388   1
   6   1  -6 30.7399 2.90411   2
   1   6  -6 26.7720 2.92054   4
  -7   6  -6 25.1607 3.06380   1
  -1  -6  -6 31.6843 4.05353   5
   6  -7  -6 34.8017 3.58867   5
   1  -7  -6 32.2893 3.98528   5
   7  -6  -6 31.5132 3.13969   5
  -6   7  -6 28.7104 3.40740   4
  -1  -6  -6 32.5976 3.66421   1
   1  -7  -6 30.1932 3.32719   1
  -6  -1  -6 27.9749 3.46483   1
  -7   6  -6 37.3894 3.80432   2
  -7   6  -6 28.7038 3.40210   4
  -6   7  -6 28.2510 3.31059   2
   7  -1  -6 32.2880 2.79270   2
   6  -7  -6 29.5053 2.89280   1
  -1   7  -6 23.7180 3.35942   2
   1   6  -6 13.6003 2.85612   2
   7  -6  -6 23.6156 2.66812   1
  -6   7  -6 30.7734 3.28292   1
  -7   6  -6 23.6667 3.23253   3
   1   6  -6 28.9350 3.26416   1
  -7   1  -6 29.2389 3.52901   1
   7  -1  -6 32.8138 2.16799   3
  -6   7  -6 22.9963 3.07024   3
   6   1  -6 28.7553 2.50402   3
  -1   7  -6 29.7772 3.41182   3
   1   6  -6 26.9740 3.07675   3
  -6   7  -5 1.40869 1.37607   3
   6   1  -5 0.44192 0.72938   3
  -1   7  -5 1.39616 1.36817   3
   1   6  -5 1.87095 1.16638   3
  -6   7  -5 1.40243 1.09954   1
  -7   6  -5 1.14680 1.07093   4
   7  -1  -5 0.75830 0.84367   2
  -1   7  -5 2.23438 1.18856   5
   6   1  -5 1.07148 0.57113   4
  -6  -1  -5 1.26145 1.79163   5
   6  -7  -5 0.47225 1.35040   5
   7  -6  -5 1.28059 1.15936   5
   1  -7  -5 2.92112 1.55279   5
  -1  -6  -5 4.97423 2.05356   5
  -6   7  -5 1.74875 1.42482   2
  -6   7  -5 2.78252 1.40181   4
  -1   7  -5 2.95769 1.22617   1
   1   6  -5 0.52936 1.03923   4
   6   1  -5-0.54900 1.18983   1
  -1  -6  -5 0.21706 1.33514   1
   1  -7  -5 1.38657 1.31138   1
  -7   6  -5 0.28273 1.23172   2
   7  -1  -5 2.16424 1.23601   1
   1   6  -5 2.10036 1.17547   1
  -7   1  -5 1.17533 1.25702   1
  -6  -1  -5-0.36587 1.10298   1
   6   1  -5 0.92664 1.03061   2
  -1   7  -5 1.32343 1.36111   2
   6  -7  -5-0.11835 0.88304   1
   1   6  -5 4.02705 1.67083   2
  -1   7  -5 0.58680 1.12780   4
   1  -7  -5 0.44061 1.38913   4
  -1  -6  -5 0.74247 1.39598   4
  -7   6  -5 0.35069 1.02875   1
   7  -6  -5 0.73101 0.99527   1
   7  -1  -5 1.34943 0.70736   3
  -7   6  -5 3.53185 1.48577   3
  -1   7  -4 11.1729 1.85555   3
  -6  -1  -4 11.2183 1.88672   1
   1   6  -4 7.09007 1.50335   3
   1   6  -4 9.20901 1.62606   4
  -7   6  -4 10.8994 1.80058   4
  -7   1  -4 10.0199 1.65493   1
  -1   7  -4 6.36243 1.43890   5
  -7   6  -4 9.63351 1.77637   2
   7  -6  -4 9.95189 1.64029   5
   1   6  -4 8.36621 1.38639   5
   6  -7  -4 7.64869 1.66502   5
   1  -7  -4 10.4295 2.07671   5
   1  -7  -4 13.5269 1.99624   3
  -1  -6  -4 8.20214 1.88507   5
   6   1  -4 7.80514 0.83575   4
  -6   7  -4 10.9369 1.74048   4
   6  -7  -4 6.49860 1.14520   1
  -1   7  -4 6.65860 1.49751   4
  -6   7  -4 8.95619 1.64626   2
   7  -1  -4 7.99360 1.43118   1
  -6  -1  -4 11.9277 1.97955   5
  -1   7  -4 7.46731 1.51177   1
   7  -6  -4 12.4279 1.42495   1
   6   1  -4 7.49323 1.31730   2
  -1   7  -4 11.4804 1.89536   2
   1   6  -4 10.2841 1.68672   2
   6   1  -4 6.90027 1.45803   1
   7  -1  -4 4.48494 1.01891   2
   1   6  -4 7.05425 1.53760   1
   6  -7  -4 10.4464 1.40365   4
  -6   7  -4 10.8808 1.60206   1
   1  -7  -4 4.71032 1.59436   4
  -1  -6  -4 8.01220 1.71595   4
   7  -1  -4 9.46843 0.92734   3
  -7   6  -4 9.45104 1.46016   1
  -6   7  -4 8.02118 1.69279   5
  -6   7  -4 9.66663 1.84152   3
  -7   6  -4 8.27248 1.56830   3
   6   1  -4 6.54212 1.18175   3
   6   1  -3 31.5884 2.00427   3
  -1   7  -3 35.6783 2.80028   3
   1   6  -3 31.0865 2.66463   3
  -1   7  -3 30.4701 2.48125   1
  -6   7  -3 26.5581 2.61220   5
   1   6  -3 27.3124 2.09649   5
   6   1  -3 30.6681 1.49711   4
  -6   7  -3 27.4770 2.44033   4
   6   1  -3 32.5631 2.53300   1
   6  -7  -3 34.8457 2.89237   5
   7  -6  -3 31.1491 2.50970   5
   6  -7  -3 31.1326 1.88100   1
   1  -7  -3 36.2639 2.90389   3
  -7   6  -3 30.8502 2.52317   4
  -1  -6  -3 22.8570 2.60783   5
  -1  -6  -3 37.0805 3.03416   3
   7  -1  -3 26.1746 2.15225   1
  -6  -1  -3 32.2285 2.71385   5
  -7   6  -3 34.1433 2.57809   2
   7  -1  -3 33.0441 1.88237   2
  -1   7  -3 28.2036 2.44728   4
  -7   6  -3 36.4648 2.90451   5
   1   6  -3 26.1476 2.47532   1
   1   6  -3 32.6774 2.51346   4
  -7   6  -3 37.1663 2.16122   1
  -6   7  -3 28.2072 2.35228   2
   1  -7  -3 33.7421 3.26222   5
   7  -6  -3 32.5930 1.79748   1
  -1   7  -3 31.7187 2.53964   5
  -1   7  -3 28.7518 2.51805   2
   6  -7  -3 33.6951 2.23274   4
   6   1  -3 26.0731 2.20144   2
  -1  -6  -3 31.7275 2.94388   4
   1   6  -3 33.7140 2.73930   2
   7  -6  -3 31.2549 1.58835   4
  -6   7  -3 26.5588 1.90910   1
  -7   6  -3 29.5367 2.40262   3
   1  -7  -3 31.6428 2.80061   4
  -6   7  -3 24.4368 2.26525   3
   7  -1  -3 31.0422 1.36284   3
  -6   7  -2 37.6866 2.99850   5
   7  -1  -2 41.2957 1.54361   3
  -1   7  -2 34.6992 2.66591   3
   1   6  -2 35.7254 2.71400   3
   6   1  -2 38.4166 2.05488   3
   7  -6  -2 36.7446 2.54756   5
   6  -7  -2 43.7555 3.08079   5
  -6  -1  -2 44.8936 2.84117   5
  -1   7  -2 38.2321 2.66083   5
  -7   6  -2 34.2357 2.33931   2
   1   6  -2 33.3249 2.27669   5
   1  -7  -2 35.1326 3.02913   5
   1  -7  -2 47.8066 3.18718   3
   6  -7  -2 37.7840 1.93541   3
  -1  -6  -2 28.0815 2.73690   5
  -1  -6  -2 39.1499 2.88067   2
  -1  -6  -2 23.0546 2.36672   3
  -7   6  -2 39.6897 2.88847   5
  -7   6  -2 42.4446 2.61938   4
  -6   7  -2 38.3877 2.69992   4
  -7   6  -2 34.6975 1.57953   1
  -1   7  -2 43.5683 3.00642   4
   1   6  -2 36.7905 2.58301   4
   6   1  -2 37.4814 1.70750   4
   7  -1  -2 42.9933 2.51417   1
  -6   7  -2 36.5558 2.34581   2
   7  -6  -2 33.6089 1.28457   1
  -1   7  -2 37.3620 2.49364   1
   6  -7  -2 41.0860 2.42283   4
   7  -6  -2 37.3094 1.82243   4
   6   1  -2 40.5107 2.66012   1
   1  -7  -2 26.7994 2.52693   4
  -1  -6  -2 38.7420 2.99707   4
   1   6  -2 41.6827 2.77703   1
  -1   7  -2 39.8120 2.79725   2
   7  -1  -2 35.9497 1.82859   2
   1   6  -2 35.8866 2.70620   2
   6   1  -2 35.2739 2.23809   2
  -6   7  -2 39.6924 1.84915   1
  -7   6  -2 31.4140 2.25826   3
  -6   7  -2 42.5017 2.65008   3
   1  -7  -2 38.2951 2.73019   2
  -7   6  -1 1.90549 0.60013   3
  -1   7  -1 1.02786 0.66968   2
   1   6  -1 1.05407 0.75354   2
   6   1  -1 2.36068 0.57065   4
  -6   7  -1 1.64749 0.67451   3
   7  -1  -1 1.84877 0.36499   4
   7  -1  -1 2.28850 0.61203   2
   6   1  -1 1.55638 0.62511   2
  -1   7  -1 1.63543 0.80053   4
   7  -1  -1 2.01693 0.47434   3
  -1   7  -1 1.32816 0.76654   3
   7  -6  -1 2.54850 0.80746   5
   6   1  -1 1.66502 0.70231   3
  -1   7  -1 2.32697 0.88305   5
   6  -7  -1 1.63646 0.51036   3
   7  -1  -1 1.38226 0.28122   5
   6  -7  -1 2.32877 0.95706   5
   1   6  -1 2.05380 0.74370   3
   7  -6  -1 1.64682 0.36132   3
   6   1  -1 2.49791 0.32826   5
   7  -1  -1 1.90589 0.37212   5
   1  -7  -1 0.98184 0.86055   5
  -1  -6  -1 0.85766 0.78255   5
   1  -7  -1 2.06969 0.93208   3
   6   1  -1 1.85101 0.27770   5
   1  -7  -1 0.79780 0.65404   2
   6  -7  -1 2.30166 0.45457   2
  -1  -6  -1 3.33942 0.99000   3
  -1  -6  -1 1.44317 0.69989   2
  -6  -1  -1 1.92855 0.76711   3
   7  -1  -1 2.41831 0.72267   1
  -7   6  -1 1.50604 0.63340   4
  -1   7  -1 1.90816 0.69307   1
  -6   7  -1 0.80821 0.67096   4
   7  -1  -1 1.57838 0.38459   4
  -7   6  -1 2.12809 0.65967   2
   1   6  -1 2.65666 0.87915   4
   7  -6  -1 1.87627 0.54487   4
  -7   6  -1 1.97996 0.90304   5
   6   1  -1 2.11813 0.74994   1
   1   6  -1 1.75944 0.78623   1
   1  -7  -1 1.50795 0.81198   4
  -6   7  -1 2.35807 0.70240   2
   6  -7  -1 1.74546 0.61886   4
  -1  -6  -1 2.16566 0.87133   4
  -6   7  -1 2.25159 0.35887   1
  -6   7  -1 3.04306 1.00650   5
  -6  -1  -1 2.07513 0.69095   4
  -6  -1  -1 2.72284 0.76929   5
   1   6  -1 1.73912 0.72285   5
  -6   7   0 104.514 3.45105   3
   6  -7   0 96.9122 2.76453   2
   6  -7   0 97.7462 3.29479   3
   6   1   0 104.547 3.86419   2
   7  -1   0 99.8299 3.29655   2
  -1  -6   0 110.669 4.22175   1
   7  -6   0 93.2790 2.75131   3
   1  -7   0 107.934 4.13290   2
  -1   7   0 79.8432 3.79247   3
   1  -7   0 80.6542 3.43057   1
   7  -1   0 89.6901 2.78737   5
   1   6   0 90.2798 4.10788   3
  -7   6   0 105.189 4.10524   5
   1   6   0 111.310 4.45322   5
   7  -1   0 98.8692 3.04789   5
  -1  -6   0 99.0414 4.31447   5
   6   1   0 115.243 3.91532   3
   1   6   0 103.523 4.34165   4
   6  -7   0 108.003 4.56370   5
   6   1   0 92.9095 3.72390   1
   6   1   0 90.8876 3.04910   5
  -1   7   0 89.6833 3.58137   1
   7  -1   0 101.521 3.49249   1
  -6  -1   0 108.373 3.94577   3
   1   6   0 94.1840 3.94041   1
   1  -7   0 97.7573 4.14142   3
   7  -1   0 86.1596 3.24896   2
   7  -1   0 98.1028 2.93343   4
  -7   6   0 92.1326 2.26218   2
  -7   6   0 99.7165 3.33451   4
  -6   7   0 98.8238 3.67434   4
   7  -6   0 88.5621 3.17190   4
  -1   7   0 105.014 4.34970   4
   6  -7   0 99.1672 3.66227   4
  -6  -1   0 103.511 3.96262   2
  -6   7   0 102.954 4.35827   5
   1  -7   0 99.8150 4.36821   4
  -6   7   0 106.685 3.00423   2
   6   1   0 107.177 3.77294   4
  -1  -6   0 102.076 4.60957   4
  -1  -6   0 108.783 4.43367   3
  -6  -1   0 90.9692 3.74556   1
   7  -1   0 102.431 3.35806   4
   7  -6   0 93.6555 3.96511   5
  -6  -1   0 103.482 3.62817   4
  -1   7   0 87.3534 4.09982   5
   7  -1   0 86.8624 2.99805   3
   1  -7   0 98.3446 4.55231   5
   7  -1   0 108.986 3.37428   3
  -1  -6   0 75.7701 3.59988   2
  -1   7   0 102.099 4.09686   2
  -7   6   0 89.0653 2.75474   3
   7  -6   0 92.6011 2.10124   2
   1   6   0 104.385 4.28625   2
   1  -7   1 2.55502 0.81608   1
  -7   6   1 1.51623 0.33574   3
   1  -7   1 2.10275 0.85156   3
  -1  -6   1 3.16395 0.87179   1
   6  -7   1 2.16544 0.82638   5
   7  -1   1 1.67230 0.61695   5
  -1   7   1 0.78564 0.68588   3
  -6   7   1 2.30270 0.60269   3
  -6  -1   1 2.13963 0.72706   3
   7  -6   1 1.53937 0.61406   3
  -1   7   1 1.83101 0.73764   2
   6   1   1 2.37417 0.79071   3
   1  -7   1 2.78980 0.86478   2
   1   6   1 0.69621 0.66260   2
   6  -7   1 2.03781 0.31998   1
   1   6   1 2.50428 0.89303   3
  -7   1   1 3.08804 0.73427   2
  -7   6   1 1.93039 0.73934   5
  -1  -6   1 4.89688 1.35761   5
  -6   7   1 1.16286 0.78123   5
  -1  -6   1 1.32650 0.62869   3
   6   1   1 1.37126 0.66633   5
   6   1   1 2.52664 0.83142   4
   6   1   1 1.53145 0.68138   1
   1  -7   1 2.46426 1.02467   5
   6   1   1 2.82787 0.81816   2
   6  -7   1 2.27765 0.61419   2
  -1   7   1 2.63293 0.74230   1
   7  -1   1 1.59017 0.65881   2
  -6  -1   1 2.80796 0.78128   2
   6  -7   1 1.09469 0.55953   3
   7  -1   1 1.96114 0.70866   5
   1   6   1 1.60692 0.88551   4
  -7   1   1 2.40230 0.56726   3
   6  -7   1 2.00266 0.71441   4
   7  -1   1 2.52635 0.69294   4
   1   6   1 1.84947 0.79813   1
   7  -1   1 2.64345 0.77296   2
  -7   6   1 2.20627 0.62813   4
   7  -6   1 1.89440 0.87181   5
   7  -1   1 1.90305 0.63817   3
  -6   7   1 2.40401 0.76273   4
  -7   1   1 3.11122 0.79192   1
   1   6   1 2.60072 0.86608   1
  -1  -6   1 2.42555 1.06419   2
   7  -6   1 1.88540 0.70072   4
  -1   7   1 1.36832 0.59769   1
   6   1   1 1.92979 0.86231   1
   7  -1   1 2.68920 0.83816   4
  -1   7   1 2.25474 0.90726   4
   1  -7   1 2.34752 0.92176   4
   1   6   1 1.44701 0.80289   5
  -1  -6   1 2.22494 0.83541   4
   7  -1   1 2.96471 0.76591   1
  -6  -1   1 2.40935 0.65114   4
  -6   7   1 2.35178 0.47043   2
  -6  -1   1 2.83115 0.84253   1
  -1   7   1 2.10849 1.03016   5
   7  -6   1 2.23581 0.54528   2
   7  -1   1 2.46772 0.74056   3
   7  -1   1 2.55379 0.72769   1
   1  -7   2 35.9874 2.68388   2
   6  -7   2 38.8346 1.69974   1
  -1  -6   2 41.7883 2.84798   2
   7  -6   2 41.5706 2.61558   3
  -1   7   2 35.9965 2.62147   2
   6  -7   2 32.0296 2.34059   3
  -6   7   2 35.7376 1.84306   3
   1   6   2 35.1803 2.66298   2
  -1   7   2 36.3769 3.01551   5
   1   6   2 40.5805 2.99516   3
  -6  -1   2 32.4914 2.21251   2
  -6   7   2 41.1032 2.90303   5
   6   1   2 37.0302 2.68215   2
  -1   7   2 40.2631 2.93728   4
   1  -7   2 35.3208 2.67844   5
   1   6   2 43.1200 3.19959   4
   1   6   2 34.6018 2.91693   5
   7  -1   2 39.3403 2.61487   2
  -6   7   2 35.4219 1.51376   1
  -6  -1   2 30.9541 2.01369   3
   7  -1   2 39.5378 2.68229   3
   6  -7   2 34.0554 2.83154   5
   7  -6   2 36.4633 2.59012   4
   6   1   2 33.5623 2.48349   5
   1  -7   2 38.3668 2.76328   3
  -7   1   2 37.7263 1.56645   3
  -1   7   2 35.3047 2.36427   1
   7  -1   2 34.9162 2.50796   5
  -1  -6   2 40.2690 2.83243   3
   6   1   2 40.4977 2.63530   1
   1   6   2 36.8853 2.67729   1
  -1   7   2 36.0418 2.49479   1
  -6   7   2 37.3692 1.54490   1
   7  -6   2 34.0278 2.70327   5
   7  -1   2 38.2963 2.51577   4
   6   1   2 38.8306 2.72337   2
  -6   7   2 36.2997 1.45071   2
   7  -6   2 38.8892 1.63340   1
   6   1   2 30.1662 2.32090   1
  -7   6   2 40.4296 2.65424   5
   7  -1   2 35.2544 2.49517   2
  -1  -6   2 38.3875 2.70257   4
   1   6   2 35.0402 2.52012   1
  -7   6   2 34.7177 1.65422   4
  -1   7   2 38.5822 2.76257   3
   1  -7   2 32.4720 2.54070   4
   6  -7   2 29.0004 2.44574   4
  -6   7   2 37.5692 2.20451   4
   7  -1   2 32.4589 2.29288   1
  -1  -6   2 37.5820 2.61929   1
  -7   1   2 37.7711 2.33066   1
  -7   1   2 35.6932 1.96741   2
  -6  -1   2 35.0862 2.45986   1
   6   1   2 33.8857 2.64089   4
  -6  -1   2 36.8686 1.79533   4
   7  -6   2 35.1974 2.14673   2
  -1  -6   2 36.5663 2.45247   5
   7  -1   2 37.6019 2.64250   4
   7  -1   2 39.5114 2.39448   1
   7  -1   2 30.2871 2.31254   5
   6  -7   2 34.9123 2.23975   2
   1  -7   2 40.1744 2.57299   1
   6   1   2 35.1620 2.68686   3
  -6   7   2 37.7838 1.45391   2
   7  -1   2 31.8363 2.31253   3
   6   1   2 40.0365 2.84886   3
  -7   6   2 37.5051 1.31389   1
  -6   7   3 28.5505 1.44430   2
   7  -6   3 34.1506 2.63043   3
  -6  -1   3 28.7580 2.18792   2
   7  -1   3 29.9048 2.55531   5
   6  -7   3 24.5855 2.27448   3
  -1   7   3 36.5467 2.92025   3
  -7   1   3 28.3888 1.87580   2
  -6  -1   3 30.2519 2.00418   3
   6   1   3 26.4119 2.47756   2
  -1   7   3 28.6376 2.48726   2
   1   6   3 34.0746 2.76216   1
  -6  -1   3 26.4282 2.35534   1
  -1  -6   3 31.0546 2.54637   3
  -7   6   3 28.6379 2.34190   5
  -6   7   3 34.7251 1.94565   1
   7  -1   3 28.1808 2.73656   5
   1  -7   3 35.5624 2.63492   1
  -6   7   3 33.6705 2.74152   5
   6   1   3 35.6922 2.78735   1
   1   6   3 32.3577 2.77325   3
  -1   7   3 26.5508 2.81819   5
  -7   1   3 31.2104 1.43967   3
   7  -1   3 23.2128 2.37441   2
   6   1   3 30.9899 2.75733   5
   6  -7   3 30.5868 2.82131   5
   6   1   3 26.1508 2.52639   4
  -7   1   3 27.1346 2.22974   1
   6   1   3 33.6937 2.86821   2
  -1  -6   3 34.4394 2.73969   1
   7  -6   3 28.7056 1.86525   1
   6   1   3 31.7673 2.62659   1
  -1   7   3 31.0023 2.49118   2
   7  -1   3 23.6765 2.19366   1
   6   1   3 33.9765 2.87567   3
   7  -1   3 25.5364 2.47486   2
   1   6   3 27.0629 2.53358   2
   7  -6   3 30.4192 2.57854   4
  -6   7   3 32.9515 1.55411   2
  -1  -6   3 27.0907 2.20581   5
   6  -7   3 34.2308 2.78380   4
  -1  -6   3 27.6582 2.37874   4
  -6   7   3 34.1028 2.15802   4
   6  -7   3 26.2362 1.80122   1
   1  -7   3 30.4364 2.67702   4
   1   6   3 29.0013 2.52565   1
  -7   6   3 31.2725 1.75732   1
   1  -7   3 27.5639 2.48308   5
  -1   7   3 25.4622 2.24575   1
  -1   7   3 29.3931 2.73698   4
   1   6   3 32.6038 2.91272   4
  -6  -1   3 32.1961 1.70733   4
   7  -1   3 28.4973 2.50011   4
   7  -1   3 26.8913 2.32161   1
   7  -6   3 28.3335 2.23760   2
   6   1   3 27.7189 2.62566   4
   7  -1   3 25.3368 2.60757   4
  -1  -6   3 31.3646 2.67878   2
   6  -7   3 34.1053 2.57129   2
   7  -1   3 25.9819 2.41294   3
   7  -6   3 31.4700 2.93601   5
  -6   7   3 30.7919 1.77344   3
   1   6   3 29.7726 2.90590   5
   6   1   3 31.9006 2.71489   3
   1  -7   3 23.2801 2.47132   3
  -1   7   3 23.0763 2.29665   1
   1   6   3 24.4756 2.39286   2
   7  -1   3 33.6586 2.68530   3
  -7   6   3 33.7473 1.54636   4
   1  -7   3 27.4061 2.46729   2
   1   6   4 6.44218 1.47707   2
  -6  -1   4 8.98921 1.46233   2
   6   1   4 8.84788 1.71542   1
  -7   1   4 10.2377 1.30511   2
   6  -7   4 10.0497 1.86094   3
  -1   7   4 12.3370 1.85173   2
  -6  -1   4 9.11208 1.02429   4
   7  -6   4 8.76550 1.62894   3
  -6   7   4 12.3122 1.13934   2
  -7   6   4 9.83871 0.70210   2
  -7   6   4 9.12822 0.56041   3
  -6   7   4 5.78879 1.57783   5
   1  -7   4 12.5264 1.87902   3
   7  -6   4 9.92152 1.88703   5
   1  -7   4 10.1330 1.79115   5
  -7   1   4 9.80925 0.96006   3
  -6   7   4 8.10775 1.06552   3
  -1  -6   4 7.26976 1.50888   3
  -7   6   4 9.28815 1.42094   1
  -1   7   4 14.2280 2.03499   3
  -7   6   4 11.6812 1.73480   5
  -1   7   4 9.01850 1.97898   5
   1   6   4 12.5620 2.20147   5
   6   1   4 11.6454 2.06638   3
   6   1   4 11.7994 2.08135   5
   1   6   4 7.90419 1.62614   2
   1   6   4 3.03681 1.41677   1
   7  -1   4 11.3302 1.92821   3
   7  -6   4 8.81840 1.30365   1
   6   1   4 9.06681 1.75700   2
   7  -1   4 7.96803 1.67772   5
  -6  -1   4 10.3776 1.41066   3
   7  -1   4 8.72575 1.69951   2
   7  -6   4 7.10179 1.74324   5
   7  -1   4 12.0246 1.94533   4
  -7   6   4 10.1619 0.95827   4
   6   1   4 14.5520 2.06305   4
  -1  -6   4 9.20615 1.48432   5
  -6   7   4 9.19250 1.25163   1
   1   6   4 11.4496 1.96700   3
   7  -1   4 9.38986 1.72475   2
   6  -7   4 9.87912 1.97164   5
   6  -7   4 10.7696 1.88061   4
  -6   7   4 5.70465 0.97830   2
   6   1   4 6.78320 1.81539   2
  -1  -6   4 9.36974 1.67227   4
  -6   7   4 10.1414 1.33325   4
   6  -7   4 8.11892 1.31300   1
   1  -7   4 10.3483 1.82261   4
   7  -1   4 9.03666 1.63834   3
   7  -6   4 6.85953 1.60839   4
  -1   7   4 10.7373 1.69692   2
  -1   7   4 11.6892 2.04607   4
   1   6   4 12.4161 2.12686   4
   1   6   4 10.3207 1.79824   1
   7  -6   4 10.6042 1.65570   2
   7  -1   4 7.65638 1.66136   5
  -1   7   4 11.0787 1.75931   1
   6  -7   4 10.3209 1.78456   2
  -7   6   4 9.76627 0.71795   2
   6   1   4 10.4886 1.89045   4
   7  -1   4 9.96676 1.74040   1
   7  -1   4 7.97700 1.63321   4
  -6  -1   4 6.54409 1.62761   1
  -6   7   4 8.19356 1.06915   3
   6   1   4 12.9015 1.93301   3
  -1  -6   4 6.16548 1.58022   1
   1  -7   4 10.3970 1.83283   2
  -7   6   4 8.66545 0.92916   4
   1  -7   4 5.53391 1.46474   1
  -1  -6   4 9.15126 1.65484   2
  -7   1   4 6.21610 1.42777   1
  -7   6   5 2.70176 1.12218   1
  -6   7   5 2.57578 0.87297   3
   7  -1   5 0.66894 1.30811   3
   7  -1   5-0.08955 1.16664   4
   1  -7   5 2.01203 1.25190   2
  -1  -6   5 5.68720 1.85410   2
  -7   6   5 1.12063 0.45393   3
   6  -7   5 4.23160 1.27707   1
   1   6   5 0.11460 1.10783   1
   7  -6   5-0.22969 1.07844   3
  -6  -1   5 1.95163 1.20189   2
  -7   1   5 2.73581 1.02387   2
   6   1   5 1.83234 1.33548   1
   6  -7   5 3.12686 1.49855   3
   6   1   5 2.60521 1.54925   4
  -1   7   5 1.40214 1.05214   1
   7  -1   5 1.46307 1.64704   5
   1  -7   5-0.26340 1.10509   5
  -1  -6   5 3.68431 1.31196   5
   6  -7   5 1.16641 1.48488   5
   1  -7   5 1.34734 1.41428   3
   6   1   5 0.09334 1.36757   2
  -7   6   5 1.52030 0.68816   4
   7  -6   5 0.05823 1.23561   4
  -7   6   5 0.73490 0.56000   2
  -7   1   5 1.54751 0.69540   3
  -1  -6   5 1.80689 1.16674   5
   7  -6   5 0.33649 1.25635   5
  -7   6   5 1.49851 0.48066   3
   7  -1   5 2.29827 1.39709   5
  -7   6   5 1.17732 1.17233   5
  -6   7   5 2.21742 1.03543   3
  -6   7   5 1.01768 0.82455   4
  -6   7   5 0.45871 1.20946   5
  -1   7   5 2.23450 1.93336   5
   7  -1   5 0.78533 1.33601   2
   1   6   5 0.47422 1.52475   5
  -6   7   5 2.13458 0.84714   2
  -1   7   5 2.80008 1.39573   3
  -1   7   5 0.56630 1.22703   2
   1   6   5 0.02951 1.30180   3
   1   6   5 1.59123 1.42838   2
   6   1   5 0.66270 1.18199   5
   6   1   5 0.66706 1.55314   3
   7  -1   5-0.36528 1.09749   3
   7  -6   5 1.04604 1.31885   5
  -6   7   5 0.33451 0.70700   4
  -7   6   5 1.43853 0.65405   4
   6  -7   5 2.35058 1.38736   4
  -6  -1   5 0.73848 0.84016   3
   1   6   5 4.54376 1.67268   2
  -1   7   5 6.71747 1.69193   2
   1  -7   5 0.82111 1.05254   4
   6   1   5 1.06062 1.51647   2
  -6   7   5 0.73635 0.98513   1
  -1  -6   5 1.35540 1.09628   4
  -1  -6   5 0.45332 1.20948   3
   7  -1   5 2.68136 1.69688   2
  -6  -1   5 1.72396 0.70772   4
  -1   7   5 0.24115 1.22855   4
  -6   7   5 1.21057 0.80692   2
  -7   1   5 0.96454 1.02220   1
   1  -7   5 2.62896 1.34214   1
   7  -6   5 0.66685 0.97613   1
   1   6   5 1.50662 1.33098   4
   6   1   5 3.85316 1.64855   4
   7  -1   5 1.08383 1.45675   4
   7  -1   5 0.35939 1.27771   1
   6  -7   5 0.03336 1.13254   5
   7  -6   5 3.08809 1.50694   2
  -1  -6   5 3.14082 1.43083   1
  -6  -1   5 1.08039 1.11241   1
  -7   6   5 1.43994 0.62762   2
   6  -7   5 2.93078 1.49555   2
  -1   7   5 1.11712 1.28058   3
   1   6   5 2.72569 1.36693   3
   6   1   5-0.15425 1.07667   3
   7  -1   6 28.0570 3.20989   1
  -7   1   6 29.9494 3.25939   1
   1  -7   6 34.2507 3.42896   1
  -7   6   6 32.4957 1.87229   3
   7  -6   6 41.2508 3.98068   3
   6  -7   6 26.0526 3.27013   3
  -6  -1   6 26.3425 2.49110   3
   1  -7   6 30.6364 3.25675   5
  -6  -1   6 25.2483 3.25079   1
  -1  -6   6 22.9096 3.23324   1
   1  -7   6 25.1809 3.16349   3
  -6   7   6 28.3550 2.34950   2
   6   1   6 24.0826 3.47368   5
  -7   1   6 30.5201 2.19514   3
  -1  -6   6 29.7336 2.82451   5
   6  -7   6 23.0269 3.41093   5
   6   1   6 37.3893 4.24288   5
  -1  -6   6 31.5926 3.48848   3
  -1   7   6 26.7038 3.07516   3
  -6   7   6 31.6176 3.49968   5
  -7   6   6 25.5938 1.99894   2
   7  -1   6 25.5462 3.50069   5
  -1   7   6 22.4629 3.58957   5
   1   6   6 26.2337 3.71310   5
   1   6   6 31.5678 3.41840   4
  -7   6   6 28.8870 3.06606   5
   7  -1   6 21.4353 3.32145   4
   7  -1   6 23.3206 3.13327   2
   7  -1   6 31.1706 3.53699   3
   1   6   6 21.7609 3.20597   3
   7  -6   6 32.1384 4.09184   5
  -1  -6   6 32.6765 3.03141   5
  -6   7   6 30.6782 3.00140   1
   6  -7   6 29.9229 3.74231   5
   1  -7   6 31.1450 3.34159   5
  -1   7   6 31.4152 3.18807   2
  -7   6   6 27.0281 1.70173   3
  -6   7   6 28.9251 2.49430   4
   6   1   6 18.9369 3.04056   4
  -7   6   6 25.8936 1.91211   4
  -6   7   6 27.8247 2.27980   3
   1   6   6 21.8659 2.97799   2
   6   1   6 30.2940 3.58041   3
  -7   6   6 29.2798 2.89599   1
   7  -6   6 30.7420 3.39186   4
   6  -7   6 25.3816 3.20952   4
   6   1   6 24.3456 3.33709   2
   1  -7   6 32.2540 3.42696   4
   6  -7   6 31.1203 3.03366   1
   7  -1   6 27.1286 3.36870   2
  -1  -6   6 29.4416 3.39323   4
  -7   6   6 33.2172 2.08022   4
  -1   7   6 22.0774 2.86943   2
  -6  -1   6 33.6518 2.15222   4
   7  -6   6 28.2680 2.91207   1
  -6   7   6 28.4967 2.41909   2
  -1   7   6 13.7514 3.04934   4
   1   6   6 29.5262 3.32675   2
   1   6   6 24.7516 3.44563   4
   7  -6   6 28.2834 3.20375   2
   6   1   6 25.2628 3.54011   4
   7  -1   6 20.6652 3.48415   5
   7  -1   6 29.4014 3.66726   4
  -7   6   6 29.1397 2.13789   2
   6  -7   6 26.1293 3.27087   2
  -6  -1   6 30.7348 2.17875   4
  -6   7   6 26.3314 2.40497   4
   7  -6   6 31.1837 3.73769   5
   6   1   6 24.8111 3.49022   2
  -1   7   6 28.4412 3.09167   3
   1   6   6 30.1801 3.27688   3
   1   6   6 25.6912 3.22508   1
   1  -7   6 41.5684 4.03571   2
  -1  -6   6 25.4876 3.51290   2
   6   1   6 28.2438 3.60510   3
   6   1   6 19.1491 2.91874   1
   7  -1   6 34.1904 3.76231   3
  -1   7   6 28.4640 3.20259   1
  -6   7   6 32.0975 2.43141   3
  -7   1   6 24.3190 2.60333   2
  -6  -1   6 24.0548 2.80100   2
   6   1   7 6.68419 2.83585   3
   1  -7   7 1.40722 2.43122   2
   7  -1   7-1.10392 2.62149   3
  -7   6   7 0.44696 1.72520   1
  -6  -1   7 1.69677 1.17347   4
  -1  -6   7 0.32324 2.31285   2
  -6   7   7 3.05245 1.52346   3
   6   1   7-0.07777 2.28869   1
   7  -6   7 1.41300 2.58890   5
  -7   1   7-0.26259 1.67122   2
  -6  -1   7 7.36075 2.29313   2
   7  -6   7 0.74085 2.36142   3
  -7   6   7 0.58219 1.00793   3
   6  -7   7 0.42061 1.63153   1
   1   6   7 1.52244 2.33001   4
  -7   6   7 0.28134 0.94770   3
   6   1   7-1.18035 2.74244   5
   1  -7   7-0.13865 1.95074   5
   6  -7   7 0.53410 2.51698   5
  -7   1   7 0.66412 2.03246   1
  -6  -1   7 1.28406 1.55873   3
  -7   1   7 1.57593 1.27583   3
  -7   1   7 0.88609 0.29627   5
  -1  -6   7-0.14290 1.68991   5
  -1   7   7 0.96626 2.60692   5
   6  -7   7-0.12354 1.87427   3
  -7   6   7 0.28245 1.81913   5
   1   6   7 3.27012 2.13417   1
  -6   7   7 1.67680 1.47010   3
  -1   7   7-0.81611 2.14333   1
  -1   7   7 0.46358 1.89879   3
   1   6   7-0.05001 2.62292   5
   6   1   7 9.49142 3.27826   5
  -6   7   7-0.47284 1.38676   2
   1   6   7 1.44058 2.12262   2
  -1   7   7-0.55362 2.04726   2
   7  -1   7 4.35225 2.65697   5
  -7   6   7 1.59478 1.26132   2
   7  -1   7-0.07463 1.77813   1
   1  -7   7-0.24118 2.39854   3
   6   1   7-0.78314 2.56327   3
   6   1   7 1.66840 2.30792   2
   1   6   7 0.42731 1.97231   3
   7  -1   7-1.49315 2.62613   3
   1  -7   7-0.23679 1.89994   5
   6  -7   7 0.93233 2.08879   5
   7  -1   7 0.08233 1.88329   2
  -1   7   7 1.54636 2.06882   4
  -6   7   7 3.66361 1.58536   4
   6   1   7-0.25329 2.40502   4
   7  -1   7 1.83903 2.41490   5
   7  -1   7 2.21275 2.39608   4
  -1  -6   7 0.15444 2.19565   3
  -7   6   7 1.32966 1.04550   4
   7  -6   7 1.85247 2.69948   5
   7  -6   7 2.51275 2.08653   4
   6  -7   7 0.40797 2.25890   4
  -6   7   7 11.3587 2.64635   1
   1  -7   7 2.44419 2.37962   4
  -1  -6   7 1.25515 2.05375   4
   1   6   7 0.64908 2.15570   2
  -1   7   7-1.07900 2.15830   2
  -7   6   7 2.69294 1.18571   4
   6   1   7 0.85633 2.45209   2
  -6   7   7 3.30946 1.64794   4
  -6   7   7 2.95641 2.37377   5
  -6  -1   7 1.07753 2.29890   1
   7  -1   7-0.42346 2.25591   2
  -1   7   7-0.77056 2.31511   4
  -7   1   7 0.88118 0.32511   4
   1   6   7-0.95293 2.55422   4
  -1  -6   7-0.03862 2.24176   1
  -1  -6   7 0.72589 1.73576   5
   6   1   7 1.60135 2.70145   4
  -6   7   7 1.39141 1.34989   2
   7  -1   7-0.69836 2.75643   4
  -6  -1   7 0.60288 1.14493   4
   7  -6   7 0.58834 2.22124   2
   7  -6   7 1.34285 1.75462   1
   6  -7   7 0.16047 2.37528   2
  -7   6   7 1.70991 1.39449   2
   1  -7   7 1.52643 1.90646   1
   1   6   7 0.96573 2.01272   3
  -1   7   7 0.85393 2.01396   3
   0   7  -7 11.2792 2.91480   3
   7   0  -7 15.5828 3.01074   1
   0   7  -7 6.52601 2.70971   1
   0  -7  -7 12.9737 3.71120   5
  -7   7  -7 12.7962 3.13558   4
   7  -7  -7 11.1285 2.77557   5
   0  -7  -7 20.1663 3.47442   1
  -7   7  -7 10.0355 2.89547   2
  -7   0  -7 15.0340 3.23962   1
   7   0  -7 9.39485 2.25052   2
   0   7  -7 15.1731 2.85437   4
   0   7  -7 14.8293 3.29983   2
   7  -7  -7 12.8189 2.47582   1
   7   0  -7 16.0348 2.11284   3
  -7   7  -7 16.6759 3.25906   1
  -7   7  -7 10.0818 3.09450   3
   7   0  -6 20.8858 2.86558   1
   0   7  -6 21.3077 2.87628   1
   0  -7  -6 22.3914 3.54735   5
   7  -7  -6 14.8329 2.55145   5
   0  -7  -6 21.1018 3.05986   1
  -7   0  -6 18.2163 3.00699   1
  -7   7  -6 13.2426 2.76695   4
  -7   7  -6 22.9685 3.17211   2
   7   0  -6 18.9767 2.49469   2
   7  -7  -6 14.9823 2.20019   1
   0   7  -6 30.0063 3.21555   4
   0   7  -6 10.9570 2.87663   2
   7   0  -6 18.1416 1.89671   3
  -7   7  -6 17.2173 2.78671   3
  -7   7  -6 15.2064 2.44925   1
   0   7  -6 20.0697 2.87343   3
  -7   7  -5 35.2993 3.34802   4
   0   7  -5 19.7979 2.62365   1
   7  -7  -5 25.5892 2.85158   5
   0  -7  -5 23.9220 3.50519   5
   0  -7  -5 22.3100 2.92986   1
  -7   0  -5 27.4139 3.03892   1
   0   7  -5 23.1990 2.63951   4
  -7   7  -5 21.6619 2.74733   2
   7  -7  -5 22.2978 2.21328   1
   0   7  -5 22.3755 2.83849   2
   7   0  -5 27.4533 2.90888   1
  -7   7  -5 19.4094 2.44696   1
   0   7  -5 23.3128 2.44227   5
   0  -7  -5 24.1871 3.09400   4
  -7   7  -5 27.5982 3.13416   3
   7   0  -5 21.1593 2.26566   2
   7   0  -5 23.7141 1.87477   3
   0   7  -5 12.9912 2.46205   3
   0   7  -4 147.332 6.07114   3
  -7   7  -4 147.151 6.29678   5
   7   0  -4 161.951 5.90895   1
   7  -7  -4 155.542 6.15318   5
   0  -7  -4 148.035 7.02953   5
   0  -7  -4 127.761 6.00855   3
  -7   7  -4 136.021 5.80613   4
   0   7  -4 127.664 5.76467   4
  -7   7  -4 130.339 5.76530   2
   7  -7  -4 140.532 4.44948   1
   7   0  -4 125.006 4.46648   2
  -7   7  -4 153.904 5.18461   1
   0   7  -4 148.563 6.12775   2
   0  -7  -4 111.965 5.83545   4
   7  -7  -4 143.007 4.19596   4
   0   7  -4 153.134 5.96034   1
   0   7  -4 134.939 5.24194   5
  -7   7  -4 141.533 5.89019   3
   7   0  -4 154.044 3.98769   3
   7   0  -3 76.6322 2.66736   3
   0   7  -3 60.5740 3.86847   3
  -7   7  -3 73.3125 4.27771   5
   7  -7  -3 84.6305 4.42212   5
   0  -7  -3 67.9393 4.56121   5
   0  -7  -3 63.5186 4.11205   3
   0   7  -3 76.1504 3.79859   5
   7   0  -3 62.7253 1.16539   4
   7   0  -3 64.4743 3.49686   1
  -7   7  -3 84.3771 4.26602   4
   0   7  -3 76.7937 4.02558   1
   7  -7  -3 73.3976 2.65525   1
   0   7  -3 59.2591 3.67555   4
  -7   7  -3 82.8974 3.93854   2
  -7   7  -3 76.9050 3.10128   1
   7   0  -3 62.0490 2.88990   2
   7  -7  -3 68.9796 2.91128   4
   0   7  -3 73.7237 4.08696   2
   0  -7  -3 76.8964 4.52291   4
  -7   7  -3 69.8045 3.78691   3
   0   7  -2 200.570 6.36302   3
   7   0  -2 197.142 4.24749   3
  -7   7  -2 224.640 7.06550   5
   0   7  -2 174.676 5.95098   4
   0   7  -2 177.649 5.66739   5
   0  -7  -2 207.403 6.55346   2
   0  -7  -2 203.595 7.22644   5
  -7   7  -2 208.297 6.05988   4
   0  -7  -2 180.450 6.33303   3
   7  -7  -2 197.128 3.59151   3
   7  -7  -2 218.058 6.74721   5
   7   0  -2 198.534 3.09040   4
  -7   7  -2 173.990 5.22864   2
  -7   7  -2 190.173 3.64111   1
   7   0  -2 213.568 5.84177   1
   7  -7  -2 207.088 4.99508   4
   0   7  -2 200.453 6.06736   1
   0  -7  -2 189.219 6.71349   4
   0   7  -2 179.007 6.00382   2
   7   0  -2 182.128 4.72379   2
  -7   7  -2 219.148 5.97673   3
   0   7  -1 57.0845 3.13337   1
   7   0  -1 52.1700 1.18391   5
   0   7  -1 46.1113 3.07353   3
   7  -7  -1 51.5111 1.21445   2
   7  -7  -1 57.2035 2.15220   3
   0  -7  -1 58.9795 3.42532   2
   7  -7  -1 56.2007 3.39026   5
   7   0  -1 53.8906 2.37122   3
   0  -7  -1 57.9611 3.69965   5
  -7   7  -1 50.7279 3.22699   5
   0  -7  -1 55.6660 3.36717   3
  -7   7  -1 52.9238 2.48060   2
   0   7  -1 52.5736 3.27982   4
   0   7  -1 51.1129 3.13588   5
   7   0  -1 52.6377 2.04986   4
   7  -7  -1 51.1689 2.49437   4
   0  -7  -1 54.3404 3.54916   4
  -7   7  -1 45.7937 2.80925   4
   0   7  -1 57.8145 3.32839   2
   7   0  -1 57.4337 2.64406   2
  -7   7  -1 51.4687 2.62530   3
   7   0  -1 55.2423 2.89958   1
  -7   7   0 0.62715 0.58212   3
  -7   0   0 0.52807 0.55050   2
   0   7   0-0.13496 0.72782   2
   7  -7   0 0.41494 0.43311   3
   7  -7   0 0.95444 0.40579   2
   0   7   0 1.06138 0.83166   3
   7  -7   0-0.20358 0.71742   5
  -7   0   0 2.17066 0.72620   3
   7   0   0 0.63886 0.44568   5
   0  -7   0 0.65045 0.80438   2
   7   0   0 0.39165 0.52025   3
   7   0   0-0.04150 0.49872   2
   0  -7   0 0.34262 0.76527   3
   7   0   0 0.16552 0.42234   5
   0  -7   0 0.08795 0.91805   5
   7   0   0 0.59494 0.44909   4
  -7   7   0-0.01954 0.57339   5
  -7   7   0 0.34298 0.53222   4
   0   7   0 1.91282 0.98731   4
   7  -7   0 1.41474 0.69425   4
   0  -7   0 1.26225 0.85703   4
   7   0   0-0.19991 0.50399   4
  -7   7   0 0.41079 0.36025   2
  -7   0   0 3.04092 0.85053   1
   0  -7   0 0.22064 0.55485   1
   0   7   0 1.21179 0.75868   5
   0   7   0 0.91967 0.62647   1
   7   0   0 1.16053 0.70963   1
  -7   7   1 48.1737 2.09917   3
   0   7   1 58.4979 3.40737   2
   7  -7   1 51.8064 3.29556   5
   0  -7   1 40.2253 2.98020   2
   7  -7   1 60.8856 2.85211   3
   7   0   1 46.8562 2.73036   2
  -7   0   1 57.7807 2.58032   3
   0   7   1 49.6801 3.22169   3
   0  -7   1 54.4308 2.98862   1
   0   7   1 54.6174 3.06213   1
   0  -7   1 60.7091 3.51716   5
   7   0   1 59.7717 3.11180   3
  -7   7   1 56.3004 3.28235   5
   7   0   1 42.3877 2.54024   4
   7   0   1 54.2725 3.02758   2
  -7   0   1 55.1370 2.97361   1
   0   7   1 53.9494 3.55964   5
   7   0   1 46.0850 2.75160   1
  -7   7   1 45.1680 1.20510   2
   7  -7   1 49.5567 2.87007   4
   0   7   1 53.2623 3.34794   4
   0  -7   1 64.5977 3.62255   4
  -7   0   1 56.2089 2.79317   2
   0   7   1 56.3060 3.12405   1
   7   0   1 51.8623 2.94317   4
   7   0   1 61.3606 2.98835   5
  -7   0   1 50.1850 2.07777   4
  -7   7   1 58.3536 2.62953   4
   7   0   1 56.4441 2.70198   5
   7   0   1 59.8875 2.99495   1
   7   0   1 57.8287 3.01699   3
   7  -7   1 53.1490 2.33272   2
   0  -7   1 60.8030 3.45809   3
   0  -7   2 212.996 6.56748   2
  -7   7   2 194.042 3.56085   3
   0   7   2 197.274 6.34874   2
   7  -7   2 206.701 5.84557   3
  -7   7   2 190.445 2.83187   1
   7   0   2 203.119 6.26647   2
   0   7   2 182.237 5.89654   1
   0   7   2 222.196 6.94433   3
   0   7   2 220.029 7.48214   5
  -7   0   2 188.136 4.48578   3
   7   0   2 207.068 6.12023   5
   7   0   2 189.204 5.68299   1
   7   0   2 199.914 5.74529   5
  -7   7   2 206.620 6.38870   5
   0  -7   2 205.715 6.57185   3
  -7   0   2 205.445 5.30217   2
   7   0   2 185.419 5.69106   4
   7   0   2 209.377 5.93118   1
   0   7   2 203.034 5.97392   1
  -7   7   2 210.483 4.79375   4
   0  -7   2 165.359 5.74867   5
   7   0   2 196.340 6.21283   3
   0  -7   2 196.486 6.37057   4
   0   7   2 186.040 6.54040   4
  -7   7   2 199.978 2.80506   1
   0  -7   2 209.952 6.14298   1
   7   0   2 201.204 6.33104   4
   7  -7   2 202.356 6.78815   5
   7  -7   2 198.092 6.06564   4
   7   0   2 200.180 6.18428   2
  -7   0   2 202.262 3.28799   4
  -7   0   2 194.070 5.68126   1
   7  -7   2 207.852 5.36103   2
   7   0   2 219.533 6.36170   3
   7  -7   2 200.860 3.53720   1
   7  -7   3 73.8407 4.41378   5
   0   7   3 76.9089 4.45811   4
   7  -7   3 67.9380 3.78684   3
  -7   7   3 69.4057 2.02653   3
   7   0   3 53.4140 3.34099   1
  -7   0   3 77.8903 3.40800   2
   0   7   3 81.1637 4.29004   2
   7   0   3 77.4808 4.11019   5
  -7   7   3 59.1641 3.65741   5
   0   7   3 73.4965 4.20981   3
   0   7   3 72.0350 4.64503   5
   0  -7   3 64.2948 3.68923   1
  -7   0   3 71.8824 2.77614   3
   0  -7   3 67.4906 3.72303   5
   7   0   3 69.3844 4.09411   3
   0   7   3 72.3368 3.91006   1
   7   0   3 70.5858 4.11174   5
   0   7   3 68.2128 3.90082   2
   7   0   3 89.3597 4.36050   4
  -7   0   3 78.1073 3.87279   1
  -7   7   3 67.9992 2.54575   1
   7   0   3 55.2127 3.63005   2
   7  -7   3 72.9260 4.07092   4
  -7   7   3 74.6303 2.91775   4
   7   0   3 56.9109 3.50656   1
   0  -7   3 73.4124 4.06233   4
   7  -7   3 72.2154 2.83434   1
   0  -7   3 69.1110 4.01454   3
   7   0   3 70.5818 4.16880   4
   7  -7   3 70.9236 3.59895   2
  -7   7   3 71.7293 2.07921   3
   7   0   3 52.2329 3.62208   3
   0   7   3 69.9612 3.94920   1
   7   0   3 65.6113 3.93697   2
   0  -7   3 72.5502 4.12468   2
  -7   7   4 143.851 2.89552   2
   0   7   4 150.752 6.30597   3
  -7   7   4 133.392 2.83077   2
  -7   0   4 131.226 4.80520   2
   7  -7   4 113.110 5.39996   3
  -7   7   4 128.054 3.01884   3
   0   7   4 118.779 5.35850   2
   7  -7   4 148.505 6.65087   5
   0   7   4 143.967 6.37060   4
   0  -7   4 123.508 5.24888   5
   0   7   4 143.416 6.02437   2
   0  -7   4 132.202 5.61397   1
   7   0   4 151.329 6.33730   5
  -7   7   4 144.998 5.97635   5
  -7   0   4 135.741 5.48261   1
   0  -7   4 129.780 5.85683   3
   7   0   4 140.651 6.18701   3
   7   0   4 143.685 6.45590   5
  -7   7   4 125.770 4.31495   1
   7   0   4 151.933 6.24688   4
   0   7   4 153.338 6.20967   1
   7   0   4 111.100 5.52056   2
   7  -7   4 148.658 4.83842   1
   7  -7   4 131.983 6.00654   4
  -7   7   4 145.239 4.16919   4
   0  -7   4 130.231 5.68869   4
   0   7   4 161.430 7.19861   5
   0   7   4 153.523 6.03759   1
  -7   0   4 133.692 3.97830   3
   7   0   4 135.601 6.29822   4
   7   0   4 134.424 5.95527   1
   7  -7   4 139.837 5.61672   2
   7   0   4 144.173 6.24637   2
   7   0   4 142.098 6.11591   3
  -7   7   4 151.027 3.23956   3
   0  -7   4 140.756 6.01242   2
   7  -7   5 21.6720 3.09487   5
  -7   0   5 24.7490 2.33675   2
   7   0   5 18.6278 2.59037   4
   0   7   5 18.0395 2.66495   2
   7  -7   5 22.2572 2.84829   3
   0   7   5 25.7748 2.99087   3
   7   0   5 26.9832 3.11037   5
   0  -7   5 23.4743 2.92394   3
  -7   0   5 25.2995 2.75819   1
   0   7   5 19.3646 2.98403   5
  -7   7   5 26.8786 1.62598   3
  -7   7   5 31.0468 2.57249   1
   0  -7   5 19.0510 2.34860   5
   7   0   5 16.8952 2.62986   2
   7   0   5 18.0438 2.78346   3
   7   0   5 27.3390 3.38792   5
   0  -7   5 10.1616 2.45042   1
  -7   7   5 28.5552 2.04995   4
   0   7   5 21.9174 2.71504   2
   7  -7   5 28.2137 3.33300   5
   7  -7   5 18.3065 2.23534   1
   7  -7   5 14.2364 2.83436   4
   7   0   5 27.1599 3.07715   2
  -7   0   5 20.4469 1.85901   3
   0  -7   5 24.0402 2.82849   4
  -7   7   5 23.7155 1.92356   4
   0   7   5 26.5245 3.08678   4
  -7   7   5 21.1186 2.57456   5
  -7   7   5 22.9826 1.56051   2
   7   0   5 27.4318 3.36655   4
  -7   7   5 24.3121 1.62800   2
   0   7   5 22.6203 2.72674   1
   7   0   5 23.0609 2.70624   1
   0   7   5 24.8556 2.76736   3
   7   0   5 21.3324 2.98329   3
   0  -7   5 23.3623 2.78582   2
   7  -7   5 16.3991 2.58045   2
  -7   7   5 23.9771 1.62464   3
  -7   7   6 24.9037 1.88627   3
   7  -7   6 20.3119 3.10476   3
   0   7   6 20.7937 2.91518   2
   0  -7   6 24.8291 3.27027   3
   0  -7   6 20.5492 2.84077   1
  -7   0   6 29.1377 3.30341   1
  -7   0   6 18.7259 2.04620   3
   7   0   6 17.9098 2.90645   1
  -7   7   6 23.5673 1.89881   2
   7   0   6 24.7816 3.59823   5
   0   7   6 23.0624 3.15774   3
   0   7   6 16.7843 3.39217   5
   7   0   6 20.8931 3.04240   2
   7   0   6 17.3839 2.96749   3
   0  -7   6 14.2430 2.47822   5
   0  -7   6 16.1852 2.58998   5
   0   7   6 24.5998 3.09322   2
  -7   7   6 30.9218 2.91631   1
  -7   7   6 22.9158 1.99602   4
   7   0   6 19.2558 3.02782   4
  -7   7   6 21.2963 1.71426   3
   7  -7   6 13.3590 2.51902   1
   7  -7   6 14.2933 3.17417   4
   7   0   6 20.0570 3.06465   2
   0  -7   6 18.2211 2.88333   4
   7  -7   6 14.3739 3.00015   5
  -7   7   6 27.6850 2.18286   4
   0   7   6 12.0424 3.01115   4
  -7   7   6 10.1670 1.67784   2
  -7   0   6 17.8183 0.95823   4
   7  -7   6 18.2118 2.77526   2
   7   0   6 18.5595 3.34808   4
   7   0   6 25.6149 3.52335   5
  -7   7   6 20.1132 2.91073   5
   0   7   6 20.9813 2.92384   3
   7  -7   6 22.7160 3.44595   5
   0   7   6 24.8696 3.19008   1
   0  -7   6 15.9016 2.70758   2
   7   0   6 19.5117 3.27467   3
  -7   0   6 23.9655 2.69288   2
  -7   7   7 13.3744 1.69847   3
   7   0   7 7.41767 3.00959   3
   0  -7   7 8.76558 2.64369   2
   7  -7   7 10.9199 2.57266   1
   0  -7   7 13.4074 2.82823   5
  -7   0   7 6.47417 2.38082   2
   7  -7   7 13.5961 3.29115   3
   7   0   7 6.51633 2.98673   4
   7   0   7 11.4036 3.72311   5
   0   7   7 13.4849 3.99721   5
  -7   7   7 17.4950 1.80932   3
   7   0   7 9.14938 3.30926   5
   7  -7   7 11.8781 3.38823   5
   0   7   7 9.92402 2.93454   3
   0   7   7 13.1072 2.94991   2
  -7   7   7 16.0877 1.99197   4
   0  -7   7 10.1656 2.43107   5
   7  -7   7 13.9388 3.58565   5
  -7   0   7 12.2321 1.98256   3
   7   0   7 18.0109 3.33548   1
   7  -7   7 4.53901 2.99640   4
  -7   7   7 17.2660 2.09647   4
   7   0   7 10.1373 3.38935   3
   0  -7   7 12.5557 3.04501   4
   0   7   7 8.46371 2.56556   2
   7   0   7 13.7245 3.07785   2
  -7   7   7 11.2659 2.79374   5
   7   0   7 6.09701 3.21347   2
  -7   0   7 10.3091 0.86538   4
   0   7   7 5.34022 3.11887   4
  -7   7   7 15.3477 1.95921   2
  -7   0   7 13.4344 2.90041   1
   0  -7   7 13.7425 2.90249   1
   0   7   7 11.4822 2.79251   1
   7   0   7 16.5540 3.78645   4
   0   7   7 6.04902 2.45234   4
  -7   7   7 7.64766 1.72883   2
   7  -7   7 7.88079 2.61704   2
  -7   7   7 11.6204 2.59540   1
   0   7   7 11.6542 2.92283   3
  -4   8  -7 4.47147 2.56673   3
   4   4  -7 0.42902 1.81433   3
  -4   8  -7 1.17475 2.20668   1
   8  -4  -7-0.95158 1.95155   1
   4   4  -7-0.36045 1.47713   4
   4   4  -7 1.01412 2.25117   1
   4  -8  -7-0.86756 2.39593   5
  -4  -4  -7 0.15253 2.83921   5
  -4   8  -7-0.62516 2.03628   4
   8  -4  -7-0.27517 1.27712   2
  -8   4  -7-0.84208 2.32328   2
   4  -8  -7-1.03712 2.05407   1
  -4   8  -7-0.29377 2.09528   2
   4   4  -7-0.76312 1.96604   2
  -8   4  -7 0.14832 2.02723   1
  -4  -4  -7 3.35182 2.77472   1
   4  -8  -6 111.271 6.84772   5
  -4  -4  -6 141.211 8.01218   5
   8  -4  -6 105.857 4.14661   5
   8  -4  -6 128.318 4.15172   2
  -4  -4  -6 106.379 6.54108   1
  -8   4  -6 128.796 6.80237   2
   4   4  -6 137.296 5.36368   4
  -4   8  -6 111.294 6.18363   4
   4  -8  -6 97.1515 5.55227   1
  -8   4  -6 109.706 5.91646   1
  -4   8  -6 102.912 6.26852   2
   4   4  -6 130.696 6.45389   2
   4   4  -6 129.865 6.67303   1
   8  -4  -6 119.271 5.75303   1
  -4   8  -6 119.900 6.53223   3
  -4   8  -6 126.873 6.24736   1
   4   4  -6 119.009 5.64803   3
  -4   8  -5 1.48471 1.25177   3
   4   4  -5 0.28631 1.06116   3
  -4   8  -5 0.84949 1.34388   1
  -4   8  -5 1.23302 1.39765   5
   4  -8  -5-0.75303 1.42255   5
  -4  -4  -5 0.56472 1.74168   5
   8  -4  -5 0.40638 0.94675   5
   8  -4  -5 0.39603 0.57188   2
  -4   8  -5 0.11752 1.10471   4
  -8   4  -5 1.29536 1.33040   2
   4   4  -5-0.24144 0.85685   4
   4  -8  -5 0.48128 1.04448   1
   4   4  -5 0.17290 1.18025   1
  -8   4  -5 0.07338 1.01819   1
  -4   8  -5 0.15204 1.30775   2
   4   4  -5-0.50538 1.01975   2
   4  -8  -5-0.26936 1.23824   4
  -8   4  -5 0.48046 1.50052   3
   8  -4  -5-0.28758 1.06204   1
   8  -4  -4 81.3545 3.67365   1
   4   4  -4 75.9567 4.02560   3
  -8   4  -4 80.6232 3.90077   1
  -4   8  -4 81.2806 4.04734   1
  -4   8  -4 91.9749 4.96597   5
   4  -8  -4 67.0866 3.69458   3
   4  -8  -4 83.4637 5.20321   5
   8  -4  -4 71.9812 2.78453   5
  -4  -4  -4 72.8643 4.69554   5
   4   4  -4 84.3887 4.56689   1
   4  -8  -4 85.8406 4.10741   1
  -8   4  -4 65.2006 4.06231   2
  -4   8  -4 60.9636 4.15627   4
   4   4  -4 81.4779 3.60701   4
  -4   8  -4 81.4633 4.52250   2
   8  -4  -4 78.9404 1.91354   2
   4   4  -4 81.4901 4.36453   2
   4  -8  -4 75.9494 4.27346   4
  -4  -4  -4 79.9273 4.95547   4
  -8   4  -4 79.1127 4.48940   3
  -4   8  -4 83.1412 4.80709   3
  -4   8  -3-0.67374 0.94860   3
   4   4  -3-0.47899 0.95027   1
   4   4  -3 1.01761 0.80809   3
   4   4  -3 0.22314 0.37547   5
   4  -8  -3 0.17076 0.89963   5
  -8   4  -3 1.25079 0.97420   2
   8  -4  -3 0.19983 0.51906   5
   8  -4  -3 0.49213 0.66068   1
  -4  -4  -3-0.54035 0.83991   5
   4  -8  -3-0.58825 0.76117   3
  -4  -4  -3-0.02660 1.06978   3
  -4   8  -3-0.02458 0.73178   5
  -4   8  -3-0.09765 0.60334   1
  -4   8  -3 1.19674 1.06320   4
  -8   4  -3 0.81464 0.72852   1
  -4   8  -3-0.19478 0.82753   2
   4  -8  -3 1.17746 0.98754   4
  -4  -4  -3 0.21823 0.99821   4
   4   4  -3 0.43718 0.68842   4
  -8   4  -3 0.72991 0.83237   3
   4   4  -3-0.46084 0.75983   2
  -4   8  -2 133.094 5.08775   3
   4  -8  -2 141.289 4.90949   3
   4  -8  -2 104.760 5.24813   5
   4   4  -2 98.4083 4.23665   3
   8  -4  -2 130.220 3.69678   5
   4  -8  -2 139.200 4.47445   2
  -4   8  -2 128.088 4.07850   1
  -4  -4  -2 144.012 5.45968   5
  -4  -4  -2 148.620 5.83908   3
  -4  -4  -2 161.818 6.04434   2
  -8   4  -2 124.534 4.42594   2
   4   4  -2 131.834 3.25090   5
  -4   8  -2 136.454 5.17704   4
  -4   8  -2 118.196 5.06341   5
   4   4  -2 125.884 4.36688   4
   8  -4  -2 128.547 3.45254   1
   4  -8  -2 130.922 5.14262   4
  -4   8  -2 135.825 4.90741   2
  -4  -4  -2 133.116 5.72842   4
   4   4  -2 97.5225 4.50739   1
  -8   4  -2 136.912 4.76702   3
   4   4  -2 144.493 5.17862   2
   4   4  -1 0.54859 0.65164   3
   4  -8  -1 1.25217 1.04487   5
   4   4  -1 2.27124 0.94184   2
  -4   8  -1-0.14570 0.42050   1
  -4   8  -1 1.79107 0.87265   3
   8  -4  -1 0.11863 0.51321   5
   4  -8  -1-0.19580 0.58389   3
  -4  -4  -1-0.17718 0.64418   5
  -4  -4  -1-0.33582 0.66007   2
  -4  -4  -1-0.10755 0.67039   3
   4  -8  -1 0.92622 0.59427   2
   4   4  -1-0.43782 0.48040   5
  -4   8  -1 0.23196 0.70190   4
   8  -4  -1-0.03976 0.17933   4
   4   4  -1 0.42461 0.69742   4
   4  -8  -1-0.15612 0.65757   4
  -4   8  -1-0.41546 0.77024   5
  -4  -4  -1 1.26344 0.94968   4
   4   4  -1 0.42929 0.70082   1
   8  -4  -1 0.08996 0.27592   4
   8  -4  -1 0.00701 0.30331   1
  -4   8  -1 0.35792 0.50310   2
   4   4   0 539.819 9.82093   3
   8  -4   0 504.028 5.99190   3
   4   4   0 548.919 9.91478   2
  -8   4   0 541.044 8.29065   5
  -4   8   0 538.386 9.34654   3
   4  -8   0 424.539 7.71156   2
  -4  -4   0 563.137 10.2501   2
  -4  -4   0 525.476 8.52804   5
   8  -4   0 513.693 8.20506   5
  -4  -4   0 498.846 9.50864   1
   4   4   0 546.023 8.76812   5
  -4   8   0 450.779 8.00089   2
   8  -4   0 488.296 6.21641   3
  -4   8   0 520.069 9.75576   4
  -4  -4   0 492.843 9.63418   3
   4   4   0 438.820 8.90682   1
  -4   8   0 496.767 6.96422   1
   4  -8   0 519.627 10.7130   5
   8  -4   0 532.635 6.64815   4
   8  -4   0 495.455 5.46399   2
   4   4   0 567.130 9.75486   4
   4  -8   0 534.073 9.81297   4
   8  -4   0 491.786 5.27587   2
  -4  -4   0 526.960 9.90846   4
   4  -8   0 535.460 9.24227   3
   8  -4   0 539.336 5.93772   1
   8  -4   0 494.985 6.96053   4
  -4   8   0 556.115 10.8224   5
   8  -4   0 529.060 5.52554   1
  -4   8   0 541.601 7.09817   1
   8  -4   1 0.17555 0.36482   1
  -4   8   1 0.05576 0.50359   2
   8  -4   1-0.12946 0.41337   3
   4  -8   1 0.37344 0.59878   2
   4   4   1 1.09675 0.90349   2
  -4   8   1 0.67136 0.71671   3
  -8   4   1-0.02211 0.49273   5
   8  -4   1-0.24732 0.56408   5
   8  -4   1 0.03102 0.34036   1
   4   4   1 0.46648 0.64933   3
  -4  -4   1 0.29698 0.58115   2
  -4  -4   1 0.20525 0.60338   3
  -4  -4   1 0.05886 0.49026   5
   8  -4   1 0.04373 0.42579   2
   4   4   1-0.09327 0.56603   1
   4   4   1 0.15314 0.66285   5
   8  -4   1 0.43519 0.59711   3
   8  -4   1-0.24049 0.45323   4
   4   4   1 1.03277 0.80453   1
  -4  -4   1 0.07507 0.56967   1
  -4   8   1-0.21055 0.43806   1
  -4   8   1-0.16902 0.64682   4
   4  -8   1-0.13544 0.66841   4
  -8   4   1 0.53524 0.38581   1
   8  -4   1 0.14394 0.41010   2
   4   4   1-0.12549 0.73181   4
   4  -8   1 0.23145 0.64451   3
  -4  -4   1 0.09267 0.61679   4
  -4   8   1 0.13969 0.37210   1
   4  -8   1 0.61847 0.93730   5
  -4   8   1 0.06983 0.83348   5
   4  -8   1-0.14683 0.40129   1
  -4   8   2 136.909 4.43241   2
  -4  -4   2 131.332 4.98222   2
   8  -4   2 132.173 3.69472   1
  -4   8   2 110.456 5.29590   5
   4  -8   2 126.142 5.48897   5
   4   4   2 123.991 5.15343   2
   4  -8   2 139.230 5.23864   3
  -4  -4   2 98.9175 4.31605   3
   8  -4   2 115.001 4.76661   5
   4   4   2 131.827 5.43926   5
   4   4   2 134.267 5.15082   1
  -4   8   2 136.423 4.08382   1
   8  -4   2 131.921 5.19996   5
  -4  -4   2 136.591 3.57931   5
   4  -8   2 136.562 4.07115   1
   4   4   2 134.436 5.12163   1
  -4   8   2 134.193 4.73944   3
   8  -4   2 132.948 4.64006   4
   4  -8   2 111.212 4.78418   4
   8  -4   2 128.532 4.24576   2
  -4   8   2 137.106 5.06967   4
  -8   4   2 126.267 3.44161   1
  -4  -4   2 124.476 4.67031   4
   4   4   2 137.113 5.74959   4
  -4   8   2 131.703 3.93604   1
  -8   4   2 130.000 3.44433   5
  -4  -4   2 127.955 4.98849   1
   4   4   2 127.932 5.42261   3
   8  -4   2 140.226 3.95404   1
   4  -8   2 135.211 4.90560   2
   8  -4   2 138.930 4.54944   3
   4  -8   3 1.14372 0.69597   1
  -4   8   3-0.89145 1.06646   5
   4  -8   3 5.10301 1.32691   2
   8  -4   3 0.51185 0.82459   3
  -8   4   3 0.81764 0.59526   1
  -4   8   3-0.15130 0.60476   1
  -4  -4   3-0.04268 0.79611   2
   4   4   3-0.53291 0.97050   5
   8  -4   3 2.75277 1.21969   5
   4  -8   3-0.10312 0.84818   5
  -4   8   3-0.38350 0.68190   2
   4   4   3 5.08605 1.48431   1
  -8   4   3 0.59095 0.56231   5
   8  -4   3 0.17934 0.58720   1
  -4  -4   3-0.12013 0.70640   3
  -4  -4   3-0.24658 0.41318   5
   4   4   3 0.47020 0.86534   2
  -4   8   3 0.78551 0.72273   1
   8  -4   3 0.50765 1.14789   5
  -4   8   3 0.60860 0.70652   2
   4   4   3 1.15963 1.23535   2
   8  -4   3 0.70535 0.90275   4
   4  -8   3 0.13843 0.75319   3
  -4  -4   3 0.74038 1.07138   1
   4  -8   3 1.34942 1.20654   4
  -4   8   3-0.87731 0.91492   4
  -4  -4   3 0.59212 0.90003   4
   8  -4   3 0.56061 0.71668   2
   4   4   3 0.51993 1.15596   4
   4   4   3-0.06832 0.74978   1
   8  -4   3-0.81100 0.97997   4
  -4   8   3 0.12437 0.64747   3
   4   4   3 1.02326 1.04643   3
  -4  -4   4 82.1014 4.41724   2
  -8   4   4 84.3335 3.74776   1
   8  -4   4 89.3179 4.08003   1
   4  -8   4 82.7792 4.02227   1
   4   4   4 79.2466 4.66080   2
  -8   4   4 81.4940 1.89266   2
   4  -8   4 83.8718 4.69928   3
  -4   8   4 75.1409 3.64079   2
   8  -4   4 80.1048 4.83641   5
   4   4   4 83.9724 5.05269   4
  -4  -4   4 79.2124 2.68018   5
  -4  -4   4 65.0908 4.13909   1
  -8   4   4 76.6208 2.77698   5
  -4  -4   4 81.6951 2.65381   5
   8  -4   4 63.8626 4.65023   5
   4   4   4 86.2446 5.12383   5
   4   4   4 81.7697 4.70543   2
  -4   8   4 76.1355 3.61936   2
   4   4   4 95.1279 5.07834   1
   8  -4   4 77.1999 4.40764   4
  -4   8   4 77.4946 3.91959   3
   4  -8   4 88.4394 5.03163   5
   4  -8   4 89.0477 4.97015   4
   8  -4   4 78.2115 4.22433   2
  -4  -4   4 91.6105 4.16748   4
  -4   8   4 74.7170 4.07708   4
   4   4   4 79.0822 4.61177   1
  -4   8   4 81.9239 5.01641   5
   4   4   4 79.0898 4.74808   3
  -4  -4   4 86.3936 4.31509   3
   8  -4   4 82.2811 4.65397   4
   4   4   4 74.4851 4.61058   3
   4  -8   4 87.7022 4.66496   2
  -4   8   4 85.3715 3.96102   1
   8  -4   4 70.4572 4.19953   3
   4  -8   5-0.26614 1.22169   2
  -4  -4   5 2.03628 1.61936   1
   4   4   5 0.58772 1.60297   1
   8  -4   5-0.30378 1.31299   3
  -4  -4   5-0.38893 1.12462   2
  -8   4   5 0.22722 0.52694   2
  -4   8   5-0.61317 1.03931   3
   4  -8   5-0.18349 1.42140   3
   4  -8   5 2.55841 1.55051   5
  -4  -4   5-0.04986 1.05053   3
  -4   8   5-0.35105 1.10408   4
  -4   8   5 0.41340 1.60813   5
   8  -4   5 0.21023 0.96446   1
  -4   8   5-0.65076 0.98326   1
   4   4   5-0.51243 1.33595   5
   4   4   5-0.87600 1.24242   3
   4   4   5-0.12774 1.40002   2
  -4  -4   5 0.66529 0.70408   5
   8  -4   5 2.29825 1.87328   5
   4   4   5-0.93027 1.47777   4
  -8   4   5 0.44350 0.79375   5
   8  -4   5-0.66626 1.25147   4
   4  -8   5-0.11698 1.06228   1
   8  -4   5-0.98984 1.59405   5
   4   4   5-0.66359 1.27742   2
   4  -8   5-0.84733 1.39788   4
  -4   8   5 0.20845 1.23366   2
  -4  -4   5-0.56266 0.93287   4
  -8   4   5 0.43586 0.99419   1
  -4   8   5-0.51040 0.97701   2
   8  -4   5-0.57683 1.30949   2
   4   4   5-0.52298 1.33437   4
   8  -4   5 0.58748 1.42524   4
  -4   8   5 0.62121 1.05109   3
   4   4   5 0.50820 1.53410   3
  -4  -4   5-0.38799 0.66085   5
   8  -4   6 134.653 7.02669   3
  -4   8   6 118.608 5.69161   1
   4  -8   6 123.688 6.71959   3
  -4   8   6 121.197 5.52231   3
  -4  -4   6 130.368 4.16177   5
  -4   8   6 134.018 7.24057   5
   8  -4   6 119.256 7.00640   5
  -4  -4   6 109.268 5.81156   3
   4  -8   6 123.603 6.74668   4
   4   4   6 105.215 6.42057   3
  -4  -4   6 130.156 4.08919   5
   8  -4   6 119.234 7.21867   5
  -8   4   6 123.982 4.30247   5
   4  -8   6 114.486 6.60689   5
   4  -8   6 119.373 6.51190   5
   4   4   6 132.446 6.94902   2
   4   4   6 113.612 6.59053   4
   8  -4   6 119.804 6.56645   4
   4   4   6 131.197 6.86505   2
  -4   8   6 111.344 5.54214   2
  -4  -4   6 128.562 5.51865   4
  -4   8   6 117.219 5.99393   4
   8  -4   6 127.099 6.76174   2
  -4  -4   6 59.6764 5.67910   1
   4   4   6 120.422 6.96148   4
   8  -4   6 133.918 6.17098   1
  -4   8   6 131.723 5.60121   2
   4   4   6 133.859 7.68366   5
   8  -4   6 100.028 6.32791   4
   4  -8   6 126.579 6.65606   2
   4   4   6 114.177 6.48356   1
  -8   4   6 126.054 5.89354   1
   4  -8   6 112.445 5.73500   1
  -4   8   6 125.593 5.53075   3
   4   4   6 110.243 6.28256   3
  -8   4   6 131.913 4.23457   2
  -4  -4   6 92.1447 6.07181   2
   4   4   7 3.02444 2.53123   3
   4  -8   7-0.04132 1.94562   2
  -4   8   7-0.39498 1.70087   3
  -8   4   7 0.34360 1.21318   2
   8  -4   7 2.89154 2.35173   3
  -4  -4   7 2.53872 2.14214   2
   4  -8   7 0.45983 2.23899   3
   4  -8   7 0.25196 2.17318   5
  -4   8   7-0.25336 1.66506   2
   4   4   7-0.68779 2.34139   1
  -4  -4   7-0.22606 1.13242   5
  -8   4   7-0.54729 1.33813   5
  -4   8   7-0.67290 2.30321   5
  -8   4   7 0.15132 0.30942   3
  -4   8   7-0.72132 1.72153   3
   8  -4   7 0.42724 2.66233   5
  -4  -4   7 0.54099 1.18077   5
   4   4   7-0.30530 2.38528   3
   4   4   7-1.17000 2.06486   2
   8  -4   7 1.20639 2.57334   5
   4  -8   7-0.41916 2.11332   5
   8  -4   7 1.54418 2.77853   3
   4   4   7-0.10327 2.63105   5
  -8   4   7 0.63476 2.05470   1
  -8   4   7 0.20637 1.19649   5
   4  -8   7-0.95764 2.10749   1
  -4   8   7-0.69182 1.79655   4
   4   4   7-0.25472 2.11533   4
  -4   8   7-0.22491 1.87197   1
   8  -4   7-0.29902 2.09161   4
   8  -4   7-0.86532 2.09309   1
   4  -8   7-0.20932 2.32252   4
   4   4   7 2.73557 2.50964   2
  -4   8   7-0.05720 1.69567   2
  -4   8   7-0.26134 1.91069   4
   4   4   7-0.79781 2.58051   4
   8  -4   7-1.28290 2.55866   2
   8  -4   7-0.89193 2.39891   4
  -4  -4   7 0.53019 2.10668   1
  -4  -4   7 1.37400 1.79803   4
  -4  -4   7 0.37315 1.97737   3
   5   3  -7 2.24317 1.77508   3
  -3   8  -7 4.24835 2.36418   3
   8  -5  -7 4.02074 2.19798   1
   3   5  -7 4.67281 2.25502   3
  -5   8  -7 4.46887 2.45988   1
  -3  -5  -7 2.43151 3.26744   5
   3   5  -7 5.90446 2.63279   1
   8  -3  -7 1.78674 1.53315   2
   5  -8  -7 1.30919 2.28399   5
   3  -8  -7 0.81062 2.47583   5
   8  -5  -7 2.21016 1.62068   5
   5   3  -7 4.50131 1.57337   4
  -5   8  -7 4.14162 2.78645   4
   3   5  -7 3.52226 1.85541   4
  -3  -5  -7 4.69666 2.48585   1
   8  -3  -7 3.30999 2.36336   1
  -3   8  -7 4.03746 2.25091   4
  -8   3  -7 0.04309 2.22640   2
  -8   5  -7 3.62367 2.50170   2
  -8   3  -7 1.73902 2.13977   1
  -5  -3  -7 4.43703 2.43879   1
   5   3  -7 3.21704 2.26156   1
   3  -8  -7 4.81789 2.30815   1
  -5   8  -7 4.61468 2.35662   2
   5  -8  -7 2.08772 1.90780   1
  -3   8  -7 5.78323 2.80024   2
   5   3  -7 3.81361 2.17914   2
   3   5  -7 4.17276 2.68942   2
  -8   5  -7 4.75802 2.50705   1
  -5  -3  -7 1.49513 2.55650   5
  -8   5  -7 1.25501 2.13578   3
  -3   8  -7 1.86037 2.36691   1
  -5   8  -7 2.04655 2.12969   3
  -5   8  -6 5.89762 2.10045   3
   5   3  -6 6.91543 1.75775   3
  -3   8  -6 3.94902 1.93603   3
   3   5  -6 10.2112 2.09327   3
   8  -5  -6 8.95514 2.21176   1
   5  -8  -6 4.75735 2.33585   5
  -5   8  -6 9.54704 2.21045   1
   8  -3  -6 5.67668 1.78301   1
   5   3  -6 6.63953 2.18425   1
   3  -8  -6 4.15074 2.41557   5
  -3  -5  -6 10.0903 3.10614   5
   8  -5  -6 8.11474 1.68651   5
  -5  -3  -6 2.01089 1.79480   5
   5   3  -6 7.80399 1.46179   4
  -8   3  -6 4.12880 1.83357   2
  -3   8  -6 8.00731 2.10722   4
   3   5  -6 5.17901 1.86355   1
  -8   5  -6 4.90897 2.13737   2
   8  -3  -6 5.43381 1.26529   2
  -3   8  -6 11.5209 2.46766   1
  -3  -5  -6 4.80873 2.14497   1
  -5  -3  -6 14.6889 3.15654   1
   3  -8  -6 6.50767 2.33539   1
   3   5  -6 9.02828 1.84961   4
  -5   8  -6 5.61391 2.32291   2
  -8   3  -6 8.18392 2.14842   1
   5  -8  -6 3.12432 1.65408   1
  -3   8  -6 1.26178 1.88275   2
   5   3  -6 4.60399 1.83094   2
   3   5  -6 4.97331 2.08385   2
  -8   5  -6 6.00755 1.96543   1
  -5   8  -6 6.51190 2.24915   4
   3  -8  -6 4.52188 1.86896   4
  -8   5  -6 7.91626 2.14355   3
  -5   8  -5 3.35797 1.59410   3
  -3   8  -5 3.12624 1.60369   3
  -5  -3  -5 1.21969 1.62110   5
   5   3  -5 0.75141 1.05372   3
   3   5  -5 0.86162 1.13801   3
   8  -5  -5 3.25202 1.20024   1
  -5   8  -5 1.82057 1.44589   4
  -3   8  -5 0.11531 1.26168   5
  -5   8  -5 0.24585 1.11315   1
   8  -3  -5 0.75672 1.00032   1
  -8   3  -5 4.19728 1.48872   1
   5  -8  -5 1.76274 1.57761   5
   3  -8  -5 3.65104 2.08418   5
   8  -5  -5 1.54798 1.06932   5
  -3   8  -5 1.00241 1.07576   1
  -3  -5  -5 0.29939 1.77326   5
  -8   3  -5 0.81525 1.30440   2
   5   3  -5 1.79033 1.04085   4
  -5   8  -5 1.72577 1.56725   5
   3   5  -5 0.88200 0.99016   4
  -8   5  -5 3.15918 1.82286   2
  -5  -3  -5 4.50013 1.90850   1
   8  -3  -5 1.60972 0.80548   2
   3  -8  -5 3.28273 1.51176   1
  -3   8  -5-0.70708 1.16669   4
   5   3  -5 0.08523 1.23105   1
   5  -8  -5 1.30119 1.12923   1
   3   5  -5 5.28128 1.59745   1
  -5   8  -5 1.88871 1.28787   2
  -3   8  -5 1.75467 1.48798   2
  -8   5  -5 1.11575 1.17862   1
   5   3  -5 1.60084 1.24383   2
   3   5  -5 0.33860 1.21350   2
   3  -8  -5 3.46741 1.71772   4
   5  -8  -5 2.29340 1.30362   4
  -3  -5  -5 0.97451 1.53779   4
  -8   5  -5 3.23932 1.74945   3
  -3   8  -4 25.1711 2.76352   3
  -5   8  -4 28.4059 2.42450   1
   5   3  -4 32.8029 2.51940   3
   3   5  -4 18.2685 2.30933   3
   8  -3  -4 26.9132 2.25140   1
  -8   3  -4 26.3493 2.73627   2
  -3  -5  -4 25.1713 2.92407   5
  -5   8  -4 24.3725 2.78616   5
  -3   8  -4 26.5658 2.39365   1
   5   3  -4 27.1653 1.96740   4
   3  -8  -4 25.1948 3.04759   5
  -8   5  -4 25.5872 2.21052   1
   5  -8  -4 21.1795 2.01343   1
  -3   8  -4 20.2719 2.45395   5
   8  -5  -4 25.9148 2.10479   5
  -5  -3  -4 28.1722 3.11310   5
   3   5  -4 27.6060 2.76184   1
  -8   5  -4 26.6111 2.62387   4
  -8   3  -4 24.6054 2.32622   1
  -8   5  -4 29.6457 2.81421   2
  -5   8  -4 16.9146 2.26410   4
  -3   8  -4 27.5083 2.73312   4
   8  -3  -4 22.5063 1.44065   2
   3   5  -4 30.3100 2.49692   4
   3  -8  -4 25.6234 2.46770   3
   5  -8  -4 21.6881 2.70672   5
  -5   8  -4 23.3343 2.74598   2
   5   3  -4 24.1364 2.50090   1
  -3   8  -4 21.1575 2.49084   2
   5   3  -4 24.7918 2.46938   2
   3   5  -4 25.2873 2.60203   2
   3  -8  -4 32.2480 2.95929   4
   5  -8  -4 26.4601 2.54364   4
  -3  -5  -4 25.1324 2.97914   4
   8  -5  -4 26.2924 2.10303   1
  -8   5  -4 22.4442 2.58007   3
  -5   8  -4 32.8764 3.08028   3
   3   5  -3 3.24769 1.15619   2
  -5   8  -3 2.17326 1.02918   3
   5   3  -3 6.01549 1.30804   1
   3   5  -3 5.53651 1.43291   1
  -3   8  -3 4.66939 1.43711   3
   5   3  -3 3.71686 0.98868   3
   3   5  -3 5.06631 1.28733   3
   3   5  -3 3.64533 0.77491   5
  -5   8  -3 2.07586 1.18196   5
  -3   8  -3 1.41672 0.90973   5
  -3  -5  -3 3.44695 1.39794   4
   8  -5  -3 4.14712 0.94987   5
   5  -8  -3 4.07266 1.35152   5
  -3  -5  -3 3.56450 1.28212   5
   3  -8  -3 3.53538 1.07537   3
   5  -8  -3 3.19321 0.95633   3
  -3  -5  -3 4.72427 1.57952   3
   3  -8  -3 4.69483 1.61602   5
  -8   5  -3 4.61329 1.17155   4
  -5   8  -3 5.01491 1.32033   4
  -8   5  -3 3.07543 1.07438   2
   8  -3  -3 4.11683 0.52367   2
   8  -3  -3 3.45786 0.87317   1
  -3   8  -3 3.51030 1.15345   4
   5   3  -3 2.51172 0.78186   4
   3   5  -3 4.04247 1.04882   4
  -8   5  -3 1.78082 0.69552   1
  -3   8  -3 3.74357 1.00498   1
  -5  -3  -3 2.29015 1.27096   5
  -5   8  -3 4.35028 1.15749   2
   5  -8  -3 2.60240 1.09481   4
   3  -8  -3 4.87484 1.34799   4
  -3   8  -3 3.97978 1.21219   2
  -5  -3  -3 1.62601 1.21936   4
   8  -5  -3 5.01053 0.87190   1
   5   3  -3 2.98581 1.03454   2
  -8   5  -3 2.14295 0.95615   3
  -5   8  -3 3.41954 0.90956   1
  -5   8  -2 93.3020 4.26538   3
  -3   8  -2 97.8202 4.45550   3
   3   5  -2 81.0295 3.89208   3
   5   3  -2 97.7593 3.89430   3
  -8   5  -2 97.7225 4.45681   5
  -3  -5  -2 73.5148 4.21017   2
   5   3  -2 87.3646 1.79451   5
  -5   8  -2 89.6136 4.41832   5
  -5   8  -2 89.7077 3.17107   1
   8  -5  -2 81.3474 3.43695   5
   3  -8  -2 92.2003 4.95420   5
   5  -8  -2 68.0155 4.19522   5
   8  -3  -2 86.7964 2.41267   5
   5  -8  -2 87.4566 3.60765   3
   3  -8  -2 90.9524 4.12755   3
   3  -8  -2 88.3904 3.86378   2
  -3  -5  -2 80.2144 4.26583   5
   5  -8  -2 85.1511 3.19142   2
  -5  -3  -2 96.2823 4.35664   5
   8  -3  -2 92.3628 1.94378   2
  -5  -3  -2 79.7898 4.36345   3
  -8   5  -2 90.0387 3.63642   2
  -3  -5  -2 79.9908 4.32567   3
   5   3  -2 93.5445 4.02533   2
  -3   8  -2 91.1973 3.64330   1
  -5   8  -2 78.2861 3.92138   4
  -3   8  -2 94.3928 4.37847   4
   3   5  -2 82.2479 3.84178   4
   5   3  -2 99.2648 3.62142   4
  -8   5  -2 93.2120 3.91231   4
   8  -3  -2 88.9533 1.87018   2
  -5   8  -2 94.0959 4.06385   2
   5  -8  -2 84.3692 4.05030   4
   3  -8  -2 97.6728 4.63399   4
  -3   8  -2 77.5926 4.21482   5
   8  -3  -2 93.8583 3.25208   1
  -3   8  -2 95.1955 4.25358   2
  -3  -5  -2 89.6969 4.73287   4
  -5  -3  -2 82.3721 4.32184   4
   5   3  -2 82.2771 3.99540   1
   3   5  -2 93.3644 4.28786   1
   3   5  -2 82.9744 4.02643   2
  -8   5  -2 87.5549 3.72580   3
   3   5  -2 90.4866 3.20335   5
   8  -5  -2 88.2222 2.49038   1
   8  -5  -1 43.8029 1.23116   1
  -5   8  -1 47.8957 2.90710   3
   3   5  -1 45.2549 2.44719   5
  -3   8  -1 40.6251 2.84023   3
   5   3  -1 42.1739 2.81725   1
   3   5  -1 40.9971 2.80742   1
   3   5  -1 39.7385 2.75778   3
   5   3  -1 49.6948 2.80733   3
   5  -8  -1 51.6180 3.43730   5
   8  -3  -1 44.5606 1.19811   3
  -3   8  -1 44.7043 3.11859   5
   5  -8  -1 50.4200 2.39830   2
   8  -5  -1 44.4827 2.55425   5
   5   3  -1 47.0570 1.95437   5
   5  -8  -1 48.4968 2.67896   3
  -8   5  -1 40.7616 2.64673   5
  -3  -5  -1 50.7923 3.22102   2
   3  -8  -1 46.9397 3.37551   5
  -3  -5  -1 52.2479 3.40062   3
  -5  -3  -1 47.5899 3.13074   3
  -5   8  -1 51.9555 2.09339   1
  -5  -3  -1 42.0779 2.65368   5
   3  -8  -1 47.0467 2.91231   3
  -8   5  -1 47.7527 2.19433   2
  -8   5  -1 47.8448 2.55570   4
   8  -5  -1 44.6628 1.33689   1
   8  -3  -1 44.9844 1.60049   2
  -5   8  -1 38.9180 2.70171   4
  -3   8  -1 50.8289 3.19538   4
   8  -3  -1 43.3844 1.15562   4
   8  -3  -1 43.4397 2.00730   5
   3   5  -1 50.8371 2.96493   4
   5   3  -1 49.2034 2.60612   4
   8  -5  -1 46.2864 1.66468   4
   8  -3  -1 43.1256 2.05842   1
   5  -8  -1 49.0293 2.95908   4
   3  -8  -1 48.8983 3.16037   4
   8  -3  -1 44.1917 1.29356   4
  -3  -5  -1 33.7072 2.67375   5
  -3   8  -1 45.8379 2.45715   1
  -5   8  -1 48.9957 2.71539   2
  -3  -5  -1 38.2395 2.95551   4
  -5  -3  -1 47.2388 3.11938   2
  -5  -3  -1 32.8943 2.70267   4
   3  -8  -1 48.5246 2.73143   2
  -3   8  -1 42.0726 2.68085   2
  -8   5  -1 39.9148 2.24535   3
   8  -3  -1 43.1107 1.47362   2
  -5   8  -1 45.7792 3.20746   5
   3   5  -1 39.9423 2.75051   2
   5   3  -1 46.6915 2.85639   2
   8  -3  -1 43.8472 1.19884   3
  -5   8   0 4.84457 0.62716   1
   3   5   0 4.16157 1.15519   2
   8  -3   0 6.89556 0.85295   3
   5   3   0 5.82159 1.16792   2
   8  -5   0 5.77638 0.70650   3
  -5   8   0 6.33912 1.11389   3
  -3  -5   0 7.24131 1.31013   5
   5  -8   0 4.45171 0.88048   2
  -5  -3   0 4.37174 1.13433   1
   3  -8   0 4.60043 0.98418   2
   8  -3   0 4.59464 0.68051   2
  -3   8   0 5.40489 0.98519   1
  -8   5   0 5.84257 1.07181   5
  -3   8   0 5.90899 1.19793   3
  -3  -5   0 2.31753 0.94612   2
   5   3   0 6.11678 1.15544   3
   5  -8   0 5.67909 1.03751   3
  -3   8   0 5.24113 1.20198   5
   3   5   0 5.05889 1.10847   5
   8  -5   0 4.87848 0.97771   5
  -3  -5   0 7.32684 1.37292   3
   5   3   0 4.62146 0.88971   5
  -5  -3   0 6.36427 0.96954   5
   3  -8   0 4.19965 1.06522   3
  -5  -3   0 5.45783 1.10184   2
   5  -8   0 5.05784 1.30132   5
   3   5   0 5.17835 1.10371   1
   3  -8   0 3.21155 1.15792   5
   5   3   0 8.05272 1.33071   1
   8  -3   0 4.84234 0.87050   5
   8  -5   0 4.75359 0.33492   1
  -8   5   0 6.29501 0.85977   4
   8  -3   0 5.70870 0.85251   1
   8  -3   0 6.02970 0.76543   4
   8  -3   0 6.06739 0.78309   2
   3   5   0 5.25175 1.19876   3
  -5   8   0 4.48007 1.12465   4
   8  -5   0 6.08991 0.86916   4
  -3   8   0 7.41268 1.31197   4
  -5  -3   0 5.95445 1.32635   3
   8  -5   0 4.85553 0.53831   2
   5  -8   0 6.06252 1.14147   4
   8  -3   0 5.14496 0.79177   1
  -3  -5   0 4.65230 1.07979   1
   3  -8   0 7.11562 1.28655   4
   3   5   0 5.00178 1.13257   4
   3  -8   0 5.76100 0.99113   1
  -5   8   0 5.67066 0.68362   1
   5   3   0 4.70154 1.02937   4
  -5   8   0 6.34482 1.30858   5
   8  -5   0 4.41353 0.47694   2
   8  -3   0 6.20249 0.86908   4
  -3  -5   0 2.59356 1.02711   4
  -5   8   0 4.84554 0.94208   2
  -5  -3   0 3.92702 0.94664   4
   8  -5   0 5.25737 0.36721   1
  -3   8   0 6.09341 1.12825   2
   8  -3   0 4.91488 0.83551   5
   8  -3   0 5.82199 0.71182   3
   8  -5   1 47.2978 1.52546   1
   8  -5   1 43.2608 2.26792   3
   3  -8   1 37.2350 2.53778   2
   3   5   1 51.9440 3.28026   2
   5   3   1 38.0002 2.84628   2
  -5   8   1 37.3477 2.37872   3
  -5   8   1 39.8812 1.81488   1
  -5   8   1 46.4732 3.25095   5
  -5  -3   1 44.0291 2.82259   3
  -3  -5   1 40.3784 2.76484   2
  -3   8   1 42.9164 2.84963   3
  -5  -3   1 45.2619 1.92768   5
   5   3   1 49.4604 3.01213   1
   3  -8   1 39.1562 2.26908   1
   3  -8   1 40.2388 2.80547   3
  -3   8   1 53.1269 3.59386   5
   3   5   1 45.1636 3.12549   3
   5  -8   1 39.6307 3.09698   5
   8  -3   1 36.9811 2.17495   2
   3   5   1 38.5817 2.78197   5
  -3  -5   1 46.0427 2.69301   5
  -5  -3   1 47.4829 2.92535   1
  -3  -5   1 48.8351 3.04281   1
  -8   5   1 46.1488 2.50126   5
   5   3   1 41.5064 2.91577   4
   5  -8   1 49.6421 1.97787   1
   8  -3   1 44.5217 2.47098   3
   5   3   1 48.8545 3.08355   3
   8  -3   1 45.0155 2.75150   5
  -8   5   1 46.3844 1.69366   4
   5  -8   1 43.3075 2.74459   3
   3   5   1 44.7587 2.91851   1
   8  -3   1 40.8105 2.27967   4
  -3   8   1 45.2548 2.39428   1
   8  -3   1 49.8479 2.42400   2
   8  -5   1 45.1388 2.41958   4
  -3   8   1 48.0061 2.48819   1
   8  -3   1 45.7697 2.64088   5
  -5   8   1 46.6662 2.93287   4
  -3   8   1 53.5679 3.21690   4
   8  -3   1 42.8455 2.21239   1
   5  -8   1 36.0412 2.62913   4
   8  -5   1 42.6917 1.50128   1
   3  -8   1 41.2642 2.96797   4
  -5   8   1 49.5290 1.89521   1
   3   5   1 36.8485 2.88324   4
   8  -5   1 45.3438 2.04155   2
  -3  -5   1 42.6417 2.96636   4
  -3  -5   1 41.7030 2.97333   3
  -5  -3   1 46.4259 2.80317   4
   8  -5   1 37.5626 2.61677   5
   8  -3   1 46.7998 2.16877   1
   5   3   1 47.6321 2.91302   5
   8  -3   1 33.6493 2.22787   4
   3   5   1 47.8455 3.00928   1
   5   3   1 42.8155 2.81435   1
  -5   8   1 44.7428 2.31700   2
  -8   3   1 50.3218 2.24841   1
   3  -8   1 44.0710 3.17294   5
   8  -3   1 47.0786 2.37687   3
  -3   8   1 38.8692 2.49712   2
  -5  -3   1 47.8677 2.93473   2
   5  -8   1 47.8735 2.60365   2
   8  -5   2 77.7275 3.48897   3
  -3   8   2 87.1069 3.75192   2
   8  -5   2 85.2034 2.67552   1
   3  -8   2 90.3627 4.36676   3
  -3  -5   2 92.6984 4.29904   2
   8  -3   2 78.2748 4.00406   5
  -5  -3   2 88.6135 3.97619   2
   3   5   2 91.0377 4.46312   2
   5  -8   2 80.8571 4.04818   3
  -8   3   2 84.0506 2.12643   5
   8  -5   2 83.1200 3.34982   2
   5   3   2 89.5348 4.29896   2
  -8   5   2 72.7877 3.07515   5
   8  -3   2 88.2195 4.06494   5
  -3   8   2 94.9096 4.15944   3
  -3  -5   2 92.7273 4.21590   3
   5  -8   2 104.592 4.92814   5
  -5   8   2 93.9617 4.77914   5
   3   5   2 69.0658 3.98207   3
  -3   8   2 87.7785 4.78361   5
  -5  -3   2 84.4523 3.90028   3
   5   3   2 75.0964 4.16995   3
  -3  -5   2 90.6171 4.25989   1
   3   5   2 96.5083 4.77634   5
  -3  -5   2 93.0170 3.64150   5
   3   5   2 98.6479 4.50547   1
  -3   8   2 91.9177 4.31609   4
   5   3   2 86.5197 4.31243   5
   8  -3   2 92.0386 3.89859   2
  -5   8   2 85.4883 2.89633   1
  -5  -3   2 86.0275 1.84343   5
   8  -3   2 84.3510 3.78044   3
   5  -8   2 85.0430 2.99852   1
   5   3   2 70.7490 3.90817   2
   3  -8   2 98.6806 4.77805   5
   5   3   2 91.0297 4.25021   1
   8  -3   2 95.5780 3.94264   4
   8  -5   2 100.748 4.60946   5
   3   5   2 87.4465 4.16928   1
   8  -5   2 83.0881 2.69425   1
   8  -5   2 95.6110 4.00191   4
   5   3   2 87.5994 4.13062   1
   8  -3   2 92.9489 3.84726   2
   5  -8   2 90.2437 4.37397   4
  -5   8   2 91.5314 3.99513   4
   3  -8   2 88.9697 3.57117   1
  -3   8   2 90.5245 3.55048   1
   3  -8   2 88.6631 4.34746   4
  -8   5   2 89.7929 2.50444   1
  -3   8   2 87.4554 3.60523   1
  -3  -5   2 78.1249 3.90115   4
   3   5   2 84.7797 4.51838   4
   5   3   2 90.9231 4.60096   4
  -5  -3   2 91.3011 3.79018   4
   8  -3   2 85.3900 3.45471   1
  -5   8   2 73.9551 3.33228   3
  -8   3   2 96.5381 3.31799   1
   8  -3   2 98.1824 3.44338   1
  -5  -3   2 94.4461 4.26182   1
   8  -3   2 92.1777 4.07522   4
  -5   8   2 88.2403 2.97086   1
   5  -8   2 91.4925 3.91181   2
   8  -3   2 92.9345 3.79183   3
  -5   8   2 85.6165 3.19523   2
   3  -8   2 93.1372 4.18249   2
  -3   8   3 1.92511 0.82251   1
   5  -8   3 2.77189 0.95097   2
   3   5   3 6.30243 1.53464   1
   8  -3   3 2.72785 1.00843   3
  -3  -5   3 7.49741 1.53558   2
  -5  -3   3 5.35590 1.11732   3
  -8   3   3 3.85570 0.51761   2
   3  -8   3 2.54294 1.19426   2
   8  -5   3 4.68966 1.16138   3
  -5  -3   3 2.65051 1.03582   2
  -3   8   3 3.21516 1.06419   3
   5   3   3 2.58426 1.24831   1
   3  -8   3 4.83891 1.06514   1
  -5   8   3 3.30551 0.95246   1
   5  -8   3 3.04561 1.05914   3
   8  -5   3 1.21045 1.09648   5
   3  -8   3 2.19530 1.26026   3
  -5   8   3 3.29002 0.86627   1
   5  -8   3 5.84501 1.48924   5
   3  -8   3 6.11319 1.47314   5
  -8   5   3 2.03268 0.69276   5
  -3  -5   3 3.57092 0.90176   5
   3   5   3 3.11108 1.24380   2
  -3   8   3 4.39000 1.08534   2
   3   5   3 7.42583 1.87104   5
   3   5   3 4.58675 1.39906   3
  -5   8   3 2.98558 0.82048   2
   5   3   3 3.99795 1.25510   5
   5   3   3 5.86458 1.61439   2
   5   3   3 4.41210 1.53786   3
   8  -3   3 2.26883 1.15246   5
  -8   3   3 3.30248 0.37558   5
   8  -3   3 4.32439 1.11084   1
   8  -3   3 4.44383 1.41715   5
   8  -3   3 4.14475 1.24601   3
  -3   8   3 2.79375 0.99866   1
   8  -5   3 2.88577 1.22492   5
   8  -3   3 2.58107 0.97724   2
   8  -5   3 3.97389 0.85767   1
  -8   3   3 2.33196 0.80262   1
   5   3   3 6.03936 1.54715   2
  -3   8   3 1.95136 0.81170   2
   3   5   3 2.02092 0.90760   2
   8  -3   3 3.77272 1.18532   4
  -5   8   3 3.88624 0.91676   2
   8  -5   3 4.99823 1.17752   4
  -5   8   3 5.06113 1.41544   5
  -3  -5   3 4.04592 1.23040   1
   5  -8   3 3.99825 1.32089   4
  -5  -3   3 4.68922 1.21482   1
   3  -8   3 3.46322 1.29153   4
  -5   8   3 1.98449 0.88379   4
   8  -3   3 3.91930 1.15255   2
  -3   8   3 5.16491 1.34712   4
  -3  -5   3 6.01785 1.36451   3
  -5  -3   3 3.14747 0.92486   4
   3   5   3 1.85115 1.29560   4
  -5   8   3 3.58849 0.86836   3
   5   3   3 2.93607 1.22784   4
  -3  -5   3 4.01359 1.10287   4
   8  -5   3 3.68994 1.05372   2
   3   5   3 6.64529 1.57403   1
   8  -3   3 0.51614 0.86671   4
   5   3   3 5.87696 1.38582   1
   5  -8   3 3.93575 0.93234   1
  -8   5   3 3.92246 0.80097   1
  -3   8   3 3.46146 1.48413   5
   5   3   3 1.58391 1.19338   3
  -3  -5   4 17.2423 2.33028   2
   8  -5   4 24.9231 2.62483   3
  -5  -3   4 24.6528 2.43333   2
  -5   8   4 24.2684 2.11143   1
   3  -8   4 24.7758 2.70418   5
   3   5   4 21.9269 2.92409   5
  -8   3   4 26.7765 1.53837   2
  -5   8   4 23.6235 1.95962   2
   5  -8   4 24.0500 2.60494   3
   3  -8   4 24.2140 2.77478   3
  -3   8   4 29.0223 2.50950   2
   3  -8   4 22.7371 2.31883   1
   8  -3   4 26.7396 2.97204   5
  -8   3   4 24.1523 0.87538   5
   8  -5   4 26.4202 2.24181   1
  -8   3   4 25.6179 2.22536   1
   8  -5   4 31.0335 3.15082   5
  -5   8   4 28.0659 2.25810   3
   5  -8   4 26.6929 2.97786   5
  -3   8   4 30.9857 2.64124   3
  -5   8   4 21.8662 2.74284   5
  -3  -5   4 21.8498 1.86715   5
  -8   5   4 24.6524 1.99481   5
  -3   8   4 26.4134 3.02689   5
   3   5   4 24.5784 2.78476   3
  -3  -5   4 23.0645 2.30308   4
   5   3   4 30.0393 3.04095   3
  -3  -5   4 25.0991 2.61938   1
   8  -3   4 23.3280 2.89922   5
   8  -5   4 26.5911 3.11480   5
   3   5   4 25.3540 2.73613   2
  -3  -5   4 27.2764 1.89153   5
  -3  -5   4 27.9223 2.63124   3
   3   5   4 22.5419 2.62151   1
   5   3   4 23.2916 2.72650   4
   3   5   4 28.2352 2.90881   2
  -3   8   4 27.0251 2.42087   2
   5   3   4 20.1382 2.46139   2
   8  -3   4 26.9329 2.76048   4
  -5   8   4 19.6672 1.86493   2
   8  -5   4 32.0309 2.87666   4
   5  -8   4 20.0705 2.55973   4
   8  -3   4 12.9052 2.12761   2
  -5   8   4 24.9498 2.40170   4
   3  -8   4 20.2529 2.49346   4
  -5  -3   4 21.4759 2.24574   3
  -3   8   4 30.2157 2.83431   4
  -5  -3   4 28.4731 2.21306   4
   5   3   4 25.8785 2.87106   2
   8  -5   4 24.4987 2.50044   2
   3   5   4 21.1828 2.60769   1
   8  -3   4 26.3654 2.67985   3
   3   5   4 21.7415 2.88238   4
   5   3   4 24.4721 2.67166   1
   5   3   4 22.9310 2.87507   4
   8  -3   4 28.8672 2.91097   4
  -3   8   4 26.5320 2.41316   1
   5  -8   4 26.2074 2.66156   2
  -5   8   4 24.7411 2.04809   3
   3   5   4 23.0809 2.79750   3
   5   3   4 23.8323 2.80182   3
   5   3   4 26.7017 2.80677   1
   5   3   4 28.0927 3.03466   5
   3  -8   4 20.1445 2.41162   2
  -8   5   4 28.4223 2.17477   1
   8  -3   4 27.4376 2.45522   1
   5  -8   4 32.6526 2.41516   1
   8  -3   4 27.4871 2.66554   3
  -5  -3   4 28.0975 2.72492   1
   3  -8   5 2.23663 1.78892   2
   8  -3   5 1.56916 1.47428   3
  -3  -5   5 0.30033 1.18620   3
   3   5   5 0.18595 1.38342   1
  -3  -5   5 0.53510 1.39269   1
  -5  -3   5 1.38055 1.13694   1
   5   3   5 0.24801 1.41664   1
   8  -5   5 1.62445 1.45945   3
   8  -3   5 0.75362 1.40972   5
  -5   8   5 1.19083 1.04892   3
  -8   5   5 0.67556 0.42390   2
  -3  -5   5 1.08070 1.47914   2
  -5  -3   5 1.85160 1.36116   2
  -8   3   5 0.33018 0.64715   2
   3  -8   5 1.81641 1.70403   5
   5  -8   5-0.03380 1.21688   5
   3  -8   5 1.36761 1.51075   3
   8  -5   5 1.55848 1.55444   5
  -5  -3   5 1.77226 1.24896   3
  -3   8   5 0.80139 1.06744   1
  -3   8   5 1.52652 1.27116   3
   8  -3   5 1.40996 1.09929   1
  -8   5   5 0.17748 0.88379   5
   5   3   5 0.25382 1.32767   5
  -5   8   5 2.34913 1.81481   5
   3   5   5-0.35547 1.46776   3
   3   5   5 3.98232 1.81457   2
   5   3   5 0.38753 1.53366   2
   5   3   5 2.86517 1.95392   3
  -8   5   5 1.67161 1.13373   1
  -3   8   5 1.56737 1.60054   5
  -8   3   5 1.81218 0.40634   5
   8  -3   5-0.10960 1.32729   5
   5  -8   5 0.97817 1.28066   3
  -3  -5   5 1.62046 0.93721   5
   8  -3   5 1.59226 1.54914   3
  -5   8   5 0.16740 0.93063   1
   5  -8   5 1.77850 1.19352   1
   5   3   5 0.62252 1.26250   4
  -8   5   5 2.37090 0.55844   2
   8  -3   5 5.46237 1.85239   4
   8  -5   5 1.38316 1.20135   4
  -3   8   5 0.02300 1.07924   2
   8  -5   5 1.05952 1.09788   1
   3   5   5 2.29701 1.45929   5
   3   5   5 6.88670 2.04780   2
  -3   8   5 1.57929 1.23962   2
   5  -8   5 1.11106 1.47508   4
   5   3   5-0.35340 1.44949   2
   3  -8   5 1.77266 1.66190   4
  -5   8   5 2.45460 1.15353   2
  -3  -5   5 3.03757 1.41704   4
   3  -8   5 1.20533 1.10230   1
  -5  -3   5 1.28800 1.00093   4
  -5   8   5 2.92884 1.31606   4
  -3   8   5 0.24957 1.24550   4
   8  -3   5 0.65629 1.59635   2
  -8   3   5 0.49434 1.23372   1
   3   5   5 5.18675 1.94702   4
   5   3   5 1.69889 1.52642   4
   8  -5   5-0.53188 1.37255   2
  -3  -5   5 1.86038 0.94947   5
   8  -5   5 1.15345 1.69434   5
  -5   8   5 1.13381 0.91759   2
   8  -3   5 5.20129 1.88612   4
  -3   8   5 1.28844 1.23447   3
   3   5   5 1.59598 1.49354   3
  -5   8   5 0.82751 0.97269   3
  -8   3   5 0.41268 0.32362   5
   5   3   5 1.48975 1.78202   3
   5  -8   5 1.48882 1.40954   2
   3  -8   6 3.06185 1.89389   2
   8  -3   6 3.45303 1.82507   3
   5  -8   6 7.52114 2.17962   3
   3   5   6 10.8464 2.85404   4
   8  -5   6 3.68712 2.06400   3
  -3  -5   6 7.33215 2.08811   2
  -8   3   6 5.22919 1.32614   2
  -5  -3   6 3.34481 1.88601   2
  -8   3   6 6.50919 0.84295   5
   3   5   6 3.00964 1.82231   1
  -8   5   6 5.98531 1.61551   5
  -5  -3   6 5.54297 0.61726   5
   5  -8   6 8.41121 2.56655   5
  -8   3   6 7.18309 2.09023   1
   8  -5   6 10.9524 2.82856   5
   3  -8   6 6.37163 2.09190   5
   8  -3   6 7.76378 2.47302   3
  -5   8   6 3.72274 2.16402   5
   5  -8   6 7.48353 2.28744   4
  -5   8   6 7.70542 1.69320   3
  -5   8   6 5.34313 1.60941   4
  -8   5   6 8.94878 1.20959   2
  -3   8   6 5.21770 1.78971   3
  -3   8   6 6.80069 2.54652   5
   3  -8   6 5.96256 1.97041   3
  -5   8   6 4.92215 1.46444   2
  -8   5   6 5.17626 1.76152   1
  -3  -5   6 5.76916 1.42754   5
   5   3   6 4.41394 2.50323   5
   3   5   6 8.53208 2.26199   3
   5   3   6 8.90791 2.59326   1
   5   3   6 5.42382 2.31494   2
   5  -8   6 2.92495 1.56252   1
   5   3   6 2.97866 2.18671   3
   8  -3   6 5.50147 2.43603   5
   8  -3   6 8.77167 2.80427   5
   3   5   6 5.25395 2.19109   2
   8  -5   6 6.26182 2.54796   5
   8  -3   6 6.95303 1.90141   1
   5  -8   6 9.48509 2.55939   5
   5   3   6 4.15151 2.07212   4
  -5   8   6 8.44569 1.89942   1
   8  -3   6 6.79584 2.19096   4
   8  -5   6 7.71173 2.11268   4
  -5  -3   6 5.67818 1.72902   3
   3   5   6 2.52128 2.19095   5
   3  -8   6 4.73388 2.03147   1
   3   5   6 4.10132 2.09644   2
   3  -8   6 5.84408 2.04073   4
   8  -5   6 2.79012 1.55786   1
   5   3   6 3.65209 2.17575   2
  -3   8   6 9.39983 2.17007   2
  -3   8   6 10.9917 2.56361   4
  -3   8   6 7.13955 1.84732   2
  -3  -5   6 4.30794 1.65975   4
  -5  -3   6 4.75189 1.53668   4
  -5   8   6 6.10552 1.79351   4
  -5   8   6 4.58948 1.46722   2
   8  -3   6 7.66110 2.43802   2
   3   5   6 9.24318 2.68402   4
   5   3   6 12.5307 2.89720   4
   8  -5   6 3.67444 2.08136   2
  -8   3   6 4.43435 0.78810   5
   8  -3   6 7.09217 2.26473   4
   8  -5   6 3.22851 2.15707   4
  -3  -5   6 5.43758 1.98788   3
  -8   5   6 9.54925 1.32212   2
  -3  -5   6 5.29464 1.41369   5
   3  -8   6 4.22021 1.97835   5
  -3   8   6 4.82559 1.71791   3
   3   5   6 6.20605 1.98383   3
  -3  -5   6 2.55510 2.09255   1
  -5  -3   6 1.81006 1.96292   1
  -3   8   6 6.79339 1.80843   1
   5   3   6 5.92398 2.19831   3
   5  -8   6 2.94414 2.00721   2
  -5   8   6 9.17990 1.82497   3
   5   3   7 0.98151 2.15542   3
  -3  -5   7 2.52558 1.56028   5
  -5   8   7 2.64007 1.67021   3
   3  -8   7 4.11508 2.73176   2
  -8   5   7 3.62532 1.35851   2
   8  -5   7 1.80232 2.25928   5
   8  -3   7 2.12117 2.74202   3
  -3  -5   7 8.10327 2.62012   2
   8  -5   7 1.48884 2.23714   3
  -8   3   7 2.78132 1.63213   2
  -5  -3   7 2.51745 2.37400   2
  -3  -5   7 2.71263 2.38892   3
   5   3   7 0.77236 2.47162   5
  -5  -3   7 6.61123 0.85732   5
  -8   3   7 3.05019 0.91540   5
   8  -3   7 0.09659 2.83806   5
   5   3   7 0.24365 2.38189   1
   3  -8   7 1.12819 2.25390   5
  -8   5   7 2.77841 1.73989   5
  -3   8   7 1.90297 1.97440   3
  -8   5   7 2.12888 2.02092   1
   3   5   7 1.76684 3.13302   5
   3   5   7 4.29485 2.86938   2
   5  -8   7 4.45663 2.37958   1
  -3  -5   7 3.39636 1.58167   5
   5   3   7 4.58176 2.41233   2
   5   3   7 1.39079 2.55981   3
   5  -8   7-0.17671 2.52496   5
   8  -3   7 0.56619 2.97958   5
  -8   5   7 3.56408 1.33569   2
   8  -5   7-1.04590 2.56483   5
  -5   8   7 1.69052 1.60292   2
   5  -8   7 1.14834 2.52364   5
   3  -8   7 2.11633 2.48539   5
   8  -3   7 2.94819 2.60544   3
  -3   8   7 8.37032 2.43069   1
  -5   8   7 4.27964 1.83534   3
  -3   8   7 1.17437 1.91946   4
   3   5   7 1.08017 2.16551   4
   5   3   7 2.35766 2.66321   4
   8  -3   7 2.50102 2.24659   1
  -3   8   7 1.41003 2.78263   5
   8  -3   7 1.73263 2.63756   4
  -8   3   7 8.58092 2.50668   1
   8  -5   7 4.38713 2.48451   4
   3   5   7 0.97034 2.33541   1
   3  -8   7 3.13500 2.22949   1
  -5   8   7 4.26082 1.97539   1
   5  -8   7 3.02369 2.48514   4
   3  -8   7 7.35601 2.94293   4
   3   5   7 1.24325 2.38421   2
  -3  -5   7 0.58275 1.78364   4
   5   3   7 6.44238 2.88797   2
  -5   8   7 2.24298 2.46380   5
  -5  -3   7 4.94702 1.68474   4
  -8   3   7 5.81865 0.78756   3
  -8   3   7 3.25351 0.70082   3
  -5   8   7 4.94438 2.07108   4
   8  -5   7 5.58452 2.23898   1
   3  -8   7 1.52086 2.44198   3
  -8   3   7 1.22218 0.82797   5
   5  -8   7 3.26134 2.54278   3
  -3   8   7 6.05793 2.48211   4
  -5   8   7 1.30096 1.56294   2
   3   5   7 1.62706 2.25859   4
   8  -3   7 2.55627 2.47496   2
   5   3   7-0.28265 2.49168   4
  -5  -3   7 3.64679 2.10094   3
   8  -5   7 3.21209 2.78034   2
   8  -3   7 1.72220 2.84710   4
   8  -5   7 2.17062 2.62031   4
  -3   8   7 4.02235 1.98178   2
  -3   8   7 4.98969 2.16916   2
  -3  -5   7 3.50937 2.38682   1
  -5  -3   7 0.48913 2.01668   1
   3   5   7 2.75216 2.68476   3
   5  -8   7 3.94504 2.64597   2
   3   5   7 5.47581 2.57815   3
  -3   8   7 2.32509 1.93113   3
  -2   8  -7 18.2897 3.50795   3
   6   2  -7 24.1524 3.50575   1
  -2  -6  -7 15.5900 4.02280   5
  -2  -6  -7 18.6439 3.54823   1
  -2   8  -7 20.7231 3.57067   1
   6   2  -7 17.2459 3.06698   2
   2   6  -7 21.0373 3.55811   1
   6  -8  -7 15.3557 3.25605   5
   2  -8  -7 10.3102 3.39729   5
   8  -6  -7 13.9907 2.63613   5
   2   6  -7 20.5987 3.08304   4
  -6   8  -7 12.6070 3.11549   4
   8  -2  -7 23.3187 2.75010   2
  -2   8  -7 20.0446 3.30327   4
   8  -2  -7 14.8746 3.05830   1
  -6   8  -7 22.9375 3.77559   2
  -8   6  -7 19.3747 3.13526   1
  -8   6  -7 24.0306 3.95321   2
  -6  -2  -7 21.5556 3.82892   1
   2  -8  -7 18.9672 3.19017   1
   2   6  -7 22.3569 3.48398   2
  -8   2  -7 19.9008 3.33221   1
  -2   8  -7 20.2813 3.64741   2
   6  -8  -7 15.9712 2.84679   1
  -6   8  -7 22.7452 3.54377   1
   6   2  -7 20.0932 2.59363   3
   8  -6  -7 16.2960 2.85456   1
  -8   6  -7 18.3752 3.64456   3
   2   6  -7 28.4324 3.53089   3
  -6   8  -7 16.5165 3.41851   3
   6   2  -6 2.79724 1.29482   3
  -2   8  -6 0.14152 1.87244   3
   2   6  -6 2.98442 1.77790   3
  -6   8  -6 3.54101 1.82309   1
   6  -8  -6-0.03733 1.91293   5
  -2   8  -6 7.21841 2.06773   1
   2  -8  -6 5.26246 2.56757   5
   8  -6  -6 1.19253 1.44580   5
  -2  -6  -6 3.00786 2.13179   5
  -6  -2  -6 1.34824 2.15714   5
  -8   6  -6 3.48292 2.11890   4
   6   2  -6 1.77391 0.98098   4
   6   2  -6 2.86818 1.71555   1
  -6   8  -6 1.67401 1.91353   4
   2   6  -6 3.30191 1.64135   4
  -2   8  -6 3.55201 1.98634   4
   2   6  -6 3.29913 1.81348   1
  -2  -6  -6 3.75683 2.18314   1
  -8   6  -6 4.64878 1.91755   2
  -6  -2  -6 3.82375 2.36512   1
   2  -8  -6 3.64165 1.88800   1
   8  -2  -6 4.21867 1.39971   2
  -8   2  -6 4.28486 1.90566   1
  -6   8  -6 1.52055 1.74731   2
   6  -8  -6 3.02332 1.54555   1
   6   2  -6 3.13096 1.66127   2
  -2   8  -6 0.51169 1.80591   2
   2   6  -6 2.25977 1.77336   2
  -8   6  -6 6.65784 1.95188   1
   2  -8  -6 5.66065 2.18742   4
   8  -2  -6 1.12419 1.57842   1
  -8   6  -6 4.94893 2.21580   3
   8  -6  -6 3.34274 1.51851   1
  -6   8  -6 4.46218 1.88363   3
   2   6  -5 23.6445 2.79751   3
   8  -2  -5 15.0071 2.09029   1
   2  -8  -5 16.2971 2.94054   5
  -2   8  -5 13.4712 2.19064   5
  -6   8  -5 16.3696 2.49478   4
  -2  -6  -5 17.9689 2.93248   5
  -6  -2  -5 16.8761 2.75282   5
   6  -8  -5 15.8239 2.52204   5
   2  -8  -5 16.7041 2.38417   1
   6   2  -5 14.7759 1.42469   4
   8  -6  -5 14.5118 1.99520   5
  -8   2  -5 17.8875 2.51906   1
  -8   6  -5 9.97193 2.21703   4
  -8   6  -5 13.6575 2.26517   2
  -2   8  -5 14.5222 2.36824   4
   6  -8  -5 17.9166 2.06109   1
   8  -2  -5 17.9890 1.73795   2
   2   6  -5 11.0271 1.93569   4
  -8   6  -5 15.6243 2.07916   1
  -2   8  -5 16.5170 2.58438   2
   6   2  -5 19.5864 2.35255   2
  -6   8  -5 9.65097 2.29516   2
   2   6  -5 14.3449 2.35343   2
   6   2  -5 14.5162 2.31583   1
   8  -6  -5 15.9942 1.97539   1
   2   6  -5 17.6430 2.76176   1
   6  -8  -5 13.9904 1.99967   4
  -6   8  -5 18.9564 2.34300   1
   2  -8  -5 13.2291 2.40620   4
  -2  -6  -5 9.74330 2.56113   4
  -8   6  -5 13.5621 2.22924   3
  -6   8  -5 16.4302 2.59523   3
  -2   8  -5 10.3872 1.97521   1
   6   2  -5 14.8020 1.79985   3
  -2   8  -5 8.46231 2.19482   3
  -2   8  -4 59.0087 4.04742   3
   6   2  -4 47.4921 2.83489   3
   2   6  -4 41.8732 3.45968   3
   2   6  -4 48.8971 2.81536   5
  -2   8  -4 50.7847 3.41424   1
   8  -2  -4 54.2820 3.31016   1
   6  -8  -4 37.0279 3.79424   5
   6  -8  -4 52.3466 2.98735   1
   8  -6  -4 46.4437 3.12731   5
   2  -8  -4 38.1813 3.78205   5
   2  -8  -4 50.8611 3.70425   3
   6   2  -4 42.0942 3.40647   1
  -6  -2  -4 52.0650 4.04950   5
   2   6  -4 53.1145 3.74644   1
  -8   2  -4 43.3557 3.18837   1
  -8   6  -4 42.3987 3.36132   4
  -6   8  -4 59.5113 3.94758   4
   6   2  -4 53.5305 2.38302   4
  -8   6  -4 52.4280 3.54913   2
  -2   8  -4 56.4759 3.85949   4
   2   6  -4 47.2808 3.16038   4
   8  -2  -4 51.1382 2.42258   2
  -8   6  -4 56.6506 3.10672   1
  -6   8  -4 51.8271 3.93330   5
  -2   8  -4 57.8271 3.94658   2
   6   2  -4 55.0591 3.30027   2
   8  -6  -4 58.5272 2.96669   1
   2   6  -4 50.8664 3.72025   2
   2  -8  -4 44.5799 3.86063   4
   6  -8  -4 42.8189 3.02946   4
  -2  -6  -4 50.1509 4.19063   4
  -2  -6  -4 55.7091 4.36321   5
  -8   6  -4 55.7565 3.70604   3
  -6   8  -4 51.7164 3.19225   1
  -2   8  -4 44.1358 3.39109   5
  -6   8  -4 52.6747 3.75856   3
  -6   8  -4 53.3537 3.73198   2
  -2   8  -3 56.4344 3.71236   3
   6   2  -3 60.7147 3.01675   3
   2   6  -3 65.4063 3.86071   3
  -2   8  -3 71.7827 4.03146   5
   2  -8  -3 65.2583 3.90891   3
   2   6  -3 73.1594 3.28918   5
   6  -8  -3 62.5920 4.14070   5
   8  -6  -3 69.5302 3.60322   5
   8  -2  -3 69.7565 3.37242   1
   2  -8  -3 72.6744 4.71304   5
  -2  -6  -3 59.9435 4.19807   5
  -2   8  -3 55.1641 3.34017   1
  -6  -2  -3 54.1473 3.72485   5
  -8   6  -3 53.4399 3.41708   4
  -2  -6  -3 68.4567 4.30336   3
  -8   6  -3 62.3222 3.53521   2
  -6   8  -3 67.1345 3.96542   4
   6  -8  -3 68.1477 2.95829   3
   6   2  -3 68.1934 2.59756   4
  -2   8  -3 71.6352 4.05106   4
   2   6  -3 60.7828 3.51296   4
   6   2  -3 70.9511 3.96653   1
  -6   8  -3 61.0496 4.00596   5
   2   6  -3 74.1225 4.16288   1
  -6   8  -3 65.5399 3.66809   2
  -8   6  -3 72.6655 2.89975   1
   8  -2  -3 67.5896 2.46989   2
  -8   6  -3 68.2393 4.15951   5
   8  -6  -3 69.6634 2.61162   1
  -2   8  -3 56.9001 3.63373   2
   6  -8  -3 67.3667 3.41802   4
   2  -8  -3 48.2053 3.60420   4
  -2  -6  -3 61.9922 4.40869   4
   6   2  -3 57.6127 3.28913   2
   2   6  -3 58.9247 3.74507   2
  -8   6  -3 64.8658 3.58496   3
  -6   8  -3 66.7660 3.08267   1
  -6   8  -3 63.6765 3.68598   3
  -6   8  -2 85.3915 2.87816   1
   8  -2  -2 85.1547 1.45646   3
  -2   8  -2 90.7462 4.41207   3
   2   6  -2 89.8339 4.23252   3
   6   2  -2 90.5053 3.60162   3
  -8   6  -2 95.5205 4.57761   5
  -6   8  -2 79.3588 4.27808   5
   2   6  -2 88.3615 3.66351   5
   6  -8  -2 83.2202 4.55404   5
   2  -8  -2 102.193 4.45143   2
   2  -8  -2 85.2894 4.86312   5
   6  -8  -2 77.0323 3.14715   3
   2  -8  -2 95.4401 4.50615   3
  -2  -6  -2 86.3258 4.48139   2
  -2  -6  -2 81.2128 4.55990   5
  -2  -6  -2 90.3297 4.82650   3
  -6  -2  -2 89.4094 4.19501   5
  -8   6  -2 83.4394 2.39310   1
  -8   6  -2 76.9165 3.69845   4
  -8   6  -2 98.4551 3.81493   2
   8  -2  -2 85.1600 3.44670   1
  -6   8  -2 98.1080 4.44016   4
  -2   8  -2 75.6010 4.18016   4
   2   6  -2 92.9883 4.25841   4
   6   2  -2 81.3791 3.01766   4
  -2   8  -2 83.3986 3.82635   1
   8  -6  -2 87.0662 1.99510   1
  -6   8  -2 81.7625 3.74674   2
   8  -6  -2 83.7162 3.81693   5
   6  -8  -2 87.2846 3.87939   4
   2  -8  -2 90.9650 4.67673   4
   8  -6  -2 86.5979 2.29962   4
  -2  -6  -2 63.9711 4.04884   4
   8  -2  -2 89.7230 2.60065   2
   6   2  -2 86.5729 4.10078   1
  -2   8  -2 94.8700 4.46180   2
   2   6  -2 76.9429 3.98128   1
  -2   8  -2 79.9240 4.15938   5
  -6  -2  -2 83.7126 4.34731   4
   2   6  -2 82.4695 4.16450   2
   6   2  -2 86.0176 3.77374   2
   8  -2  -2 88.9066 1.48816   3
  -8   6  -2 92.0122 3.88888   3
  -6   8  -2 81.9558 3.95044   3
  -6   8  -1 41.1055 2.65844   3
  -6   8  -1 37.8752 1.45866   1
   6   2  -1 38.9411 2.69742   1
   2   6  -1 37.3940 2.71139   1
  -2   8  -1 32.9548 2.64574   3
   2   6  -1 37.6510 2.82250   3
   6   2  -1 36.6640 1.44863   5
  -8   6  -1 40.9626 2.86350   5
   6   2  -1 40.0169 2.46512   3
  -6   8  -1 35.4534 2.96339   5
  -2   8  -1 39.3783 2.92177   5
   2  -8  -1 37.0547 2.55680   2
   2   6  -1 38.9391 2.54848   5
   8  -6  -1 37.0991 1.10118   3
   8  -6  -1 35.3242 2.51399   5
   2  -8  -1 37.8634 2.70580   3
  -2  -6  -1 32.1206 2.73997   3
  -2  -6  -1 40.4457 3.05967   5
   8  -2  -1 38.7221 1.55635   5
   6  -8  -1 36.7261 1.88816   2
  -6  -2  -1 43.4756 3.01743   2
   8  -6  -1 41.1412 1.86521   4
   2  -8  -1 33.7912 3.04405   5
   8  -2  -1 37.1158 1.54273   5
  -6  -2  -1 34.1251 2.66691   3
  -6  -2  -1 41.8038 2.58611   5
   8  -2  -1 41.2962 1.98120   2
  -8   6  -1 31.0176 2.12174   4
  -8   6  -1 41.3845 2.05905   2
   8  -2  -1 34.4598 1.22604   4
  -6   8  -1 35.2151 2.56658   4
  -2   8  -1 37.9269 2.86249   4
   2   6  -1 34.4554 2.68844   4
   6   2  -1 37.7529 2.19236   4
   6  -8  -1 37.5014 2.21829   3
   8  -2  -1 39.7470 1.36782   4
   6  -8  -1 32.5535 2.38277   4
   8  -2  -1 36.2130 1.50764   3
  -6   8  -1 37.0468 2.27561   2
  -2  -6  -1 39.0180 2.91539   2
   2  -8  -1 40.7019 3.11107   4
  -2  -6  -1 35.3583 2.93832   4
   8  -2  -1 37.4871 2.15355   1
  -6  -2  -1 39.9224 2.76898   4
  -2   8  -1 41.2809 2.84233   2
  -2   8  -1 34.9841 2.30363   1
   6  -8  -1 41.7566 3.11343   5
   8  -2  -1 39.8966 1.56737   3
  -8   6  -1 37.0418 2.15625   3
   2   6  -1 42.4095 2.99110   2
   8  -2  -1 41.9905 1.86359   2
   6   2  -1 40.8735 2.55505   2
  -6  -2   0 1.07042 0.81570   3
  -2   8   0 0.74765 0.62310   1
   8  -2   0 0.40765 0.49637   1
  -2   8   0 1.23651 0.79717   2
   2  -8   0 0.43927 0.66946   2
   2   6   0 1.20684 0.87257   5
  -2  -6   0 0.40543 0.72397   5
   6   2   0 1.41502 0.89810   1
  -6   8   0 1.29065 0.73876   3
   2   6   0-0.06169 0.54670   2
   6  -8   0-0.02293 0.83331   5
   6   2   0 1.05979 0.71335   2
  -8   6   0 0.47073 0.69611   5
  -2   8   0 0.39865 0.73879   3
   8  -2   0 2.09035 0.61169   2
   2   6   0-0.21054 0.70444   3
   6   2   0 0.71408 0.50143   5
   8  -2   0 0.70559 0.47608   5
   2  -8   0 0.25960 0.85916   5
   8  -2   0 0.63415 0.42254   3
  -2  -6   0 0.46527 0.81985   3
  -6  -2   0 0.85059 0.72090   2
   8  -6   0 0.86467 0.25833   2
  -6  -2   0 0.75614 0.47316   5
   2  -8   0 0.98275 0.77430   3
   6   2   0-0.28177 0.60125   3
  -8   6   0 1.40624 0.66617   4
   8  -2   0 1.02313 0.50653   4
   8  -6   0 1.46439 0.48463   3
   8  -2   0 0.46219 0.46801   2
  -6  -2   0 1.87963 0.81945   1
  -6   8   0-0.05152 0.58700   4
   8  -2   0 1.02065 0.58227   1
  -6   8   0 0.89026 0.23399   1
   8  -6   0 0.42166 0.47643   4
  -2   8   0 0.65450 0.60041   4
   6  -8   0 1.08021 0.52975   2
  -2  -6   0 0.82823 0.75762   2
   2   6   0 0.17549 0.70580   1
   2   6   0 1.05726 0.88105   4
   6  -8   0 0.97655 0.59016   4
   2  -8   0 2.43843 0.86165   1
   6   2   0 0.82489 0.68044   4
   8  -2   0 0.47795 0.46771   5
   2  -8   0 2.88252 1.23097   4
  -2   8   0 0.20363 0.68468   5
  -2  -6   0 0.31619 0.87017   4
   8  -2   0 1.23911 0.50866   4
  -2  -6   0 1.15248 0.91361   1
  -6   8   0 1.68536 0.95946   5
  -6  -2   0 0.69273 0.72017   4
  -6   8   0 0.73981 0.47952   2
  -6   8   0 0.37026 0.15732   1
   6  -8   0 2.93748 0.81901   3
   8  -6   0 1.49728 0.31222   2
   8  -6   0-0.07150 0.64857   5
  -8   6   0 1.20103 0.48664   3
   8  -2   0 0.47128 0.41358   3
  -6  -2   1 38.0060 2.59869   2
  -6   8   1 39.2362 1.26207   1
   2   6   1 41.8325 2.99562   2
   2  -8   1 36.7324 2.72690   2
   8  -6   1 44.3484 2.35963   3
  -6   8   1 40.4996 2.31192   3
  -2  -6   1 27.8263 2.47474   3
   6   2   1 26.1243 2.25955   2
  -2  -6   1 38.2563 2.77876   2
  -2   8   1 34.3198 2.71411   3
  -8   6   1 33.0308 2.40908   5
   8  -2   1 36.6491 2.19292   2
   2   6   1 38.3405 2.96992   3
   6  -8   1 35.3938 2.98886   5
   6   2   1 37.8472 2.69612   3
   2  -8   1 40.1748 3.07566   5
   2   6   1 47.0774 3.22642   5
  -2  -6   1 40.8162 2.78689   5
   6  -8   1 42.6576 1.51517   1
   8  -2   1 41.5459 2.52233   3
   8  -2   1 37.0512 2.32390   5
   2  -8   1 34.4055 2.36750   1
  -2  -6   1 30.7971 2.58533   1
   8  -2   1 40.7291 2.47655   5
  -6  -2   1 39.9629 1.48881   5
  -6  -2   1 46.3883 2.93003   1
   2   6   1 37.3398 2.70649   1
   8  -2   1 35.2910 2.13827   4
  -8   6   1 35.7152 1.72671   4
   6   2   1 40.1635 2.74498   1
  -2   8   1 34.2868 2.27838   1
   8  -2   1 35.8265 2.29659   2
  -6  -2   1 32.6115 2.44149   3
   8  -2   1 35.4958 2.18957   1
  -2   8   1 42.3025 3.25424   5
   8  -6   1 39.3191 2.39704   4
  -6   8   1 40.1294 2.59762   4
   6  -8   1 40.5271 2.60562   3
  -2   8   1 44.7871 2.64838   1
   6  -8   1 41.6914 2.77264   4
  -2   8   1 45.4654 3.11141   4
  -6   8   1 40.4706 3.03452   5
   2   6   1 34.8413 2.85077   4
   2  -8   1 42.5174 3.05631   4
  -2  -6   1 43.0966 3.07833   4
   6   2   1 42.2490 3.01056   4
   2   6   1 48.9897 3.12445   1
   8  -2   1 38.6884 2.23668   1
  -6  -2   1 44.3233 2.53027   4
  -8   2   1 44.5275 2.41178   1
   8  -2   1 37.7109 2.43728   4
   8  -6   1 34.4706 1.82610   2
   6   2   1 41.0202 2.73419   1
  -6   8   1 40.3382 1.97074   2
   8  -6   1 41.5487 2.90532   5
   2  -8   1 40.5648 2.90643   3
   6   2   1 36.8663 2.55383   5
  -8   6   1 45.3376 1.23890   3
   8  -2   1 37.2216 2.24412   3
  -6   8   1 40.2056 1.30367   1
   6  -8   1 40.1765 2.31871   2
  -2   8   1 38.4177 2.73525   2
   2  -8   2 92.4436 4.35377   2
  -6   8   2 93.7991 2.62991   1
  -2   8   2 95.2969 4.28201   2
   8  -6   2 87.8054 3.79453   3
   6  -8   2 77.3877 4.39508   5
  -2  -6   2 96.5794 4.58472   2
   2   6   2 81.5807 4.43730   2
  -6   8   2 80.7215 3.18401   3
   6  -8   2 87.5765 4.15833   3
  -2   8   2 97.6525 4.47710   3
  -6  -2   2 90.1700 3.92159   2
  -2   8   2 91.1098 4.98169   5
   6   2   2 92.0341 4.43643   2
  -6   8   2 90.4379 4.61899   5
  -8   6   2 83.3813 3.74295   5
   8  -2   2 83.0254 3.71574   4
   2   6   2 82.7546 4.09693   1
  -6   8   2 92.4293 3.87536   4
   2  -8   2 86.8101 4.61510   5
  -6  -2   2 101.469 4.04881   3
   8  -6   2 94.4589 2.50171   1
   6   2   2 74.5163 4.07029   3
  -8   2   2 92.9716 2.85305   2
   8  -2   2 96.8124 4.22789   3
   2   6   2 98.8209 4.84891   3
   6   2   2 84.4299 4.22932   5
   6  -8   2 90.8863 4.32775   4
   6   2   2 91.5854 4.24209   1
   8  -2   2 89.2244 4.08549   5
   2  -8   2 81.7986 4.18249   3
   6  -8   2 80.3974 2.68388   1
  -6   8   2 93.7110 2.79702   2
   6   2   2 85.0734 4.32962   2
  -8   6   2 91.5744 2.21630   4
   8  -2   2 79.9576 3.41778   1
  -2  -6   2 85.1518 4.23020   4
   8  -2   2 89.2474 3.92364   2
   6   2   2 95.2215 4.29838   1
   8  -6   2 94.1833 4.07888   4
  -2   8   2 88.4513 3.77053   1
  -6   8   2 92.6802 2.60827   1
   2  -8   2 92.1972 4.48169   4
  -8   6   2 89.8721 1.97050   1
  -2   8   2 81.1767 4.26753   4
   2   6   2 84.4742 4.57569   5
   8  -2   2 98.6276 3.98565   1
   2   6   2 70.6556 4.18464   4
   8  -2   2 98.3811 4.18637   2
  -2   8   2 87.4057 3.85454   1
   2  -8   2 91.7136 3.88816   1
   6   2   2 98.1876 4.75549   4
   8  -2   2 87.2795 4.24953   5
   8  -6   2 86.5461 3.39851   2
  -6  -2   2 97.0229 3.51891   4
  -2  -6   2 87.9496 3.85365   5
   2   6   2 85.1279 4.20464   1
   8  -2   2 93.7875 4.33343   4
  -2  -6   2 102.472 4.56217   1
  -2  -6   2 91.3236 4.41714   3
  -8   2   2 91.5001 3.56567   1
  -6   8   2 84.4855 2.75094   2
  -6  -2   2 93.0715 4.25406   1
   6  -8   2 95.8218 3.90190   2
   8  -2   2 100.589 4.18767   3
   8  -6   2 98.7814 4.69841   5
   6  -8   3 52.6591 2.63125   1
  -2  -6   3 62.5696 3.83363   2
   8  -6   3 69.7002 3.73655   3
   8  -6   3 65.8517 2.72845   1
  -6  -2   3 58.6806 3.53658   2
  -2   8   3 46.8485 3.30630   2
   6  -8   3 61.0070 3.69119   3
  -6   8   3 54.4077 2.50086   1
   2   6   3 61.9248 3.94375   2
  -6   8   3 60.2395 2.80774   3
  -8   6   3 64.3305 3.34340   5
   2  -8   3 68.8020 4.15885   3
  -2  -6   3 63.3570 3.84600   3
  -2   8   3 69.8912 3.93858   3
   6   2   3 75.1085 4.30196   2
   8  -6   3 59.6870 4.00350   5
   8  -2   3 69.0658 4.09360   5
   2  -8   3 69.6668 4.12106   5
  -6   8   3 85.1293 4.69879   5
   6   2   3 59.5026 4.05574   5
   6  -8   3 61.4835 4.18811   5
   8  -2   3 75.7489 4.11741   3
   8  -2   3 68.2130 3.94883   5
   2  -8   3 71.3041 3.73205   1
   6   2   3 66.3135 4.04896   4
  -2   8   3 62.4392 3.53952   2
   8  -2   3 77.0797 3.68630   1
  -8   2   3 71.6822 3.47506   1
   2   6   3 54.8140 3.69701   2
   8  -2   3 53.4758 3.38513   4
   6   2   3 63.1340 4.02864   2
  -8   6   3 60.6252 1.17302   4
  -6   8   3 65.1317 2.51497   2
   2   6   3 70.9598 4.05920   1
  -2  -6   3 70.6781 4.05518   1
  -6  -2   3 64.6305 3.79981   1
   8  -6   3 53.0245 3.46829   4
   8  -2   3 73.1716 3.92813   2
   6  -8   3 71.8541 4.19614   4
  -6   8   3 65.9478 3.29080   4
   2  -8   3 75.4424 4.26869   4
   2   6   3 75.4899 4.70553   5
   6   2   3 60.1621 3.63612   1
   8  -2   3 61.1329 3.69486   2
  -2  -6   3 61.8375 3.63876   4
  -2   8   3 64.5690 4.00394   4
   2   6   3 61.9751 4.17076   4
   2   6   3 69.2416 4.25399   3
  -2   8   3 63.6382 3.46929   1
  -6  -2   3 72.3312 3.02931   4
   8  -6   3 70.9393 3.54483   2
   6   2   3 59.3597 3.95933   4
  -6  -2   3 67.8414 3.33522   3
   2   6   3 68.9647 4.05612   1
   8  -2   3 69.0276 3.72094   1
   8  -2   3 75.1863 4.24077   4
  -2   8   3 74.4471 4.67828   5
   6   2   3 61.4621 3.99164   3
  -8   2   3 69.1172 2.55159   2
   6  -8   3 68.2926 3.71256   2
  -2   8   3 76.5524 3.87887   1
   6   2   3 65.1186 4.15548   3
   8  -2   3 66.5025 3.72353   3
   6   2   3 77.8358 4.20007   1
   2  -8   3 59.2337 3.80768   2
  -2  -6   3 64.2159 3.33119   5
  -8   6   3 63.2622 2.47948   1
  -6   8   3 62.1421 2.47065   2
  -2  -6   4 58.0199 3.95153   2
   8  -6   4 40.1123 3.49808   3
  -6  -2   4 46.2503 3.21269   2
  -6   8   4 51.2554 2.45011   2
  -8   2   4 44.2312 2.35763   2
   6  -8   4 32.0358 3.09794   3
  -6   8   4 54.0096 2.54363   2
  -2   8   4 58.1508 3.61861   2
   2  -8   4 50.7317 3.85063   3
  -6   8   4 52.7899 2.83120   1
  -2  -6   4 39.3336 3.23934   3
  -6   8   4 55.6442 2.75393   3
   8  -6   4 46.8816 3.91503   5
   6  -8   4 40.8940 3.60399   5
  -6  -2   4 51.3331 3.09890   3
   2  -8   4 40.8732 3.37576   5
  -8   2   4 52.5051 3.32985   1
   8  -2   4 58.4340 4.06675   5
   6   2   4 46.5206 3.75568   2
   2   6   4 47.1607 3.81440   1
   2   6   4 51.2944 3.90448   3
   8  -6   4 43.7685 2.67825   1
  -2   8   4 47.2730 3.62647   4
   6   2   4 47.4058 3.82602   3
   6   2   4 51.4731 4.04103   5
  -2   8   4 46.5471 4.05738   5
   8  -2   4 39.0382 3.37017   2
  -2  -6   4 45.0755 3.52689   1
   8  -2   4 50.2311 4.06594   5
  -6  -2   4 35.9603 3.52267   1
   8  -2   4 63.5341 4.16214   3
  -2   8   4 38.8078 3.23802   3
   8  -6   4 45.9246 3.86704   5
   6   2   4 58.4432 4.13134   4
  -2  -6   4 46.6529 2.95092   5
   2   6   4 48.2273 3.60359   2
  -2   8   4 51.3143 3.46769   2
   2   6   4 47.3699 3.72151   2
   8  -2   4 38.2230 3.25595   4
   6   2   4 51.2363 3.75571   1
   8  -6   4 40.6585 3.31519   4
   6  -8   4 62.8711 4.20400   4
   8  -2   4 55.4382 3.87430   2
   2  -8   4 54.4254 3.88269   4
  -6   8   4 54.9498 3.08246   4
  -2  -6   4 51.5184 3.39948   4
  -2   8   4 38.8863 3.21939   1
  -6   8   4 46.0596 3.66863   5
  -6  -2   4 47.5221 2.56368   4
   2   6   4 52.5159 3.77968   1
   2   6   4 37.7071 3.71026   4
   8  -6   4 58.3176 3.58579   2
   6   2   4 53.9016 3.82139   1
   6   2   4 50.6949 3.88905   2
   6   2   4 45.6532 3.80228   4
   2  -8   4 43.0048 3.26822   1
  -8   6   4 41.1290 2.86381   5
  -8   6   4 43.5368 2.53404   1
  -2   8   4 57.7021 3.65638   1
   8  -2   4 52.6976 3.90746   4
   6  -8   4 43.1430 3.39791   2
   6  -8   4 42.6294 2.75035   1
   2   6   4 44.1720 4.03159   5
   8  -2   4 52.3655 3.44096   1
  -6   8   4 47.1921 2.60966   3
   6   2   4 47.6101 3.74801   3
   2  -8   4 41.9493 3.43422   2
   8  -2   4 47.5514 3.62441   3
  -6  -2   5 13.4630 2.07206   2
   8  -6   5 9.92514 2.22095   3
  -8   2   5 15.4907 1.70589   2
   6  -8   5 14.6057 2.52751   5
  -2  -6   5 11.0508 2.32581   1
  -2   8   5 11.6027 2.10623   3
  -6   8   5 16.7840 1.72280   2
   8  -2   5 13.1281 2.46522   5
   2  -8   5 10.1723 2.24296   3
   6  -8   5 14.5274 2.36077   3
  -2   8   5 13.4837 2.11654   2
  -6  -2   5 15.0876 2.06618   3
   8  -6   5 13.5509 2.54872   5
   2   6   5 15.9733 2.45150   2
  -6   8   5 13.5573 1.64676   3
  -6   8   5 15.4346 1.92602   1
   2   6   5 12.8080 2.22502   2
   2  -8   5 11.6910 2.25018   4
  -6   8   5 11.7956 2.34218   5
  -8   2   5 14.4516 2.19714   1
   6   2   5 18.0719 2.74239   3
   8  -6   5 17.0245 2.07197   1
   2   6   5 17.5886 2.95820   5
   2   6   5 11.4537 2.45117   3
   8  -2   5 15.1998 2.61053   5
   6   2   5 13.5617 2.58730   5
  -8   2   5 11.4550 0.73320   3
   2   6   5 10.6634 2.47801   1
   6   2   5 11.0866 2.31678   2
  -2  -6   5 16.5139 1.94729   5
   8  -2   5 10.6182 2.28038   3
   8  -6   5 12.7822 2.57488   5
  -8   6   5 21.7139 2.40416   5
   6   2   5 16.9073 2.64485   4
  -2   8   5 17.2170 2.60999   4
  -2   8   5 16.4208 2.25155   2
  -2   8   5 10.3577 2.39251   5
   8  -6   5 17.6997 2.55924   4
   8  -2   5 12.1994 2.22981   4
  -6  -2   5 15.2714 2.37736   1
   2  -8   5 12.9788 2.33370   5
   6  -8   5 16.0683 2.58593   4
   8  -2   5 19.8002 2.74031   2
  -8   6   5 13.2447 0.81045   2
  -6   8   5 5.69987 1.45571   2
   6   2   5 11.5158 2.35319   2
  -6   8   5 14.5698 1.85426   4
  -2  -6   5 18.5803 2.15138   5
  -6  -2   5 20.0310 1.80122   4
  -8   2   5 13.2746 0.79250   3
  -2  -6   5 11.9331 2.09889   4
   2   6   5 19.1152 2.85090   4
  -8   6   5 14.7556 1.94525   1
   8  -6   5 14.7847 2.21995   2
   8  -2   5 16.5717 2.52130   2
   6  -8   5 18.8774 2.17372   1
   2   6   5 16.6691 2.73411   1
   8  -2   5 13.4849 2.41781   4
   6   2   5 19.3212 2.67407   1
   6   2   5 13.0131 2.42824   4
   6  -8   5 15.3877 2.26076   2
  -2   8   5 13.2862 2.23090   3
   2   6   5 14.2662 2.39288   3
  -2  -6   5 11.1530 2.16525   3
  -2   8   5 19.4172 2.46158   1
   6   2   5 14.7968 2.45741   3
  -6   8   5 17.0454 1.78239   3
   2  -8   5 13.2940 2.49940   2
  -8   6   5 13.5969 0.82523   2
   8  -2   5 15.4168 2.46106   3
   8  -2   5 13.9418 2.17324   1
   2  -8   5 16.0591 2.37379   1
  -2  -6   5 21.3880 2.77194   2
  -6  -2   6 2.22613 1.89191   1
  -6   8   6 3.37007 1.30506   3
  -8   6   6 4.59014 0.93248   2
   8  -2   6 2.20936 1.69726   3
   2  -8   6 2.67406 2.17319   2
  -2  -6   6 0.03542 1.84499   2
   8  -6   6 5.39691 1.93956   3
  -8   2   6 2.75802 1.23459   2
   6  -8   6 11.1268 2.62386   3
   8  -2   6 3.35757 2.30410   5
   2  -8   6 1.42801 1.72394   3
   8  -6   6 1.91524 1.97956   5
  -8   6   6 3.25655 1.58024   1
  -2  -6   6 3.11674 1.98349   3
  -8   6   6 2.96913 1.57568   5
   6  -8   6 1.91588 1.51931   1
   2  -8   6 3.30141 1.84562   5
  -6  -2   6 2.30947 1.43799   3
  -6   8   6 3.30079 2.22652   5
  -2  -6   6 4.66192 1.82957   5
  -6   8   6 5.46187 1.48689   3
   6   2   6 3.29114 2.20322   1
  -2   8   6 0.51232 1.88250   5
  -2   8   6 4.01738 1.79692   2
   2   6   6 0.58612 2.26816   5
   8  -2   6 1.98496 1.81642   1
   2   6   6 1.68448 1.63789   3
   2   6   6 1.41313 1.78517   2
   6   2   6-0.79476 2.35035   5
   8  -2   6 4.85304 2.68262   5
   6   2   6 1.73743 1.87290   3
  -8   2   6 1.88886 0.59756   3
  -2  -6   6 1.85456 1.30093   5
   8  -6   6 0.83045 2.22181   5
   8  -2   6 8.40572 2.49533   3
   6  -8   6 3.85055 2.02016   5
   2  -8   6 1.03922 1.65487   5
   2   6   6 3.19239 2.08424   4
  -6   8   6 0.85155 1.18062   4
   6   2   6 4.07093 2.01603   4
   6   2   6 4.48200 2.21543   2
   8  -2   6 3.34625 1.98010   4
   8  -6   6 3.89183 2.16682   4
  -2   8   6 4.86807 2.02303   3
   2   6   6 2.95122 2.18617   2
  -2   8   6 2.48232 1.80115   2
  -6   8   6 4.39795 1.53311   1
  -6   8   6 11.1418 2.02341   4
   2  -8   6-0.21412 1.83589   4
   6  -8   6 2.29178 2.06276   4
   6   2   6 4.99817 2.15453   2
  -2  -6   6 1.19144 1.55010   4
   2   6   6 4.89965 2.23944   1
  -6  -2   6 3.43354 1.89804   2
   8  -2   6 7.52596 2.37088   2
  -8   6   6 3.80580 0.86332   2
  -6  -2   6 1.42926 1.06635   4
  -6   8   6 2.19833 1.22238   2
  -2   8   6 2.79407 2.00626   4
   8  -2   6 1.41041 1.90105   2
  -6   8   6 4.58496 1.34817   2
   2   6   6 3.84993 2.39521   4
  -8   2   6 2.71700 1.62999   1
   2  -8   6 4.88548 1.88549   1
   8  -6   6 2.78031 1.67963   1
   6   2   6 2.30119 1.77776   4
   8  -2   6 2.20876 2.33174   4
   8  -6   6 2.13095 1.93457   2
   6  -8   6 4.27001 2.50085   5
  -2   8   6 1.93439 1.65143   1
  -2   8   6 3.63391 1.72979   3
   2   6   6 1.20783 1.84433   3
   6  -8   6 3.06618 1.92329   2
  -2  -6   6 1.83050 1.67483   1
   6   2   6 2.58800 1.78376   3
   6   2   7 17.2762 3.38615   3
   2  -8   7 15.9913 3.19733   2
  -2   8   7 20.1202 3.10402   1
  -8   2   7 20.3698 3.25266   1
  -2  -6   7 20.8735 3.88413   2
   8  -6   7 21.3207 3.55055   3
   2  -8   7 25.9841 4.15272   3
   6  -8   7 19.1054 3.77847   3
  -6  -2   7 19.9008 2.78578   3
  -2  -6   7 21.1578 2.88393   5
  -8   2   7 22.3021 1.58561   3
   8  -6   7 18.7015 3.90556   5
  -6   8   7 23.2883 2.58186   3
   6  -8   7 21.3883 3.81486   5
  -8   6   7 18.8101 2.88662   5
  -8   6   7 19.4894 1.87604   2
  -2   8   7 19.5181 3.47278   3
   6  -8   7 11.2944 2.70844   1
   2   6   7 14.5717 3.46663   1
   6   2   7 24.5473 3.88373   3
   2   6   7 17.4276 3.91541   5
  -2   8   7 9.47575 2.88788   2
  -8   2   7 24.1862 1.68324   3
  -2   8   7 26.8539 4.98941   5
   2   6   7 23.8447 3.72983   3
   6   2   7 18.7877 4.05345   5
   2   6   7 14.8269 3.37295   2
   8  -2   7 24.2214 4.20331   5
   6   2   7 22.4921 3.74139   2
   8  -6   7 20.8571 3.14000   1
   8  -6   7 10.0463 3.62458   5
   8  -2   7 16.4093 3.42140   3
   6  -8   7 20.7055 3.90564   5
   2  -8   7 12.9146 2.91651   5
   8  -2   7 14.1306 3.37989   2
   8  -2   7 16.4072 3.28134   1
  -2   8   7 20.1829 3.33589   4
  -6   8   7 25.4717 2.77375   4
   2   6   7 22.5299 3.72869   4
   6   2   7 20.1999 3.57081   4
  -2  -6   7 19.2212 3.60351   3
   8  -2   7 16.8928 3.71090   4
   8  -2   7 18.6248 3.67991   5
  -2   8   7 20.4803 3.39560   2
   8  -6   7 17.7656 3.37303   4
   6   2   7 14.8054 3.99129   5
   6  -8   7 13.4302 3.49598   4
   2  -8   7 17.6531 3.42378   4
  -6  -2   7 23.8684 2.28742   4
  -6   8   7 17.1448 2.53130   4
   2   6   7 21.7612 3.72356   2
  -2  -6   7 19.9518 3.06763   4
  -6   8   7 15.4668 2.28207   2
  -8   6   7 23.8747 3.22057   1
   2  -8   7 17.4202 3.05407   1
   6   2   7 18.9519 3.70430   2
  -2   8   7 9.73383 2.89974   4
  -6   8   7 19.2860 2.89567   1
   8  -2   7 18.7764 3.82154   2
   2   6   7 18.3876 3.65126   4
  -6   8   7 20.5598 3.55606   5
   6   2   7 22.9517 4.27930   4
  -6  -2   7 27.0651 2.43816   4
   2  -8   7 21.5374 3.43799   5
  -6   8   7 20.9889 2.48529   2
   8  -2   7 20.9623 4.26557   4
   8  -6   7 19.1550 3.71484   4
   8  -6   7 10.2455 3.08094   2
  -8   6   7 29.0797 2.23703   2
  -2  -6   7 22.1342 2.85968   5
  -2   8   7 22.8561 3.29249   3
  -2  -6   7 11.5287 3.38938   1
  -6  -2   7 10.2455 3.37541   1
  -6   8   7 20.2360 2.47262   3
   6  -8   7 19.3799 3.34036   2
   2   6   7 18.4069 3.19349   3
   8  -2   7 23.2738 3.78189   3
   6   2   7 21.7328 3.97091   1
  -6  -2   7 21.0909 3.19566   2
  -8   2   7 22.7799 2.63401   2
  -7   8  -6 5.18507 1.94456   1
   1  -8  -6 3.98756 2.66933   5
  -1   8  -6 3.30749 1.80088   3
   1   7  -6 5.12606 1.99870   3
   8  -1  -6 2.65022 1.85969   1
   7  -8  -6 2.09979 2.02720   5
   8  -7  -6 4.92843 1.93088   5
  -1  -7  -6 6.25862 2.86102   5
  -1   8  -6 4.72129 2.20855   1
  -8   7  -6 2.11696 1.98578   4
  -7   8  -6 5.52171 2.11004   4
   1   7  -6 6.74978 2.06113   1
  -1   8  -6 8.84389 2.25766   4
   1   7  -6 2.96401 1.75043   4
   1  -8  -6 4.73757 2.25912   1
  -7  -1  -6 4.36655 2.35494   1
  -8   7  -6 4.52590 2.32661   2
  -8   1  -6 1.90654 1.98494   1
  -7   8  -6 1.66498 1.78254   2
   8  -1  -6 4.26943 1.42959   2
   7   1  -6 1.57881 1.42656   2
   7  -8  -6 6.37320 1.79938   1
  -1   8  -6 2.29039 2.07996   2
   1   7  -6 3.15592 2.06351   2
   8  -7  -6 5.25488 1.68557   1
  -8   7  -6 6.30667 2.09466   1
   1  -8  -6 3.67707 1.98779   4
   8  -1  -6 3.60025 0.90271   3
   7   1  -6 3.28284 2.07668   1
  -8   7  -6 3.61397 2.04454   3
  -7   8  -6 9.65577 2.40685   3
   7   1  -6 5.15618 1.46668   3
  -7   8  -5 3.38185 1.67967   3
   7   1  -5 5.86069 1.25853   3
  -7   8  -5 6.33250 1.67311   1
  -1   8  -5 3.85157 1.81090   3
   1   7  -5 5.97888 1.84050   3
   8  -1  -5 9.53708 2.08581   1
   7  -8  -5 8.22981 2.18541   5
   8  -7  -5 6.95842 1.75844   5
   1  -8  -5 2.34622 1.89759   5
  -1  -7  -5 5.15171 1.99033   5
  -7   8  -5 10.0273 2.28915   4
  -8   7  -5 7.54002 2.00883   4
  -1   8  -5 4.89896 1.70860   4
   1   7  -5 5.43074 1.63142   4
  -1   8  -5 7.79423 1.82529   1
  -8   1  -5 6.11244 1.77821   1
   8  -1  -5 6.89988 1.70665   2
  -8   7  -5 8.69740 2.02932   2
   7   1  -5 9.68666 2.11414   1
   1   7  -5 5.53682 1.73465   1
  -7   8  -5 4.24051 1.61702   2
   7  -8  -5 7.27563 1.44041   1
   7   1  -5 6.52386 1.54209   2
  -1   8  -5 6.45295 1.78690   2
   1   7  -5 2.40535 1.61370   2
   1  -8  -5 6.63315 2.11537   4
  -1  -7  -5 5.70318 2.08049   4
   8  -7  -5 3.18166 1.24016   1
  -8   7  -5 2.31937 1.28658   1
   8  -1  -5 5.69213 0.85896   3
  -1   8  -5 4.30786 1.49643   5
  -8   7  -5 5.36709 1.69475   3
  -7   8  -4 8.18431 1.70947   3
  -1   8  -4 10.3196 1.91965   3
   1   7  -4 11.7148 2.08278   3
   1   7  -4 11.9459 1.76901   5
  -1   8  -4 10.4950 1.82230   5
   7  -8  -4 16.8080 2.32814   5
   8  -7  -4 14.1872 2.15923   5
   7   1  -4 12.7465 1.99907   1
   1  -8  -4 14.7368 2.57450   5
   1  -8  -4 12.5104 2.17530   3
  -1  -7  -4 10.0391 2.31569   5
   1   7  -4 12.5862 2.12383   1
  -8   7  -4 10.7158 1.83395   4
   7   1  -4 10.3663 0.87068   4
  -7   8  -4 11.6766 2.02975   4
   7  -8  -4 9.83630 1.33332   1
  -1   8  -4 12.8232 2.17836   4
   1   7  -4 9.73064 1.90685   4
  -7   8  -4 13.1251 2.00882   2
  -7   8  -4 7.82402 1.74276   5
   8  -7  -4 11.4332 1.34915   1
  -8   7  -4 13.3619 1.71067   1
  -8   7  -4 8.48538 1.71529   2
   8  -1  -4 12.5623 1.55271   2
  -1  -7  -4 14.4016 2.36359   3
   7   1  -4 11.2648 1.56933   2
  -1   8  -4 11.5240 1.98890   2
  -1   8  -4 9.10823 1.78084   1
   1   7  -4 12.4232 2.03613   2
  -7   8  -4 11.3518 1.68268   1
  -1  -7  -4 17.1882 2.59095   4
   7  -8  -4 10.3993 1.44523   4
   1  -8  -4 12.0799 2.27035   4
   8  -1  -4 15.9999 1.99397   1
  -8   7  -4 12.3546 2.10466   3
   8  -1  -4 11.5546 0.93598   3
   7   1  -4 9.34164 1.34424   3
   7   1  -3 14.9771 1.51706   3
  -1   8  -3 16.0487 2.41598   3
   1   7  -3 17.7550 2.22301   3
  -7   8  -3 16.7837 2.30573   5
  -1   8  -3 19.0059 2.17482   5
  -8   7  -3 7.73432 1.65986   5
   7  -8  -3 15.0982 2.18499   5
   8  -7  -3 15.5112 1.98212   5
   1  -8  -3 17.5630 2.67103   5
   1   7  -3 12.3736 1.64764   5
   1  -8  -3 19.5448 2.31213   3
  -1  -7  -3 10.9368 2.15469   5
   8  -1  -3 15.8643 1.79631   1
  -7  -1  -3 14.5495 2.00311   5
  -8   7  -3 16.0214 1.96679   4
  -7   8  -3 14.2670 1.92523   4
   7   1  -3 13.8234 1.00254   4
  -8   7  -3 13.0927 1.76863   2
   7   1  -3 14.1464 1.87525   1
  -1   8  -3 14.4007 2.03132   4
   1   7  -3 14.1500 1.98389   4
   8  -7  -3 16.9808 1.19954   1
   1   7  -3 15.7083 2.03963   1
  -8   7  -3 16.8979 1.40189   1
  -7   8  -3 15.3052 1.92920   2
   7  -8  -3 16.7332 1.34600   1
   8  -1  -3 12.2349 1.30244   2
  -1  -7  -3 12.1945 2.11005   3
   7  -8  -3 14.1824 1.65470   4
  -1   8  -3 15.1828 2.02105   2
   1  -8  -3 13.9806 2.22848   4
  -1  -7  -3 14.4798 2.36885   4
   7   1  -3 11.1642 1.46317   2
   8  -7  -3 15.2004 1.22220   4
  -7   8  -3 15.7829 1.53968   1
   1   7  -3 16.2472 2.09956   2
  -1   8  -3 15.6244 1.99022   1
  -8   7  -3 18.2706 2.03094   3
  -7   8  -3 15.4150 1.96062   3
   8  -1  -3 15.7670 1.01735   3
  -8   7  -2 2.18810 0.87292   3
   7   1  -2 1.30387 0.68991   2
  -7   8  -2 2.15257 0.53926   1
  -7   8  -2 0.53459 0.71355   3
   8  -1  -2 1.74855 0.79906   1
   1   7  -2 2.14309 1.01964   5
   8  -1  -2 1.07118 0.44130   3
   1   7  -2 3.24798 1.11532   3
   7   1  -2 0.87384 0.64161   3
  -8   7  -2 2.52491 1.04931   5
  -7   8  -2 2.46407 1.29450   5
  -1   8  -2 2.71197 1.03677   1
  -1   8  -2 3.06235 1.19084   5
   7   1  -2 3.04028 1.02870   1
   7  -8  -2 1.88148 1.02059   5
   1   7  -2 1.50969 0.87719   1
   1  -8  -2 1.06996 0.92103   5
  -1  -7  -2 1.59576 1.10410   5
  -1   8  -2 2.70389 1.04800   3
   1  -8  -2 1.68681 1.10285   3
   7  -8  -2 2.33406 0.67650   3
   1  -8  -2 2.34039 1.23681   2
  -1  -7  -2 0.84562 0.94785   3
  -1  -7  -2 1.78139 1.13638   2
  -7  -1  -2 1.45690 0.86699   5
  -8   7  -2 2.51442 0.94155   4
   8  -7  -2 0.12782 0.83254   5
  -7   8  -2 0.71094 0.84148   4
  -1   8  -2 1.73433 1.02650   4
   1   7  -2 0.77903 0.80732   4
  -8   7  -2 0.95932 0.71419   2
   7   1  -2 2.01316 0.58138   4
  -8   7  -2 1.43802 0.38379   1
  -7   8  -2 0.66070 0.67764   2
   7  -8  -2 2.17730 0.82878   4
   8  -7  -2 3.40269 0.74895   4
   1  -8  -2 1.04969 0.98410   4
  -1  -7  -2 2.07951 1.19594   4
  -1   8  -2 1.72909 1.05007   2
   8  -1  -2 2.27947 0.66491   2
   1   7  -2 1.99412 0.91380   2
   7   1  -1 57.4692 3.19372   1
   1   7  -1 50.6951 3.16160   1
  -1   8  -1 48.9002 3.39176   3
   1   7  -1 52.0813 3.35823   3
  -8   7  -1 45.2955 3.26496   5
   7   1  -1 52.5066 2.71770   3
   7   1  -1 54.0609 1.23674   5
   1  -8  -1 58.9212 3.41756   2
   8  -1  -1 51.9541 1.42676   5
   7  -8  -1 54.9238 1.90228   2
  -7   8  -1 56.7529 3.58918   5
   8  -7  -1 53.9776 1.86713   3
  -1  -7  -1 55.1630 3.41922   2
   1  -8  -1 48.0913 3.64593   5
  -1  -7  -1 51.4404 3.76970   5
  -1  -7  -1 44.7090 3.24980   3
   8  -1  -1 50.6429 1.82413   4
   1  -8  -1 42.2200 3.12885   3
  -8   7  -1 52.6720 2.83124   4
   1   7  -1 60.8613 3.37178   5
  -7   8  -1 53.3435 3.09194   4
   7   1  -1 52.4659 1.27522   5
  -1   8  -1 58.1697 3.62667   4
   1   7  -1 55.5797 3.47329   4
  -7   8  -1 55.1475 2.68965   2
   7   1  -1 53.9156 2.40616   4
   8  -1  -1 50.3236 1.84923   4
   8  -7  -1 42.3753 3.03899   5
   8  -7  -1 45.2547 2.31739   4
   7  -8  -1 52.1262 2.85976   4
   1  -8  -1 39.4058 3.23296   4
  -1  -7  -1 53.7962 3.75173   4
   8  -1  -1 55.0320 2.25063   3
  -8   7  -1 46.0333 2.29824   2
   7  -8  -1 50.0204 3.42489   5
  -7  -1  -1 48.1227 2.90957   4
  -1   8  -1 55.3145 3.41030   2
   8  -1  -1 59.7581 2.42377   3
   1   7  -1 54.1037 3.50657   2
   8  -1  -1 49.8166 1.49995   5
   8  -1  -1 44.2930 2.64071   1
  -8   7  -1 54.1107 2.73192   3
  -1   8  -1 43.5197 2.75434   1
   8  -1  -1 56.0011 2.51815   2
   7  -8  -1 52.1174 2.40389   3
   7   1  -1 55.7717 2.89628   2
  -1   8  -1 53.2549 3.49253   5
  -7   8  -1 54.2475 3.03670   3
  -7   8   0 44.7307 2.49485   3
   8  -7   0 41.1309 1.47291   2
   7  -8   0 44.4226 3.33627   5
   7   1   0 40.2397 2.60223   2
  -1  -7   0 40.2640 2.91217   2
   7  -8   0 46.6839 2.04249   2
   8  -1   0 43.1910 2.37259   2
   1  -8   0 44.9119 2.94350   2
   8  -1   0 45.9697 2.39182   3
  -1   8   0 45.0634 3.13484   3
   8  -7   0 39.3095 1.97936   3
   1   7   0 42.2214 3.13722   3
  -8   7   0 39.9865 2.83937   5
   1   7   0 50.7510 3.17623   1
  -7   8   0 48.3901 3.31385   5
   7   1   0 40.7733 2.56386   3
  -1   8   0 33.2702 2.83337   5
   1   7   0 39.6756 2.94675   5
  -1   8   0 35.8948 2.62744   1
   8  -7   0 48.6293 3.18102   5
   7   1   0 49.7075 2.39202   5
   1  -8   0 44.5986 3.13137   3
   1  -8   0 41.7417 3.22322   5
   7   1   0 48.6942 2.92061   1
  -7  -1   0 31.2225 2.51881   2
  -1  -7   0 45.1950 2.95268   1
   8  -1   0 43.0560 2.15166   5
   8  -1   0 39.8872 1.97482   5
  -7  -1   0 36.8684 2.51256   3
   8  -1   0 45.1493 2.60501   1
   8  -1   0 46.3337 2.62300   2
   8  -1   0 43.8419 2.14412   4
  -8   7   0 40.2443 1.51100   2
  -1  -7   0 36.3556 2.91002   3
   1  -8   0 49.3014 2.90558   1
  -8   7   0 40.6960 2.37995   4
  -7   8   0 42.5022 2.66353   4
   8  -1   0 41.8365 2.48707   1
  -1   8   0 44.0919 3.19389   4
   8  -7   0 40.4868 2.35168   4
   7   1   0 38.7598 1.93239   5
   1   7   0 43.2474 3.07117   4
  -1  -7   0 44.0721 3.20582   5
   7  -8   0 44.9988 2.64569   4
   7  -8   0 41.6845 2.34048   3
  -7   8   0 35.5585 1.92031   2
   7   1   0 51.6257 2.80422   4
   1  -8   0 44.1475 3.26582   4
  -1  -7   0 51.5474 3.52795   4
   8  -1   0 44.2863 2.37020   4
  -7  -1   0 36.7724 2.71231   1
  -7  -1   0 46.0523 2.59743   4
   8  -1   0 47.0415 2.43166   3
  -1   8   0 47.0514 3.09970   2
  -8   7   0 46.3640 2.20311   3
   1   7   0 38.5419 3.02020   2
   1   7   1 54.5647 3.47058   2
  -7   8   1 49.8571 2.42396   3
   1   7   1 51.8991 3.48429   3
   1  -8   1 53.2805 3.53003   2
   8  -7   1 47.7805 2.54210   3
  -1  -7   1 56.4286 3.42061   2
   7   1   1 52.0925 3.07915   2
   7  -8   1 48.9148 2.81493   3
   8  -1   1 60.3811 3.03763   2
  -1   8   1 56.2372 3.60955   3
   1  -8   1 44.3813 3.12961   3
   1   7   1 57.7912 3.73549   5
  -7  -1   1 46.9576 2.90487   2
   7   1   1 52.4145 3.14164   3
  -1  -7   1 61.9673 3.60144   5
  -7   8   1 55.1157 3.58706   5
   7   1   1 47.8661 2.79093   5
  -7  -1   1 57.8946 3.05747   3
  -8   1   1 58.5692 2.74754   2
  -1  -7   1 55.3650 3.50652   3
  -1  -7   1 60.7063 3.44151   1
   1  -8   1 59.3122 3.18129   1
   7   1   1 58.8487 3.44869   2
   8  -1   1 59.3485 2.89422   4
   8  -1   1 60.3892 3.07260   5
   8  -1   1 58.2382 3.15134   2
   7  -8   1 45.2256 3.29297   5
  -1   8   1 55.9128 3.12104   1
   7   1   1 39.5266 2.87450   1
  -8   7   1 50.5142 2.39456   4
   8  -1   1 56.7023 2.97316   1
  -7   8   1 43.3313 2.62148   4
  -1   8   1 51.2040 3.00053   1
   8  -7   1 52.3670 2.94969   4
  -7  -1   1 46.4622 2.95666   1
   7  -8   1 50.2649 3.06311   4
  -1   8   1 53.8904 3.56724   4
   1   7   1 44.1468 3.25590   4
   1   7   1 52.1661 3.25166   1
   1  -8   1 59.9741 3.75075   4
  -8   7   1 47.3748 3.08118   5
  -1  -7   1 56.4705 3.60973   4
  -7   8   1 52.3165 1.89680   2
  -1   8   1 57.9925 3.85361   5
   1  -8   1 56.3158 3.67202   5
   8  -1   1 56.8811 3.03744   3
   8  -1   1 59.1881 2.98804   1
   7   1   1 53.3350 3.26890   4
   7   1   1 59.0014 3.21952   1
   8  -1   1 54.8807 3.03158   4
   8  -1   1 41.0772 2.48256   5
  -8   1   1 58.6634 3.00745   1
  -7  -1   1 55.5215 2.62111   4
   1   7   1 47.0512 3.04840   1
   8  -7   1 58.3409 3.53868   5
   8  -7   1 59.2626 2.39834   2
   8  -1   1 59.5345 3.05209   3
  -8   7   1 57.9763 1.93321   3
   7  -8   1 51.9796 2.49426   2
  -1   8   1 50.9835 3.34101   2
   7  -8   2 3.13215 1.00528   2
   8  -1   2 1.69459 0.77992   5
   8  -7   2 1.49535 0.78842   3
   7   1   2 0.78995 0.65792   1
   7  -8   2 1.52114 0.89200   3
  -7   8   2 2.13802 0.75005   3
  -1  -7   2 0.76956 0.95727   3
  -1   8   2 2.46825 0.99765   2
   7  -8   2 1.69525 0.46698   1
  -1  -7   2 0.90962 0.95968   2
   1   7   2 0.69097 0.84697   2
   7   1   2 1.43709 0.83609   5
  -8   7   2 0.42267 0.80298   5
   8  -1   2 1.75951 0.79041   1
   1  -8   2 0.46794 0.85325   3
  -1   8   2 0.91283 1.22481   5
   1   7   2-0.93183 1.14364   5
  -1  -7   2 1.74515 0.96332   5
  -7  -1   2 1.08846 0.75834   2
   7   1   2 1.00767 0.86194   2
   1   7   2 1.02273 0.81039   3
   7   1   2 1.00842 0.89924   3
   8  -1   2 2.84065 0.99159   2
  -7  -1   2 0.43623 0.56041   3
   8  -1   2 0.54925 0.74777   3
   8  -1   2 2.98001 1.22098   5
   8  -7   2 1.78410 0.42702   1
  -8   1   2 2.22548 0.52794   3
   1  -8   2 1.43395 1.07352   5
   7   1   2 1.61059 1.04741   4
   8  -1   2 0.51485 0.72715   4
   7  -8   2 3.66847 1.39090   5
   1  -8   2 1.36747 0.89578   1
   8  -7   2 2.74337 1.10536   5
   1  -8   2 1.30393 0.94444   2
   7   1   2 1.77027 1.04163   2
  -8   7   2 2.01718 0.59408   4
  -7   8   2 0.63232 0.31070   2
  -8   1   2 2.55153 0.74617   2
   8  -1   2 0.59941 0.75270   2
  -1   8   2 2.07996 1.00344   3
   8  -7   2 1.68912 0.90971   4
  -7   8   2 0.64049 0.60829   4
   7  -8   2 1.73110 1.06499   4
  -7   8   2 0.57677 0.92916   5
  -1   8   2 1.10985 1.00260   4
   1  -8   2 1.73806 1.03869   4
   1   7   2 1.22130 0.99024   4
  -1  -7   2 0.29972 0.76823   4
  -1  -7   2 1.13333 0.83185   1
   1   7   2 0.64636 0.76991   1
  -7   8   2 1.73103 0.33667   1
  -1   8   2 0.80229 0.69120   1
   7   1   2 1.59664 1.05709   1
   7   1   2 1.47260 1.04932   4
   8  -1   2 2.61777 1.16736   4
  -7  -1   2 1.90866 0.93980   1
  -7  -1   2 1.42818 0.55236   4
  -8   1   2 2.24251 0.84867   1
   8  -1   2 1.82497 0.89780   1
  -7   8   2 1.78653 0.34489   1
  -7   8   2 1.58888 0.36014   2
  -1   8   2 2.01318 0.99522   1
   7   1   2 2.79239 1.10023   3
   8  -7   2 0.70064 0.65537   2
   8  -1   2 1.06359 0.75978   3
   1   7   2 0.23911 0.79643   1
   1  -8   3 13.1180 1.90305   2
  -1  -7   3 12.2294 1.93073   2
   8  -1   3 12.5387 1.82478   1
   8  -7   3 18.2780 2.07224   3
  -1   8   3 16.6029 2.12130   2
   7  -8   3 12.5483 1.83679   3
  -7   8   3 16.5129 1.33052   3
   1   7   3 16.9526 2.17437   2
  -7  -1   3 13.2885 1.65341   2
   8  -1   3 13.9379 1.96798   5
  -8   1   3 14.1959 1.45950   2
   7  -8   3 18.2497 2.40125   5
  -8   7   3 13.1890 1.81437   5
  -1   8   3 18.8469 2.26401   3
   7   1   3 9.69153 1.89659   2
  -7   8   3 14.9751 2.08527   5
   1   7   3 19.2220 2.40328   3
   1   7   3 13.2040 2.43067   5
   8  -1   3 14.2893 2.00588   4
  -7  -1   3 16.4278 1.59890   3
  -7   8   3 14.2581 1.25394   1
   7   1   3 21.9807 2.53030   5
   8  -1   3 10.8737 1.94581   3
  -8   1   3 13.8205 1.01535   3
   8  -1   3 11.8863 2.09737   5
   1   7   3 13.7394 2.04569   2
   7   1   3 13.2761 2.02326   4
   7   1   3 12.9744 1.95678   2
   1  -8   3 14.9945 1.90297   1
   8  -1   3 16.5917 2.16658   2
   8  -7   3 11.8603 1.33169   1
  -8   7   3 16.5500 1.14080   4
   8  -7   3 10.8767 2.06548   5
   8  -7   3 15.1866 2.02242   4
  -1  -7   3 16.3579 2.09272   1
  -8   1   3 14.4556 1.78378   1
  -7   8   3 15.1302 0.97425   2
   7  -8   3 18.8227 2.26423   4
  -7   8   3 16.9079 1.69569   4
   1  -8   3 17.6978 2.21267   5
   1   7   3 10.5001 1.82017   1
  -7  -1   3 17.4060 2.08128   1
   1   7   3 16.4285 2.07752   1
   8  -1   3 14.1564 2.02262   2
  -1   8   3 17.2201 2.06719   1
   7   1   3 14.2648 2.07060   3
  -1  -7   3 14.3689 2.00573   3
   1  -8   3 16.1852 2.09279   4
   7   1   3 21.0251 2.38110   1
  -1   8   3 13.9601 1.93125   1
  -1  -7   3 13.2730 1.90534   4
  -1   8   3 19.3569 2.38817   4
   1   7   3 16.2512 2.28425   4
   1  -8   3 17.3189 2.19557   3
   8  -1   3 18.4539 2.17347   1
  -1  -7   3 11.3990 1.66920   5
   7   1   3 15.6651 2.22111   4
  -7  -1   3 15.6834 1.13716   4
   8  -1   3 12.8266 1.93858   4
   8  -7   3 13.1110 1.79371   2
   7  -8   3 17.2800 1.92880   2
   7   1   3 12.7796 1.80229   1
  -8   7   3 16.2434 1.24054   1
  -7   8   3 12.7046 0.88202   2
   7   1   3 17.3575 2.23920   3
   8  -1   3 16.5548 2.07641   3
   7  -8   3 17.0656 1.41479   1
  -1   8   3 18.4430 2.55729   5
  -1   8   4 10.6000 1.80466   2
   8  -1   4 10.8882 2.01475   3
  -7   8   4 10.4187 0.98657   2
   7   1   4 10.6858 1.98433   1
   8  -7   4 9.84172 1.86341   3
   8  -7   4 7.88968 2.06764   5
  -7  -1   4 8.97724 1.62836   2
  -8   1   4 7.45283 1.23558   2
   1  -8   4 5.55672 1.76672   2
  -1  -7   4 11.4020 2.01125   2
   7  -8   4 5.55535 1.59933   3
   8  -1   4 8.23833 1.91392   5
  -8   7   4 15.8207 2.05033   5
  -1   8   4 12.9214 2.17123   3
   1  -8   4 7.18140 1.82626   3
   7  -8   4 12.4371 2.20606   5
   1   7   4 11.6954 2.20431   3
  -1  -7   4 9.21441 1.78430   3
   1  -8   4 6.30749 1.61226   5
  -7   8   4 10.5890 1.94155   5
  -1   8   4 11.9138 2.37720   5
   1   7   4 9.21803 2.09213   5
  -7   8   4 9.25403 1.32567   1
   7   1   4 10.4072 2.05331   5
  -7  -1   4 13.3051 1.58509   3
   8  -1   4 13.0337 2.15483   3
   7   1   4 13.4075 2.09591   1
  -8   1   4 7.79803 1.74908   1
  -1  -7   4 15.7601 2.35272   1
   8  -1   4 7.92817 2.10340   5
   7   1   4 10.6269 2.16238   3
   8  -1   4 8.44870 1.81814   2
  -7  -1   4 9.48631 1.77772   1
   8  -7   4 13.3592 2.36136   5
  -8   7   4 9.03748 0.94632   4
  -8   1   4 11.2226 0.95960   3
   1   7   4 10.0776 2.08055   2
  -1   8   4 10.1677 1.81919   2
   1   7   4 5.92382 1.62510   1
   8  -7   4 10.7800 1.42491   1
   1  -8   4 8.61644 1.76659   1
   7   1   4 9.39539 1.87259   4
  -1  -7   4 11.7876 1.81825   5
   7   1   4 11.3163 2.08871   2
   8  -1   4 9.72882 1.80288   4
   8  -7   4 10.9875 2.00438   4
   8  -1   4 13.1999 2.13982   2
  -8   7   4 10.8404 0.98766   4
   7  -8   4 13.0568 2.19039   4
  -7   8   4 11.8051 1.49944   4
   1  -8   4 13.6018 2.13419   4
  -7   8   4 8.64257 0.96473   2
  -1  -7   4 11.6198 1.96483   4
  -8   7   4 9.49251 1.28546   1
  -1   8   4 11.8067 2.23081   4
   8  -1   4 6.36354 1.68449   1
   1   7   4 10.5470 2.05809   1
   7   1   4 14.4892 2.31390   2
  -1   8   4 7.46163 1.75246   1
  -7  -1   4 11.1392 0.96275   4
   1   7   4 10.3820 2.22136   4
  -1   8   4 11.2894 1.94424   1
   7   1   4 13.9447 2.32433   4
   7  -8   4 11.1244 1.47873   1
   8  -7   4 14.5730 1.96461   2
  -7   8   4 12.0820 1.20519   3
   8  -1   4 10.8190 1.97569   1
   7  -8   4 13.1819 1.94848   2
   8  -1   4 10.5895 2.08380   4
   1   7   4 9.15312 1.95709   2
  -7   8   4 10.5551 1.15027   3
   7   1   4 9.31646 1.99328   3
  -7   8   5 4.67174 1.02352   3
   8  -1   5 8.52266 2.16377   3
   1  -8   5 4.31153 1.66502   1
  -8   7   5 4.56943 0.46250   2
  -8   1   5 3.77088 1.60803   1
   1   7   5 6.37303 2.02053   1
   1  -8   5 3.30293 1.67961   2
   7   1   5 3.30183 1.71025   1
  -1  -7   5 2.68791 1.53979   2
   8  -7   5 9.12615 2.14195   3
  -1   8   5 3.01674 1.54116   1
  -8   7   5 6.13596 1.41890   1
   7  -8   5 6.02537 1.95029   3
   7   1   5 3.41090 1.97610   5
   8  -1   5 3.08272 1.61657   5
  -7   8   5 3.31196 1.63088   5
   8  -1   5 6.01483 1.75975   1
  -8   1   5 2.95389 1.30785   2
  -7  -1   5 4.43797 1.27955   3
   8  -7   5 4.21008 2.01009   5
   1  -8   5 7.21635 2.10373   3
   7  -8   5 6.67001 2.21868   5
   7  -8   5 3.39348 1.31532   1
  -1   8   5 5.49924 1.72753   2
  -7   8   5 4.44105 0.98111   3
  -1   8   5 6.45341 2.05533   5
  -1   8   5 4.58222 1.64514   3
   1   7   5 6.40247 1.84644   2
   1   7   5 7.04359 1.87457   3
  -8   1   5 6.31064 0.90406   3
   7   1   5 8.26357 2.18976   5
   8  -1   5 7.24283 2.12211   5
   7   1   5 7.57371 2.31501   3
   1  -8   5 5.95126 1.79096   5
   8  -1   5 1.93990 1.59513   2
   8  -1   5 2.52956 1.73892   3
   8  -7   5 1.82558 1.95889   5
   7  -8   5 2.30554 1.90666   5
  -7  -1   5 5.88818 1.55988   2
  -8   7   5 5.90303 0.84826   4
   7   1   5 5.77702 2.11750   4
  -1  -7   5 2.75337 1.59606   3
   8  -1   5 6.50310 2.12204   4
  -8   7   5 6.54821 0.86731   4
   1   7   5 5.40906 1.81941   2
  -1   8   5 4.54203 1.64071   2
  -7  -1   5 6.40948 1.88034   1
   8  -7   5 7.63804 1.93070   4
  -7   8   5 5.00528 0.95024   2
   7  -8   5 3.92106 1.68574   4
  -1  -7   5 12.3367 2.36751   1
  -1   8   5 2.51588 1.65768   1
   7   1   5 3.17667 1.84776   2
   1  -8   5 4.35970 1.59490   4
  -7   8   5 4.03143 1.19909   4
  -1  -7   5 9.52988 2.17772   4
   8  -1   5 3.62974 1.66029   2
  -1   8   5 6.58436 2.15529   4
   1   7   5 5.93105 2.03647   4
   1   7   5 4.46014 2.13251   5
  -7  -1   5 1.28767 0.59126   4
  -7   8   5 4.75394 1.38240   1
   1   7   5 4.36357 1.86021   1
  -7   8   5 4.82071 0.98704   2
   7   1   5 3.78512 1.73484   4
   8  -1   5 3.61282 1.82248   4
  -8   7   5 3.86451 1.63385   5
  -1  -7   5 9.25781 1.86613   5
   8  -7   5 5.28981 1.65688   2
  -1   8   5 4.41168 1.70715   3
   1   7   5 4.42729 1.87193   3
   8  -7   5 4.68349 1.31500   1
   7   1   5 3.97419 1.72944   2
   7  -8   5 5.36335 1.61688   2
   7   1   5 5.18262 1.97298   3
   7   1   6 4.84475 2.67814   3
  -1  -7   6 4.82354 1.90354   1
   8  -1   6 4.37465 2.43252   3
  -7   8   6 5.95530 1.24160   3
  -7  -1   6 0.83473 1.82535   1
   1  -8   6 8.37745 2.52079   2
  -1  -7   6 4.28243 1.98219   3
  -1   8   6 3.44939 2.09436   1
  -1  -7   6 1.22480 2.05839   2
   8  -7   6 3.92276 2.19569   3
  -8   7   6 5.03217 1.66326   1
   7  -8   6 8.51342 2.52625   3
  -7  -1   6 3.26433 1.62181   2
   7   1   6 4.66112 2.68194   5
  -8   1   6 4.96579 1.62668   2
  -8   1   6 5.86417 1.03468   3
   1  -8   6 2.86351 2.19845   3
   7   1   6 1.16685 1.73482   1
   8  -7   6 6.61911 2.54676   5
   1  -8   6 2.77601 1.80933   5
  -7   8   6 5.92964 1.27408   3
  -1  -7   6 6.17855 1.99608   5
  -7  -1   6 2.57777 1.30684   3
   8  -1   6 5.20786 2.04493   1
  -7   8   6 3.83228 1.99831   5
  -7   8   6 4.72489 1.18472   2
  -8   7   6 3.72998 0.80110   2
  -1  -7   6 5.37952 1.86126   5
  -1   8   6 3.76089 2.66567   5
  -1   8   6 1.60496 1.85767   2
   1   7   6 5.50819 2.70188   5
  -1   8   6 3.52310 2.09662   3
   1   7   6 3.74454 2.18774   3
   7   1   6 5.45678 2.81884   5
   8  -1   6 4.08436 2.44854   5
   8  -1   6 5.57710 2.43600   3
   7   1   6 3.32353 2.27456   2
   7   1   6 3.06924 2.31613   3
   8  -1   6 2.56627 2.18563   2
   8  -7   6 2.87176 2.43849   5
   7  -8   6 2.36757 2.48775   5
   1  -8   6 8.58568 2.26931   5
  -7   8   6 4.82185 1.39184   4
   8  -1   6 2.08176 2.03324   4
  -8   7   6 3.70519 1.90651   5
   1   7   6 5.97452 2.44559   2
  -8   7   6 7.63768 1.02932   4
   8  -7   6 3.07674 1.85979   4
   7  -8   6 1.92630 2.07121   4
   1   7   6 2.87032 2.17646   2
  -1   8   6 0.56048 1.79945   2
   7   1   6 5.61796 2.38761   4
   1  -8   6 10.1836 2.43397   4
   7  -8   6 3.19011 1.97226   5
   8  -1   6 3.94870 2.62959   5
  -1  -7   6 3.61150 1.84512   4
   7   1   6 9.69133 2.57810   2
  -7   8   6 10.3387 1.74797   4
   8  -1   6 3.91191 2.35570   2
  -1   8   6 5.11063 2.31370   4
   1   7   6 1.76813 2.04540   4
   1   7   6 5.02699 1.96678   1
   7   1   6 2.85388 1.91599   4
   7  -8   6 4.91249 1.88485   1
  -7   8   6 4.97390 1.69772   1
  -7   8   6 5.79114 1.26002   2
   8  -1   6 6.82374 2.48718   4
  -7  -1   6 4.74838 0.77723   4
   8  -7   6 5.99190 2.36816   2
   1  -8   6 4.41558 2.04105   1
   7  -8   6 4.22681 2.03482   2
  -1   8   6 3.27760 1.80035   3
   1   7   6 3.11968 1.99250   3
   8  -7   6 1.89186 1.61205   1
  -8   1   6 1.97495 2.09621   1
  -8   7   6 5.43074 0.89560   2
   0   8  -6 9.40272 2.54756   3
   8  -8  -6 5.65723 2.17650   5
   0  -8  -6 3.98200 2.66380   5
   8   0  -6 7.56060 2.33961   1
   0   8  -6 4.99937 1.98959   1
  -8   8  -6 5.96877 2.54062   4
   0   8  -6 3.87249 1.91293   4
  -8   0  -6 6.79653 2.75054   1
  -8   8  -6 6.66456 2.57401   2
   8   0  -6 6.12581 1.72816   2
   8  -8  -6 7.59470 1.89847   1
   0   8  -6 3.87692 2.15580   2
   0  -8  -6 2.99951 2.44842   4
   8   0  -6 9.73460 1.44069   3
  -8   8  -6 5.33103 2.01062   1
  -8   8  -6 1.73786 2.22421   3
   0   8  -5 122.437 6.48512   3
   0   8  -5 122.512 5.62434   5
   8   0  -5 113.715 5.74772   1
   0   8  -5 98.7486 5.70955   1
   8  -8  -5 117.062 6.10420   5
   0  -8  -5 119.178 7.32830   5
  -8   8  -5 114.061 6.16412   4
   0   8  -5 104.897 5.62448   4
  -8   8  -5 97.4162 5.87926   2
   8  -8  -5 126.952 4.77454   1
   8   0  -5 101.671 4.57760   2
   0   8  -5 120.981 6.37878   2
  -8   8  -5 127.637 5.47907   1
   0  -8  -5 109.825 6.49390   4
  -8   8  -5 90.2504 5.43189   3
   8   0  -5 114.298 3.70851   3
   0   8  -4 7.03435 1.85388   3
  -8   8  -4 10.4438 2.33991   5
   0   8  -4 12.3032 1.97308   5
   8  -8  -4 8.54597 1.91876   5
   0  -8  -4 12.6333 2.81576   5
   0  -8  -4 8.87990 2.08197   3
  -8   8  -4 11.0070 2.00248   4
   8  -8  -4 8.84890 1.27173   1
   0   8  -4 10.7910 1.98500   4
  -8   8  -4 12.1932 1.99007   2
  -8   8  -4 13.5634 1.67782   1
   8   0  -4 10.2097 1.50948   2
   8   0  -4 8.59328 1.80950   1
   0   8  -4 8.38412 1.92609   1
   8  -8  -4 11.6623 1.40933   4
   0  -8  -4 8.43219 2.11434   4
   0   8  -4 12.1984 2.19134   2
   8   0  -4 10.0242 1.11802   3
  -8   8  -4 10.7162 1.91465   3
   8   0  -3 16.9467 1.37559   3
   0   8  -3 9.87519 1.98516   3
  -8   8  -3 15.5256 2.47942   5
   0   8  -3 16.2014 1.97630   5
   8  -8  -3 15.4074 2.15682   5
   0  -8  -3 17.4467 2.60543   5
   0  -8  -3 18.1346 2.45095   3
   8  -8  -3 19.0492 1.27566   1
  -8   8  -3 18.8296 2.23166   4
   8   0  -3 12.8283 1.82345   1
   0   8  -3 21.0412 2.33869   1
  -8   8  -3 13.8375 1.86701   2
   0   8  -3 15.4135 2.12450   4
  -8   8  -3 17.0125 1.46700   1
   8   0  -3 14.5249 1.64321   2
   8  -8  -3 16.9729 1.55233   4
   0  -8  -3 14.8478 2.35699   4
   0   8  -3 15.7835 2.35457   2
  -8   8  -3 15.3357 1.97696   3
   0   8  -2 30.3909 2.73336   5
   0   8  -2 34.3202 2.97601   3
   8   0  -2 29.1928 1.83663   3
  -8   8  -2 34.3319 3.10498   5
   0  -8  -2 34.1122 2.97954   2
   0  -8  -2 29.4660 3.04507   5
   0  -8  -2 32.9634 3.05441   3
   8  -8  -2 31.5848 1.50775   3
   8   0  -2 35.7148 1.37009   4
  -8   8  -2 34.8950 2.74679   4
  -8   8  -2 30.6576 1.22645   1
  -8   8  -2 32.3013 2.36062   2
   8   0  -2 32.5085 1.34260   4
   0   8  -2 27.8484 2.67139   4
   8   0  -2 27.2163 2.32313   1
   8  -8  -2 31.3978 2.17130   4
   0   8  -2 32.4704 2.69136   1
   0  -8  -2 33.2452 3.12850   4
   8  -8  -2 35.7452 3.02781   5
   0   8  -2 25.0202 2.53878   2
   8   0  -2 31.5202 2.23892   2
  -8   8  -2 39.4534 2.71916   3
   0   8  -1 213.535 7.03047   3
  -8   8  -1 214.154 7.07850   5
   8   0  -1 225.858 5.28358   3
   0   8  -1 186.768 6.39525   5
   0  -8  -1 213.053 7.55590   5
   8  -8  -1 216.061 4.50296   3
   0  -8  -1 229.940 7.16710   2
   8  -8  -1 201.911 6.86221   5
   0  -8  -1 191.822 6.77947   3
   8   0  -1 219.665 4.38176   4
  -8   8  -1 204.471 6.18799   4
  -8   8  -1 219.507 5.15109   2
   0   8  -1 241.203 7.46005   4
   8   0  -1 216.467 4.45634   4
   8  -8  -1 210.550 5.53033   4
   0  -8  -1 247.515 8.09356   4
   0   8  -1 203.234 6.84142   2
   8   0  -1 232.263 5.69541   2
  -8   8  -1 220.051 5.79574   3
   8   0  -1 194.516 5.92195   1
   0   8  -1 223.260 6.69396   1
   8  -8   0 51.3073 3.51421   5
   8   0   0 42.6250 2.61911   2
   8  -8   0 54.0285 1.95352   2
   0   8   0 53.9768 3.62277   3
   8   0   0 46.7839 2.18716   5
   8  -8   0 46.8571 2.37265   3
   0  -8   0 47.5888 3.19756   2
  -8   8   0 54.1971 3.53037   5
   8   0   0 54.3563 2.80786   3
   0   8   0 45.8919 3.10842   1
   0  -8   0 57.3363 3.69604   3
   8   0   0 46.2220 2.83764   1
   0  -8   0 45.4282 3.46752   5
   8   0   0 54.2713 2.48937   5
   8   0   0 47.1039 2.48756   4
   8   0   0 45.1621 2.91246   1
  -8   8   0 44.4614 2.66364   4
   0  -8   0 38.1896 2.82676   1
  -8   8   0 51.8183 2.03125   2
   0   8   0 51.4526 3.52602   4
   8  -8   0 46.7211 2.74775   4
   8   0   0 55.1055 2.81318   4
   0  -8   0 58.0412 3.92905   4
   8   0   0 44.7250 2.65854   3
   0   8   0 57.2310 3.62363   2
  -8   8   0 43.7326 2.33498   3
   0   8   0 49.0435 3.44131   5
   0   8   1 217.056 7.01428   2
   0  -8   1 200.468 6.65187   2
   8  -8   1 199.495 5.43269   3
   8   0   1 217.557 6.12771   2
   8   0   1 211.699 5.54210   5
   0   8   1 179.616 6.65001   3
  -8   8   1 215.660 6.90579   5
   8  -8   1 181.285 6.65348   5
   8   0   1 205.678 6.10539   3
   0  -8   1 201.870 6.99360   5
   8   0   1 209.127 5.77485   5
  -8   0   1 195.035 5.08766   3
   8   0   1 223.904 6.65514   2
   0   8   1 208.270 6.36875   1
   0  -8   1 178.196 5.96600   1
   8   0   1 225.471 6.42728   1
   8   0   1 165.289 5.50013   1
  -8   8   1 222.780 5.52338   4
   8   0   1 182.317 5.41475   4
   0   8   1 185.017 6.12371   1
  -8   0   1 203.544 5.75127   2
   8  -8   1 233.050 6.47259   4
   0   8   1 235.231 7.51605   4
   0  -8   1 214.873 7.30130   4
   0  -8   1 214.161 7.07856   3
   8   0   1 197.510 6.21524   4
  -8   0   1 181.007 5.71942   1
   8   0   1 182.112 5.80801   3
   8  -8   1 220.918 4.90490   2
   0   8   1 212.224 7.49389   5
  -8   8   1 200.208 4.40067   3
  -8   8   2 33.7898 1.55631   3
   0   8   2 20.5894 2.46346   2
   0  -8   2 30.7762 2.87300   2
   8  -8   2 34.1877 1.30120   1
   8  -8   2 35.4723 2.60684   3
   0   8   2 28.6815 2.86008   3
  -8   8   2 36.9648 3.03623   5
   8  -8   2 29.7954 2.98522   5
   0  -8   2 35.7440 3.05427   3
  -8   0   2 33.7560 2.36694   2
   0  -8   2 35.7444 2.97832   5
   8   0   2 36.8496 2.93631   3
  -8   0   2 36.8103 2.68824   1
   8   0   2 35.5201 2.78045   5
   8   0   2 38.6246 2.76647   4
   8   0   2 27.4342 2.48248   2
   8   0   2 35.6841 2.86772   2
   0   8   2 31.9398 2.67492   1
  -8   8   2 29.6280 1.98721   4
   8   0   2 34.6077 2.66465   1
   8  -8   2 38.0797 3.02337   4
   0   8   2 35.2858 3.22639   4
   0  -8   2 30.0380 2.85613   4
   8   0   2 36.2244 2.65980   5
   8   0   2 36.6457 3.00744   4
  -8   0   2 29.0505 1.91328   3
   0   8   2 36.1854 3.40662   5
   8  -8   2 30.0037 2.25802   2
   8   0   2 33.2702 2.68963   3
   8   0   2 28.6513 2.40886   1
   0  -8   2 30.7296 2.62492   1
   0   8   2 30.3040 2.68497   1
   0  -8   3 12.2306 2.03334   2
  -8   8   3 14.8040 0.88038   3
   8  -8   3 14.2537 1.91585   3
   0   8   3 16.4223 2.66526   5
   0   8   3 12.8346 2.24294   3
  -8   8   3 17.9185 2.32673   5
   8   0   3 15.8359 2.22298   2
   0  -8   3 16.2792 2.09837   5
   8   0   3 15.2838 2.08376   5
  -8   0   3 18.2120 1.51542   3
   8   0   3 15.8182 2.20409   3
   0   8   3 14.0961 2.06951   1
   8   0   3 21.0266 2.49705   5
   0  -8   3 16.3288 2.37503   3
   8  -8   3 16.6323 2.48293   5
   8   0   3 20.1520 2.35697   4
   8   0   3 12.4801 2.01582   2
   0   8   3 9.83476 1.94145   2
  -8   0   3 17.5867 1.84909   2
  -8   8   3 16.0257 1.47880   4
   8  -8   3 18.8435 2.30409   4
   0   8   3 15.3313 2.11413   1
   0  -8   3 21.4164 2.41551   1
   0  -8   3 12.3800 2.15735   4
   0   8   3 18.1691 2.48524   4
   8   0   3 15.6271 2.04086   1
  -8   8   3 16.1209 1.14469   1
   8   0   3 11.8265 1.81808   1
  -8   0   3 17.6060 2.02210   1
   8   0   3 12.0665 2.17570   4
   8  -8   3 16.7560 1.94129   2
   8  -8   3 16.1404 1.34880   1
  -8   8   3 14.8536 0.87265   3
   8   0   3 20.2715 2.42043   3
   8  -8   4 10.3471 2.19291   5
  -8   8   4 10.7555 0.71842   3
   8  -8   4 11.8422 1.99956   3
   0   8   4 10.7729 1.94499   1
  -8   0   4 11.5430 1.66276   2
   0   8   4 11.9916 2.10514   2
   0  -8   4 6.10349 1.98265   2
  -8   0   4 8.73043 1.22969   3
  -8   8   4 12.6260 2.08465   5
   0   8   4 15.8048 2.46064   3
   8   0   4 11.5376 2.12916   1
   0  -8   4 11.7731 2.22124   3
   0   8   4 7.65401 2.14103   5
   8   0   4 14.1493 2.42455   5
   8   0   4 11.2680 2.07234   2
   8   0   4 8.66752 2.04208   3
   8   0   4 14.8000 2.33389   4
   0  -8   4 10.8706 2.01899   1
   0   8   4 7.08593 1.69629   2
  -8   8   4 14.8316 1.54045   1
  -8   0   4 7.63977 1.70885   1
  -8   8   4 9.97945 1.32292   4
   8  -8   4 12.1438 2.19593   4
   8   0   4 12.1505 2.30573   2
   0   8   4 12.2349 2.41272   4
   8  -8   4 13.8048 1.55463   1
   0  -8   4 10.9841 1.98417   4
   8   0   4 13.7228 2.39434   4
   8   0   4 12.0601 2.02562   1
   8   0   4 8.45006 1.95169   5
   0  -8   4 9.39662 1.86836   5
   8  -8   4 11.3688 1.83015   2
  -8   8   4 7.66662 0.67385   3
   0   8   4 9.31601 1.84662   1
   8   0   4 6.96266 1.82496   3
  -8   8   5 116.611 2.47869   3
  -8   0   5 118.791 5.20722   2
   8  -8   5 98.3140 5.77404   3
  -8   8   5 108.685 2.40867   3
   0   8   5 136.134 6.52597   2
   0  -8   5 122.254 6.49471   3
  -8   8   5 136.074 6.32612   5
   0   8   5 134.353 6.65232   3
   0  -8   5 117.786 5.75482   5
  -8   0   5 124.805 4.09493   3
   0   8   5 117.056 7.07022   5
   8   0   5 113.602 6.37152   2
   0   8   5 94.4386 5.80266   1
   0  -8   5 123.564 6.27321   1
   8   0   5 95.3844 5.97871   3
   8   0   5 121.362 7.02764   5
  -8   0   5 113.853 5.91075   1
   8  -8   5 124.235 7.02989   5
  -8   8   5 118.689 3.77926   4
   8   0   5 139.508 6.99664   4
   0   8   5 116.965 6.08419   2
  -8   8   5 96.3870 4.59944   1
   8   0   5 104.623 6.20305   2
   8  -8   5 119.312 6.39387   4
  -8   8   5 126.492 4.06729   4
   0  -8   5 124.530 6.21515   4
   8  -8   5 112.630 4.79171   1
   0   8   5 128.970 6.82338   4
   8   0   5 101.628 6.08479   1
   8   0   5 118.781 6.58002   5
   8  -8   5 123.648 7.11300   5
   8   0   5 103.799 6.45164   4
   8  -8   5 105.687 5.66114   2
   0   8   5 115.859 6.04187   1
   8   0   5 120.334 6.31496   1
   0   8   5 114.475 6.18141   3
   8   0   5 102.942 6.02078   3
   0  -8   5 124.733 6.47950   2
   8   0   6 4.63159 2.55694   3
  -8   8   6 5.59825 1.84708   1
   0   8   6 4.82597 2.18652   1
  -8   8   6 6.95468 0.96640   2
   0  -8   6 9.18231 2.59037   2
   0  -8   6 7.80368 2.53001   1
  -8   8   6 7.77522 0.87994   3
  -8   0   6 5.62729 2.07208   1
   8  -8   6 3.06195 2.30548   3
   8  -8   6 8.30208 1.93166   1
   8   0   6 7.41047 2.76009   5
  -8   0   6 5.55933 1.80358   2
   0  -8   6 10.0122 2.76628   3
   8  -8   6 3.14668 2.37673   5
   0   8   6 7.36053 2.39134   1
  -8   8   6 6.56405 2.31559   5
   0  -8   6 6.70091 2.17707   5
  -8   0   6 6.95884 1.38700   3
   0   8   6 5.13720 2.88743   5
   0   8   6 6.34085 2.49863   3
   8   0   6 2.19977 2.13574   5
   8   0   6 4.00308 2.39467   2
   8   0   6 8.03895 2.66768   3
   8  -8   6 1.82443 2.65866   5
   0  -8   6 4.70711 1.97579   5
   8   0   6 5.61324 2.25105   1
  -8   8   6 6.82274 1.20388   4
   8   0   6 3.31363 2.28985   4
   8  -8   6 7.96896 2.89994   4
   0   8   6-0.21544 1.99247   2
  -8   8   6 5.34570 1.22681   4
   0  -8   6 8.65829 2.42240   4
   8   0   6 3.83634 2.25468   2
   0   8   6 4.26067 2.38069   4
   0   8   6 6.67252 2.39879   2
   8   0   6 4.03729 2.52446   4
   8  -8   6 8.31414 2.55492   2
   0   8   6 5.00328 2.09329   3
   5   4  -6 62.1740 4.98935   1
   4   5  -6 66.2447 5.12374   1
   5  -9  -6 65.0110 5.41161   5
   4  -9  -6 56.2978 5.32978   5
  -4  -5  -6 71.9143 6.07142   5
   9  -5  -6 55.8442 3.06833   5
  -5  -4  -6 60.9161 5.59507   5
   9  -4  -6 56.6218 2.54172   2
  -9   4  -6 63.8537 5.22337   2
   4  -9  -6 73.7909 4.82614   1
  -9   5  -6 64.6650 5.13723   2
   5   4  -6 51.9488 3.40828   4
   5  -9  -6 66.3676 4.51713   1
  -5   9  -6 62.1687 5.00186   4
   4   5  -6 58.3196 3.82038   4
  -4   9  -6 46.9865 4.41206   4
  -9   4  -6 48.0308 4.27853   1
  -9   5  -6 52.6977 4.23324   1
  -5   9  -6 62.8697 5.11360   2
  -4   9  -6 63.7039 5.20207   2
   5   4  -6 62.1479 4.64931   2
   4   5  -6 58.3166 4.72597   2
   9  -5  -6 69.7126 4.45879   1
   4  -9  -6 51.5216 4.43837   4
   5  -9  -6 43.0313 3.99011   4
  -9   5  -6 65.1962 5.19112   3
   9  -4  -6 62.9024 4.65438   1
  -5   9  -6 69.8876 4.84939   1
  -5   9  -6 64.1378 5.08079   3
  -4   9  -6 57.2711 4.89116   3
   5   4  -6 46.4107 3.78786   3
   4   5  -6 58.8655 4.38609   3
  -4   9  -6 63.6136 4.72172   1
   5   4  -5 20.3347 2.50607   3
   4   5  -5 17.3470 2.66007   3
  -4   9  -5 20.5621 2.51849   1
  -4   9  -5 18.3453 2.72002   5
   5  -9  -5 20.7668 3.19081   5
   5   4  -5 20.5512 2.88614   1
  -5   9  -5 17.4188 2.73984   5
   4   5  -5 18.8444 2.75842   1
   9  -5  -5 14.8353 1.66553   5
   4  -9  -5 12.7874 2.78921   5
   5   4  -5 13.1567 1.77375   4
  -4  -5  -5 16.4373 3.12408   5
  -5  -4  -5 17.3447 3.20168   5
   9  -4  -5 16.7840 1.08607   2
  -9   4  -5 20.4011 2.99671   2
   5  -9  -5 21.8448 2.50237   1
   4   5  -5 17.5164 2.14731   4
  -9   5  -5 18.3001 2.38413   1
  -5   9  -5 13.4637 2.47580   4
  -9   5  -5 14.1420 2.52684   2
  -4   9  -5 15.2644 2.63874   4
  -5   9  -5 11.4366 2.70530   2
   5   4  -5 14.8741 2.36475   2
   4   5  -5 18.1329 2.58232   2
  -4   9  -5 16.0104 2.65254   2
  -9   4  -5 18.7436 2.41417   1
   4  -9  -5 18.9750 2.66671   4
   5  -9  -5 19.2845 2.53106   4
   9  -5  -5 20.5010 2.33269   1
  -9   5  -5 17.6524 2.63064   3
   9  -4  -5 20.0303 2.34891   1
  -5   9  -5 15.2244 2.49269   3
  -4   9  -5 19.4838 2.79664   3
  -5   9  -5 18.0164 2.38351   1
  -5   9  -4-0.63243 1.30409   3
  -4   9  -4 0.56724 1.24012   3
   5   4  -4 0.57060 0.95992   3
   4   5  -4 0.67244 1.28380   3
  -4   9  -4 0.74730 1.26117   5
  -5   9  -4 0.35301 0.88265   1
   9  -4  -4-0.17948 0.83980   1
   5  -9  -4 0.06933 1.55348   5
   4  -9  -4 2.53243 1.68278   5
   9  -5  -4-0.37583 0.71422   5
  -4  -5  -4 1.32495 1.67613   5
   9  -4  -4 0.49453 0.36533   5
  -5  -4  -4-1.32409 1.57088   5
   4  -9  -4-0.44841 1.05775   3
   5  -9  -4 0.47498 0.93820   3
  -4   9  -4-0.13235 0.99769   1
  -9   4  -4 1.18490 1.20122   2
  -9   5  -4 3.48184 1.44649   2
  -5   9  -4 1.30537 1.57310   4
  -4   9  -4 0.51931 1.29800   4
   5   4  -4-0.50871 0.82644   4
   4   5  -4 0.47078 0.84719   4
  -9   4  -4-0.02015 0.87661   1
  -9   5  -4-0.11080 0.81443   1
  -5   9  -4 0.39108 1.16115   2
  -4   9  -4 1.05356 1.22977   2
   9  -5  -4 3.08541 1.12602   1
  -5   9  -4 0.49349 1.46429   5
   4  -9  -4-0.50946 1.30799   4
   5  -9  -4 0.20729 1.13568   4
  -4  -5  -4 0.83318 1.53058   4
  -5  -4  -4 1.08857 1.25935   4
   5   4  -4 0.59410 1.10888   2
   4   5  -4 0.97079 1.14633   2
   5   4  -4-0.05566 1.02742   1
   4   5  -4 0.28169 1.24443   1
  -9   5  -4 0.91834 1.27547   3
  -5   9  -3 37.7921 3.48144   3
  -4   9  -3 63.7347 4.06442   3
   5   4  -3 59.7091 3.51952   3
   4   5  -3 40.8185 3.12751   3
   9  -4  -3 57.2095 2.79653   1
  -5   9  -3 53.0302 2.93991   1
   4   5  -3 57.7675 2.34580   5
  -5   9  -3 56.4052 4.12185   5
  -4   9  -3 50.3765 3.72283   5
   4  -9  -3 65.4846 4.59795   5
   9  -5  -3 44.6442 2.57112   5
   9  -4  -3 55.2917 2.05209   5
   5  -9  -3 54.9160 3.24622   3
  -4  -5  -3 40.4446 3.47959   5
  -5  -4  -3 39.9006 3.36505   5
  -4  -5  -3 54.9970 4.12727   3
  -9   5  -3 56.3703 3.46743   2
  -4   9  -3 52.6474 3.73680   4
  -5   9  -3 65.5026 4.07637   4
   5   4  -3 49.8726 2.80022   4
   4   5  -3 48.0134 2.96362   4
   5   4  -3 45.1370 3.38463   1
   4   5  -3 62.3783 4.03766   1
   4  -9  -3 57.3116 3.56564   3
  -5   9  -3 61.6136 3.87326   2
  -4   9  -3 49.1686 3.45324   2
   5  -9  -3 50.2927 3.47797   4
   4  -9  -3 51.8854 3.68252   4
  -4  -5  -3 61.4894 4.38926   4
   4   5  -3 64.3813 3.97485   2
   5   4  -3 51.1533 3.48547   2
  -5  -4  -3 54.1745 4.04979   4
   5  -9  -3 57.5128 4.29411   5
  -9   5  -3 64.7297 3.82236   3
  -4   9  -3 54.6518 3.13190   1
   9  -5  -3 55.5253 2.57863   1
  -5   9  -2 46.5821 3.25915   3
  -4   9  -2 53.3013 3.49498   3
   9  -5  -2 53.0039 2.72185   5
   9  -5  -2 43.8391 1.88996   1
  -4  -5  -2 50.4335 3.66696   2
  -5   9  -2 52.3202 3.65848   5
   4   5  -2 48.3708 3.25738   3
   5   4  -2 51.4336 3.14092   3
   4   5  -2 40.6149 2.16365   5
   4  -9  -2 45.6141 3.76733   5
   9  -4  -2 49.5712 2.32247   1
  -5   9  -2 44.6930 2.44408   1
   9  -4  -2 51.0082 2.23793   5
   5  -9  -2 43.1956 3.68542   5
   4  -9  -2 45.2400 3.07283   3
   5  -9  -2 37.7682 2.68112   3
   4  -9  -2 44.7762 2.84973   2
   5   4  -2 51.2676 1.84844   5
   5  -9  -2 51.1724 2.76600   2
  -4  -5  -2 49.0381 3.54964   5
  -4  -5  -2 51.8607 3.73433   3
  -5  -4  -2 35.8229 3.04207   5
  -5  -4  -2 45.5503 3.50856   3
  -4   9  -2 49.3348 2.79811   1
  -9   5  -2 47.1417 2.96497   4
  -5   9  -2 58.2368 3.70230   4
  -4   9  -2 50.0071 3.46177   4
   4   5  -2 45.9089 2.95738   4
   5   4  -2 44.2728 2.76774   4
  -4   9  -2 53.8962 3.74261   5
  -5   9  -2 36.5776 2.75018   2
   5  -9  -2 41.1309 3.18525   4
   4  -9  -2 55.2436 3.68282   4
  -4   9  -2 47.6200 3.18461   2
  -4  -5  -2 39.4924 3.50459   4
  -5  -4  -2 59.7026 4.00450   4
   5   4  -2 52.6078 3.56248   1
   4   5  -2 48.2172 3.42539   1
   4   5  -2 54.2686 3.46468   2
  -9   5  -2 43.8910 2.82080   3
   5   4  -2 40.0073 2.93801   2
  -5  -4  -1 24.0651 2.46232   3
  -5   9  -1 24.1295 2.31729   3
   5   4  -1 31.9971 2.53822   3
  -4   9  -1 24.2333 2.35173   3
   5   4  -1 20.2899 2.17040   1
   4   5  -1 22.2968 2.29750   1
  -9   5  -1 23.7520 2.24703   5
   4   5  -1 21.5771 2.17327   3
   5  -9  -1 24.7652 2.72345   5
  -5   9  -1 22.2011 2.61793   5
   5   4  -1 29.9577 1.79914   5
   5  -9  -1 26.6163 2.03154   2
   4  -9  -1 26.1487 2.11093   2
   9  -5  -1 31.9655 2.25215   5
   4  -9  -1 26.7646 2.85084   5
   5  -9  -1 28.3667 2.33573   3
  -4  -5  -1 29.8194 2.78718   2
  -4  -5  -1 33.4913 2.67617   5
  -5  -4  -1 26.2443 2.31683   5
   9  -4  -1 29.2492 1.89706   5
  -9   5  -1 23.8777 1.94114   4
  -5   9  -1 27.6730 1.75834   1
   9  -5  -1 24.1864 1.24104   1
   9  -4  -1 25.6089 1.55656   1
  -5   9  -1 33.8390 2.74011   4
  -4   9  -1 19.3502 2.23239   4
   9  -4  -1 25.6466 0.97271   4
   4  -9  -1 29.7310 2.43618   3
   4   5  -1 26.2848 2.31667   4
   5   4  -1 27.2853 2.23719   4
   9  -5  -1 28.5665 1.24718   1
   9  -5  -1 29.7985 1.24891   4
  -4   9  -1 31.9804 2.06480   1
   5  -9  -1 26.8392 2.43711   4
   4  -9  -1 26.5310 2.53933   4
   9  -4  -1 26.5847 1.02202   4
  -5   9  -1 26.3662 2.17780   2
  -4  -5  -1 27.1554 2.66437   4
  -4  -5  -1 27.1817 2.66542   3
  -5  -4  -1 34.3904 2.90446   4
  -4   9  -1 25.0080 2.68050   5
  -4   9  -1 29.5802 2.43524   2
   9  -4  -1 25.1011 0.70705   2
   9  -5  -1 27.7895 1.30384   4
   4   5  -1 28.8479 1.99700   5
  -5  -4  -1 33.2750 2.97858   2
   4   5  -1 30.6755 2.60985   2
   5   4  -1 30.4095 2.48513   2
   9  -4   0 240.344 4.47576   3
   4   5   0 208.090 6.71313   2
   5   4   0 222.222 6.73835   2
   9  -5   0 237.582 4.16825   3
  -5   9   0 220.692 6.37816   3
  -4   9   0 245.532 6.90452   3
   9  -4   0 239.111 4.10468   2
   5  -9   0 236.494 5.88689   2
   4  -9   0 250.672 6.39332   2
   9  -5   0 244.698 3.43319   2
   5   4   0 237.097 6.95421   3
  -5   9   0 197.125 7.07546   5
  -4   9   0 255.844 7.98479   5
   9  -4   0 252.631 5.98462   5
   5  -9   0 252.578 6.70088   3
   4  -9   0 249.127 6.87468   3
  -5  -4   0 261.248 7.44061   2
  -9   5   0 209.813 5.70928   5
  -4  -5   0 211.995 6.89613   3
   9  -4   0 274.792 4.80338   3
  -4  -5   0 211.823 6.09702   5
   9  -5   0 223.267 4.25439   3
   4   5   0 261.340 7.31979   1
   5   4   0 217.093 6.60799   1
  -5  -4   0 227.049 5.79118   5
  -4  -5   0 261.596 7.44261   1
   9  -5   0 241.350 6.20202   5
   9  -4   0 251.264 5.98094   5
  -5  -4   0 272.270 7.51322   1
  -4   9   0 254.027 5.55088   1
   5   4   0 211.501 5.72884   5
  -5   9   0 258.705 4.88697   1
   9  -4   0 240.407 4.64248   4
   9  -4   0 241.428 4.62788   1
   9  -5   0 238.181 4.83710   4
  -5   9   0 247.215 7.13130   4
  -4   9   0 253.269 7.42060   4
   9  -5   0 227.574 3.24209   1
   9  -4   0 243.418 4.20936   2
   4   5   0 260.831 6.69315   5
   5  -9   0 195.873 7.15261   5
  -5  -4   0 216.861 6.90714   3
   4   5   0 255.137 7.22022   4
   4   5   0 257.402 7.31969   3
   5   4   0 244.332 6.76916   4
   5  -9   0 195.821 6.42450   4
   4  -9   0 244.866 7.35472   4
   9  -5   0 238.626 3.49178   1
   9  -5   0 241.468 3.43250   2
  -4  -5   0 253.579 7.58082   4
  -5  -4   0 232.773 6.94651   4
  -5   9   0 255.684 4.86575   1
   9  -4   0 231.206 5.06685   4
  -5   9   0 251.332 6.18531   2
   9  -5   0 214.653 4.87664   4
  -4   9   0 259.102 6.64741   2
   4  -9   0 253.182 8.10985   5
   9  -4   0 213.095 4.23207   1
  -4  -5   0 233.489 7.12564   2
  -4   9   0 235.884 5.47455   1
   9  -5   1 27.8406 1.90575   3
   5  -9   1 24.2894 2.07486   2
   4  -9   1 25.6081 2.33619   2
   4   5   1 26.3686 2.73125   2
   5   4   1 30.0167 2.60737   2
  -5   9   1 30.7369 2.38510   3
  -4   9   1 23.1777 2.18955   3
  -5  -4   1 28.5400 1.82785   5
  -9   4   1 25.9415 1.72602   5
  -9   5   1 29.0224 2.04581   5
  -4  -5   1 28.5012 2.57186   2
  -5  -4   1 28.3417 2.54510   2
   4  -9   1 20.6594 2.20844   3
   9  -5   1 24.7219 2.24942   5
   4   5   1 28.8505 2.66295   3
   5  -9   1 29.1877 2.84994   5
  -5   9   1 25.4635 1.64345   1
   9  -4   1 23.4135 1.75438   2
   4   5   1 23.6130 2.40428   5
   9  -5   1 26.9632 1.71328   2
  -4  -5   1 20.0307 2.26525   3
  -5  -4   1 31.6926 2.63087   3
   4  -9   1 26.4879 2.70053   5
  -4   9   1 23.3576 2.59784   5
  -4  -5   1 20.7975 1.99817   5
   9  -4   1 21.9149 1.84189   3
   9  -5   1 26.9475 1.32917   1
  -4   9   1 23.6761 1.82682   1
   9  -4   1 29.3618 2.38112   5
  -4   9   1 25.2515 1.79791   1
   5   4   1 30.7395 2.65668   3
   4   5   1 30.4111 2.63172   1
   5   4   1 17.2837 2.04938   1
  -4  -5   1 32.0942 2.75211   1
   9  -4   1 30.8685 1.72816   1
   9  -5   1 26.9301 1.99223   3
  -5   9   1 21.4748 2.49183   5
  -5  -4   1 23.5920 2.32961   1
   9  -4   1 25.6425 1.95787   4
   9  -5   1 25.1869 1.92347   4
  -5   9   1 27.2162 2.49463   4
   4  -9   1 26.8124 1.89015   1
   9  -4   1 25.0582 1.76059   2
  -4   9   1 24.8327 2.45579   4
   9  -4   1 25.3522 2.18731   5
  -5   9   1 26.4259 1.63338   1
   5  -9   1 25.0297 2.31324   3
   5  -9   1 28.9870 2.58641   4
   4  -9   1 22.7717 2.34781   4
   4   5   1 26.9604 2.67730   4
   9  -5   1 27.0719 1.69474   2
   4   5   1 23.5634 2.31066   1
   5   4   1 30.4810 2.76666   4
   5   4   1 26.0967 2.40499   1
   9  -4   1 26.7710 1.75614   1
   5   4   1 25.5958 2.35295   5
   5  -9   1 24.9417 1.64900   1
  -4  -5   1 19.8673 2.34581   4
  -5  -4   1 27.8872 2.41987   4
   9  -4   1 25.3317 2.03601   4
   9  -5   1 31.4569 1.49206   1
  -5   9   1 26.0530 2.01800   2
  -4   9   1 22.6604 2.02866   2
   9  -4   1 22.3150 1.75453   3
   4  -9   2 49.2748 3.22919   2
  -4  -5   2 51.8656 3.51904   1
   9  -5   2 50.4012 2.97913   3
  -5  -4   2 52.0479 3.41235   1
  -9   5   2 50.5228 2.03232   1
   5  -9   2 50.3057 3.76579   5
   4   5   2 42.3319 3.29019   2
   5  -9   2 35.0445 2.99098   3
  -4  -5   2 53.2591 3.46084   2
   5   4   2 52.9289 3.62004   2
   4   5   2 51.7310 3.55018   1
  -5  -4   2 53.4885 3.44087   2
  -5   9   2 49.2543 3.01770   3
  -9   4   2 46.9037 2.01277   5
   5   4   2 38.9972 3.04097   1
   4  -9   2 50.2375 3.45845   3
   9  -5   2 38.5727 3.07147   5
  -9   4   2 51.1499 2.39775   1
  -4   9   2 61.3665 4.20236   5
   4  -9   2 48.0639 3.67251   5
   5   4   2 41.4938 3.26487   3
  -5  -4   2 44.9455 3.14379   3
   4   5   2 49.9804 3.59138   5
   5   4   2 46.3583 3.40581   5
   4   5   2 49.3500 3.66348   3
  -4  -5   2 48.4888 2.55394   5
   9  -4   2 41.4133 2.70296   2
  -5  -4   2 46.9047 1.89043   5
   9  -4   2 46.1090 2.36971   1
   9  -4   2 35.5449 2.61939   3
   9  -4   2 50.4217 3.48135   5
   9  -4   2 50.9793 3.32772   5
   9  -5   2 50.9166 3.52897   5
  -5   9   2 50.0496 3.76823   5
   9  -5   2 40.9670 2.02417   1
   9  -4   2 38.3293 2.77432   4
   4   5   2 42.7788 3.10775   1
   9  -5   2 55.6134 3.17313   4
   5   4   2 42.5379 3.12693   1
  -5   9   2 52.0444 3.35493   4
   9  -4   2 33.1857 2.47681   2
  -4   9   2 51.7794 3.39645   4
   5  -9   2 45.3479 3.29766   4
   4  -9   2 47.4960 3.43928   4
   9  -5   2 42.5161 2.55726   2
  -4   9   2 48.6758 2.62031   1
   4   5   2 53.9427 3.83823   4
   5   4   2 49.6438 3.64133   4
  -4  -5   2 48.6255 3.31288   3
  -4  -5   2 49.8291 3.32963   4
  -5  -4   2 45.6633 3.02575   4
   5  -9   2 48.2306 2.46142   1
  -5   9   2 50.9929 2.47546   1
  -4   9   2 49.4835 3.17387   3
  -9   5   2 46.4808 2.40003   5
   4  -9   2 42.0344 2.50251   1
   9  -4   2 53.7704 3.24451   4
   9  -4   2 50.8326 2.62623   1
  -5   9   2 48.4185 2.42634   1
  -5   9   2 48.1583 2.63287   2
  -4   9   2 46.3822 2.68972   1
   5  -9   2 42.6501 2.98182   2
   9  -4   2 54.5644 3.04889   3
  -4   9   2 38.1768 2.77452   2
   9  -5   2 39.8445 2.03423   1
   9  -5   3 56.6531 3.58183   3
  -5   9   3 42.6920 2.62811   2
  -4   9   3 52.3845 3.11567   2
   9  -5   3 50.6002 2.72709   1
  -4  -5   3 62.4266 3.93921   2
  -5  -4   3 45.0342 3.37395   2
   5  -9   3 51.9000 3.71133   3
  -4  -5   3 46.4458 2.52075   5
   4  -9   3 52.8298 3.73427   3
  -9   4   3 52.2774 1.87963   5
   4   5   3 56.8905 3.95761   2
  -5   9   3 52.3711 3.16394   3
   5   4   3 57.8716 3.98835   2
   9  -5   3 59.5613 4.02493   5
  -4   9   3 51.2276 4.01651   5
   5  -9   3 55.0567 4.04333   5
  -4  -5   3 53.9642 3.59501   3
   4  -9   3 34.2059 3.30873   5
  -5  -4   3 57.1843 3.56430   3
  -5   9   3 54.6359 4.18410   5
   5   4   3 42.3089 3.60020   3
   9  -4   3 57.9466 3.91759   5
  -4   9   3 54.2678 3.61972   4
   4   5   3 56.2497 4.16229   5
   5   4   3 56.6084 4.01147   5
  -9   5   3 55.8689 2.57148   5
  -5  -4   3 54.8560 1.46524   5
   5  -9   3 50.0351 2.87589   1
   4   5   3 46.7474 3.94087   3
   9  -4   3 52.7368 3.47159   3
   9  -5   3 59.8456 4.15921   5
  -5  -4   3 56.3344 1.47175   5
   4  -9   3 66.4777 3.46950   1
  -9   5   3 57.7181 2.66381   1
   9  -4   3 55.2532 2.94270   1
  -4   9   3 58.7274 3.21102   2
   9  -4   3 42.2621 3.67209   5
   4   5   3 57.3423 4.02169   2
  -5   9   3 49.9179 2.81635   2
   5   4   3 42.2701 3.61906   2
   9  -4   3 55.5876 3.56440   4
   4   5   3 47.9901 3.70919   1
   9  -5   3 58.2283 3.63497   4
  -9   4   3 44.7563 2.56649   1
   5   4   3 56.0547 3.86159   1
   4   5   3 62.2060 3.93207   1
   5   4   3 57.4177 3.75473   1
   5  -9   3 62.7150 4.14083   4
  -4   9   3 53.5654 3.11485   1
   4  -9   3 48.6009 3.66858   4
   9  -4   3 55.9315 3.36166   2
  -5   9   3 54.5346 3.45410   4
  -4  -5   3 57.6340 3.87352   1
   9  -5   3 57.7115 3.40664   2
  -5  -4   3 58.2022 3.80401   1
  -4  -5   3 59.0922 3.61287   4
  -5  -4   3 35.6000 3.10686   4
   4   5   3 39.6416 4.15711   4
   5   4   3 45.4169 3.75931   4
  -5   9   3 49.5107 2.81379   1
  -4   9   3 58.3559 3.19248   1
   9  -4   3 43.6290 3.30030   4
  -4   9   3 58.8094 3.49698   3
  -5   9   3 50.2307 2.76297   1
   9  -4   3 48.1558 3.25747   2
   5  -9   3 54.5684 3.51655   2
   9  -4   3 50.5274 2.91183   1
   4  -9   3 59.1706 3.79460   2
   9  -4   3 62.7992 3.66013   3
   5  -9   4-0.71085 1.26820   2
  -4  -5   4 1.00350 0.71999   5
   9  -4   4 0.80576 1.23094   3
   4  -9   4 1.31547 1.06251   1
   4  -9   4 0.05588 1.20862   2
   9  -5   4-0.07999 1.16172   3
  -4   9   4 1.19023 1.00816   2
  -9   4   4 1.42214 0.94423   1
  -5   9   4 0.09643 0.89335   1
   4   5   4 0.75228 1.07879   1
  -4   9   4 1.79309 1.03603   1
  -5  -4   4 1.65879 1.39407   2
   5  -9   4-0.81558 1.41283   3
   4  -9   4 0.11922 1.06630   3
   9  -5   4-0.09550 1.14528   5
  -9   5   4 1.04984 0.71961   5
   5  -9   4 0.52587 1.40014   5
   4  -9   4 0.59883 1.36397   5
  -5   9   4 1.19852 1.02041   3
  -4   9   4 0.27253 0.95930   3
   9  -4   4 2.38300 1.17010   1
  -4  -5   4 2.64282 1.42927   3
  -5   9   4 1.69665 0.93517   1
  -5  -4   4 0.02383 1.01852   3
  -4   9   4 2.52431 1.15300   1
   5   4   4-0.38836 1.25483   1
   4   5   4-0.61606 1.14065   2
   4   5   4 1.35067 1.26776   5
   5   4   4 0.60714 1.55414   5
   4   5   4 2.25698 1.69699   3
   5   4   4-0.80285 1.45914   2
   5   4   4-0.12706 1.37614   3
   9  -4   4 0.69535 1.21341   5
   9  -5   4 1.32957 1.63354   5
  -4  -5   4 1.07770 0.62894   5
   9  -4   4 1.70919 1.32834   3
   9  -5   4 1.58108 0.91708   1
  -9   4   4 1.93270 0.42540   5
   9  -4   4-0.13589 1.01923   4
  -4  -5   4 0.11511 1.24070   1
  -5  -4   4 1.52476 1.34783   1
   4   5   4 0.54352 1.22382   2
   9  -5   4 0.35444 0.95314   4
  -4   9   4 1.03402 0.92784   2
   5   4   4 1.29037 1.21879   2
  -5   9   4 1.55922 1.01603   2
  -5   9   4 1.14267 0.86320   2
   5  -9   4 1.73116 1.37292   4
   4  -9   4 2.85227 1.63087   4
  -5   9   4-0.02331 1.02301   4
  -5   9   4 1.91054 1.60508   5
   9  -4   4 2.40635 1.41356   5
  -4   9   4-0.30584 1.17997   4
  -4  -5   4 0.23020 1.00376   4
  -5  -4   4 0.69901 0.97803   4
  -4   9   4 1.41646 1.43170   5
   9  -4   4 2.40319 1.43680   2
   4   5   4 6.15353 1.80116   4
   5   4   4-0.43925 1.25036   4
  -4  -5   4 0.95982 1.27362   2
   9  -5   4 2.26963 1.22779   2
   9  -4   4 0.69635 1.36926   4
   9  -5   4 0.63027 1.09470   4
   5  -9   4 1.40479 1.13161   1
   4   5   4 0.86696 1.38399   3
   5   4   4-0.28044 1.13529   3
   4   5   4 0.14498 1.29014   1
   5   4   4 1.70843 1.33681   1
  -9   5   4 2.04896 1.00038   1
   9  -5   5 18.2924 2.73314   3
  -4  -5   5 16.7593 2.72117   2
  -5  -4   5 20.9401 2.75945   2
  -9   5   5 21.0935 2.30955   1
   4   5   5 14.5278 2.58249   1
   5  -9   5 19.3394 2.31636   1
  -5   9   5 16.8995 2.15987   1
   9  -4   5 16.0758 2.25388   1
  -5   9   5 16.1331 2.01618   2
  -4   9   5 18.9128 2.24895   2
   5  -9   5 20.0130 2.84981   3
  -9   4   5 19.5819 1.14098   2
   4  -9   5 21.6655 3.04847   3
  -5   9   5 24.2618 2.42343   3
   4  -9   5 22.7651 2.57316   1
  -9   4   5 14.5399 2.17580   1
  -9   4   5 19.3371 1.09090   5
   9  -5   5 21.7382 2.37227   1
   9  -4   5 25.5867 3.27833   5
   4   5   5 17.5347 2.87568   2
  -4  -5   5 21.9955 2.79202   3
  -5  -4   5 13.9940 2.17505   3
  -9   5   5 23.3124 1.89581   5
   5  -9   5 22.4370 3.20201   5
   4  -9   5 28.0933 3.38369   5
   5   4   5 23.2564 3.00904   2
  -5   9   5 12.2618 2.20270   4
  -4   9   5 13.0510 2.58739   5
   4   5   5 21.7368 3.46707   5
   5   4   5 18.4963 2.91584   5
  -5  -4   5 9.30895 2.42208   1
   4   5   5 19.0197 2.89335   3
  -5   9   5 19.8934 3.12664   5
   4   5   5 20.0735 2.85448   1
  -4  -5   5 17.3401 2.86335   1
   5   4   5 12.5255 2.70302   3
  -4  -5   5 20.7884 1.64298   5
   9  -4   5 22.7125 3.38782   5
   9  -5   5 21.0565 3.31295   5
   9  -4   5 20.3020 2.89439   3
   5   4   5 21.0816 2.91329   1
   5   4   5 19.0983 2.86815   4
   4   5   5 18.1423 2.77356   2
  -4   9   5 18.7498 2.47378   2
   9  -5   5 21.1691 3.08192   4
  -5   9   5 11.5512 1.88847   2
   9  -4   5 9.82998 2.45679   4
   5  -9   5 24.7911 3.12974   4
   4  -9   5 19.5155 2.87112   4
   5   4   5 13.8998 2.73862   2
   9  -4   5 20.7803 2.73432   2
  -4   9   5 19.9070 2.61128   4
  -4  -5   5 15.0350 2.18495   4
  -5  -4   5 21.8275 2.43376   4
   9  -5   5 20.8966 2.80720   2
   9  -5   5 18.7002 3.12388   5
  -4   9   5 26.3991 2.81810   3
   5   4   5 23.9576 3.31223   4
   4   5   5 13.5961 2.87653   4
   5   4   5 18.1003 2.82913   1
   9  -4   5 18.8516 2.86071   4
   9  -5   5 7.90710 2.33482   4
  -4  -5   5 19.6502 1.65934   5
  -4   9   5 16.8075 2.19445   3
   5  -9   5 17.3240 2.65361   2
  -5   9   5 18.2946 2.26777   3
   4   5   5 16.9430 2.65390   3
   5   4   5 17.9209 2.79877   3
   4  -9   5 20.1591 2.77299   2
  -4   9   5 22.6028 2.51935   1
   9  -4   5 15.6311 2.90710   3
   9  -4   6 75.5123 5.60645   3
  -4  -5   6 56.9881 4.73684   2
  -5  -4   6 58.5540 4.76073   2
   9  -5   6 50.4962 4.81514   3
  -4  -5   6 67.3293 5.26178   1
  -9   4   6 38.9361 2.32073   2
  -4   9   6 56.5388 4.16659   1
  -9   4   6 53.6779 4.20104   1
  -5  -4   6 59.4511 4.32866   3
   4  -9   6 57.4782 4.37002   1
   5  -9   6 36.4334 4.37162   3
   4  -9   6 46.1176 4.85647   3
  -5   9   6 63.7002 4.35890   1
  -5   9   6 57.2084 3.80189   2
  -4   9   6 60.0264 4.02087   2
   9  -4   6 58.8281 4.31347   1
  -4   9   6 59.2349 4.22013   3
   9  -4   6 65.3951 5.48104   5
   9  -5   6 56.2558 5.13976   5
  -4  -5   6 59.7618 2.77750   5
  -4  -5   6 69.9727 4.88978   3
   4   5   6 47.1233 4.57237   2
   9  -5   6 52.6470 4.20151   1
  -5   9   6 65.3731 5.44028   5
  -4  -5   6 65.8399 2.96318   5
  -4   9   6 50.6425 5.18011   5
  -9   5   6 56.8537 2.02936   2
  -5  -4   6 55.6715 4.79745   1
   4   5   6 56.0138 5.45512   5
   5   4   6 68.2993 5.87798   5
   4   5   6 58.8892 5.39468   3
   5   4   6 65.4459 5.23132   2
   5  -9   6 68.7997 5.46655   5
   9  -4   6 51.5880 5.23649   5
   5   4   6 55.3261 4.97040   4
   9  -5   6 55.2229 5.48813   5
   5  -9   6 55.6388 4.87851   5
   4  -9   6 57.3061 4.97558   5
  -9   5   6 60.3992 3.11637   5
   4   5   6 57.4843 5.02080   4
   9  -4   6 61.5006 5.12723   4
   4   5   6 55.0957 4.87658   2
   9  -5   6 48.8503 4.61685   4
  -9   4   6 51.5563 1.91218   5
   5   4   6 55.3660 4.89548   2
  -4   9   6 58.1392 4.07005   2
  -5   9   6 59.4406 3.92625   2
   4  -9   6 54.3612 4.89275   5
   5  -9   6 57.9828 5.06644   4
  -5   9   6 57.4707 3.90552   3
   4  -9   6 58.3003 5.14036   4
   5   4   6 61.5427 5.23111   3
  -4  -5   6 54.9058 4.07035   4
  -5   9   6 64.0932 4.34451   4
  -5  -4   6 66.6552 4.14640   4
  -4   9   6 62.1987 4.56657   4
   4   5   6 36.1709 4.58110   1
   9  -4   6 57.1183 4.84695   2
   5   4   6 38.2631 4.55767   1
   9  -5   6 67.3047 5.17679   2
   4   5   6 45.2551 5.01751   4
   5   4   6 55.8626 5.19897   4
   9  -4   6 41.7132 4.72202   4
   9  -5   6 61.0175 5.28358   4
   4   5   6 50.4240 4.76120   1
   5   4   6 65.4320 5.16701   1
   5  -9   6 50.6154 4.77547   2
   9  -4   6 59.1618 5.06359   3
   4  -9   6 30.5162 4.15933   2
  -4   9   6 62.0717 4.19876   3
   4   5   6 59.7722 4.92908   3
  -5   9   6 71.6623 4.20353   3
   5   4   6 52.8980 4.79144   3
  -9   5   6 60.9224 4.20906   1
   5  -9   6 62.6194 4.31669   1
  -6   9  -6 2.94299 2.05309   3
   6   3  -6-0.16923 1.42778   3
  -3   9  -6 0.91544 1.74358   3
   3   6  -6 1.97153 1.92241   3
  -6   9  -6 0.88678 1.73747   1
  -3   9  -6-1.26143 2.01379   4
  -3   9  -6 2.82959 2.03128   1
   6  -9  -6 0.69907 2.18092   5
   3  -9  -6-0.60329 2.13338   5
   9  -6  -6 2.87314 1.56421   5
  -6  -3  -6 0.04499 2.07463   5
   6   3  -6 1.23162 1.05258   4
  -6   9  -6 2.54336 2.23300   4
   3   6  -6 2.27227 1.51926   4
   6   3  -6 0.75021 1.94508   1
  -9   6  -6 0.83022 2.14562   2
   3   6  -6 2.13690 1.79558   1
   9  -3  -6 2.05511 1.11040   2
   3  -9  -6-1.44142 1.95723   1
  -9   3  -6 2.66508 2.10865   1
   6  -9  -6 0.78869 1.57154   1
   9  -3  -6 1.51686 1.66102   1
  -6   9  -6 0.34485 1.72130   2
  -3  -6  -6 0.19192 2.58432   5
  -9   6  -6-0.02943 1.63179   1
  -3   9  -6 0.27381 2.13021   2
   6   3  -6 2.03021 1.87518   2
   3   6  -6 1.59696 2.12621   2
   3  -9  -6 0.51507 2.07624   4
  -9   6  -6 3.62372 2.02383   3
   9  -6  -6 1.19847 1.47301   1
  -6   9  -5 13.5313 2.40151   3
   3   6  -5 10.7860 2.24197   3
  -3   9  -5 12.8353 2.35223   1
  -3   9  -5 11.3473 2.20161   5
   9  -6  -5 13.4562 1.92228   5
   6  -9  -5 13.9961 2.73101   5
   3  -9  -5 13.6991 2.99868   5
   9  -3  -5 7.73852 1.75125   1
  -3  -6  -5 3.32772 2.28260   5
  -6  -3  -5 11.5224 2.99358   5
   6  -9  -5 12.7110 2.08343   1
   6   3  -5 9.22914 1.37506   4
  -9   6  -5 7.84470 2.07821   4
   9  -3  -5 10.2291 1.24814   2
  -9   6  -5 16.5258 2.21678   1
  -6   9  -5 12.1241 2.43032   4
  -3   9  -5 12.8867 2.41593   4
   3   6  -5 10.7058 2.00264   4
  -9   6  -5 12.4342 2.38099   2
  -6   9  -5 15.3012 2.62508   2
  -9   3  -5 13.0443 2.17361   1
  -6   9  -5 7.98550 1.87271   1
   6   3  -5 9.68368 2.24041   1
   3   6  -5 12.5553 2.48101   1
   9  -6  -5 14.9484 1.99537   1
  -3   9  -5 8.53917 2.23797   2
   6   3  -5 8.08248 1.86213   2
   6  -9  -5 13.0399 2.15373   4
   3   6  -5 7.03972 2.13731   2
   3  -9  -5 8.71784 2.28674   4
  -3  -6  -5 6.84828 2.56546   4
  -6   9  -5 5.48686 2.26072   5
  -9   6  -5 8.05703 2.19523   3
  -3   9  -5 21.1341 2.96924   3
   6   3  -5 12.7359 1.90211   3
  -3   9  -4 0.55778 1.32077   5
  -6   9  -4 1.90124 1.34291   3
   9  -6  -4 1.48438 0.86016   1
  -3   9  -4-0.30441 1.30369   3
   6   3  -4 1.08242 0.96322   3
   3   6  -4 1.20295 1.26727   3
  -6   9  -4 2.35122 1.68998   5
  -6   9  -4 1.26571 0.98188   1
   6  -9  -4 3.61947 1.66308   5
   3  -9  -4-1.28930 1.72589   5
  -3  -6  -4-0.96500 1.38510   5
  -6  -3  -4 1.75918 1.64871   5
   3  -9  -4 1.13657 1.15212   3
   9  -3  -4 1.78771 0.93601   1
  -9   6  -4 0.37836 1.02575   4
  -6   9  -4 1.72658 1.29023   4
   6   3  -4 1.18805 0.70439   4
  -9   6  -4 2.73209 1.40908   2
  -3   9  -4 1.01753 1.30972   4
   3   6  -4 1.33800 1.00080   4
  -3   9  -4 2.23484 1.29195   1
   9  -3  -4 1.22422 0.50699   2
  -9   6  -4 0.62135 0.81993   1
  -6   9  -4 3.81889 1.77078   2
   9  -6  -4 1.89088 1.23160   5
  -3   9  -4-0.02903 1.37824   2
   3  -9  -4 0.61355 1.27316   4
   6  -9  -4 1.47506 1.11359   4
   3   6  -4 1.23339 0.90171   5
  -3  -6  -4 1.76243 1.65553   4
   6   3  -4 1.01360 1.19518   2
   6   3  -4 1.75974 1.40497   1
   3   6  -4-0.05550 1.14310   2
   3   6  -4 1.40084 1.26792   1
  -9   6  -4 1.09831 1.30477   3
  -6   9  -3 224.668 5.75840   1
  -3   9  -3 243.667 8.02125   3
   6   3  -3 198.564 6.09301   3
   3   6  -3 232.232 7.40321   3
  -6   9  -3 155.228 7.02299   5
   3   6  -3 219.779 5.54402   5
  -3   9  -3 255.667 8.12103   5
  -3  -6  -3 236.381 8.49074   5
   9  -3  -3 243.497 6.14550   1
   6  -9  -3 225.335 8.24933   5
   9  -6  -3 212.469 6.08101   5
   3  -9  -3 225.839 8.55784   5
   3  -9  -3 191.286 6.78759   3
  -3   9  -3 218.980 6.60082   1
   6  -9  -3 203.631 5.79587   3
  -3  -6  -3 241.708 8.42528   3
  -6  -3  -3 246.125 8.11215   5
  -9   6  -3 183.837 6.59738   4
  -9   6  -3 238.578 5.26603   1
  -9   6  -3 231.194 6.92273   2
  -6   9  -3 242.687 7.83896   4
  -3   9  -3 217.907 7.43568   4
   6   3  -3 251.445 5.71318   4
   3   6  -3 192.991 6.43505   4
   9  -3  -3 231.229 3.49555   2
   6   3  -3 238.535 7.65491   1
   3   6  -3 220.531 7.48847   1
  -6   9  -3 159.534 6.25731   2
  -3   9  -3 237.200 7.65701   2
   6  -9  -3 241.727 7.10568   4
   3  -9  -3 200.760 7.29409   4
   9  -6  -3 235.700 4.77670   1
  -3  -6  -3 254.789 8.80921   4
   3   6  -3 220.456 7.68975   2
   6   3  -3 202.292 6.62802   2
  -6  -3  -3 236.562 8.21548   4
  -9   6  -3 206.071 6.67157   3
  -6   9  -3 228.015 7.68565   3
  -6   9  -2 12.3143 1.74377   3
  -3   9  -2 9.78533 1.74037   3
  -6   9  -2 9.10038 1.09400   1
   3   6  -2 15.1399 1.91546   3
   6   3  -2 14.0075 1.69736   3
  -9   6  -2 13.0287 1.92094   5
   3  -9  -2 13.4314 1.95927   3
  -3   9  -2 11.6438 1.94131   5
   3   6  -2 7.77661 1.20477   5
   3  -9  -2 9.99506 1.60333   2
   9  -6  -2 8.77946 1.38469   5
   6  -9  -2 10.1910 1.38541   3
   9  -3  -2 9.91638 0.68904   5
  -6   9  -2 9.59687 1.82400   5
   6  -9  -2 5.76997 1.60459   5
   3  -9  -2 11.1843 2.08863   5
  -3  -6  -2 16.3701 2.28487   2
  -3  -6  -2 14.5581 2.18224   3
   9  -3  -2 10.5947 0.66592   5
  -6  -3  -2 10.3206 1.62111   5
  -3  -6  -2 8.58148 1.72733   5
   6  -9  -2 9.91207 1.18063   2
   9  -3  -2 12.5743 1.41085   1
  -6  -3  -2 8.56472 1.81056   3
  -9   6  -2 10.5434 1.58399   4
   9  -3  -2 12.2525 0.82897   2
  -9   6  -2 11.9245 1.48004   2
  -3   9  -2 11.0297 1.49846   1
  -6   9  -2 10.6406 1.76334   4
  -3   9  -2 11.4699 2.03625   4
   3   6  -2 12.9095 1.76431   4
   6   3  -2 9.79707 1.29147   4
  -6   9  -2 7.74303 1.39190   2
   9  -3  -2 9.89685 0.72536   2
   6  -9  -2 12.1255 1.80658   4
   3  -9  -2 11.3220 1.93795   4
   9  -6  -2 8.83307 0.69925   1
  -3  -6  -2 11.5446 2.05421   4
   6   3  -2 9.25328 1.55966   1
  -6  -3  -2 13.6168 1.94613   4
   3   6  -2 9.54271 1.80235   1
   3   6  -2 10.9051 1.82906   2
   6   3  -2 10.3124 1.62414   2
  -9   6  -2 12.3561 1.61535   3
  -3   9  -2 8.14213 1.62790   2
  -6   9  -1 22.7738 2.17825   3
  -9   6  -1 20.1371 2.11832   5
   6   3  -1 24.2032 2.34021   1
   3   6  -1 26.4131 2.46487   1
  -3   9  -1 22.3670 2.33151   3
   3   6  -1 30.0348 2.62313   3
  -6  -3  -1 21.7052 2.01834   5
  -3  -6  -1 20.4065 2.30973   5
   6   3  -1 22.0942 2.07003   3
   9  -3  -1 23.4160 1.02157   3
  -6   9  -1 24.2466 1.41534   1
   3   6  -1 21.9290 1.94873   5
   6  -9  -1 25.2936 1.78386   2
  -3  -6  -1 22.7185 2.48194   3
   9  -3  -1 25.7743 1.54782   5
   9  -6  -1 21.3078 1.99571   5
   6  -9  -1 17.7251 1.84218   3
  -6   9  -1 20.7973 2.34907   5
   6  -9  -1 24.9916 2.68750   5
  -3  -6  -1 16.5695 2.22387   2
  -6  -3  -1 24.7742 2.46259   2
  -6  -3  -1 24.1514 2.47568   3
   9  -3  -1 23.4205 1.51580   5
  -9   6  -1 26.0750 2.03306   4
   9  -3  -1 25.9601 1.40057   2
  -6   9  -1 23.5515 2.26106   4
   9  -3  -1 22.2936 0.88796   4
  -3   9  -1 24.0621 2.49728   4
  -3   9  -1 19.7314 2.28739   5
   3   6  -1 29.4724 2.58246   4
   6   3  -1 21.9002 1.94178   4
   9  -6  -1 22.4036 1.34493   4
   9  -3  -1 23.1777 0.94508   4
   9  -3  -1 25.9930 1.79994   1
   6  -9  -1 26.9298 2.33882   4
   3  -9  -1 19.8414 2.34582   4
  -6   9  -1 23.3094 2.05925   2
  -3  -6  -1 21.4498 2.47794   4
  -3   9  -1 23.8803 1.99628   1
   6   3  -1 23.6664 1.37434   5
  -6  -3  -1 24.9226 2.40305   4
   3  -9  -1 26.7790 2.89365   5
  -3   9  -1 23.8245 2.30345   2
   3  -9  -1 22.8068 2.11968   2
   3  -9  -1 22.0810 2.35243   3
  -9   6  -1 22.4724 1.80819   3
   9  -3  -1 22.8238 1.24314   2
   3   6  -1 20.5948 2.32967   2
   6   3  -1 28.1280 2.33702   2
   9  -3  -1 24.2751 1.03361   3
   6   3   0 25.2562 1.95381   5
   6   3   0 24.2326 2.24425   2
  -6   9   0 28.3570 2.27342   3
   3   6   0 18.1758 2.09754   1
   9  -3   0 22.6318 1.49876   2
   9  -3   0 23.9053 1.69029   1
  -3   9   0 25.8801 1.98178   1
   6  -9   0 26.5268 1.94202   2
   9  -6   0 22.3765 1.36270   3
  -3   9   0 21.7733 2.22471   3
   3  -9   0 23.9882 2.15922   2
   3   6   0 23.6746 2.40046   3
   9  -6   0 20.9387 0.87500   2
   3  -9   0 29.7062 2.54795   3
   9  -3   0 22.8325 1.75855   5
   6  -9   0 19.3417 1.92853   3
   3   6   0 26.0486 2.28440   5
  -3  -6   0 28.3948 2.58345   2
   6   3   0 26.9427 2.35223   3
   3  -9   0 20.9821 2.53490   5
  -6  -3   0 24.9514 2.39880   2
  -3  -6   0 26.4809 2.60166   3
  -3  -6   0 22.6422 2.30873   5
  -6  -3   0 11.6295 1.97149   3
   6   3   0 22.0120 2.21596   1
   6  -9   0 31.1952 2.89715   5
  -6  -3   0 23.1587 1.77906   5
  -3  -6   0 22.4778 2.31320   1
   9  -3   0 26.3882 1.94179   5
  -3   9   0 25.8883 2.00512   1
  -9   6   0 20.2823 1.60379   4
  -6   9   0 25.2189 1.25630   1
   9  -3   0 18.2418 1.56000   1
   9  -3   0 26.4137 1.58841   4
   9  -3   0 23.2206 1.58839   2
  -3   9   0 25.7935 2.66062   5
  -6   9   0 22.2338 2.42157   5
  -6   9   0 23.6546 1.18708   1
  -6   9   0 22.1291 2.24200   4
   9  -6   0 24.9772 1.77115   4
  -3   9   0 23.3582 2.45609   4
   9  -6   0 22.5984 2.06795   5
  -6  -3   0 23.9221 2.33098   1
   3   6   0 26.0478 2.45191   4
   6  -9   0 19.0476 2.04690   4
   6   3   0 25.7525 2.26233   4
   3  -9   0 17.1659 2.15224   4
   9  -3   0 21.7003 1.55114   3
  -3  -6   0 22.1557 2.46448   4
   9  -3   0 20.3734 1.57732   4
  -6   9   0 24.1967 1.85469   2
  -6  -3   0 20.3266 2.11487   4
  -9   6   0 22.7569 2.09663   5
  -3   9   0 24.1428 2.24301   2
   9  -3   0 26.1526 1.59526   3
   3   6   0 24.7600 2.40996   2
   6  -9   1 24.4744 1.96927   2
  -6   9   1 23.3578 1.25699   1
   3   6   1 24.0750 2.51598   2
   9  -6   1 28.1544 1.93612   3
   3  -9   1 26.4459 2.37647   2
   6   3   1 23.1048 2.47161   2
  -6   9   1 26.2319 2.10680   3
   6  -9   1 24.9613 1.39867   1
  -3   9   1 29.8265 2.66211   3
   6   3   1 23.1751 2.39701   3
  -9   6   1 23.6861 2.06206   5
   6  -9   1 18.0935 2.04184   3
   9  -3   1 19.4558 1.96287   5
   3   6   1 29.5059 2.79111   3
  -6  -3   1 25.7136 2.37565   2
   3  -9   1 25.8562 2.67530   5
  -3  -6   1 26.1310 2.56252   3
   6   3   1 24.7961 2.32857   5
  -3   9   1 23.3682 2.66816   5
   9  -3   1 22.9203 1.90888   3
   9  -6   1 21.8266 2.24807   5
   6  -9   1 27.1150 2.73484   5
  -6  -3   1 24.8294 1.46106   5
   3   6   1 21.8312 2.40669   5
  -9   3   1 25.2928 1.83654   1
   9  -3   1 28.9544 2.33400   5
  -3   9   1 26.0964 2.08816   1
  -9   6   1 28.1058 1.51155   4
   3   6   1 24.8831 2.41540   1
   6   3   1 26.4017 2.40999   1
   9  -3   1 30.6664 2.13388   4
  -3  -6   1 25.1232 2.43825   1
  -3   9   1 21.5813 1.86720   1
  -6  -3   1 25.7927 2.34428   3
   9  -3   1 28.7431 1.89075   1
   9  -3   1 28.3362 2.10961   2
   9  -6   1 27.0097 2.03150   4
  -6   9   1 28.8581 2.45910   4
   9  -3   1 28.1053 1.93185   2
   3  -9   1 18.9323 1.78167   1
  -6   9   1 27.9954 2.75537   5
   9  -3   1 24.8293 1.87177   1
  -6  -3   1 31.2687 2.60241   1
  -3   9   1 26.9074 2.55845   4
   3  -9   1 29.9530 2.63767   3
   6  -9   1 22.6834 2.26924   4
   3   6   1 22.7714 2.33708   1
   3   6   1 23.7450 2.47989   4
   3  -9   1 25.8063 2.56173   4
   6   3   1 24.5017 2.30391   1
   6   3   1 27.1773 2.54314   4
  -3  -6   1 18.6613 2.39546   4
   9  -6   1 29.2710 1.67427   2
  -6  -3   1 27.2321 2.25884   4
  -6   9   1 26.3692 1.35495   1
  -3  -6   1 25.1343 2.48777   2
   9  -3   1 25.7781 2.07341   4
  -3  -6   1 19.5833 2.24558   5
  -6   9   1 24.6081 1.76959   2
  -3   9   1 26.5415 2.30454   2
   9  -3   1 30.4012 2.05657   3
   9  -6   1 26.0525 0.73986   1
  -3   9   2 8.74584 1.49813   2
   3  -9   2 14.4842 2.03001   2
  -3  -6   2 12.8785 1.88011   1
   9  -6   2 14.7692 1.68011   3
   3   6   2 16.3530 2.08543   1
  -6  -3   2 10.9885 1.73994   1
  -3  -6   2 13.4640 1.99864   2
  -6   9   2 16.0028 1.69655   3
   6   3   2 12.5116 1.81055   1
   3  -9   2 11.8220 2.03781   3
  -6  -3   2 10.5750 1.60481   2
   9  -6   2 15.8581 2.13911   5
  -9   6   2 13.6744 1.60871   5
   9  -6   2 12.0102 0.98276   1
   3   6   2 10.3586 1.82096   3
   6  -9   2 12.5867 2.05118   5
  -3   9   2 14.2586 2.22919   5
   9  -3   2 13.6978 1.48718   1
   3  -9   2 12.2756 2.02786   5
   6   3   2 10.2612 1.84337   3
  -6   9   2 8.21544 1.78615   5
   3   6   2 14.7200 2.14677   5
  -3  -6   2 13.1290 1.91842   3
  -3  -6   2 11.4400 1.54113   5
   6   3   2 11.9542 1.92901   5
   6  -9   2 17.6632 2.05604   3
  -9   3   2 13.3076 1.47510   1
   9  -3   2 16.0222 1.89026   3
   9  -3   2 10.7000 1.72494   5
   6   3   2 14.5054 2.06566   2
  -9   6   2 12.9811 0.82267   1
   9  -3   2 12.5133 1.59274   4
   9  -6   2 13.1291 1.00488   1
   6   3   2 13.4595 1.97289   1
   9  -6   2 16.1021 1.82570   4
   9  -3   2 12.0769 1.70359   5
   9  -3   2 11.3496 1.46666   2
  -6   9   2 14.1387 1.82501   4
  -3   9   2 14.5353 1.69947   1
   6  -9   2 15.1312 2.00369   4
  -6  -3   2 17.4965 1.94699   3
  -3   9   2 12.9183 1.89944   4
   3   6   2 11.6475 2.02789   4
  -3  -6   2 11.7319 1.75985   4
   3  -9   2 8.19873 1.68257   4
   6   3   2 10.3953 1.83656   4
   6  -9   2 12.6611 1.21418   1
   3   6   2 7.20542 1.60265   1
   9  -6   2 11.7051 1.42756   2
   9  -3   2 13.1677 1.59151   1
   9  -3   2 15.3512 1.77494   2
  -6  -3   2 14.7210 1.65099   4
  -6   9   2 12.6274 1.12489   1
   6   3   2 15.7834 2.11242   2
   9  -3   2 9.99331 1.61395   4
  -3   9   2 12.1810 1.83404   3
   3  -9   2 13.7163 1.58976   1
  -6   9   2 13.5287 1.39641   2
   3   6   2 9.17820 1.83763   2
  -6   9   2 10.5167 1.05763   1
  -3   9   2 12.2452 1.56933   1
   9  -3   2 19.4790 1.93623   3
   6  -9   2 10.3713 1.57997   2
  -6   9   3 209.589 5.06290   1
   9  -6   3 229.135 6.99127   3
  -3   9   3 245.446 7.37960   2
  -3  -6   3 182.944 7.09386   2
   9  -3   3 239.586 6.41852   1
   9  -6   3 215.025 5.04561   1
  -6  -3   3 214.207 6.90953   2
  -6  -3   3 212.404 6.67894   3
   6  -9   3 226.356 7.48238   3
   3   6   3 219.506 7.70370   2
  -9   6   3 222.010 5.90426   5
  -6   9   3 247.660 6.26629   3
   9  -3   3 228.487 7.52765   5
   3  -9   3 217.077 7.59816   3
   6   3   3 230.794 7.90003   2
   9  -6   3 236.126 8.20181   5
  -3  -6   3 239.702 7.63622   3
   6  -9   3 250.816 8.62980   5
  -6   9   3 232.538 8.29611   5
   3  -9   3 220.710 7.84551   5
   3   6   3 227.237 8.04496   3
  -3   9   3 231.837 8.61921   5
   6  -9   3 251.563 5.87193   1
   6   3   3 202.381 7.49111   3
  -3  -6   3 234.863 6.23567   5
   3   6   3 242.246 8.62060   5
   6   3   3 207.448 7.84672   5
  -9   3   3 214.384 3.39063   2
   9  -3   3 225.986 7.11383   2
  -9   6   3 214.358 4.64308   1
   9  -3   3 219.468 7.17743   3
   9  -3   3 193.145 7.03316   5
  -3   9   3 218.762 7.06971   3
  -3   9   3 236.617 6.94466   2
   3   6   3 229.962 7.77628   2
   3   6   3 205.608 7.37410   1
   6   3   3 238.270 8.09358   2
  -6   9   3 231.084 5.26714   2
  -3   9   3 237.027 6.89967   1
   9  -3   3 247.735 7.41603   4
   3  -9   3 239.920 6.81178   1
   6   3   3 225.421 7.47453   1
   9  -6   3 236.954 7.20746   4
   9  -6   3 262.444 8.53322   5
   9  -3   3 236.147 7.24896   2
   3   6   3 240.197 7.59194   1
   6  -9   3 229.540 7.73585   4
  -9   3   3 247.149 6.38337   1
   6   3   3 180.529 6.72234   1
  -6   9   3 226.645 6.67412   4
   3  -9   3 241.932 8.00885   4
  -3   9   3 204.463 7.13518   4
  -3  -6   3 222.516 7.40912   1
  -3  -6   3 249.162 7.62963   4
   3   6   3 247.782 8.58325   4
   9  -6   3 225.827 6.44261   2
  -6  -3   3 234.448 7.58814   1
  -6  -3   3 239.277 6.30776   4
   6   3   3 194.846 7.59811   4
  -3   9   3 215.112 6.41756   1
  -6   9   3 238.326 5.52123   1
   9  -3   3 190.174 6.79290   4
   9  -3   3 223.222 6.56664   1
   6   3   3 230.017 8.03190   3
   6  -9   3 231.264 7.05422   2
   9  -3   3 230.991 7.01082   3
  -6   9   3 216.123 5.21402   2
   3  -9   3 208.763 7.35861   2
   6  -9   4 2.68340 1.31628   2
   9  -3   4 2.90856 1.44009   3
   3   6   4 2.36510 1.97996   5
   3  -9   4 1.31402 1.09090   2
   3   6   4 4.34652 1.52278   1
   9  -6   4-0.10557 1.14631   3
  -3   9   4 1.64336 1.06693   1
  -6   9   4 1.00512 0.72249   2
  -3  -6   4 6.96608 1.80465   2
  -9   3   4 3.76906 0.69610   2
   9  -3   4 2.12200 1.51571   5
   3  -9   4 3.24045 1.21239   1
   9  -6   4 2.18628 1.50360   5
  -3   9   4 1.67672 1.14764   2
  -9   6   4 2.31606 1.11543   5
  -6   9   4 2.15819 0.94893   3
   6  -9   4 1.91537 1.38268   5
  -3  -6   4 3.02932 1.34521   3
   9  -3   4 3.03196 1.28014   1
  -3   9   4 1.92396 1.66023   5
  -6  -3   4 3.19908 1.26496   3
  -9   3   4 3.81740 1.33465   1
   3   6   4 2.54498 1.25366   2
  -6   9   4 2.08219 1.50632   5
   6   3   4 0.33095 1.28482   5
   6   3   4 3.33404 1.61575   2
   3   6   4 1.50171 1.58839   3
   6   3   4 2.39739 1.61893   3
   9  -3   4 6.63808 2.04472   5
  -6   9   4 2.41635 0.96446   1
   9  -3   4 4.43744 1.64819   2
   9  -3   4 1.18191 1.15141   3
   9  -6   4 1.40314 1.61364   5
  -3   9   4 0.19051 1.11242   1
   6   3   4 1.39899 1.39065   4
  -3  -6   4 2.12531 0.99422   5
  -6  -3   4 0.84219 1.14227   2
   9  -3   4 1.65768 1.22471   4
   3   6   4 5.08694 1.59755   2
  -3   9   4 1.05381 1.00386   2
  -3  -6   4 2.33545 1.27137   1
   6   3   4 4.21697 1.65092   1
   9  -6   4 0.79570 1.24595   4
   6   3   4 2.96734 1.68500   2
   6  -9   4 1.33211 1.05224   3
   9  -6   4 0.85617 0.80657   1
  -6   9   4 3.39192 1.15233   2
  -6  -3   4 1.34852 1.31624   1
   6  -9   4 1.23126 1.36986   4
   3  -9   4 3.35556 1.91283   4
  -6   9   4 0.94320 1.07491   4
  -3   9   4 2.18373 1.45426   4
  -3  -6   4 1.61589 1.23097   4
   9  -3   4 2.86169 1.50485   2
   3  -9   4 1.56077 1.17686   3
   3   6   4 0.94169 1.59382   4
  -6  -3   4 2.17726 1.05766   4
  -9   6   4 1.51619 0.83895   1
   6  -9   4 2.08566 0.94850   1
   6   3   4 2.36292 1.52141   4
   9  -6   4 0.11823 0.92498   2
   9  -3   4 0.17962 1.26852   4
   3   6   4 3.24951 1.66956   3
  -6   9   4 1.73409 0.88918   3
   3   6   4 1.92839 1.34197   1
   6   3   4 2.49020 1.42029   3
   3  -9   4 0.64686 1.33477   5
  -3   9   4 1.06132 1.19001   3
   6   3   4 1.48249 1.35640   1
   6  -9   5 5.79665 2.08916   2
   3  -9   5 9.63717 2.12752   1
   3   6   5 11.5311 2.30933   1
   3   6   5 5.41398 2.01739   1
  -6  -3   5 14.5732 2.33924   2
  -9   3   5 9.13803 1.92806   1
   9  -3   5 13.5885 2.46339   3
   6   3   5 8.45586 2.40230   1
   3  -9   5 8.96565 2.03198   2
  -6   9   5 13.0470 1.73711   2
   9  -6   5 6.57436 2.06609   3
  -9   3   5 11.6868 1.25870   2
  -3  -6   5 5.91349 2.16805   1
   3  -9   5 12.3236 2.50992   3
  -3  -6   5 10.1927 2.35901   2
  -6   9   5 6.47250 2.22689   5
  -3   9   5 10.5179 1.96802   2
   6  -9   5 9.82099 2.29042   3
  -9   6   5 10.7971 1.72938   5
  -3   9   5 8.18915 1.95714   1
   9  -6   5 9.22527 2.52930   5
   6  -9   5 8.95577 2.46786   5
  -3  -6   5 11.5107 1.65080   5
  -3  -6   5 10.7728 2.20823   3
  -6   9   5 7.38334 1.48662   3
   9  -6   5 12.2994 1.95471   1
  -6  -3   5 9.55544 2.01730   3
  -3   9   5 7.39215 2.60058   5
   9  -3   5 12.4833 2.11744   1
   3   6   5 6.75936 2.52219   5
   3   6   5 10.7986 2.54492   2
   3   6   5 10.8658 2.65774   3
   6   3   5 8.96124 2.71797   5
  -6  -3   5 4.85541 2.14285   1
  -3   9   5 8.17011 1.93840   1
   6   3   5 6.55956 2.08041   2
   6   3   5 12.9786 2.64169   3
   9  -3   5 7.49032 2.17309   5
   9  -6   5 7.34254 2.50860   5
   9  -3   5 7.64403 2.14024   3
   9  -3   5 12.0873 2.43984   2
   6   3   5 11.5336 2.69144   4
   6   3   5 11.2174 2.41745   1
   9  -3   5 6.32230 2.21994   5
   9  -3   5 8.15252 2.25380   4
  -6   9   5 13.3539 1.79040   2
   9  -6   5 10.5412 2.31650   4
   3   6   5 11.2462 2.47248   2
  -3   9   5 10.3599 1.93638   2
   6   3   5 8.89105 2.26800   2
  -6   9   5 19.6891 2.37377   4
   6  -9   5 15.7177 2.70598   4
   3  -9   5 7.60413 2.26941   4
  -6   9   5 11.4131 1.83131   1
  -6  -3   5 11.3197 1.73954   4
   3   6   5 21.1265 3.63320   4
  -3  -6   5 10.7615 2.06558   4
  -3   9   5 7.95198 2.08870   4
   9  -3   5 8.90528 2.35615   2
   3  -9   5 12.2578 2.45579   5
  -3   9   5 8.35922 1.88322   3
   6   3   5 10.4076 2.49848   4
  -3  -6   5 8.65570 1.48929   5
   9  -6   5 9.50787 2.08922   2
   9  -3   5 11.1895 2.53141   4
  -3   9   5 10.0215 2.16418   3
   3   6   5 7.15072 2.16030   3
  -9   6   5 14.1692 1.91413   1
  -6   9   5 9.05832 1.54337   3
   6   3   5 8.00161 2.28632   3
   6  -9   5 10.7374 2.00746   1
   6  -9   6 1.49983 2.09579   2
  -3   9   6 3.65595 2.09749   3
   6  -9   6 3.08110 2.21792   5
   6   3   6-0.23167 1.75828   1
  -6   9   6 0.50814 1.42435   3
   9  -3   6 1.78805 2.35379   3
   3  -9   6-1.00242 1.98774   2
   9  -6   6 1.13752 1.98717   3
  -3  -6   6 0.74561 2.09328   2
   3   6   6-0.30593 2.16314   1
  -6  -3   6 1.23367 1.80462   2
  -6  -3   6 0.19122 1.51374   3
   6  -9   6-0.61477 2.13726   3
   3  -9   6 1.76350 2.27699   3
   9  -3   6-0.47635 2.10112   5
  -9   3   6 0.92010 1.00412   2
   9  -6   6 2.20878 2.62423   5
   3  -9   6 2.91297 2.42274   5
  -9   6   6 1.87497 1.42759   5
  -3  -6   6 2.21592 1.39523   5
   3   6   6 4.73081 2.89157   5
   3   6   6 4.10635 2.15032   2
   6   3   6 4.56082 2.50787   5
   6   3   6 0.80095 2.00683   2
   6   3   6 0.20772 2.38494   3
   9  -3   6 2.75043 1.80522   1
   9  -3   6 1.03739 2.45034   5
  -3   9   6 3.88114 2.24450   2
  -3  -6   6 1.33252 1.26036   5
   9  -6   6-1.25542 2.15263   5
   9  -3   6 2.39329 1.99367   3
   6   3   6 0.76340 1.84390   1
   9  -3   6 1.16824 1.98636   2
   6  -9   6 1.38397 2.48108   5
   3  -9   6 1.96788 1.86808   5
  -6   9   6-0.09568 1.35006   4
   3   6   6 2.93359 2.27521   4
  -9   6   6 3.08171 1.66595   1
   6   3   6 3.46545 2.27173   4
   6  -9   6 2.51088 1.69987   1
  -6   9   6 1.21346 1.25166   2
   9  -3   6 2.92206 2.10242   4
   9  -6   6-0.19076 2.05535   4
  -6   9   6 0.68296 1.37684   1
   3   6   6 0.74107 2.02700   2
  -3   9   6 0.91963 1.74540   1
   6  -9   6 1.15658 1.94403   4
   3  -9   6 0.38889 1.77526   4
   6   3   6-0.28324 1.82235   2
  -6  -3   6 2.16710 2.29154   1
  -3  -6   6 4.61736 2.03511   4
  -6   9   6 1.82357 1.50137   4
  -3  -6   6 0.49051 2.03383   1
  -6   9   6-1.28187 2.29404   5
  -3   9   6-0.03438 1.91487   4
  -3  -6   6 3.97899 2.26523   3
   9  -6   6 4.08299 1.78118   1
  -6  -3   6 3.26866 1.38496   4
   9  -3   6 0.15284 2.12467   2
   3   6   6 1.83887 2.55075   4
  -3   9   6 3.60260 2.30125   5
   6   3   6-0.13258 2.46472   4
   9  -3   6 5.36742 2.69210   4
   9  -6   6 0.63297 1.81857   2
   9  -6   6 8.72490 2.91910   4
   3  -9   6 1.35227 1.78621   1
  -9   3   6 2.59327 1.83316   1
  -3   9   6 0.94427 1.97157   2
  -3   9   6 2.44973 1.97040   3
   3   6   6 0.26797 2.14331   3
   6   3   6 1.49531 2.08574   3
   3   6   6-0.19949 2.22136   3
   3   6   6 2.94235 2.23236   1
  -6   9   6 2.31262 1.42497   3
   9  -2  -6 36.0200 3.58160   1
  -2   9  -6 28.4380 3.40627   1
   7  -9  -6 27.9372 3.83919   5
   2  -9  -6 28.7916 4.30837   5
   9  -7  -6 25.6908 2.88935   5
  -2  -7  -6 21.0679 4.05770   5
   2   7  -6 28.3428 3.21859   4
  -9   2  -6 25.5870 3.51890   1
  -9   7  -6 27.9133 3.71215   2
  -2   9  -6 31.8165 3.73873   4
   7  -9  -6 20.3951 2.82466   1
  -7   9  -6 22.9062 3.51293   4
   9  -2  -6 26.8844 2.48073   2
   7   2  -6 18.2020 3.10857   1
  -9   7  -6 24.3601 2.97020   1
   2   7  -6 21.7858 3.35833   1
  -9   7  -6 29.8447 3.74561   4
   7   2  -6 30.5808 3.32103   2
  -2   9  -6 30.6603 3.91282   2
   9  -7  -6 24.2255 2.77650   1
   2   7  -6 24.9030 3.71600   2
  -7   9  -6 24.3878 3.27812   1
   2  -9  -6 20.1315 3.62836   4
  -9   7  -6 25.4544 3.77885   3
  -7   9  -6 26.7152 3.85751   3
   7   2  -6 30.6915 2.77522   3
  -2   9  -6 28.4764 3.71864   3
   2   7  -6 22.7211 3.30391   3
   2   7  -5 144.239 6.98670   3
   9  -2  -5 120.894 5.57354   1
  -7   9  -5 119.568 6.66129   5
  -2   9  -5 142.505 6.54897   1
   7   2  -5 141.513 6.61996   1
   7  -9  -5 145.506 7.26830   5
   2  -9  -5 127.141 7.31686   5
   9  -7  -5 135.552 5.80763   5
  -2  -7  -5 137.827 7.83172   5
   2   7  -5 144.923 6.98101   1
  -7  -2  -5 154.645 7.69910   5
  -9   7  -5 150.629 6.98093   4
   7   2  -5 142.631 3.80072   4
  -7   9  -5 102.969 6.02747   4
  -2   9  -5 136.529 6.46146   5
   7  -9  -5 139.177 5.32627   1
  -9   7  -5 165.261 7.26202   2
  -2   9  -5 106.296 5.99316   4
   2   7  -5 148.227 6.31851   4
  -9   7  -5 152.863 5.80443   1
   9  -2  -5 137.048 4.49730   2
  -7   9  -5 137.386 6.69903   2
   9  -7  -5 132.021 5.06065   1
  -2   9  -5 124.751 6.58222   2
   7   2  -5 121.285 5.68600   2
   2   7  -5 119.882 6.57101   2
  -7   9  -5 145.740 6.06910   1
   2  -9  -5 109.036 6.54373   4
   7  -9  -5 130.192 5.35128   4
  -2  -7  -5 143.029 7.70687   4
  -9   7  -5 113.584 6.14685   3
  -7   9  -5 141.580 6.73971   3
   7   2  -5 155.433 5.32558   3
  -2   9  -5 112.647 6.53430   3
   7  -9  -4 35.9123 3.45830   5
   7   2  -4 40.5393 2.74901   3
  -2   9  -4 37.1045 3.57781   3
   2   7  -4 46.8743 3.62545   3
  -2  -7  -4 51.9968 4.60244   5
  -2   9  -4 27.4678 3.08644   5
  -2   9  -4 41.7192 3.39514   1
   9  -7  -4 37.3957 2.99680   5
   2  -9  -4 45.9297 4.33530   5
   2  -9  -4 44.5261 3.68591   3
  -2  -7  -4 46.4931 4.16366   3
   7   2  -4 39.6883 3.37474   1
  -7  -2  -4 39.7110 3.63027   5
   2   7  -4 32.8638 3.32831   1
   7  -9  -4 40.4249 2.65541   1
  -9   7  -4 41.3250 3.57939   4
  -7   9  -4 30.7239 3.20982   4
   7   2  -4 42.4463 2.08148   4
  -9   7  -4 41.8241 3.38613   2
   9  -2  -4 39.0032 3.15007   1
  -2   9  -4 38.5972 3.49218   4
  -9   7  -4 32.7415 2.43134   1
   2   7  -4 40.1813 3.26307   4
  -7   9  -4 29.9858 3.10911   2
   9  -2  -4 39.0583 2.17587   2
   9  -7  -4 33.8877 2.25478   1
  -2   9  -4 36.6077 3.56755   2
   7   2  -4 42.4597 3.06484   2
   2   7  -4 40.4403 3.49734   2
   2  -9  -4 27.1147 3.26719   4
   7  -9  -4 39.0949 2.94387   4
  -2  -7  -4 39.1596 3.91720   4
  -7   9  -4 37.8419 3.70854   5
  -7   9  -4 42.1676 2.97669   1
   2   7  -4 38.6202 2.80181   5
  -9   7  -4 41.0549 3.39435   3
  -7   9  -4 46.8112 3.70613   3
  -2   9  -3 12.2540 2.06408   3
   7   2  -3 12.0464 1.55155   3
   2   7  -3 11.3317 1.96698   3
   2   7  -3 8.37451 1.78155   1
  -9   7  -3 12.4467 2.07383   5
  -7   9  -3 9.98427 1.98730   5
  -2   9  -3 7.78458 1.64388   5
   7  -9  -3 10.0772 2.02051   5
  -2  -7  -3 16.9441 2.54211   5
   2  -9  -3 13.6197 2.09497   3
   9  -2  -3 10.4684 1.53207   1
   2  -9  -3 9.87764 2.35104   5
  -2  -7  -3 13.5620 2.20227   3
   7  -9  -3 14.9026 1.54275   3
  -2   9  -3 13.4350 1.90379   1
  -7  -2  -3 8.98951 1.74471   5
  -9   7  -3 12.7299 1.27453   1
  -9   7  -3 17.7055 2.07762   2
  -7   9  -3 12.0903 1.95927   4
  -9   7  -3 8.29425 1.68179   4
   7   2  -3 14.2244 1.27476   4
  -2   9  -3 12.2327 2.07271   4
   7   2  -3 20.0265 2.32567   1
   9  -7  -3 12.6452 1.03752   1
   9  -7  -3 12.7136 1.86069   5
   2   7  -3 8.76747 1.63895   4
  -7   9  -3 14.9483 1.93959   2
   9  -2  -3 10.2204 1.12497   2
   2   7  -3 12.3163 1.62375   5
  -2   9  -3 14.7278 2.06424   2
   7  -9  -3 14.3740 1.80861   4
   2  -9  -3 13.4638 2.20837   4
  -2  -7  -3 14.4314 2.34891   4
   7   2  -3 16.2849 1.88354   2
   2   7  -3 10.2163 1.83752   2
  -7   9  -3 13.8930 1.49136   1
  -9   7  -3 14.6951 2.09428   3
  -7   9  -3 15.8472 2.05258   3
   9  -2  -2 42.5318 1.16779   3
  -2   9  -2 49.4375 3.53004   3
   2   7  -2 51.5404 3.55951   3
   7   2  -2 42.7492 2.61097   3
   2   7  -2 50.2036 2.99104   5
  -7   9  -2 44.7478 3.54050   5
   9  -7  -2 36.9347 2.95495   5
   7  -9  -2 42.1267 3.49802   5
   2  -9  -2 54.7999 4.19803   5
   7  -9  -2 51.0657 2.67303   3
   2  -9  -2 49.6121 3.57640   3
  -2  -7  -2 45.1228 3.61057   2
  -2  -7  -2 53.9835 4.06667   5
  -2  -7  -2 49.7784 3.78182   3
  -9   7  -2 48.6899 3.48803   5
  -7  -2  -2 53.9147 3.41891   5
  -9   7  -2 43.5235 2.96879   4
  -9   7  -2 44.5643 2.72416   2
  -7   9  -2 44.7176 3.35785   4
   9  -2  -2 41.2305 2.64828   1
   2  -9  -2 50.9087 3.44680   2
  -2   9  -2 43.9729 3.38626   4
  -2   9  -2 44.4086 3.37553   5
   2   7  -2 44.4892 3.28012   4
   7   2  -2 42.0134 2.28673   4
  -2   9  -2 51.7346 3.24490   1
  -7   9  -2 42.5328 2.83555   2
   7  -9  -2 51.9465 3.21673   4
   9  -7  -2 46.8896 1.91198   4
   2  -9  -2 49.8626 3.80267   4
  -2  -7  -2 56.8680 4.12076   4
   7   2  -2 55.5477 3.53996   1
   9  -2  -2 45.2190 2.05357   2
   2   7  -2 39.6780 3.08808   1
  -2   9  -2 42.3628 3.20781   2
  -7  -2  -2 51.0925 3.53199   4
   2   7  -2 45.8103 3.34411   2
   7   2  -2 54.9131 3.21703   2
  -7   9  -2 45.7397 2.04813   1
  -9   7  -2 45.1406 2.89775   3
   9  -2  -2 50.0104 1.27543   3
  -7   9  -2 39.7035 3.02268   3
  -7   9  -1 234.359 6.65090   3
   7   2  -1 206.697 6.45894   1
   2   7  -1 241.966 7.25301   1
  -2   9  -1 238.721 7.41078   3
   2   7  -1 224.102 7.25312   3
   7   2  -1 235.166 3.29220   5
  -9   7  -1 213.355 6.88410   5
   7   2  -1 248.151 6.51890   3
  -7   9  -1 240.837 7.75654   5
   2   7  -1 241.903 6.77107   5
   2  -9  -1 242.767 7.11077   2
   7  -9  -1 214.238 4.58712   2
   7  -9  -1 242.374 7.95343   5
   2  -9  -1 181.094 7.32868   5
  -2  -7  -1 234.887 7.78941   5
   9  -7  -1 243.693 6.96491   5
   2  -9  -1 228.051 7.19795   3
  -7  -2  -1 234.037 7.18367   3
  -7  -2  -1 198.141 5.71020   5
  -7  -2  -1 224.816 7.20281   2
   9  -2  -1 257.011 5.38476   2
   9  -2  -1 228.528 4.14747   3
  -9   7  -1 222.577 5.98294   4
  -9   7  -1 219.618 4.82885   2
   7   2  -1 233.029 3.31725   5
   9  -2  -1 240.496 3.45501   4
  -7   9  -1 233.437 6.98717   4
  -2   9  -1 237.232 7.65659   4
   2   7  -1 238.779 7.29631   4
   7   2  -1 214.983 5.41990   4
   9  -2  -1 222.235 3.76564   5
   9  -2  -1 216.806 3.34342   4
   9  -7  -1 230.669 4.84567   4
  -7   9  -1 194.449 5.54819   2
   7  -9  -1 226.448 6.51600   4
   2  -9  -1 223.715 7.73237   4
  -2  -7  -1 214.371 7.52579   4
   9  -2  -1 237.496 5.73086   1
  -7  -2  -1 227.430 6.81279   4
   9  -2  -1 221.727 3.80891   5
  -2   9  -1 242.859 7.30458   2
  -7   9  -1 217.895 2.87158   1
  -2   9  -1 233.625 7.60095   5
  -2   9  -1 226.841 6.37429   1
  -9   7  -1 195.445 5.19201   3
   9  -2  -1 224.319 4.11294   3
   2   7  -1 189.335 6.67908   2
   9  -2  -1 222.623 4.74619   2
   9  -7  -1 220.549 2.91940   3
   7   2  -1 196.438 5.98807   2
   7  -9  -1 229.338 5.75943   3
  -2  -7  -1 246.363 7.95197   3
  -2  -7  -1 225.790 7.29918   2
  -7   9   0 39.0214 2.63327   3
   7   2   0 47.0062 3.04460   2
   9  -2   0 46.1522 2.40645   2
   7  -9   0 44.9321 2.32013   2
  -2   9   0 48.6365 3.51090   3
   9  -7   0 48.9904 2.09211   3
   2  -9   0 53.8598 3.35352   2
  -9   7   0 36.4477 2.85303   5
   2   7   0 49.8811 3.53313   3
  -2   9   0 43.9351 2.90086   1
   9  -2   0 36.8519 2.49001   1
   7   2   0 49.9272 2.57218   5
  -7   9   0 45.7765 3.49449   5
  -2  -7   0 50.1514 3.47740   2
   7   2   0 56.5284 3.23055   3
  -2   9   0 54.4826 3.78284   5
   9  -7   0 49.8376 3.31336   5
   2   7   0 42.4724 3.15909   5
   7  -9   0 41.9634 3.51560   5
  -2  -7   0 51.1790 3.56528   3
   9  -7   0 40.2113 1.22088   2
   2   7   0 52.0255 3.41855   1
  -7  -2   0 50.8900 3.38971   2
  -2  -7   0 40.7567 3.13610   5
   7   2   0 53.9332 3.33331   1
   9  -2   0 38.0826 2.31452   5
  -7  -2   0 39.7000 2.87071   3
  -7  -2   0 46.9121 2.38284   5
   9  -2   0 49.8800 2.41247   5
  -9   7   0 44.8489 2.44590   4
   9  -2   0 46.8327 2.69245   1
   9  -2   0 54.9879 2.73094   2
  -2  -7   0 50.2682 3.33486   1
   9  -2   0 49.1534 2.28282   4
   2  -9   0 47.4461 3.65228   5
   2  -9   0 52.8913 3.53294   3
  -7   9   0 45.7171 2.99284   4
   9  -2   0 44.0778 2.30116   3
  -2   9   0 47.5606 3.45651   4
   9  -7   0 46.0772 2.51045   4
   2   7   0 42.4769 3.24629   4
   7  -9   0 42.4445 3.00045   4
   7   2   0 44.1442 2.81239   4
   2  -9   0 41.7034 3.38621   4
  -7   9   0 51.2085 2.52661   2
  -2  -7   0 54.3520 3.83573   4
   9  -2   0 48.9321 2.49008   4
  -7  -2   0 50.7200 3.04616   4
  -7  -2   0 46.8832 3.17625   1
  -9   7   0 47.5622 2.15679   3
  -2   9   0 46.8815 3.26955   2
   9  -2   0 47.6729 2.35573   3
   7  -9   0 49.4690 2.80894   3
   2   7   0 43.3168 3.33616   2
   7  -9   1 209.147 5.41237   2
   2   7   1 222.985 7.38430   2
  -2  -7   1 229.391 7.30800   2
  -7   9   1 209.945 5.59222   3
   2  -9   1 228.693 6.96730   2
   9  -7   1 214.671 5.27646   3
   7   2   1 216.172 6.69372   2
   9  -2   1 230.659 5.79441   2
   7  -9   1 199.230 6.07005   3
   9  -2   1 228.796 5.95896   5
  -9   7   1 217.323 6.40442   5
   2   7   1 216.277 7.33405   3
  -7   9   1 235.332 7.81546   5
   9  -7   1 217.589 6.92158   5
  -2   9   1 229.575 8.00673   5
  -9   2   1 222.667 5.99589   1
   7  -9   1 227.327 7.80040   5
  -7  -2   1 231.091 6.76337   2
   2   7   1 209.034 7.37089   5
  -2  -7   1 238.863 7.68915   3
   2  -9   1 209.712 7.32072   5
   9  -2   1 192.205 5.55612   3
  -7  -2   1 233.447 6.57907   3
   9  -2   1 217.944 6.03367   5
  -2   9   1 225.801 6.42434   1
   2   7   1 169.497 6.08856   1
   9  -2   1 235.893 5.81051   4
  -9   7   1 195.344 4.49507   4
   7   2   1 193.132 6.45641   1
   9  -2   1 244.331 6.24551   2
  -2   9   1 221.694 6.27928   1
   9  -2   1 236.856 5.85493   1
  -2  -7   1 239.526 7.25339   1
   9  -2   1 239.504 6.08747   1
  -7   9   1 192.884 6.03196   4
   2   7   1 224.090 7.06344   1
   9  -7   1 161.132 5.45473   4
   2  -9   1 221.063 6.21590   1
  -2   9   1 239.529 7.64177   4
   7  -9   1 193.311 6.30687   4
   7   2   1 221.644 6.85317   3
   7   2   1 239.023 6.93460   1
   2   7   1 232.983 7.68109   4
   2  -9   1 218.620 7.48317   4
  -2  -7   1 197.927 6.80164   5
   7   2   1 223.196 6.90176   4
  -2  -7   1 244.194 7.86990   4
  -7   9   1 243.075 4.77676   2
   9  -2   1 184.850 5.71167   4
  -7  -2   1 228.025 6.86752   1
   2  -9   1 238.466 7.48559   3
  -7  -2   1 196.535 5.57942   4
   9  -7   1 226.210 4.57527   2
  -2   9   1 219.572 7.18207   3
  -9   7   1 217.391 2.92271   3
   9  -2   1 219.298 5.69899   3
  -2   9   1 227.189 6.89036   2
   7   2   1 199.840 6.11995   5
  -2   9   2 40.3993 3.09489   2
   2  -9   2 43.5785 3.25742   2
  -9   2   2 46.0804 2.82975   1
   9  -7   2 46.3979 2.95174   3
   2   7   2 46.1333 3.53344   2
  -2  -7   2 40.1959 3.11622   1
   7   2   2 38.6951 3.00852   1
  -7   9   2 44.3542 2.45115   3
  -2  -7   2 39.1476 3.15785   2
   7  -9   2 46.0709 3.21014   3
   9  -2   2 52.3884 2.95413   1
   7   2   2 48.7984 3.43440   2
  -7  -2   2 49.4398 3.37924   1
  -2   9   2 39.4554 3.19052   3
  -7  -2   2 48.9001 3.19431   2
   2  -9   2 45.2586 3.41563   3
   9  -2   2 41.6321 3.17235   5
   9  -7   2 44.3467 3.49942   5
  -7   9   2 43.1965 1.59908   1
  -7   9   2 47.0502 3.58752   5
  -2  -7   2 49.3282 3.61574   3
   9  -2   2 45.6521 3.04884   2
  -2   9   2 42.0116 3.66442   5
  -2  -7   2 47.9258 3.27699   5
  -7  -2   2 45.2198 2.89060   3
   7   2   2 44.9694 3.23375   5
  -9   2   2 49.1668 2.26134   2
   9  -2   2 37.2087 2.88071   3
   9  -2   2 46.1029 3.13142   5
   2   7   2 49.2514 3.72458   3
  -7   9   2 35.6807 1.77470   2
   7   2   2 39.6500 3.24751   2
  -7   9   2 42.9619 1.55523   1
   9  -2   2 41.4411 2.80756   4
  -9   7   2 40.9325 1.76122   4
   9  -2   2 46.1428 3.12442   2
   2   7   2 45.6440 3.30096   1
   7   2   2 50.0250 3.36468   1
   9  -7   2 50.8312 3.21790   4
  -2   9   2 43.7208 2.93549   1
  -7   9   2 41.0167 2.85440   4
   7  -9   2 52.5102 3.65406   4
   9  -7   2 47.4222 1.53327   1
  -2   9   2 49.5639 3.69363   4
  -9   7   2 49.7928 3.15623   5
   2  -9   2 49.5387 3.60383   4
   9  -2   2 44.5054 2.90667   1
   2  -9   2 47.7563 3.65623   5
   2   7   2 48.9291 3.78425   4
  -2  -7   2 50.2794 3.53815   4
   7   2   2 49.6618 3.66147   4
   7  -9   2 45.4356 1.87773   1
   2   7   2 43.6729 3.62593   5
  -7  -2   2 41.2508 2.44487   4
   9  -2   2 39.3137 2.97145   4
   9  -7   2 41.2607 2.49278   2
   7  -9   2 50.2209 3.88499   5
   7   2   2 45.7269 3.43418   3
  -7   9   2 46.8384 2.03019   2
   7   2   2 51.8636 3.63517   3
  -2   9   2 50.5000 3.17444   1
   9  -2   2 40.1266 2.87128   3
   7  -9   2 44.6679 2.85916   2
   2   7   2 46.6641 3.39056   1
   2  -9   2 47.4580 3.05466   1
   2  -9   3 9.45008 1.84521   2
   9  -7   3 8.02022 1.66055   3
  -2  -7   3 11.7775 2.18793   2
  -2   9   3 11.0873 1.87501   2
   2   7   3 14.1824 2.25415   2
  -7   9   3 12.4840 1.40134   3
   7  -9   3 11.8422 1.90942   3
   2  -9   3 15.3521 2.32443   3
   9  -7   3 13.8977 2.22091   5
  -9   7   3 11.2356 1.64376   5
  -7   9   3 11.6437 1.15828   1
  -7   9   3 11.9658 2.09111   5
  -2   9   3 12.6675 2.56585   5
   7  -9   3 7.93609 1.83330   5
  -2  -7   3 10.7547 1.77410   5
  -7  -2   3 12.2855 1.66402   3
   9  -2   3 13.1079 1.97412   2
   2  -9   3 9.73238 2.00608   5
  -2  -7   3 8.67400 1.82916   3
   7   2   3 10.8591 2.16198   3
  -9   7   3 13.3693 1.04163   1
   2   7   3 13.4057 2.27886   3
   2   7   3 14.4220 2.41701   5
   9  -2   3 10.8723 1.96808   3
   7   2   3 9.73339 1.96296   2
  -2   9   3 14.7165 2.15377   3
   9  -2   3 10.2528 1.95807   5
   7   2   3 9.63845 1.85273   5
  -2   9   3 11.6701 1.73387   1
   7   2   3 12.1826 2.07317   4
   2   7   3 14.4068 2.34991   2
   9  -7   3 13.7603 1.28698   1
  -9   7   3 11.2689 0.60617   4
   7   2   3 10.9289 1.89457   1
   9  -2   3 11.8549 1.87586   4
   7   2   3 12.1056 2.03643   2
  -7   9   3 12.8096 1.14874   2
   9  -2   3 16.0910 2.12108   2
   2   7   3 12.8434 1.94455   1
  -7   9   3 10.2627 1.52077   4
   2  -9   3 13.9695 1.91226   1
   9  -7   3 7.13989 1.76020   4
   7   2   3 15.7361 2.15470   1
   2  -9   3 10.5780 1.95590   4
   7  -9   3 8.05224 1.93867   4
  -2   9   3 7.92271 2.06862   4
   7  -9   3 11.3473 1.38532   1
  -2  -7   3 12.9494 2.02070   4
  -2   9   3 10.3160 1.76367   1
   2   7   3 14.6513 2.30892   4
  -9   2   3 11.4545 1.21097   2
  -2  -7   3 14.7693 2.14308   1
  -9   2   3 12.6925 1.71911   1
  -7   9   3 13.9855 1.28217   1
   7   2   3 12.4664 2.19715   4
  -7  -2   3 14.7074 1.43428   4
   9  -7   3 12.8675 1.62725   2
   9  -2   3 9.22081 1.54607   1
   9  -2   3 13.3571 1.85455   1
  -7  -2   3 11.2661 1.97611   1
  -7  -2   3 9.38034 1.59899   2
   9  -2   3 16.5127 2.25717   4
   2   7   3 16.2951 2.23877   1
   9  -2   3 6.85499 1.80118   5
   7   2   3 16.0401 2.37821   3
   7  -9   3 13.7129 1.91753   2
  -7   9   3 12.3294 1.10979   2
   9  -2   3 13.8789 2.00809   3
   7  -9   4 46.4645 2.81773   1
  -2  -7   4 38.1291 3.54374   2
   9  -7   4 36.7448 3.32682   3
  -7  -2   4 33.3008 2.90618   2
  -2   9   4 39.9901 3.30566   2
   7  -9   4 41.7038 3.56064   3
   2   7   4 39.7709 3.64559   2
   9  -2   4 35.0050 3.40743   5
  -2   9   4 21.8453 3.45705   5
   9  -7   4 38.1356 3.79797   5
  -2  -7   4 31.9014 3.24171   3
  -9   7   4 31.2715 2.77358   5
   7  -9   4 38.8465 3.96791   5
  -2   9   4 47.1835 3.66827   3
   7   2   4 32.7082 3.34328   2
   2  -9   4 37.6773 3.58077   5
   2   7   4 29.7479 3.30536   3
  -7   9   4 40.2243 2.48798   1
  -7  -2   4 38.7264 2.89023   3
  -2  -7   4 39.8558 2.96043   5
   2   7   4 43.8596 4.15836   5
   9  -2   4 43.2061 4.00776   5
   7   2   4 46.5909 3.97836   3
   9  -2   4 24.9447 3.06807   2
   9  -2   4 28.7464 3.12668   3
   9  -2   4 37.7427 3.12174   1
   2  -9   4 35.8553 3.10692   1
   9  -7   4 41.7339 3.96435   5
   9  -7   4 40.6190 2.54053   1
  -7   9   4 40.8071 2.42706   3
  -9   2   4 38.2428 3.08842   1
   7   2   4 44.7688 3.81953   4
   2   7   4 40.4416 3.59425   2
  -2   9   4 30.9370 2.94640   2
   9  -2   4 46.3690 3.63116   4
   7   2   4 45.2976 3.93187   2
  -2  -7   4 40.6382 3.53956   1
  -7  -2   4 26.6788 3.11522   1
   9  -7   4 39.6649 3.49746   4
  -7   9   4 36.4783 3.56065   5
   9  -2   4 37.9137 3.48674   2
  -7   9   4 40.0291 2.09057   2
   7  -9   4 43.3028 3.84125   4
  -7   9   4 38.3904 2.81362   4
   2  -9   4 39.8110 3.57183   4
  -2  -7   4 41.5098 3.39290   4
  -2   9   4 36.2046 3.55621   4
   2   7   4 40.3683 3.84557   4
   2   7   4 38.7464 3.62121   1
   2  -9   4 43.8970 3.85297   3
   7   2   4 37.5123 3.48361   1
  -7  -2   4 39.8113 2.24780   4
   7   2   4 43.9624 3.93368   4
   9  -7   4 31.8948 2.82297   2
  -9   2   4 34.7993 2.21522   2
  -2   9   4 43.1481 3.33727   1
   9  -2   4 34.0514 3.41334   4
   2   7   4 35.5555 3.33888   1
   9  -2   4 40.5464 3.31671   1
   7  -9   4 44.9899 3.55713   2
  -7   9   4 35.6982 2.30476   3
   7   2   4 29.4525 3.28639   3
  -2   9   4 41.2822 3.34098   1
   9  -2   4 45.5697 3.70144   3
   7   2   4 41.5417 3.81249   1
   7   2   4 47.0159 4.05197   5
  -9   7   4 34.9996 2.22105   1
   2  -9   4 33.9593 3.28711   2
  -7   9   4 38.8011 2.06796   2
  -2  -7   5 143.437 7.14672   2
  -7   9   5 153.234 4.84784   3
  -7   9   5 148.948 4.28679   2
   9  -7   5 122.392 6.59018   3
  -7  -2   5 117.713 5.98955   2
   7  -9   5 143.568 6.90332   3
  -9   2   5 145.662 4.60591   2
  -2   9   5 134.712 6.26759   2
  -2   9   5 135.681 7.49409   5
   2  -9   5 143.244 7.19794   3
   2   7   5 133.243 6.80560   1
   9  -2   5 151.056 7.43660   5
  -2  -7   5 151.726 7.03881   3
   9  -7   5 141.248 7.65341   5
   7  -9   5 144.608 7.83069   5
  -7  -2   5 153.934 5.77474   3
  -7   9   5 147.508 7.16634   5
   2   7   5 115.054 6.84554   3
   2  -9   5 128.371 6.54506   5
   2   7   5 107.116 6.82943   5
  -7   9   5 159.101 5.53167   1
  -2   9   5 131.511 6.25424   1
   7   2   5 146.751 7.45456   3
  -9   2   5 150.980 6.45678   1
   9  -2   5 145.515 7.04537   2
  -2  -7   5 119.037 5.27538   5
   7   2   5 142.716 6.93462   1
   9  -2   5 142.022 7.49959   5
   9  -2   5 133.240 6.81251   3
  -9   7   5 126.500 5.52513   5
   9  -7   5 172.029 8.59673   5
  -7  -2   5 167.284 7.34117   1
  -2  -7   5 136.698 5.27225   5
   9  -7   5 138.964 5.33098   1
   7   2   5 153.825 7.47608   4
   9  -2   5 126.861 6.59750   4
   2   7   5 129.604 6.66957   2
  -2   9   5 128.230 6.01627   2
   7   2   5 138.920 7.09726   2
   9  -7   5 136.687 6.73472   4
   7  -9   5 122.046 6.63594   4
   7   2   5 114.383 6.54202   2
   9  -2   5 156.614 7.19860   2
   7   2   5 159.394 7.95063   5
   2  -9   5 154.942 7.23204   4
  -7   9   5 134.357 5.24450   4
  -7   9   5 147.533 4.31331   2
  -2  -7   5 146.973 7.00176   1
   2   7   5 149.922 7.19111   2
  -2  -7   5 117.586 6.20575   4
  -2   9   5 146.315 6.97678   4
   2   7   5 143.928 7.46523   4
  -7  -2   5 107.768 3.83939   4
   7   2   5 147.342 7.58419   4
   9  -7   5 126.728 6.11220   2
  -2   9   5 153.142 6.82270   3
   2  -9   5 138.404 6.46113   1
   2   7   5 142.271 6.96079   1
   9  -2   5 163.672 7.82977   4
   7   2   5 141.661 6.99465   1
   7  -9   5 115.977 6.15683   2
  -9   7   5 148.547 5.30895   1
  -2   9   5 148.348 6.51758   1
  -2   9   5 134.126 6.39128   3
   2   7   5 149.513 7.18719   3
   7  -9   5 119.705 5.28739   1
   7   2   5 122.433 6.72913   3
  -7   9   5 129.647 4.31920   3
   9  -2   5 151.180 6.66397   1
   2  -9   5 140.794 7.17445   2
   9  -2   5 156.738 7.25346   3
   9  -2   6 32.1337 3.71188   1
  -7  -2   6 29.4020 3.34275   2
   9  -7   6 24.5634 3.56940   3
  -9   2   6 27.6075 2.41498   2
  -7   9   6 25.8024 2.21112   2
   7  -9   6 24.7901 3.53030   3
  -2  -7   6 23.9108 3.56825   2
   2  -9   6 23.1993 3.73768   3
   9  -2   6 24.7296 3.86106   5
  -9   2   6 21.6678 3.15152   1
  -2  -7   6 30.9380 3.89263   3
  -7   9   6 30.7803 2.43795   3
   9  -7   6 25.9947 3.85620   5
   9  -2   6 23.0007 3.44059   2
   7  -9   6 25.2119 4.14664   5
  -7  -2   6 37.5385 3.21483   3
  -7   9   6 25.6299 3.62749   5
  -2  -7   6 23.0478 2.78940   5
  -2  -7   6 24.3076 3.48815   1
   7   2   6 26.2915 3.94613   2
  -7  -2   6 21.5433 3.42895   1
  -2   9   6 28.9720 3.37594   2
   2   7   6 23.5397 3.72356   3
  -2   9   6 25.1968 3.86069   5
  -9   7   6 30.2231 3.11547   5
   7   2   6 27.5227 4.15908   5
   2   7   6 22.2894 4.17061   5
   2   7   6 21.4082 3.46739   2
  -7   9   6 22.8504 2.65188   1
   9  -2   6 35.9102 4.57919   5
  -2  -7   6 20.9900 2.56389   5
   9  -7   6 31.9168 4.51689   5
   2  -9   6 27.1980 3.40093   5
   9  -2   6 21.7416 3.43710   3
   7   2   6 16.1699 3.32820   1
  -2   9   6 29.3752 3.49163   3
   7  -9   6 21.0324 3.63310   5
   2   7   6 23.9302 3.67491   1
   2   7   6 24.2551 3.52857   4
   9  -7   6 25.1002 2.87353   1
  -7   9   6 25.8230 2.61550   4
   7   2   6 24.4563 3.66197   4
   9  -2   6 27.2953 3.88110   4
   2   7   6 22.0093 3.55146   2
  -2   9   6 22.8073 3.16313   2
   9  -7   6 27.4289 3.66276   4
   2  -9   6 27.1596 3.46627   1
   7  -9   6 31.2135 4.05256   4
   2  -9   6 22.5440 3.37569   4
   7   2   6 23.0971 3.63345   5
   9  -2   6 24.8264 3.64624   2
  -7   9   6 36.2927 3.00102   4
  -2  -7   6 21.5604 3.22304   4
  -2   9   6 23.1694 3.64154   1
   7   2   6 20.7997 3.52721   2
  -2   9   6 30.0803 3.77956   4
  -7   9   6 24.4850 2.18480   2
  -7  -2   6 26.0618 1.94419   4
   9  -7   6 23.7674 3.44695   2
   2   7   6 19.6111 3.67687   4
   9  -2   6 23.3981 3.64737   4
  -9   7   6 23.3664 2.72234   1
   7   2   6 26.2435 3.92340   4
   2  -9   6 27.5868 3.60718   5
   2   7   6 22.9905 3.36800   1
   7  -9   6 23.3034 2.77833   1
   7   2   6 32.1405 3.90521   1
  -2   9   6 25.4219 3.17627   3
   7   2   6 33.3958 4.10364   3
   2  -9   6 28.3186 3.66442   2
  -7   9   6 28.1117 2.29120   3
   2   7   6 19.2861 3.32670   3
  -2   9   6 27.2736 3.41406   1
   7   2   6 25.8860 3.75453   3
   9  -2   6 24.6328 3.52480   3
   7  -9   6 13.3306 2.86114   2
  -1   9  -6 4.29218 2.37256   3
   1   8  -6 8.34636 2.49876   3
   9  -1  -6 4.02712 2.14954   1
   8  -9  -6 2.07989 2.19873   5
   9  -8  -6 5.27547 2.10082   5
   1  -9  -6 6.04805 3.16137   5
  -1  -8  -6-0.45380 2.55218   5
  -1   9  -6 3.11004 2.19286   1
  -9   8  -6 3.75478 2.48416   4
   8   1  -6 5.49906 2.41582   1
  -8   9  -6 5.93398 2.36130   4
  -1   9  -6 5.60039 2.43025   4
   1   8  -6 1.24311 1.78101   4
   1   8  -6 1.25816 2.25863   1
  -9   8  -6 6.51439 2.45944   2
  -8   9  -6 3.74018 2.31143   2
   9  -1  -6 5.44801 1.61716   2
   8  -9  -6 3.36847 1.70111   1
   8   1  -6 1.54663 1.68702   2
  -1   9  -6 1.55880 2.43315   2
   9  -8  -6 2.98169 1.60839   1
   1   8  -6 10.8863 3.02746   2
  -9   8  -6 3.96140 1.91054   1
   1  -9  -6 2.98027 2.67858   4
  -1  -8  -6 1.18270 2.22776   4
  -8   9  -6 2.65914 1.89505   1
  -9   8  -6 3.26727 2.55387   3
  -8   9  -6 4.36084 2.23363   3
   8   1  -6 3.55746 1.32794   3
  -1   9  -5 21.1244 3.16282   3
   1   8  -5 24.2683 3.18008   3
  -1   9  -5 27.4686 3.06204   5
  -1   9  -5 20.7756 3.12998   1
   8   1  -5 29.9931 3.36258   1
   9  -8  -5 27.9103 3.05376   5
   1   8  -5 22.1583 3.04574   1
   8  -9  -5 26.0452 3.34772   5
   1  -9  -5 18.6871 3.45986   5
  -1  -8  -5 21.8347 3.57739   5
   1   8  -5 25.4786 2.66649   5
  -9   8  -5 21.0292 3.07129   4
  -8   9  -5 20.2126 3.14078   4
   8  -9  -5 25.5101 2.40016   1
  -9   8  -5 21.6697 3.04991   2
  -1   9  -5 25.2857 3.27839   4
   1   8  -5 29.6850 3.17107   4
  -8   9  -5 26.9959 3.34579   2
   9  -8  -5 23.7816 2.22686   1
  -9   8  -5 29.3829 2.79561   1
   9  -1  -5 27.3218 2.39311   2
   8   1  -5 24.3017 2.57943   2
   9  -1  -5 24.9174 2.89349   1
  -1   9  -5 22.4503 3.29704   2
   1   8  -5 26.5566 3.45562   2
  -8   9  -5 26.6434 2.76667   1
   1  -9  -5 22.6819 3.34311   4
  -1  -8  -5 18.1263 3.39829   4
   9  -1  -5 22.0482 1.07473   3
  -9   8  -5 30.0218 3.42866   3
  -8   9  -5 24.8161 3.39501   3
   8   1  -5 25.0106 2.06644   3
  -8   9  -4 5.86442 1.70170   3
   8   1  -4 6.46814 1.18457   3
  -1   9  -4 8.10722 2.01267   3
   1   8  -4 1.81036 1.55472   3
  -8   9  -4 8.35602 2.20929   5
   1   8  -4 6.31889 1.63553   5
  -1   9  -4 7.31681 1.83682   5
   8  -9  -4 6.78266 1.92055   5
   9  -8  -4 8.59672 1.86982   5
   1  -9  -4 12.3264 2.61536   3
  -1  -8  -4 5.51353 2.13305   5
  -1  -8  -4 10.6663 2.54543   3
   8   1  -4 3.59199 0.42703   4
  -9   8  -4 6.56455 1.76744   4
  -8   9  -4 5.53909 1.67635   4
   9  -8  -4 7.30064 1.15911   1
  -9   8  -4 8.57664 1.36453   1
  -1   9  -4 7.56746 1.90180   4
   8  -9  -4 6.05935 1.14599   1
   1   8  -4 8.09615 1.97322   4
  -9   8  -4 8.92546 1.99935   2
   9  -1  -4 7.59073 1.31624   2
   9  -1  -4 7.47361 1.75700   1
  -8   9  -4 4.74775 1.62950   2
  -1   9  -4 7.06704 1.77893   1
   8   1  -4 9.33381 1.96914   1
   8   1  -4 8.66825 1.59238   2
   1  -9  -4 4.15017 1.99397   4
  -1  -8  -4 5.96826 1.99900   4
   8  -9  -4 7.71394 1.42379   4
  -1   9  -4 8.62771 1.97248   2
   1   8  -4 5.45533 1.78804   1
   1   8  -4 8.58926 1.96274   2
   9  -1  -4 7.52529 0.68439   3
   1  -9  -4 9.61882 2.39221   5
  -8   9  -4 6.28717 1.40438   1
  -9   8  -4 4.24529 1.63358   3
  -8   9  -3 4.90907 1.52005   3
  -1   9  -3 18.9381 2.52384   3
   8   1  -3 5.59777 1.04668   3
   1   8  -3 3.85805 1.53959   3
  -9   8  -3 8.45091 1.89833   5
  -8   9  -3 2.67108 1.28267   5
   9  -8  -3 5.52170 1.52074   5
   8  -9  -3 5.68562 1.69401   5
   1  -9  -3 4.59793 1.85136   5
   1  -9  -3 4.99629 1.52057   3
  -1  -8  -3 3.43401 1.58594   3
   9  -8  -3 5.03633 0.60148   1
  -1   9  -3 6.82948 1.75090   5
   8   1  -3 6.50760 0.70138   4
  -9   8  -3 5.80962 0.88931   1
  -9   8  -3 5.90428 1.50792   4
  -8   9  -3 6.16770 1.87900   4
   8   1  -3 10.9234 1.88756   1
   1   8  -3 10.2875 2.04926   1
  -1   9  -3 4.96251 1.66614   4
   1   8  -3 4.78836 1.61525   4
  -9   8  -3 7.87588 1.55572   2
   1   8  -3 5.69224 1.37318   5
  -8   9  -3 2.78749 1.20583   2
  -1  -8  -3 5.32708 1.88091   5
  -8   9  -3 6.11580 1.03604   1
   9  -1  -3 6.48869 1.08830   2
   9  -8  -3 6.37969 0.95501   4
   8  -9  -3 5.24175 1.14281   4
   1  -9  -3 8.08329 1.83486   4
  -1  -8  -3 8.58455 2.20481   4
   9  -1  -3 4.13172 1.18131   1
  -1   9  -3 5.72649 1.65984   2
  -9   8  -3 10.0781 1.81040   3
   8   1  -3 6.08167 1.32383   2
   1   8  -3 8.00087 1.88746   2
  -1   9  -3 5.91481 1.51557   1
   9  -1  -3 5.14063 0.67941   3
  -1   9  -2 8.06453 1.66285   3
   9  -1  -2 8.03129 0.92184   3
   1   8  -2 8.83208 1.93075   3
   8   1  -2 7.53440 1.19780   3
  -9   8  -2 9.07060 1.77223   5
  -1   9  -2 10.3467 1.89829   5
  -8   9  -2 6.45335 1.67654   5
   8  -9  -2 10.9287 1.93917   5
   1   8  -2 7.92089 1.63427   1
   9  -8  -2 9.17866 1.70726   5
  -1  -8  -2 10.1631 1.92163   2
   1  -9  -2 11.8882 2.07030   3
   8  -9  -2 9.07953 1.12736   3
   1   8  -2 7.33020 1.49615   5
   1  -9  -2 6.81516 2.00404   5
  -1  -8  -2 6.65501 1.93857   5
  -1  -8  -2 10.4990 1.99587   3
  -8   9  -2 11.7495 1.82475   4
  -9   8  -2 8.16334 1.47594   4
  -1   9  -2 13.6080 2.15228   4
   1   8  -2 11.0867 1.91835   4
   8   1  -2 10.3282 1.08542   4
  -8   9  -2 9.87718 1.51755   2
  -8   9  -2 8.48417 0.69170   1
  -9   8  -2 6.14035 1.28343   2
   9  -1  -2 11.6293 1.63857   1
  -1   9  -2 10.4029 1.73088   1
   8  -9  -2 10.9150 1.61157   4
   9  -8  -2 8.18941 1.12614   4
   1  -9  -2 11.9281 2.18099   2
   8   1  -2 10.5541 1.72362   1
   1  -9  -2 8.84320 1.93846   4
  -1  -8  -2 8.56663 1.94859   4
   9  -1  -2 10.8937 1.29962   2
   8   1  -2 9.02845 1.43562   2
   9  -1  -2 8.30997 0.92564   3
  -1   9  -2 9.59542 1.79190   2
  -8   9  -2 12.0789 1.71472   3
   1   8  -2 5.11794 1.50371   2
  -9   8  -2 6.47741 1.29692   3
   1   8  -1 43.8961 3.20823   1
   9  -1  -1 49.8779 2.32625   3
  -1   9  -1 47.4862 3.51192   3
   1   8  -1 44.3587 3.45938   3
   8   1  -1 46.9680 2.77755   3
  -8   9  -1 46.7741 3.55575   5
  -1   9  -1 43.0569 3.36198   5
   1   8  -1 35.0712 2.92601   5
   1  -9  -1 56.5912 3.66621   2
   8  -9  -1 44.4640 2.39207   3
  -1  -8  -1 50.9891 3.63025   2
   9  -8  -1 42.4652 3.20465   5
   8  -9  -1 44.0448 3.50368   5
   9  -1  -1 46.2773 1.21546   5
   1  -9  -1 49.1123 3.58649   3
   1  -9  -1 53.2558 4.04535   5
  -1  -8  -1 38.4375 3.35810   3
  -1  -8  -1 48.1662 3.80483   5
   8  -9  -1 41.7674 1.66039   2
   9  -8  -1 46.4147 1.86430   3
   9  -1  -1 47.1507 1.86341   4
  -9   8  -1 33.9954 2.59735   4
  -9   8  -1 46.3471 2.38552   2
  -8   9  -1 37.3732 2.96173   4
  -1   9  -1 49.7020 3.60744   4
   1   8  -1 45.7459 3.53431   4
  -8   9  -1 37.2574 2.38323   2
   8   1  -1 49.8146 2.47120   4
   9  -1  -1 47.5676 1.90270   4
   9  -8  -1 47.4166 2.52119   4
   8  -9  -1 48.9845 2.99105   4
   1  -9  -1 47.3798 3.84780   4
  -1  -8  -1 46.4259 3.76712   4
  -9   8  -1 40.3246 3.28597   5
  -1   9  -1 45.3276 3.33838   2
   9  -1  -1 49.1792 2.33927   3
   9  -1  -1 45.7373 2.79619   1
   1   8  -1 42.0798 3.40547   2
  -1   9  -1 43.6043 3.01614   1
  -9   8  -1 46.9428 2.71333   3
   9  -1  -1 47.8789 2.53695   2
   8   1  -1 42.8383 2.78451   2
  -8   9  -1 54.5931 3.08543   3
   8   1  -1 45.7084 3.07428   1
  -9   8   0-0.13112 0.53549   3
  -1   9   0 2.16722 1.20291   2
  -8   9   0 0.50605 0.67932   3
   1   8   0 2.28428 1.07675   2
   1   8   0-0.09127 0.85402   1
   8   1   0-0.06147 0.67281   1
  -9   8   0-0.44642 0.86081   5
   8   1   0-0.45165 0.80263   2
   9  -1   0-0.27180 0.70211   2
   8   1   0 0.41944 0.57125   5
   1   8   0 0.26486 0.85774   3
   9  -8   0 0.34778 0.27495   2
  -1  -8   0 0.09048 0.91683   1
   1   8   0 0.84631 1.00358   5
   8  -9   0 0.01467 0.61181   3
   9  -8   0-0.24820 0.79181   5
   8   1   0-0.35510 0.70965   3
   8  -9   0-0.46224 0.90716   5
   9  -1   0 1.21663 0.77912   3
   9  -8   0 1.01735 0.61210   3
  -1   9   0-0.24368 1.06768   5
  -1   9   0 1.23121 1.18221   3
   1  -9   0 0.32459 0.91888   2
   1  -9   0 0.46501 1.01714   5
   8   1   0-0.06462 0.56093   5
   1  -9   0 0.63841 0.99478   3
  -1  -8   0-0.04942 0.91978   2
  -1  -8   0 0.05428 1.02501   5
  -1  -8   0 1.07597 1.27051   3
   8  -9   0 0.32663 0.51793   2
   9  -1   0-0.01245 0.58431   5
  -8  -1   0 0.45092 0.93258   2
  -8  -1   0 0.21153 0.81671   3
   9  -1   0 0.01209 0.52939   4
   9  -1   0 0.27640 0.69214   2
  -9   8   0-0.55646 0.69234   4
  -9   8   0-0.05852 0.25100   2
  -8   9   0-0.17008 0.73942   4
   8   1   0-0.15277 0.83333   1
  -8   9   0 0.36852 0.78548   5
   9  -1   0 1.66186 0.91663   1
  -1   9   0-1.16976 1.02243   4
   1   8   0-0.93555 1.16232   4
   9  -8   0 1.46804 0.81853   4
   8  -9   0 0.30028 0.71824   4
   8   1   0 0.40209 0.63413   4
  -8   9   0 0.27525 0.51286   2
   1  -9   0-0.43083 1.15239   4
   9  -1   0-0.20452 0.59679   4
   9  -1   0 0.52965 0.57204   5
  -1  -8   0-0.22915 0.89865   4
  -8  -1   0 1.87695 0.83766   4
   9  -1   0 1.27633 0.78785   3
  -1   9   0-0.04162 0.83535   1
   9  -1   0 0.46901 0.68290   1
   1   8   1 41.1594 3.35863   2
  -8   9   1 39.3627 2.33146   3
   8   1   1 48.8288 3.23423   2
   8   1   1 49.5127 3.23841   3
   1  -9   1 48.7862 3.45761   2
   9  -8   1 44.1759 2.71506   3
   9  -1   1 46.8404 2.88118   2
  -1  -8   1 48.2113 3.47098   2
   8   1   1 45.9743 2.67465   5
  -1   9   1 44.5195 3.48158   3
   9  -1   1 43.0372 2.64318   5
   1   8   1 47.4593 3.59429   3
  -9   8   1 47.4212 3.31239   5
   8  -9   1 50.4707 2.96708   3
  -8   9   1 39.8159 3.29328   5
  -9   1   1 43.1015 2.85860   1
   9  -8   1 33.7957 3.03171   5
   1  -9   1 48.0568 3.66122   3
  -1   9   1 50.4042 3.98764   5
   8  -9   1 57.9936 4.05536   5
  -1  -8   1 39.4279 3.25431   3
   9  -1   1 42.0275 2.95145   3
   1  -9   1 42.5883 3.50290   5
  -8  -1   1 43.8154 3.01092   2
   1   8   1 41.4710 3.42986   5
  -1  -8   1 41.4376 3.28305   5
   8   1   1 41.4639 2.84725   5
   9  -1   1 47.9212 2.88259   5
  -8  -1   1 40.8472 2.71460   3
  -9   1   1 47.8181 2.75954   2
   8   1   1 44.2081 2.95679   4
   8   1   1 43.7021 3.22399   2
  -1   9   1 50.1238 3.32568   1
   9  -1   1 44.4685 2.65943   4
   1   8   1 46.9948 3.27580   1
   9  -1   1 49.8549 3.16007   2
  -1   9   1 43.1646 3.07135   1
  -9   8   1 37.9574 2.35565   4
   8   1   1 37.8333 3.05457   1
   1   8   1 45.7892 3.29569   1
   9  -1   1 41.9804 2.78624   1
   9  -1   1 41.2977 2.81045   1
  -8   9   1 47.6645 2.93436   4
   8   1   1 42.3617 2.97862   1
   9  -8   1 53.2616 3.13409   4
   8  -9   1 47.2828 3.17077   4
  -1   9   1 47.4327 3.61750   4
  -8   9   1 48.8862 1.76873   2
   1   8   1 48.2491 3.69557   4
   1  -9   1 50.5201 3.74406   4
  -1  -8   1 37.6122 3.33210   4
  -1  -8   1 48.1637 3.40439   1
   8   1   1 40.2969 3.04366   4
   1  -9   1 40.5122 2.90647   1
   9  -1   1 45.0397 2.99238   4
  -8  -1   1 42.3547 2.42473   4
   8   1   1 49.9936 3.35717   3
   9  -1   1 43.2018 2.76480   3
   9  -8   1 42.8623 2.15582   2
  -9   8   1 43.0797 1.78714   3
  -8  -1   1 43.9338 3.24288   1
  -1   9   1 44.1255 3.39323   2
   8  -9   1 48.3299 2.52219   2
  -1   9   2 12.3060 2.00479   2
  -8   9   2 7.19498 0.99748   3
   9  -8   2 9.18495 1.45972   3
   8  -9   2 8.96069 1.53679   3
   9  -1   2 8.56937 1.51071   2
  -1  -8   2 9.69427 1.74081   1
  -1   9   2 8.69121 1.74192   3
  -8  -1   2 8.12546 1.45756   2
  -1  -8   2 8.45237 1.81887   3
  -9   8   2 6.99929 1.51437   5
  -1  -8   2 5.32208 1.64951   2
  -8   9   2 6.35464 1.59778   5
   9  -8   2 8.25587 1.76509   5
  -8  -1   2 9.73837 1.66956   1
  -9   1   2 5.75229 1.41362   1
   1   8   2 8.09114 1.98454   3
   8  -9   2 7.05490 1.71576   5
   1  -9   2 7.53266 1.64417   3
  -9   1   2 8.10347 1.25252   2
   8   1   2 7.29800 1.35359   5
   1   8   2 10.5091 2.13120   5
   9  -1   2 16.9705 2.27306   3
   1   8   2 8.50969 1.69699   2
   1  -9   2 8.38729 1.66993   5
   8   1   2 7.37399 1.57222   2
  -1  -8   2 10.1556 1.86638   5
   9  -1   2 10.3519 1.67901   5
   8   1   2 5.95672 1.44491   3
   8   1   2 4.64317 1.38979   5
  -8  -1   2 4.27258 1.11073   3
   8   1   2 8.86298 1.65133   4
   9  -1   2 8.95459 1.54627   4
   9  -1   2 10.7902 1.70386   2
  -9   8   2 9.66258 1.11505   4
   1   8   2 10.2058 1.77352   1
  -8   9   2 10.9912 1.58259   4
   8   1   2 7.11818 1.67174   2
   1   8   2 8.22073 1.69694   1
   9  -8   2 6.20240 1.42222   4
   1   8   2 11.5465 2.15418   4
   8  -9   2 9.03003 1.69358   4
   1  -9   2 12.9422 2.11966   4
  -1  -8   2 10.0418 1.93291   4
  -1   9   2 10.1449 1.90683   4
   1  -9   2 6.39207 1.61538   2
   8   1   2 10.7365 2.02177   4
  -1   9   2 6.94210 1.44821   1
   8   1   2 6.15452 1.47571   1
  -8  -1   2 8.55129 1.02496   4
   9  -1   2 7.40639 1.52568   4
  -1   9   2 9.56948 1.65022   1
  -1   9   2 4.84691 1.84648   5
   9  -1   2 9.15614 1.55371   5
   9  -1   2 6.68197 1.36432   1
   9  -1   2 7.90860 1.43783   1
   8  -9   2 10.1746 1.51360   2
   8  -9   2 8.68919 0.67218   1
   8   1   2 9.55991 1.72476   3
   1  -9   2 5.99939 1.31306   1
   9  -1   2 7.68842 1.45269   3
   9  -8   2 6.55571 1.15141   2
   8   1   2 9.78289 1.65748   1
   8  -9   3 6.82559 1.43699   2
  -8   9   3 7.29244 1.01718   3
  -1   9   3 6.67092 1.51047   1
   9  -8   3 4.42356 1.34793   3
   1   8   3 5.21835 1.55017   1
   8   1   3 4.56561 1.37067   5
   1  -9   3 9.12685 1.77153   2
   8  -9   3 6.39940 1.68837   3
   1  -9   3 4.27789 1.63294   1
  -1   9   3 5.28426 1.72358   2
  -1   9   3 4.14351 1.56912   3
  -1  -8   3 7.88647 1.77334   1
   1   8   3 2.66084 1.59365   2
  -9   8   3 6.13941 1.49548   5
   9  -8   3 6.28413 1.95188   5
  -9   8   3 5.50339 0.59532   1
  -8   9   3 7.75975 1.87965   5
   1  -9   3 6.34585 1.77245   3
  -1  -8   3 6.45807 1.70923   3
   1   8   3 7.50906 2.08950   3
   1  -9   3 7.12991 1.76382   5
   1   8   3 5.66925 1.82677   5
  -8  -1   3 6.79355 1.42760   2
   8   1   3 7.26318 1.66748   1
   8   1   3 7.36512 1.74588   2
   8   1   3 3.43598 1.45268   5
   8   1   3 2.57794 1.49712   3
  -9   1   3 4.03821 1.00232   2
   9  -1   3 7.79509 1.78309   2
  -8  -1   3 7.12279 1.27483   3
  -1  -8   3 4.66824 1.50082   2
   9  -1   3 5.86921 1.61900   5
  -1  -8   3 4.94964 1.51904   5
   9  -1   3 5.73691 1.56741   3
   9  -1   3 7.02255 1.50686   1
   8   1   3 5.02528 1.64109   4
   9  -1   3 4.46828 1.35926   4
  -8   9   3 6.41034 0.77369   1
  -9   8   3 6.11363 0.93138   4
   9  -1   3 7.24014 1.86819   5
  -8   9   3 7.33643 0.83863   1
  -9   1   3 8.50710 1.57531   1
  -8  -1   3 8.16216 1.82951   1
   8   1   3 6.75426 1.83984   2
   9  -8   3 2.50436 1.30987   4
  -8   9   3 6.91173 1.25488   4
   9  -1   3 6.34525 1.65918   2
  -1   9   3 11.1681 2.02161   1
   8  -9   3 5.02191 1.46158   4
   1  -9   3 5.37403 1.62357   4
  -1   9   3 6.46308 1.92928   4
  -1  -8   3 6.80438 1.72619   4
   1   8   3 8.59975 1.98522   4
   9  -8   3 8.59245 1.01359   1
  -1   9   3 3.98254 1.62811   5
   8  -9   3 3.57272 1.82587   5
   8   1   3 5.30733 1.68110   4
  -8  -1   3 4.70196 0.66239   4
   9  -1   3 4.42629 1.51172   4
   1   8   3 8.25848 1.86138   1
   8   1   3 1.43632 1.21898   1
   9  -8   3 6.88205 1.41127   2
   8   1   3 6.40863 1.70273   3
   8  -9   3 5.40229 0.87664   1
   9  -1   3 5.94117 1.59835   1
   9  -1   3 6.10935 1.55215   3
   8   1   4 5.94578 1.87061   1
   9  -1   4 8.19220 2.02000   3
   9  -8   4 11.4641 2.20249   3
   9  -1   4 8.57920 2.05119   1
  -1  -8   4 5.13063 1.79085   3
  -8   9   4 8.57801 1.03743   3
  -8   9   4 5.39418 1.83494   5
   1  -9   4 6.04039 1.90663   2
   8  -9   4 2.99937 1.60231   3
   9  -8   4 2.54371 1.88095   5
  -1   9   4 6.40626 1.78692   2
   1  -9   4 10.5746 2.24643   3
  -9   8   4 8.97423 1.92918   5
   9  -1   4 8.05285 2.03053   5
   1   8   4 6.63506 1.92581   2
  -8  -1   4 8.42797 1.66191   2
   1  -9   4 4.83276 1.79304   5
  -1   9   4 10.5910 2.16671   3
  -1  -8   4 5.85630 1.63528   5
  -1   9   4 11.9914 2.60594   5
   1   8   4 6.93988 1.96179   3
   1   8   4 7.43122 2.17146   5
  -9   1   4 9.31138 1.38362   2
   9  -1   4 5.51944 1.70409   1
  -8  -1   4 6.74806 1.32377   3
   8   1   4 8.33968 2.27893   5
   8   1   4 6.07306 2.08113   2
   8   1   4 5.12826 1.93210   3
   9  -1   4 7.85342 1.97066   2
   9  -1   4 5.27231 1.82719   5
   9  -1   4 5.79574 1.79918   3
  -1  -8   4 9.13015 2.20148   2
  -9   8   4 6.84586 0.80400   4
   8   1   4 4.88759 1.71545   4
   9  -1   4 5.99644 1.85686   4
  -9   8   4 7.20045 0.82944   4
  -1   9   4 6.35541 1.84609   2
   1   8   4 4.72137 1.83426   2
   8  -9   4 7.12703 1.25645   1
   9  -8   4 12.0516 2.23261   4
   8   1   4 7.24489 2.26266   2
   9  -8   4 9.01035 1.40710   1
   8  -9   4 4.68451 1.88001   4
  -8   9   4 7.52452 1.36848   4
   1  -9   4 10.4627 2.09184   1
   1   8   4 7.85253 1.96554   1
   9  -1   4 6.13058 1.84285   2
   1  -9   4 9.81961 2.18409   4
  -1   9   4 10.9949 2.12289   1
  -1  -8   4 6.99141 1.94355   4
  -1   9   4 14.6015 2.52541   4
   1   8   4 8.73239 2.25539   4
  -1   9   4 10.5271 2.28638   1
   8  -9   4 5.19684 2.14773   5
  -1  -8   4 6.84676 1.98810   1
   8   1   4 6.85314 1.95965   4
  -9   1   4 6.15091 1.66509   1
  -8   9   4 6.61486 0.45855   2
   9  -1   4 12.3076 2.39111   4
   8   1   4 10.2335 2.30195   5
  -9   8   4 10.6931 1.33265   1
  -8  -1   4 3.90421 1.48133   1
  -8   9   4 6.18001 1.19163   1
  -8   9   4 7.47556 0.91955   3
   9  -8   4 6.86487 1.71468   2
   1   8   4 4.93305 1.81043   1
   8   1   4 4.14345 1.69148   1
   8   1   4 5.20688 1.98263   3
   8  -9   4 10.1382 1.92193   2
  -1  -8   5 28.6196 3.54545   2
   1   8   5 20.1111 3.11861   1
   8   1   5 21.4227 3.17130   1
   9  -8   5 25.0462 3.27212   3
  -1   9   5 26.8573 3.24375   1
  -8  -1   5 18.2926 2.72219   2
  -9   1   5 29.3432 2.48386   2
  -8   9   5 27.6044 1.71017   3
  -1   9   5 22.6369 2.90665   2
   9  -1   5 18.7037 3.10351   2
  -1  -8   5 26.5155 2.96862   5
   9  -1   5 15.1218 2.99361   5
   9  -8   5 27.5365 3.68552   5
  -8  -1   5 27.6849 2.40229   3
   8  -9   5 22.5489 3.48295   5
  -9   8   5 27.1486 3.00740   5
  -1   9   5 28.0924 3.33129   3
  -8   9   5 19.9935 3.03537   5
   1  -9   5 13.2854 2.94128   3
   1  -9   5 28.7970 3.37725   5
   8   1   5 19.5497 3.36102   2
   1   8   5 31.5966 3.76693   3
   1   8   5 19.2366 2.97147   2
  -1   9   5 18.1052 3.36765   5
   8  -9   5 14.5888 2.83100   3
   1   8   5 18.9716 3.55798   5
   8   1   5 22.3640 3.40482   3
   9  -1   5 11.4751 3.03486   3
   8   1   5 19.7614 3.42226   5
   8   1   5 23.2161 3.32514   5
   1  -9   5 14.4677 3.07793   1
   9  -1   5 19.1446 3.33501   5
  -9   1   5 20.1497 2.94802   1
  -1  -8   5 30.2024 3.42618   1
   9  -8   5 21.7559 3.63359   5
   8  -9   5 24.5284 3.60192   5
  -8  -1   5 26.3190 3.13373   1
  -8   9   5 26.1638 2.36132   1
   8   1   5 21.0641 3.21838   4
   9  -1   5 19.9860 2.81845   1
  -9   8   5 18.4453 1.06259   4
   9  -1   5 22.0190 3.14152   4
   1   8   5 22.3328 3.06447   2
  -1   9   5 22.4126 2.89680   2
  -1  -8   5 21.8494 3.08889   3
   8   1   5 14.5101 3.22215   2
  -9   8   5 24.8299 1.15857   4
   9  -8   5 18.4950 3.09316   4
   8  -9   5 19.6004 3.32259   4
   9  -1   5 19.2839 3.11233   2
   9  -8   5 22.8838 2.39470   1
  -8   9   5 31.2148 2.44224   4
   1  -9   5 22.1321 3.19554   4
  -1  -8   5 27.1502 3.18857   4
  -1   9   5 28.7553 3.51277   4
   1   8   5 24.8031 3.36199   4
  -9   8   5 27.1674 2.34451   1
   9  -1   5 24.7847 3.45231   4
   1   8   5 22.6715 3.46721   1
   9  -8   5 25.6285 3.09232   2
   8   1   5 16.8277 3.09047   4
   8   1   5 26.3114 3.32118   1
  -1   9   5 26.1334 3.17773   1
   8  -9   5 19.6620 2.78065   2
   8  -9   5 22.7386 2.37689   1
  -1   9   5 20.9757 2.92880   3
   1   8   5 21.0537 3.11872   3
   9  -1   5 17.2149 2.73947   1
   8   1   5 23.2131 3.29391   3
   9  -1   5 26.4110 3.66962   3
  -8   9   5 24.6185 1.56087   3
  -8   9   5 21.6333 1.24945   2
   1  -9   5 12.6530 3.22816   2
   8   1   6 6.56740 2.53329   3
  -9   1   6 5.47472 2.52139   1
   9  -1   6 3.73215 2.52305   3
  -8   9   6 4.46445 0.93713   2
  -1  -8   6 2.17130 1.83138   5
  -1  -8   6 4.71685 2.54378   1
  -8   9   6 4.15360 1.01416   3
   9  -8   6 4.83193 1.85428   1
   1  -9   6 0.08162 2.17871   2
  -1  -8   6 6.32792 2.92287   2
   9  -8   6 5.06397 2.73403   3
   8  -9   6 5.36726 2.29298   3
   8   1   6 1.20602 2.52559   5
   9  -1   6 4.14518 2.68343   5
   8   1   6 4.55159 2.51140   1
  -1   9   6 1.60110 2.02842   1
   1  -9   6 1.46529 2.18209   1
  -8   9   6 4.89401 1.01736   3
  -8  -1   6 5.42027 2.14327   2
  -1   9   6 4.31867 2.29288   1
   9  -8   6 0.85479 2.42777   5
  -9   1   6 3.11214 1.65519   2
   8  -9   6 3.67377 2.67952   5
  -1  -8   6 7.90722 2.53276   3
  -9   8   6 4.42593 2.10616   5
   9  -1   6 4.73499 2.35277   1
   1  -9   6 2.16272 2.09451   5
  -8   9   6 4.13944 2.33747   5
  -1  -8   6 3.01665 1.96355   5
  -1   9   6 6.96795 2.39997   2
  -1   9   6 4.80928 2.26224   3
  -1   9   6 8.36524 3.01093   5
   1   8   6 7.70826 2.74971   2
   1   8   6 1.05000 2.76271   5
  -8  -1   6 3.10645 1.48376   3
  -8  -1   6 2.37946 2.24246   1
   1   8   6 4.95384 2.78462   3
   8  -9   6 1.67737 1.58674   1
   8   1   6 1.11650 2.77413   5
   9  -1   6 6.02967 2.98554   5
  -9   1   6 3.64495 0.60330   3
   8   1   6 4.84878 2.52806   2
   8   1   6 4.98366 2.79810   3
   9  -1   6 2.17806 2.51154   2
   9  -1   6-0.76723 2.47166   3
   9  -8   6 1.64760 2.92045   5
   8  -9   6 4.15672 3.17621   5
   1  -9   6 4.39677 2.17832   5
  -8   9   6 3.76737 1.35222   4
   8   1   6 2.00965 2.37230   4
   1  -9   6 0.49902 2.38291   3
   9  -1   6 2.29395 2.63289   4
   9  -8   6 4.51224 2.36514   4
   1   8   6 3.23797 2.35259   2
  -1   9   6 5.77173 2.74525   2
   8  -9   6 4.43464 2.85525   4
  -8   9   6 4.24594 1.42749   4
   1  -9   6 2.27117 2.36234   4
   8   1   6 1.23321 2.39287   2
  -1  -8   6 4.14757 2.22093   4
   9  -1   6 5.07134 2.41873   2
  -1   9   6 3.96314 2.39444   4
   1   8   6 3.48446 2.36310   1
   1   8   6 4.15234 2.58845   4
   8   1   6 4.01745 2.56084   1
   8   1   6 1.87740 2.49123   4
   9  -1   6 3.86770 2.21105   1
   9  -1   6 3.93896 2.90107   4
  -8   9   6 5.38001 0.93515   2
   1   8   6 4.81615 2.59576   1
   9  -8   6 7.93616 2.65269   2
  -1   9   6 1.70326 1.91914   3
   1   8   6 4.08985 2.31302   3
  -8   9   6 5.44650 1.80625   1
   8  -9   6 5.10846 2.42809   2
   9   0  -6 24.1648 3.47250   1
   0   9  -6 22.2115 3.40671   1
   9  -9  -6 30.1935 3.78809   5
   0  -9  -6 25.6932 4.27625   5
  -9   9  -6 14.3412 3.46876   4
   0   9  -6 28.7447 3.92819   4
   9  -9  -6 27.3277 2.80897   1
   9   0  -6 27.5328 2.90531   2
  -9   9  -6 25.6104 3.74489   2
  -9   9  -6 28.7105 3.34890   1
   0   9  -6 23.0178 3.95642   2
   0  -9  -6 26.3640 4.11504   4
   9   0  -6 26.9247 1.84370   3
  -9   9  -6 28.3037 4.09426   3
   0   9  -6 29.1433 4.05664   3
   0   9  -5 3.92518 2.45628   3
   0   9  -5 1.73273 1.52304   5
   9  -9  -5 0.96999 1.81240   5
   0  -9  -5-0.65961 2.46167   5
  -9   9  -5 1.90629 1.97284   4
   0   9  -5-1.21158 1.64435   4
   9   0  -5 0.76714 1.50980   1
  -9   9  -5 0.33817 1.70253   2
   0   9  -5 0.10196 1.86953   1
   9  -9  -5 0.90818 1.09314   1
   9   0  -5 0.25133 1.17699   2
   0   9  -5 1.57328 1.79775   2
  -9   9  -5 0.31015 1.30764   1
   0  -9  -5 0.50477 1.90042   4
  -9   9  -5 1.66963 1.99742   3
   9   0  -5 1.67039 0.77551   3
   0   9  -4 16.4485 2.91186   3
   0   9  -4 21.7498 2.82798   5
  -9   9  -4 15.0619 2.90135   5
   9  -9  -4 13.1219 2.63460   5
   9   0  -4 24.4733 2.76721   1
   0  -9  -4 16.7604 3.04920   3
   0   9  -4 17.1530 2.84657   1
   0  -9  -4 18.6939 3.22129   5
   9  -9  -4 20.0305 1.60461   1
  -9   9  -4 19.7029 2.74770   4
  -9   9  -4 23.0726 2.99506   2
   0   9  -4 24.6426 3.05315   4
  -9   9  -4 19.2354 1.91578   1
   9   0  -4 17.6174 1.99516   2
   0   9  -4 21.0071 3.01255   2
   0  -9  -4 18.9011 3.18325   4
   9  -9  -4 22.6293 1.83910   4
  -9   9  -4 23.5666 2.79441   3
   9   0  -4 25.3226 1.67123   3
   9   0  -3 55.7664 2.44304   3
   0   9  -3 57.5778 4.37352   3
  -9   9  -3 46.7062 4.00675   5
   0   9  -3 51.0385 3.62488   5
   9  -9  -3 51.5334 3.96069   5
   0  -9  -3 48.5424 4.50339   5
   0  -9  -3 54.8017 4.26070   3
  -9   9  -3 53.3705 3.79943   4
   9   0  -3 48.7719 3.51984   1
  -9   9  -3 61.2987 3.79324   2
   0   9  -3 59.4492 4.11377   1
  -9   9  -3 53.7314 2.16827   1
   0   9  -3 58.9412 4.15200   4
   9  -9  -3 52.4301 2.82761   4
   9   0  -3 45.6447 2.79127   2
   0  -9  -3 50.5166 4.27260   4
   0   9  -3 51.4277 4.13450   2
  -9   9  -3 51.5469 3.63388   3
   0   9  -2 18.6060 2.60839   3
   9   0  -2 21.5619 1.67856   3
  -9   9  -2 23.8949 2.82840   5
   0   9  -2 18.2521 2.31071   5
   9  -9  -2 20.9319 2.68310   5
   0  -9  -2 25.7777 2.80100   2
   0  -9  -2 13.0476 2.71436   5
   0  -9  -2 20.6376 2.70259   3
   9  -9  -2 19.4466 1.19026   3
   9   0  -2 24.3352 1.12346   4
  -9   9  -2 24.0869 2.43285   4
  -9   9  -2 22.1395 2.16566   2
   9   0  -2 19.2136 1.04356   4
   0   9  -2 23.6039 2.75283   4
   9   0  -2 19.8918 2.21289   1
   9  -9  -2 19.7849 1.88275   4
   0   9  -2 24.5505 2.61944   1
   0  -9  -2 19.1813 2.65493   4
   0   9  -2 22.0349 2.59694   2
   9   0  -2 20.2190 1.96914   2
  -9   9  -2 20.3763 2.21739   3
   0   9  -1 181.970 7.07136   3
  -9   9  -1 176.434 6.91787   5
   9   0  -1 198.583 5.29245   3
   0   9  -1 185.246 6.97598   5
   0  -9  -1 149.228 6.38465   2
   9  -9  -1 172.757 4.30745   3
   9  -9  -1 188.281 7.05267   5
   0  -9  -1 188.477 7.22072   3
   0  -9  -1 136.215 7.40369   5
   9   0  -1 189.659 4.28787   4
  -9   9  -1 171.387 5.94829   4
  -9   9  -1 179.919 4.88742   2
   0   9  -1 204.338 7.48427   4
   9   0  -1 176.205 4.27167   4
   9  -9  -1 188.448 5.59797   4
   0  -9  -1 180.873 7.49417   4
   0   9  -1 173.415 6.94088   2
   9   0  -1 205.513 6.40552   1
   9   0  -1 197.966 5.67824   2
   0   9  -1 178.359 6.36855   1
  -9   9  -1 163.292 5.31803   3
   9   0   0 120.018 4.63432   2
   9  -9   0 108.649 2.76141   2
   0   9   0 114.287 5.71796   3
   9   0   0 104.935 4.52547   1
   9   0   0 111.701 3.38686   5
  -9   9   0 106.880 5.27262   5
   0  -9   0 109.501 5.41761   2
   9  -9   0 102.265 3.75169   3
   0   9   0 106.414 5.00949   1
   0   9   0 88.7050 5.04938   5
   9  -9   0 109.889 5.51519   5
   0  -9   0 111.264 5.54533   3
   0  -9   0 97.2915 5.49192   5
   9   0   0 114.751 3.77323   5
   9   0   0 99.7770 4.58694   2
   9   0   0 113.375 3.93942   4
   9   0   0 105.051 4.73434   1
  -9   9   0 114.372 4.60120   4
  -9   9   0 115.132 2.96752   2
   0   9   0 118.478 5.73545   4
   9  -9   0 107.552 4.33734   4
   9   0   0 115.344 4.28406   4
   0  -9   0 116.095 5.98966   4
   9   0   0 101.248 4.07113   3
   9   0   0 105.618 4.33182   3
   0   9   0 117.917 5.47159   2
  -9   9   0 115.176 4.01442   3
   9   0   1 203.705 6.39025   2
   0  -9   1 162.454 6.43102   2
   9  -9   1 159.970 5.25146   3
   9   0   1 184.647 5.40836   5
   0   9   1 176.627 7.09919   3
   9  -9   1 194.906 7.48009   5
   0   9   1 196.712 7.75073   5
   0  -9   1 211.186 7.54225   3
  -9   0   1 184.762 6.38486   1
   9   0   1 179.178 6.11809   3
  -9   9   1 188.664 6.98759   5
   0  -9   1 210.412 7.59966   5
   9   0   1 194.401 5.88029   5
  -9   0   1 174.273 5.73636   2
  -9   0   1 185.624 5.26224   3
   0   9   1 166.288 6.34126   1
   9   0   1 195.591 5.84305   4
   9   0   1 200.910 6.74766   2
   9   0   1 206.001 6.45155   1
   0   9   1 156.373 5.95455   1
   9   0   1 191.509 6.46385   1
  -9   9   1 199.902 5.61719   4
   9  -9   1 196.322 6.32484   4
   0   9   1 179.745 7.21785   4
   0  -9   1 198.999 7.55731   4
   9   0   1 196.254 6.41843   4
   0  -9   1 172.019 6.25973   1
   9   0   1 190.369 6.20734   3
  -9   9   1 178.441 4.31112   3
   9  -9   1 181.403 4.58196   2
   0   9   1 141.783 6.37938   2
   0   9   2 21.4883 2.64777   2
   0  -9   2 22.4361 2.86892   2
   9  -9   2 21.3966 2.21693   3
   9   0   2 22.5735 2.25815   5
   9   0   2 22.3099 2.43321   2
   0   9   2 20.4717 2.62259   3
  -9   9   2 22.1441 2.60525   5
   0  -9   2 23.7492 2.70031   5
   0  -9   2 19.3554 2.61815   3
   9  -9   2 22.9840 2.88697   5
   0  -9   2 21.5013 2.39260   1
   0   9   2 15.8058 2.71792   5
  -9   0   2 23.3934 2.18349   2
   9   0   2 22.7791 2.50352   3
   9   0   2 22.8080 2.37150   5
  -9   0   2 23.4520 1.82360   3
  -9   0   2 25.8349 2.53879   1
   9   0   2 24.2845 2.41229   4
   9   0   2 13.5788 2.06565   2
  -9   9   2 25.9233 2.01813   4
   0   9   2 30.4053 2.79626   1
   9   0   2 23.2041 2.44356   1
   9  -9   2 22.8458 2.48508   4
   0   9   2 25.0050 2.93749   4
   0  -9   2 21.0156 2.64937   4
   9   0   2 17.2261 2.34524   4
   0   9   2 22.2219 2.47021   1
   9   0   2 25.1675 2.45016   1
   9   0   2 24.1586 2.48066   3
   9  -9   2 19.0925 1.97709   2
  -9   9   2 23.2621 1.29162   3
   0   9   3 52.4402 4.20747   3
   0  -9   3 50.5659 4.36296   2
   0   9   3 46.3389 4.12472   2
   9  -9   3 60.1767 3.91339   3
   0   9   3 46.8642 3.74548   1
   9   0   3 56.0565 3.93010   5
   9  -9   3 35.3998 1.90745   1
   0   9   3 67.0521 5.08337   5
   9  -9   3 48.5409 4.29528   5
   9   0   3 54.5953 3.96998   2
   0  -9   3 58.9593 4.12294   5
   9   0   3 63.5182 3.94684   1
   9   0   3 55.8921 4.08777   3
   9   0   3 66.6758 4.37729   5
  -9   0   3 60.1176 2.63409   3
   9   0   3 59.0718 3.98845   4
   9   0   3 54.3128 4.22889   2
  -9   9   3 59.2006 2.87215   4
   9  -9   3 54.9966 3.97979   4
  -9   9   3 55.1881 4.08499   5
   0   9   3 57.9130 4.03293   1
   0   9   3 62.0961 4.55097   4
   0  -9   3 71.9674 4.77002   4
   9   0   3 49.2262 3.75220   1
   0  -9   3 52.3729 4.08335   3
   9   0   3 63.3754 4.47729   4
  -9   0   3 59.5126 3.39183   2
   9  -9   3 50.2634 3.39220   2
   0  -9   3 42.0225 3.53185   1
   9   0   3 58.6147 4.04538   3
  -9   0   3 65.5299 3.99287   1
   0  -9   4 19.3752 2.95238   2
   9   0   4 15.8735 2.56515   1
   9  -9   4 17.9702 2.54924   3
   9   0   4 17.1496 2.81757   5
  -9   0   4 26.6721 2.48654   2
   0  -9   4 21.4712 3.02125   3
   9  -9   4 21.9014 3.29298   5
   0   9   4 20.8689 2.90272   3
   0   9   4 12.5051 2.52468   2
   0  -9   4 19.8992 2.68723   5
  -9   9   4 19.7493 2.77318   5
   9   0   4 24.5962 3.08575   2
   9   0   4 20.2738 2.94691   3
  -9   0   4 24.7240 1.78475   3
   9   0   4 22.1498 3.07523   5
   0   9   4 21.5856 2.83462   1
   0   9   4 18.9208 2.95114   2
   9   0   4 20.1001 2.84553   4
   9   0   4 22.8274 3.03463   2
  -9   9   4 22.4331 1.88757   4
   9  -9   4 24.8773 3.07672   4
   0  -9   4 23.9667 2.89417   1
   0  -9   4 21.1418 2.86440   4
  -9   0   4 23.9140 2.77869   1
   9   0   4 18.1030 2.53117   1
   0   9   4 18.1780 2.64344   1
   0   9   4 12.2311 2.58857   4
   9   0   4 22.7147 3.14294   4
  -9   9   4 22.3433 1.64535   1
   9  -9   4 16.4065 2.30298   2
   9  -9   4 13.0743 1.97725   1
   9   0   4 16.4877 2.73981   3
   0   9   4 28.3876 3.68729   5
   9   0   5 2.71319 2.15380   3
   0   9   5-0.94226 1.91274   1
  -9   9   5 2.33743 1.18697   1
   9   0   5 0.27804 1.82199   1
   0  -9   5 0.07543 1.69311   2
   9  -9   5 1.08256 1.92986   3
   9   0   5 0.68505 2.00744   5
   9  -9   5 2.85156 2.20583   5
   0  -9   5 1.90809 1.81587   3
   0   9   5 2.41519 2.13999   2
  -9   9   5 0.13080 1.73185   5
  -9   0   5 0.06733 1.28977   2
   0  -9   5-0.56613 1.65135   5
   0   9   5 1.52705 2.06483   3
   0   9   5-1.08357 2.46855   5
   9  -9   5 0.11998 1.14747   1
   9   0   5 0.58638 2.26066   5
  -9   0   5-0.01173 0.77757   3
   9   0   5-0.59864 1.85492   2
   9   0   5 1.65502 1.83581   3
   9   0   5-0.34337 1.65386   1
   9  -9   5 1.71579 1.93770   5
  -9   9   5 1.16381 0.88200   4
   9   0   5 3.62802 2.26540   4
   0  -9   5 2.71999 1.98077   1
   0   9   5 0.37837 1.84751   2
  -9   9   5 0.56391 0.94477   4
   9  -9   5 0.14996 1.59707   4
   9   0   5 0.65617 2.34593   2
   0  -9   5 1.43153 2.10747   4
   0   9   5-0.07878 2.06524   4
  -9   0   5-0.16282 1.71149   1
   9   0   5 0.15872 1.80940   4
   0   9   5 4.57221 2.33501   1
   0   9   5 4.82652 2.23883   3
   9  -9   5 2.12989 1.69454   2
   9  -9   6 20.0208 3.55971   3
  -9   0   6 16.2744 2.78286   2
   0   9   6 26.6742 3.79849   2
   0  -9   6 20.7137 3.62797   3
   9   0   6 16.4109 3.74726   5
  -9   9   6 29.6949 3.64566   5
   0  -9   6 27.3031 3.55088   5
   0   9   6 20.7418 4.06926   5
   9   0   6 30.6754 4.15288   3
   9   0   6 22.8145 3.58472   1
   0   9   6 25.0569 3.76094   1
   9   0   6 20.2906 4.32612   5
   0  -9   6 31.0502 3.97846   1
   9   0   6 18.3448 3.56174   2
   0  -9   6 21.8827 3.11682   5
  -9   0   6 27.0739 3.78852   1
   9  -9   6 17.0816 4.06155   5
  -9   9   6 31.0964 1.95965   4
   0   9   6 29.1525 3.69246   2
   9   0   6 23.9693 3.81438   4
   9  -9   6 22.3840 3.64848   4
  -9   9   6 30.1219 1.91423   4
   0   9   6 24.5186 3.60372   3
   0  -9   6 18.5973 3.52484   4
   9   0   6 18.5543 3.51201   2
   0   9   6 18.6868 3.72685   4
   9  -9   6 22.7759 2.81620   1
   9   0   6 23.3762 3.95421   4
   9  -9   6 24.0971 3.63642   2
   0   9   6 26.1433 3.63747   1
   0   9   6 22.6926 3.72812   3
   9   0   6 26.7926 3.90673   1
   9   0   6 35.7368 4.75215   3
   9  -9   6 25.9440 4.39584   5
   0  -9   6 22.9160 3.78660   2
   5   5  -6 52.6516 4.98918   1
   5 -10  -6 52.0042 5.63913   5
  -5  -5  -6 68.1604 6.48155   5
 -10   5  -6 59.8515 5.32039   2
   5   5  -6 57.2634 3.79501   4
  -5  10  -6 55.9595 4.99021   4
 -10   5  -6 61.6183 4.71664   1
  -5  10  -6 41.0902 4.68442   2
   5   5  -6 49.3750 4.90182   2
  10  -5  -6 43.0414 3.83370   1
   5 -10  -6 45.8334 4.26275   4
  -5  10  -6 57.9046 4.66035   1
  -5  10  -6 61.0643 5.24178   3
   5   5  -6 57.6204 4.39331   3
  -5  10  -5 0.43432 1.86530   3
   5   5  -5-0.25595 1.47306   3
  10  -5  -5 0.27378 1.27320   1
  -5  10  -5 0.18333 1.55449   5
  -5  10  -5-0.80593 1.55857   1
   5 -10  -5-0.68265 2.08620   5
  -5  -5  -5 0.17531 2.13981   5
  10  -5  -5-0.25083 0.47627   5
 -10   5  -5 0.68980 1.66498   2
  -5  10  -5-1.07167 1.64970   4
   5   5  -5-0.08624 1.15139   4
 -10   5  -5 0.69978 1.28648   1
  -5  10  -5 0.10686 1.95905   2
   5   5  -5 0.45263 1.51824   1
   5   5  -5-0.75902 1.68517   2
   5 -10  -5 0.32111 1.68355   4
   5   5  -4 56.9282 3.91683   3
  -5  10  -4 56.9487 3.62452   1
   5 -10  -4 57.1931 5.06033   5
  10  -5  -4 44.6254 2.05425   5
  -5  -5  -4 54.6230 4.65800   5
   5 -10  -4 53.0120 3.74363   3
   5   5  -4 53.6871 4.26248   1
  -5  10  -4 48.6595 4.11656   4
   5   5  -4 52.6973 3.41154   4
  -5  10  -4 52.0780 4.09375   2
   5   5  -4 54.6188 4.07655   2
   5 -10  -4 52.5525 4.16149   4
  -5  -5  -4 36.0884 4.07434   4
  -5  10  -4 48.0464 4.24134   5
  10  -5  -4 61.9228 3.35325   1
  -5  10  -4 55.1652 4.28405   3
  -5  10  -3 1.85969 1.27794   3
   5   5  -3-0.80790 1.02619   3
   5   5  -3-0.67199 1.33423   1
   5   5  -3 0.63655 0.44807   5
  -5  10  -3 0.37328 1.43476   5
  10  -5  -3 0.11859 0.66671   1
   5 -10  -3-1.14253 1.61151   5
  10  -5  -3 0.37032 0.69084   5
   5 -10  -3-0.34788 1.02105   3
  -5  -5  -3-0.30843 1.32268   5
  -5  -5  -3-0.92229 1.50374   3
  -5  10  -3-0.07527 0.92143   1
  -5  10  -3 0.23288 1.53390   4
   5   5  -3-0.77581 0.96469   4
   5 -10  -3-0.93174 1.10842   4
  -5  10  -3 2.79292 1.40232   2
  -5  -5  -3-0.57148 1.25684   4
   5   5  -3 1.25786 1.38855   2
  -5  10  -2 13.5313 2.36274   3
   5 -10  -2 21.4493 2.95240   5
   5   5  -2 28.9465 2.62079   3
  10  -5  -2 29.0497 1.66445   1
  -5  10  -2 18.4446 2.51298   5
   5   5  -2 23.4840 1.54349   5
   5 -10  -2 25.0011 2.40466   3
   5 -10  -2 26.8363 2.27133   2
  -5  -5  -2 24.7975 2.64298   5
  -5  -5  -2 20.2387 2.69034   3
  -5  -5  -2 28.4237 2.99518   2
  -5  10  -2 19.8678 2.42482   4
  -5  10  -2 28.9389 2.19879   1
   5   5  -2 26.7519 2.41448   4
  10  -5  -2 31.5923 2.05239   5
   5 -10  -2 23.6813 2.67204   4
  -5  10  -2 21.3118 2.34359   2
  -5  -5  -2 26.4754 2.96111   4
   5   5  -2 24.9665 2.68143   1
   5   5  -2 26.2359 2.63926   2
   5   5  -1-0.26470 1.02977   2
  -5  10  -1 0.14555 0.88491   3
  -5  -5  -1-0.39744 0.86613   5
   5   5  -1 0.11668 0.94087   3
  -5  10  -1 0.49237 1.18855   5
   5   5  -1-0.20384 0.60391   5
  10  -5  -1 0.30665 0.65667   5
   5 -10  -1 2.51654 1.43239   5
   5 -10  -1 0.23654 0.96293   3
   5 -10  -1-0.46535 0.79780   2
  -5  -5  -1 0.32738 0.93998   2
  -5  -5  -1-1.50306 1.25290   3
  -5  10  -1-0.28185 0.84233   4
  10  -5  -1 0.47714 0.45302   1
   5   5  -1 0.91676 0.94852   4
  10  -5  -1 0.02431 0.38401   1
  10  -5  -1 0.08134 0.20393   4
   5 -10  -1-0.20622 1.03069   4
  10  -5  -1 0.19097 0.24450   4
  -5  -5  -1-0.66356 1.07071   4
  -5  10  -1-0.46210 0.75922   2
  -5  10  -1 1.11695 0.78743   1
  10  -5   0 305.660 4.96482   3
  10  -5   0 337.538 4.47464   2
  -5  10   0 334.141 8.60369   3
   5 -10   0 357.180 7.94050   2
   5   5   0 310.017 8.52863   3
  10  -5   0 350.731 7.69006   5
   5 -10   0 317.768 8.27547   3
   5   5   0 347.516 7.90744   5
  -5  -5   0 350.593 9.38599   2
   5 -10   0 365.365 10.3519   5
  10  -5   0 328.345 5.23052   3
   5   5   0 379.075 9.35164   1
  -5  -5   0 366.463 9.68938   3
  -5  -5   0 323.951 7.60495   5
  -5  10   0 331.837 6.33527   1
  10  -5   0 318.267 5.70491   4
  -5  10   0 362.775 9.37200   4
  10  -5   0 345.358 4.75798   1
   5   5   0 337.165 8.54731   4
  -5  -5   0 273.360 8.18892   1
  10  -5   0 356.523 5.13295   1
   5 -10   0 314.116 8.85735   4
  -5  10   0 335.376 9.78826   5
  10  -5   0 362.507 4.61974   2
  -5  -5   0 361.636 9.40093   4
  -5  10   0 329.612 6.26556   1
  10  -5   0 317.236 6.20171   4
  -5  10   0 346.343 7.95328   2
   5   5   0 288.777 8.47750   2
   5 -10   1 0.02337 0.76368   3
  -5  10   1 0.49006 0.85255   2
  10  -5   1-0.10852 0.42829   1
  10  -5   1 0.04109 0.53827   3
  10  -5   1 0.20463 0.47063   1
 -10   5   1 0.36654 0.64806   5
   5   5   1 1.44758 1.26887   2
  10  -5   1 0.22877 0.79061   5
  -5  10   1 0.33678 0.96943   5
   5   5   1 2.25604 1.26961   3
   5 -10   1 0.46030 1.28677   5
   5   5   1 0.93252 0.88649   5
  -5  -5   1 0.04997 1.05391   2
   5 -10   1-0.06084 0.81539   2
  -5  -5   1 1.72499 1.07180   3
  10  -5   1-0.17229 0.49850   2
  -5  -5   1 0.45846 0.67917   5
  10  -5   1 1.22010 0.80185   3
  10  -5   1 1.44420 0.96572   5
   5 -10   1 0.23679 0.59938   1
  10  -5   1-0.46904 0.68848   4
  -5  10   1 0.10761 0.82257   3
   5   5   1 0.24947 0.86214   1
  -5  10   1-0.34939 1.06741   4
   5 -10   1-0.46059 0.89292   4
   5   5   1-1.25289 1.02199   4
  10  -5   1-0.08070 0.52723   2
  -5  -5   1 0.63473 1.30168   4
   5   5   1-1.56979 1.16526   1
  -5  10   1-0.03703 0.54010   1
  -5  -5   1 0.02492 1.01237   1
  10  -5   1-0.27432 0.68348   4
  -5  10   1-0.05156 0.56277   1
  10  -5   2 24.4401 2.19520   3
   5 -10   2 22.4860 2.33826   2
   5   5   2 26.8318 2.85609   2
   5 -10   2 20.9746 1.82659   1
  -5  10   2 25.4645 2.36417   3
 -10   5   2 25.2230 1.76475   5
  -5  -5   2 23.6010 2.57492   2
   5 -10   2 32.3624 3.01667   3
  10  -5   2 23.2906 2.48970   5
  -5  -5   2 26.9619 2.72511   1
   5 -10   2 23.6081 2.95967   5
  -5  -5   2 26.3759 2.70288   3
   5   5   2 22.0223 2.61091   5
   5   5   2 17.9404 2.54829   3
  -5  -5   2 23.3745 1.69754   5
  10  -5   2 21.3665 2.29211   3
  10  -5   2 20.6033 2.42958   5
   5   5   2 25.6862 2.65109   1
  10  -5   2 22.3146 2.17231   4
  -5  10   2 20.1454 2.42096   4
  -5  10   2 27.0721 2.02513   1
   5 -10   2 24.4896 2.72688   4
  10  -5   2 23.4839 2.01474   2
  -5  10   2 25.4852 2.95012   5
   5   5   2 26.2324 2.86846   4
  -5  -5   2 28.4508 2.75081   4
  -5  10   2 24.8334 1.92108   1
  10  -5   2 22.3410 2.28464   4
 -10   5   2 29.1148 1.73787   1
  10  -5   2 27.0062 2.28203   2
  -5  10   2 24.1360 2.17907   2
   5   5   2 24.4702 2.65594   1
  10  -5   2 23.9378 1.72873   1
  10  -5   2 25.6854 1.78742   1
  10  -5   3-0.30073 0.70393   1
  10  -5   3-0.42063 1.03118   3
  -5  10   3-0.61929 0.85446   1
   5 -10   3-0.77624 1.18229   2
  -5  10   3 1.77873 0.94945   1
  -5  10   3 0.43486 0.92394   2
 -10   5   3 0.12038 0.53176   5
   5   5   3 0.78798 1.35418   1
  10  -5   3-0.11644 1.23876   5
   5 -10   3 0.46354 1.27307   3
  -5  -5   3 0.73296 1.11290   2
  -5  10   3 0.17542 1.58435   5
   5   5   3-0.45739 1.32633   2
  -5  -5   3-0.25910 1.08557   3
  10  -5   3 2.16185 0.96535   1
   5   5   3-1.05187 1.41332   3
   5   5   3-1.13786 1.42882   5
  -5  -5   3 0.04797 0.43079   5
 -10   5   3-0.37509 0.62703   1
  10  -5   3-0.25270 1.37014   5
  10  -5   3 0.20592 1.00763   2
  10  -5   3-0.38872 1.14114   3
  -5  10   3-0.36852 0.83427   2
   5   5   3-1.36924 1.53045   2
  -5  10   3-0.53565 0.99312   3
  -5  -5   3-0.33701 1.23712   1
  10  -5   3 0.50537 0.97129   4
  -5  10   3 0.28178 1.09350   4
   5 -10   3 1.14175 1.35790   4
   5   5   3 0.03324 1.49583   4
  -5  -5   3-0.56786 1.12348   4
  10  -5   3-0.65042 0.95876   2
   5   5   3-0.80657 1.22846   1
   5 -10   3-0.71285 1.24401   5
  10  -5   3 0.38677 1.25050   4
   5 -10   3-0.26831 0.76200   1
  10  -5   4 52.0234 3.93921   3
  -5  10   4 50.5887 3.27365   2
  -5  -5   4 47.2735 4.14244   2
  10  -5   4 47.8639 3.11095   1
   5 -10   4 57.8457 4.37645   3
   5   5   4 54.3530 4.40276   2
  -5  10   4 45.8774 3.40698   3
  -5  -5   4 54.2381 4.00161   3
   5 -10   4 55.4180 4.55865   5
  -5  10   4 61.2590 4.82824   5
   5   5   4 58.8022 4.65889   3
   5   5   4 52.1275 4.49089   5
  10  -5   4 58.3018 4.52947   5
 -10   5   4 59.6463 2.21569   5
   5 -10   4 43.7326 3.27918   1
  -5  -5   4 48.8843 1.30683   5
  10  -5   4 64.4106 4.91658   5
  10  -5   4 56.1010 4.19836   3
 -10   5   4 50.8579 3.04505   1
   5   5   4 54.6317 4.36516   2
  -5  10   4 60.5182 3.52479   2
  10  -5   4 51.5330 4.14614   4
   5   5   4 70.8309 5.06604   1
   5 -10   4 41.1980 3.94283   4
  -5  10   4 50.6117 3.74454   4
  -5  -5   4 55.0734 4.26584   1
  10  -5   4 47.7542 3.71996   2
   5   5   4 49.5236 4.13036   1
  -5  -5   4 61.1059 3.87097   4
   5   5   4 63.8136 5.37978   4
  -5  10   4 53.9256 3.44393   1
  10  -5   4 51.3525 4.12341   4
   5   5   4 61.4210 4.73726   3
   5 -10   4 46.4837 3.74768   2
  -5  10   4 38.6060 2.93722   1
   5   5   5-0.57870 1.95982   1
   5 -10   5-0.60243 1.40627   1
   5 -10   5 0.41440 1.76866   2
  10  -5   5-1.30756 1.69301   3
 -10   5   5 0.18270 1.26969   1
  -5  -5   5 1.59675 1.86534   2
   5 -10   5 0.07295 1.93620   3
   5   5   5-0.85565 2.02394   1
  10  -5   5-0.35595 2.01487   5
  -5  10   5 0.20546 1.21931   2
   5 -10   5-0.62955 1.82069   5
  -5  10   5 1.29982 1.49274   3
 -10   5   5-0.23401 0.47620   5
  -5  10   5 0.61747 1.74524   5
  -5  -5   5-0.09110 1.46485   3
  -5  10   5 0.49618 1.33922   1
   5   5   5-0.37731 2.02654   2
   5   5   5-1.16325 2.30456   5
   5   5   5-1.01170 1.98332   3
  -5  10   5 0.65578 1.36338   1
  10  -5   5-1.08353 1.90247   3
   5   5   5-0.34688 2.03169   4
  10  -5   5 0.07303 1.25878   1
  10  -5   5-0.41643 1.54666   4
   5   5   5 0.59677 1.86223   2
  -5  -5   5 1.23599 1.59780   1
  -5  10   5-0.09100 1.19438   2
   5 -10   5 2.81911 1.98797   4
  10  -5   5-0.25425 2.15807   5
  -5  10   5 0.46172 1.61596   4
  -5  -5   5-0.75830 1.54448   4
   5   5   5 0.96387 2.63304   4
  10  -5   5-0.47893 1.65285   2
  10  -5   5 1.39124 1.95715   4
  -5  10   5 2.59384 1.55183   3
   5   5   5-0.98987 2.00107   3
  10  -5   6 69.4191 5.54033   3
  -5  -5   6 55.1539 4.88810   2
  -5  10   6 60.0875 4.22181   2
  -5  10   6 60.4761 4.18064   1
   5 -10   6 67.6141 5.52222   3
 -10   5   6 38.4738 1.50295   5
   5 -10   6 41.3632 4.24881   1
 -10   5   6 29.7148 4.07525   1
   5   5   6 62.3836 5.58020   2
  -5  10   6 55.5427 4.11590   3
  -5  -5   6 63.4592 4.94348   3
  10  -5   6 67.4629 4.54770   1
   5 -10   6 69.7741 5.71915   5
   5   5   6 63.7523 5.45443   1
  -5  10   6 58.3957 5.47406   5
   5   5   6 42.8706 4.85999   3
   5   5   6 44.5230 5.51380   5
  10  -5   6 62.5301 6.05559   5
  -5  10   6 64.5218 4.50354   1
  10  -5   6 41.8369 4.61316   3
  10  -5   6 63.6698 5.67979   5
  -5  -5   6 55.8420 5.24934   1
   5 -10   6 70.1729 5.61357   5
   5   5   6 41.5567 4.99311   4
   5   5   6 53.1595 5.44319   2
  10  -5   6 56.3909 5.13150   4
  -5  10   6 43.1222 3.84890   2
   5 -10   6 68.2754 5.62285   4
  -5  10   6 60.7796 4.80443   4
  -5  -5   6 62.3678 4.43743   4
  10  -5   6 58.0720 5.06845   2
   5   5   6 61.5748 5.75825   4
  10  -5   6 53.1809 5.37390   4
   5   5   6 43.6803 4.72151   1
  -5  10   6 54.8194 4.11805   3
   5   5   6 57.5988 5.21168   3
   5 -10   6 59.7408 5.18022   2
  -6  10  -6 4.83859 2.36758   3
  10  -6  -6 3.95321 1.93696   1
  -4  10  -6 5.25378 2.63281   3
   6   4  -6 8.62434 2.29885   3
   4   6  -6 1.83407 2.07601   3
  10  -4  -6 3.84209 1.99273   1
  -6  10  -6 2.77334 2.04995   1
  -4  10  -6 1.87330 1.93574   1
   6 -10  -6 5.64272 2.64119   5
   4 -10  -6 3.74321 2.60998   5
  -4  -6  -6 1.77074 3.06846   5
  10  -6  -6 5.61455 1.53306   5
  -6  -4  -6 1.85913 2.91420   5
   6   4  -6 5.64663 1.54913   4
  -6  10  -6 5.15103 2.72299   4
 -10   6  -6 6.57320 2.72416   2
   4   6  -6 3.68589 1.95227   4
  -4  10  -6 2.83738 2.41613   4
   6 -10  -6 4.94658 2.03876   1
   6   4  -6 2.33590 2.38022   1
 -10   4  -6 4.71718 2.23807   1
   4   6  -6 6.40710 2.88117   1
 -10   6  -6 0.77797 1.78707   1
  -6  10  -6 6.43632 2.90388   2
  -4  10  -6 1.67171 2.42633   2
   6   4  -6 4.56871 2.29065   2
   4   6  -6 5.50473 2.45536   2
   4 -10  -6 7.19145 2.67966   4
   6 -10  -6 8.43906 2.38865   4
 -10   6  -6 6.94550 2.58852   3
   6   4  -5 36.0604 3.14258   3
   4   6  -5 32.8907 3.36596   3
  -4  10  -5 25.5268 3.05588   1
  -6  10  -5 28.2721 3.64350   5
  -4  10  -5 27.2585 3.39678   5
   6   4  -5 19.4234 3.16353   1
   6 -10  -5 32.7913 4.10872   5
   4 -10  -5 27.0309 3.99079   5
   4   6  -5 29.3814 3.54251   1
  10  -6  -5 30.6415 2.33464   5
  -6  -4  -5 23.4898 3.72378   5
  -4  -6  -5 28.7686 3.98236   5
 -10   4  -5 33.4045 3.22696   1
 -10   6  -5 29.8644 3.46002   2
 -10   6  -5 35.9619 3.02146   1
  -6  10  -5 25.7340 3.30406   4
   6   4  -5 26.1001 2.32580   4
  -4  10  -5 22.9186 3.28174   4
   4   6  -5 31.7620 3.02104   4
  -6  10  -5 28.4639 3.47356   2
  -4  10  -5 21.7661 3.56406   2
   6   4  -5 19.1383 2.85365   2
   4   6  -5 26.8362 3.23952   2
  10  -6  -5 24.5440 2.55409   1
   4 -10  -5 26.0920 3.25383   4
   6 -10  -5 29.9889 3.43228   4
  -4  -6  -5 29.6733 3.93785   4
 -10   6  -5 30.6327 3.57595   3
  -6  10  -5 30.4250 3.08862   1
  -6  10  -5 22.0519 3.35853   3
  -4  10  -5 35.6736 3.88889   3
  10  -4  -5 24.7885 2.66404   1
  -6  10  -4 13.8425 1.96879   1
   6   4  -4 18.3907 2.36421   3
  -6  10  -4 8.09833 2.00972   3
  10  -4  -4 12.9226 1.74333   1
  -4  10  -4 14.6588 2.61683   3
   4   6  -4 9.27751 2.10270   3
  -4  10  -4 12.1621 2.38471   5
  -6  10  -4 12.8417 2.47013   5
  10  -6  -4 12.6271 1.60314   5
   6 -10  -4 13.7527 2.77795   5
   4 -10  -4 9.97735 2.57218   5
   6 -10  -4 13.9189 1.91435   3
  -4  -6  -4 11.9620 2.54354   5
  -6  -4  -4 11.9877 2.56800   5
   4 -10  -4 10.4364 2.00406   3
 -10   6  -4 11.3257 1.63168   1
 -10   6  -4 12.9933 2.33731   2
   6   4  -4 15.9097 2.53108   1
   6   4  -4 10.5206 1.52585   4
  -4  10  -4 9.13231 1.78479   1
  -6  10  -4 7.15695 1.99742   4
  -4  10  -4 8.21725 2.26940   4
   4   6  -4 8.42871 1.71482   4
  -6  10  -4 13.3106 2.37815   2
  -4  10  -4 11.8033 2.30589   2
  10  -6  -4 11.3761 1.54917   1
   4 -10  -4 11.4858 2.31399   4
   6 -10  -4 8.66858 1.92265   4
  -4  -6  -4 12.0250 2.66309   4
 -10   6  -4 16.0384 2.44625   3
   6   4  -4 13.3593 2.09087   2
   4   6  -4 12.2704 2.12669   2
   4   6  -4 8.42707 2.19292   1
  -4  10  -3 40.8899 3.54289   3
  -6  10  -3 44.6048 2.81639   1
   6   4  -3 41.8027 3.08190   3
   4   6  -3 41.7587 3.37911   3
   4   6  -3 44.0752 2.37069   5
  10  -4  -3 43.1057 2.60784   1
  -6  10  -3 36.8207 3.53024   5
  -4  10  -3 32.7141 3.30844   5
  -4  10  -3 41.9645 3.08698   1
   6 -10  -3 30.3019 3.51409   5
  10  -6  -3 42.6789 2.66884   5
   4 -10  -3 38.1912 3.24580   3
   6 -10  -3 40.4790 2.91849   3
  -4  -6  -3 40.5316 3.80214   5
  -4  -6  -3 39.2630 3.84139   3
  -6  -4  -3 40.7955 3.58783   5
 -10   6  -3 41.7966 3.23942   4
 -10   6  -3 44.5942 3.19829   2
  -6  10  -3 32.4984 3.28602   4
  -4  10  -3 36.6858 3.48385   4
   6   4  -3 44.0281 2.79026   4
   4   6  -3 37.1712 2.92978   4
   6   4  -3 39.1640 3.42397   1
   4   6  -3 46.8691 3.69552   1
  -6  10  -3 36.7567 3.14396   2
  -4  10  -3 41.1218 3.44242   2
   6 -10  -3 39.7939 3.29094   4
   4 -10  -3 38.0349 3.41997   4
  -4  -6  -3 24.1655 3.48228   4
   4   6  -3 47.1983 3.66420   2
   6   4  -3 35.1501 3.07413   2
  -6  -4  -3 35.0703 3.52100   4
   4 -10  -3 37.8567 3.80120   5
  10  -6  -3 43.3328 2.14074   1
 -10   6  -3 37.0522 3.08415   3
  -6  10  -3 29.9776 3.26913   3
  -6  10  -2 37.1295 3.16529   3
  -4  10  -2 28.6340 3.05541   3
   4   6  -2 30.0088 2.91024   3
   6   4  -2 32.7359 2.73085   3
  -6  10  -2 34.2631 3.31667   5
   6   4  -2 35.0866 1.24597   5
  -6  10  -2 28.6851 2.02739   1
  -4  10  -2 28.0811 3.14135   5
   4   6  -2 35.4011 2.30584   5
  10  -4  -2 32.5309 1.69567   5
   4 -10  -2 32.2104 3.50770   5
   6 -10  -2 37.7015 2.75386   3
   4 -10  -2 33.7600 2.81025   2
   4 -10  -2 40.3752 3.14935   3
  10  -6  -2 32.7219 2.48312   5
   6 -10  -2 39.6526 2.47927   2
  -4  -6  -2 30.6140 3.06276   5
  -4  -6  -2 33.2574 3.42419   2
  -4  -6  -2 42.7572 3.61690   3
  -6  -4  -2 37.4022 3.10621   5
  -6  -4  -2 34.9365 3.37025   3
  10  -4  -2 31.1682 1.60731   5
  -4  10  -2 36.2872 2.62538   1
 -10   6  -2 33.7390 2.67634   4
  -6  10  -2 29.8346 2.93652   4
  -4  10  -2 37.8062 3.23063   4
   4   6  -2 41.0100 3.15055   4
   6   4  -2 33.5785 2.52544   4
  10  -4  -2 38.1806 2.24703   1
  -6  10  -2 34.3162 2.83546   2
   6 -10  -2 25.4407 2.76675   4
   4 -10  -2 31.5304 3.22762   4
  -4  10  -2 29.8562 2.78524   2
  -4  -6  -2 31.8103 3.29155   4
  -6  -4  -2 38.1076 3.35739   4
   6   4  -2 35.7337 3.05555   1
   4   6  -2 29.5076 2.90434   1
  10  -6  -2 30.4748 1.34147   1
   4   6  -2 32.0876 3.02935   2
 -10   6  -2 29.8816 2.48847   3
   6   4  -2 31.2264 2.86184   2
   6 -10  -2 35.4990 3.69529   5
  -6  10  -1 17.2782 2.02125   3
   6   4  -1 15.2824 2.04925   1
   4   6  -1 19.1001 2.37578   1
  -4  10  -1 18.0478 2.22448   3
  10  -4  -1 17.1522 1.54628   5
   4   6  -1 18.3879 2.25742   3
   6   4  -1 14.8221 1.90773   3
  -6  10  -1 13.2163 2.19082   5
  -4  10  -1 14.3229 2.32087   5
   4 -10  -1 14.7947 1.81625   2
   6   4  -1 15.2307 1.37832   5
   6 -10  -1 17.0141 1.72940   2
  10  -6  -1 16.7236 1.82549   5
   6 -10  -1 17.4184 1.92879   3
   4 -10  -1 14.9829 2.06629   3
   6 -10  -1 12.9773 2.22921   5
   4 -10  -1 16.4464 2.48577   5
  -4  -6  -1 24.6097 2.74463   2
  -6  10  -1 18.5180 1.42364   1
  -4  -6  -1 12.5192 2.11338   3
  -6  -4  -1 13.5631 2.16297   2
  -4  -6  -1 15.7175 2.11562   5
  -6  -4  -1 20.3434 2.60714   3
  -6  -4  -1 15.8152 1.86198   5
  10  -4  -1 18.9393 1.55919   5
 -10   6  -1 17.2482 1.74744   4
  10  -4  -1 17.4705 1.54186   1
  10  -4  -1 19.9653 1.51351   1
  -6  10  -1 16.0834 2.13757   4
  -4  10  -1 16.5474 2.20179   4
  10  -4  -1 9.14133 0.64684   2
   4   6  -1 13.5125 1.89658   4
   6   4  -1 13.4438 1.70085   4
  10  -6  -1 14.7018 1.00728   4
  -4  10  -1 15.8379 1.73444   1
  10  -4  -1 16.5656 0.65423   4
   6 -10  -1 17.0240 2.15111   4
   4 -10  -1 18.1986 2.40394   4
  -6  10  -1 18.0109 1.94798   2
 -10   6  -1 19.1994 2.15537   5
  -4  -6  -1 16.7259 2.43109   4
  -6  -4  -1 17.0624 2.42312   4
  -4  10  -1 15.4635 2.11811   2
  10  -6  -1 16.2570 1.15756   4
  10  -4  -1 17.5157 0.79357   2
   4   6  -1 18.2035 2.29416   2
   6   4  -1 16.8052 2.12124   2
   4   6  -1 19.4950 1.92978   5
  10  -4   0 32.5429 1.71769   3
   6   4   0 27.9072 2.69204   2
  10  -4   0 24.9799 1.56887   2
  -6  10   0 27.3713 2.50219   3
  10  -6   0 23.6405 0.85646   2
  -4  10   0 28.6334 2.65830   3
  10  -6   0 24.7002 1.38187   3
   6 -10   0 28.5066 2.22026   2
   4 -10   0 32.5627 2.57551   2
   6   4   0 31.4258 2.71383   3
  -6  10   0 24.9957 2.77971   5
  -4  10   0 31.5960 3.15715   5
   6 -10   0 24.4562 2.35781   3
  10  -6   0 27.2177 2.36008   5
   4 -10   0 32.7135 2.80971   3
  -4  -6   0 28.6369 2.86490   2
   4   6   0 24.8404 2.32848   5
   6   4   0 28.7947 2.23292   5
   6 -10   0 25.8048 2.92958   5
 -10   6   0 26.6371 2.28036   5
   4 -10   0 22.1274 2.75431   5
  10  -4   0 30.3417 1.71582   3
  -6  -4   0 36.0800 3.11028   2
   4   6   0 28.8380 2.70929   1
   6   4   0 30.4725 2.78767   1
  -4  -6   0 29.5801 2.90643   3
  -6  -4   0 27.3371 2.74916   3
  -4  -6   0 30.2249 2.62443   5
  10  -6   0 26.2106 1.52598   3
  -6  -4   0 23.0124 2.04558   5
   4   6   0 30.5749 2.83669   3
  10  -4   0 30.3622 2.25858   5
  -4  10   0 27.4002 2.10173   1
  -6  10   0 30.4393 1.63902   1
  10  -4   0 27.0895 1.64494   4
  -6  10   0 30.7954 1.71587   1
  10  -4   0 27.9962 1.81720   1
  -6  10   0 29.7903 2.78356   4
  -4  10   0 32.3613 3.07623   4
  10  -4   0 26.8195 1.57302   2
  10  -6   0 29.1326 1.87903   4
   4   6   0 28.9310 2.74607   4
  10  -4   0 27.0952 2.11027   5
  -4  -6   0 27.4604 2.67260   1
   6   4   0 24.9816 2.46930   4
   6 -10   0 23.7506 2.48797   4
   4 -10   0 25.3826 2.75779   4
  -6  -4   0 32.6740 2.96902   1
  -4  -6   0 33.0279 3.09655   4
  10  -4   0 26.2422 1.83910   4
  -6  -4   0 27.5127 2.61800   4
  -6  10   0 24.9476 2.17408   2
  -4  10   0 29.0623 2.55764   2
  10  -6   0 22.6767 0.83465   2
  10  -4   0 29.8066 1.81955   1
  -4  10   0 28.5161 2.13636   1
   4   6   0 20.4541 2.66204   2
   4 -10   1 13.8956 1.59950   1
   4   6   1 14.7921 2.12309   2
  10  -6   1 14.4584 1.57424   3
   6 -10   1 17.2139 2.07488   2
   6   4   1 13.3071 2.16996   2
   4 -10   1 15.9309 1.94445   2
  -6  10   1 16.8945 1.95764   3
  -4  10   1 13.4381 1.98471   3
 -10   6   1 16.7130 1.84390   5
  -4  -6   1 12.2951 1.90946   2
  10  -4   1 15.4624 1.47981   2
  10  -4   1 16.1532 1.80406   5
   4 -10   1 13.3889 2.03341   3
  -6  10   1 13.3260 2.25742   5
  10  -6   1 15.8786 2.02468   5
   6   4   1 19.6587 2.48092   3
  -6  -4   1 19.9078 2.27576   2
  -4  10   1 16.2187 2.38748   5
   6 -10   1 17.2805 2.44434   5
   4 -10   1 16.1229 2.37631   5
   4   6   1 16.7258 2.26956   5
  -4  10   1 13.8764 1.60368   1
   6   4   1 15.2432 2.06158   5
  -4  -6   1 17.1285 2.25965   3
  10  -6   1 18.4022 1.42926   2
  -6  -4   1 21.0966 2.42391   3
  -4  -6   1 14.4212 1.83034   5
  10  -4   1 16.7701 1.67749   3
  10  -4   1 13.2019 1.35142   1
  -6  -4   1 15.7479 1.40351   5
  10  -4   1 21.7148 2.22437   5
  10  -6   1 14.8122 1.57574   3
   4   6   1 15.5300 2.12613   1
   6   4   1 17.6643 2.18859   1
  10  -4   1 14.6997 1.63819   4
   6 -10   1 15.3146 1.33382   1
  -4  10   1 17.0002 1.69454   1
   4   6   1 15.5066 2.10943   1
  10  -6   1 19.3162 1.77612   4
   6   4   1 14.0819 1.94826   1
   4   6   1 13.4160 2.18347   3
  -6  10   1 18.4897 2.15508   4
  10  -4   1 15.8313 1.53297   2
  -4  10   1 15.2722 2.24488   4
   6 -10   1 16.0712 2.10311   4
   4   6   1 15.1108 2.14841   4
   4 -10   1 18.8953 2.48071   4
   6   4   1 15.8204 2.12482   4
  10  -4   1 16.9262 1.56278   1
  -6  10   1 16.5036 1.26349   1
  -4  -6   1 17.0968 2.28531   4
  10  -6   1 16.9932 1.35289   2
  -6  -4   1 21.3367 2.22990   4
  -4  -6   1 22.6005 2.58873   1
   6 -10   1 14.3992 1.95131   3
  10  -4   1 12.2628 1.66424   4
  -6  10   1 16.6169 1.70450   2
  -6  -4   1 9.55849 1.67235   1
  -4  10   1 14.3804 1.83902   2
  10  -6   1 17.2598 0.83386   1
  10  -4   1 18.7612 1.69488   3
  -6  10   1 16.0202 1.26572   1
   4 -10   2 40.5067 3.14817   2
  10  -6   2 27.8614 2.44349   3
   4   6   2 38.9429 3.41425   2
   6   4   2 35.2165 3.18728   2
  -6  10   2 36.7055 2.71814   3
   6 -10   2 38.7073 2.23504   1
  10  -6   2 32.3455 1.68433   1
  -4  -6   2 38.4127 3.31922   2
  -4  10   2 30.2446 2.83201   3
   4 -10   2 38.4508 2.67610   1
   6 -10   2 33.4077 3.00249   3
  -6  -4   2 34.8727 3.06695   2
  10  -4   2 26.9634 2.72500   5
   4 -10   2 38.5802 3.29622   3
  10  -6   2 31.8136 2.96458   5
  -4  10   2 34.9704 3.48928   5
   4   6   2 40.5897 3.44685   3
  -6  10   2 30.0704 3.16660   5
 -10   6   2 36.3851 2.44002   5
  -6  -4   2 32.2675 2.94762   1
   4 -10   2 34.1541 3.34248   5
  -4  -6   2 37.9114 3.36802   3
  10  -4   2 37.3101 2.61732   2
   4   6   2 36.7227 3.58404   5
  -6  -4   2 31.8777 2.81802   3
   6   4   2 42.8241 3.37111   5
  -4  -6   2 40.4260 2.66732   5
  10  -4   2 27.4690 2.61421   3
  10  -6   2 39.4526 2.57163   2
  10  -4   2 32.2579 2.89331   5
  10  -6   2 37.0638 3.19414   5
   6   4   2 32.6624 3.12013   2
  -6  10   2 36.4828 2.05537   1
   6 -10   2 26.3439 3.06782   5
   6   4   2 33.9887 3.16556   3
  10  -4   2 35.3216 2.62835   4
   4   6   2 32.2499 2.93097   1
   6   4   2 29.9583 2.85183   1
  10  -6   2 42.8348 2.90489   4
  -6  10   2 32.6048 2.87474   4
  10  -4   2 30.4619 2.34125   2
  -4  10   2 34.3933 3.09404   4
 -10   4   2 31.5562 2.08119   1
   6 -10   2 27.9993 2.85699   4
   4 -10   2 25.2021 2.77254   4
  -4  10   2 33.0814 2.48228   1
  -4  10   2 28.5420 2.35344   1
   4   6   2 37.2615 3.41335   4
   6   4   2 37.0545 3.37363   4
  10  -6   2 30.5183 2.21203   2
  -4  -6   2 30.3597 2.90125   4
  -6  -4   2 37.0280 2.91493   4
  -4  -6   2 44.5083 3.44175   1
  10  -4   2 43.1638 3.11623   4
  10  -4   2 31.4262 2.25230   1
  -6  10   2 31.2902 1.92135   1
  -6  10   2 30.4015 2.19215   2
  10  -6   2 40.1613 1.82825   1
   4   6   2 29.9157 2.87773   1
   6   4   2 31.6350 2.95150   1
  10  -4   2 30.5802 2.08975   1
  -4  10   2 39.3290 2.92218   2
  10  -4   2 31.4633 2.42034   3
   6 -10   2 34.1886 2.88408   2
  -4  10   3 43.2311 3.13158   2
  10  -6   3 46.8711 3.34699   3
  -4  -6   3 39.2433 3.48088   2
  10  -6   3 41.4106 2.34370   1
   4   6   3 43.1204 3.75425   2
  -6  -4   3 39.4042 3.31173   2
  -6  10   3 46.7086 3.13155   3
   6   4   3 31.6808 3.26612   2
  10  -6   3 32.6318 2.24208   1
   4 -10   3 41.7893 3.63759   3
  -4  10   3 41.1009 3.33287   3
  10  -4   3 31.3989 3.09950   5
  -4  10   3 38.9068 2.91476   1
  -6  10   3 42.4275 2.50092   1
 -10   6   3 40.2078 2.46914   5
   6 -10   3 42.8208 3.98251   5
  -4  -6   3 38.9943 3.34185   3
   4   6   3 38.9299 3.63509   3
   4   6   3 42.8432 3.68187   1
   4 -10   3 40.9542 3.76334   5
  -4  10   3 36.6591 3.82425   5
  -6  -4   3 39.7120 3.23514   3
   6   4   3 31.4218 3.08513   1
   4   6   3 46.5836 4.01597   5
   6   4   3 47.1016 3.86791   5
  -4  -6   3 38.1740 2.48825   5
   6 -10   3 40.7107 3.52096   3
  10  -4   3 39.3151 3.21193   2
  -6  10   3 40.0301 3.76948   5
  10  -4   3 38.9916 3.18108   3
  10  -4   3 41.9156 3.58009   5
  10  -6   3 34.8804 3.69131   5
  -4  10   3 44.1446 3.09524   2
   4   6   3 39.6550 3.49392   2
  10  -6   3 37.9408 3.58725   5
   6   4   3 40.1957 3.66556   2
  -6  10   3 40.0413 2.49591   2
  10  -4   3 40.0800 3.24464   4
   6 -10   3 41.8692 2.60719   1
  10  -6   3 30.1202 2.90854   4
   4   6   3 39.7778 3.42179   1
   6   4   3 39.3139 3.41220   1
  -6  10   3 40.1125 3.16859   4
   6 -10   3 49.9160 3.93470   4
  10  -4   3 39.3506 3.03988   2
  -4  10   3 45.3500 3.63964   4
   4 -10   3 37.5134 3.59360   4
   4 -10   3 46.2917 3.11296   1
  10  -4   3 33.9698 2.47327   1
   4   6   3 34.2100 3.69273   4
  -4  -6   3 48.9568 3.55233   4
  10  -6   3 46.1597 3.08591   2
   6   4   3 43.6935 3.92546   4
  -6  -4   3 40.9604 2.97964   4
  -4  10   3 40.6831 2.87121   1
 -10   6   3 36.7584 2.02307   1
  10  -4   3 37.6275 3.24383   4
  -4  -6   3 37.0980 3.50629   1
 -10   4   3 41.2593 2.62406   1
   6   4   3 45.4977 3.82530   3
  -6  -4   3 38.4540 3.37313   1
  10  -4   3 46.0781 2.93954   1
  -6  10   3 36.0862 2.46788   2
   6 -10   3 37.7378 3.13524   2
  -6  10   3 39.6874 2.39606   1
   6   4   3 35.6862 3.57896   3
  10  -4   3 40.7146 3.14704   3
   4 -10   3 48.1864 3.66998   2
  -6  10   4 12.3491 1.69285   2
  -6  10   4 10.1977 1.55299   1
  -4  10   4 13.6260 2.10789   2
   6 -10   4 8.72526 2.03804   2
  -6  10   4 7.40616 1.47575   1
  10  -6   4 12.3331 2.07563   3
   4 -10   4 7.44620 1.82102   2
   6 -10   4 13.8120 2.30838   3
  -6  10   4 9.61123 1.78529   3
 -10   6   4 8.65683 1.37474   5
  -4  10   4 16.5134 2.30888   3
  -4  -6   4 5.82141 1.92865   2
  10  -4   4 8.34899 2.07964   5
  10  -6   4 8.93676 1.44926   1
  10  -6   4 9.29097 2.36310   5
   4 -10   4 9.29205 2.10883   3
  -6  -4   4 8.45978 2.02650   2
   6 -10   4 7.20386 2.32283   5
   4 -10   4 13.3634 2.61345   5
  -6  10   4 10.5055 2.40760   5
  -4  10   4 9.90954 2.60281   5
   6 -10   4 12.6101 1.78850   1
  -4  -6   4 11.0024 1.52617   5
  10  -4   4 10.9508 1.79207   1
  -4  -6   4 9.23136 2.00219   3
   4   6   4 10.8977 2.44346   2
  -6  -4   4 9.19044 1.85879   3
   4   6   4 11.2292 2.46171   5
   4   6   4 8.91203 2.39793   3
   6   4   4 12.3670 2.38127   2
   6   4   4 11.0131 2.45973   5
   6   4   4 8.94361 2.36361   3
 -10   6   4 9.79319 1.50674   1
   4 -10   4 14.2131 2.13431   1
  -4  -6   4 9.96602 1.25019   5
  10  -4   4 10.1577 2.55074   5
  10  -4   4 11.9062 2.08905   2
  10  -4   4 10.6526 2.14761   3
  10  -6   4 9.35974 2.49690   5
  -4  10   4 11.0279 1.96539   2
  10  -4   4 6.24435 1.54961   1
  -6  10   4 10.9028 1.59230   2
  10  -6   4 15.0061 2.44284   4
   4   6   4 10.3037 2.35555   2
  10  -4   4 9.90051 1.97869   4
   4   6   4 12.9803 2.41425   1
   6   4   4 9.67411 2.34345   2
   4 -10   4 13.8491 2.39241   4
  10  -4   4 10.7286 2.13494   2
 -10   4   4 9.50585 1.65347   1
   6 -10   4 13.4540 2.59467   4
   6   4   4 9.05589 2.32393   1
  -6  10   4 9.39112 1.77232   4
  -4  -6   4 13.9331 2.31048   4
  -4  10   4 8.64944 1.95340   4
  10  -6   4 12.9050 2.13145   2
  -6  -4   4 12.3054 1.97355   4
   6   4   4 14.5903 2.91580   4
   4   6   4 7.77180 2.39085   4
  -4  10   4 9.27793 1.82510   1
  10  -4   4 11.3976 2.27536   4
  -4  10   4 13.4759 1.92681   1
  10  -6   4 10.4214 2.20530   4
   4   6   4 6.38562 2.12822   3
   4   6   4 11.9304 2.19825   1
   6   4   4 9.89649 2.52220   3
   6   4   4 8.25112 1.95755   1
  10  -4   4 15.6796 2.42403   3
  -4  -6   4 11.3018 2.22332   1
  -6  -4   4 10.5295 2.27829   1
  10  -6   5 26.1650 3.39217   3
  -4  -6   5 31.0432 3.52936   2
  -6  10   5 32.3284 2.64402   2
  10  -4   5 21.9519 2.88836   1
  -6  -4   5 25.1840 3.28345   2
  -4  10   5 27.3730 2.87531   2
  -6  10   5 31.1275 2.77268   1
   6 -10   5 27.0078 3.58942   3
   4 -10   5 35.4134 3.86435   3
  -4  10   5 32.4561 3.20606   1
  10  -4   5 24.2830 3.58980   5
   4   6   5 31.9614 3.76136   2
   6 -10   5 14.7194 2.58810   1
 -10   6   5 30.2582 2.30195   5
 -10   6   5 29.4483 2.66938   1
  -4  10   5 31.1869 3.15533   3
  -4  -6   5 31.4642 3.53082   3
   6 -10   5 27.2752 3.74590   5
  -6  10   5 29.0361 2.72543   3
  -6  -4   5 36.3122 3.38490   3
  10  -6   5 42.2899 4.39488   5
   4 -10   5 29.6686 3.80639   5
  -6  10   5 22.6529 3.31386   5
  10  -6   5 27.8643 2.64882   1
   4   6   5 26.4020 3.60303   3
   6   4   5 18.9679 3.31681   2
   6   4   5 24.9062 3.52547   3
   4   6   5 21.9082 3.74339   5
   4 -10   5 30.2596 3.17924   1
   6   4   5 35.6807 4.18003   5
 -10   4   5 28.2251 2.91798   1
  10  -4   5 26.9313 3.27326   2
  10  -4   5 21.1583 3.66006   5
  10  -4   5 22.7052 3.23528   3
  -4  -6   5 30.9155 2.03467   5
  10  -6   5 25.0587 3.90385   5
   6   4   5 24.1189 3.52468   4
   4   6   5 31.9403 3.86144   2
  -4  -6   5 29.8115 3.51827   1
  -6  -4   5 28.3808 3.50081   1
  -4  10   5 25.6302 2.84447   2
   6   4   5 25.9626 3.72031   2
  10  -4   5 16.6045 3.26446   4
  -4  -6   5 34.9625 2.27481   5
  10  -6   5 32.4722 3.67622   4
  -6  10   5 28.8985 2.49557   2
   6 -10   5 33.4953 3.83928   4
  -6  10   5 29.3821 2.77461   1
   4 -10   5 33.6140 3.78852   4
  -6  10   5 32.5763 3.10559   4
  10  -4   5 29.9076 3.44443   2
  -4  10   5 24.2244 3.23020   4
  -4  -6   5 50.2025 4.02425   4
  -6  -4   5 29.0273 2.78469   4
   4   6   5 26.0062 3.84435   4
  10  -6   5 30.4956 3.45256   2
   6   4   5 32.0168 4.08794   4
   4   6   5 27.4360 3.46489   1
   6   4   5 34.8377 3.94496   1
  10  -4   5 27.5752 3.50359   4
  10  -6   5 31.9933 3.71557   4
  -4  10   5 33.0346 3.27596   3
   4   6   5 33.5329 3.91800   3
  -6  10   5 23.2139 2.50233   3
   6   4   5 29.5278 3.62019   3
   6 -10   5 22.5871 3.24327   2
   4   6   5 21.5379 3.16512   1
   4 -10   5 36.0241 3.75662   2
  -4  10   5 26.6119 3.03873   1
  -4  10   5 26.5236 3.95611   5
   6   4   5 28.8664 3.63236   1
  10  -4   5 38.2094 3.82662   3
   6 -10   6 4.63297 2.32672   2
   4 -10   6 7.99589 2.34938   1
 -10   4   6 4.84966 2.19824   1
  10  -4   6 2.12235 2.23434   3
   4 -10   6 9.06004 2.63868   2
  10  -6   6 8.23884 2.69390   3
   4   6   6 13.5787 3.06712   1
   6   4   6 8.32551 2.67552   1
   6 -10   6 8.54119 2.70078   3
  10  -4   6 5.03297 2.87596   5
  -4  -6   6 5.17432 2.40365   3
  10  -6   6 1.77591 2.67755   5
  -6  10   6 4.57164 1.64783   2
  -4  10   6 3.66685 2.03502   2
   6 -10   6 1.78329 2.84103   5
  -6  10   6 5.83602 1.85610   3
   4 -10   6 9.14780 2.86750   5
  -4  10   6 5.03209 2.44458   3
  -6  -4   6 2.84857 2.00018   3
  -4  10   6 1.13881 2.79849   5
  -4  -6   6 5.28737 1.19956   5
   4   6   6 9.68431 3.48720   5
   4   6   6 4.71907 2.59480   2
 -10   4   6 2.67347 0.59414   2
   4   6   6 6.88531 3.23575   3
   6   4   6 2.24578 2.70542   5
  -4  10   6 2.47780 1.96307   1
   6   4   6 3.43835 2.78952   2
   6   4   6 2.23790 2.36602   3
  -6  -4   6 2.92780 2.18410   2
  -4  -6   6 5.51095 1.17690   5
  10  -4   6 6.90994 3.61202   5
  -4  -6   6 3.99633 2.81269   1
  10  -4   6 4.02202 2.65611   3
  -6  -4   6 8.96229 3.08190   1
  10  -4   6 2.54992 2.49969   2
   4 -10   6 7.92932 2.89048   3
   6 -10   6 3.92555 2.46666   5
   4 -10   6 3.23066 2.40163   5
  10  -4   6 5.54680 2.34360   1
   4   6   6 0.68993 2.47944   4
   6   4   6 2.44067 2.45946   4
 -10   6   6 3.56122 1.41565   5
  -6  10   6 5.26334 2.00651   1
  10  -4   6 1.32137 2.54220   4
  10  -6   6 4.24860 2.27549   4
   4   6   6 3.15462 2.59923   1
   4   6   6 2.66650 2.61295   2
   6   4   6 1.64065 2.55027   2
  -4  -6   6 4.66566 2.54277   2
   6 -10   6 2.73450 2.73748   4
  -4  10   6 2.36737 1.84885   2
   4 -10   6 3.50937 2.59738   4
  -4  10   6 6.97805 2.39244   1
  10  -6   6 3.50462 1.84631   1
  -6  10   6 5.14503 2.20890   4
  -4  10   6 5.89253 2.46584   4
  10  -6   6-0.64710 3.00801   5
  -6  10   6 6.41895 1.89309   2
  -4  -6   6 3.09947 2.03247   4
  -6  -4   6 2.65631 1.69102   4
   4   6   6 2.85184 2.84276   4
   6   4   6 1.42208 2.28687   4
  10  -4   6 5.39958 2.70356   2
 -10   6   6 4.56941 1.85692   1
   6   4   6 7.17381 3.03002   1
   6 -10   6 4.29948 1.91015   1
  10  -6   6 4.88186 2.54791   2
  10  -4   6 2.53398 2.68359   4
  10  -6   6 2.41128 2.36008   4
  -6  10   6 5.17518 2.62974   5
  -4  10   6 4.01516 1.92562   3
   4   6   6 3.60295 3.04350   3
   6   4   6 4.32682 2.65138   3
  -6  10   6 6.40242 1.89007   3
  -7  10  -6 7.74610 2.61978   3
   7   3  -6 10.1494 2.07301   3
  -3  10  -6 4.80179 2.49264   3
   3   7  -6 18.2024 3.43913   3
  -7  10  -6 6.14106 2.43872   1
  10  -3  -6 8.60365 2.37067   1
  -3  10  -6 8.37208 2.69933   1
   7 -10  -6 8.53401 3.09152   5
   3 -10  -6 5.89330 3.44464   5
  -3  -7  -6 6.77057 3.43352   5
  -7  -3  -6 6.23299 3.32973   5
   7   3  -6 10.1906 1.57305   4
  10  -3  -6 9.10134 1.31466   2
  -7  10  -6 2.57279 2.68233   4
  -3  10  -6 7.26844 2.86874   4
   3   7  -6 10.4863 2.58600   4
 -10   7  -6 12.3213 2.90969   2
   7   3  -6 7.75664 2.78257   1
   7 -10  -6 7.79402 2.15110   1
   3   7  -6 9.90392 2.78835   1
  -7  10  -6 7.09023 2.67326   2
 -10   7  -6 4.66525 2.05199   1
  -3  10  -6 7.34791 3.02049   2
  10  -7  -6 5.29786 1.84681   5
   7   3  -6 13.4985 2.67649   2
   3   7  -6 6.47907 2.50270   2
   3 -10  -6 7.55680 2.77439   4
  10  -7  -6 8.23413 2.08168   1
 -10   7  -6 7.80630 2.84799   3
  -7  10  -5 1.82251 2.12079   3
   7   3  -5 4.08239 1.55959   3
  -3  10  -5 1.59545 1.94125   3
   3   7  -5 4.78500 1.99212   3
  -7  10  -5 7.30057 1.96136   1
  -7  10  -5 4.51867 2.19072   5
  -3  10  -5 0.59231 1.84872   5
  10  -3  -5 2.90138 1.52926   1
   7 -10  -5 0.08084 2.08627   5
   3 -10  -5 0.72977 2.04472   5
  10  -7  -5 2.98599 1.43009   5
  -3  -7  -5 5.79252 2.68241   5
  -7  -3  -5 6.47893 2.56080   5
   7   3  -5 7.73284 1.38415   4
 -10   7  -5 1.09780 1.54873   4
  -3  10  -5 2.04925 1.64632   1
  -7  10  -5 2.10055 1.95561   4
  -3  10  -5 1.72928 1.67957   4
 -10   7  -5 3.90335 2.03171   2
   3   7  -5 2.26761 1.53293   4
  10  -3  -5 4.03810 0.85706   2
 -10   7  -5 1.32434 1.30336   1
  -7  10  -5 2.60028 1.80779   2
   7   3  -5 2.21667 1.91843   1
   3   7  -5 2.89683 1.96697   1
  -3  10  -5 2.23903 1.69760   2
   7   3  -5 2.97987 1.67939   2
   3   7  -5 1.09031 1.53271   2
   3 -10  -5 5.30254 2.28173   4
   7 -10  -5 1.79784 1.43438   4
  -3  -7  -5 3.00403 2.38096   4
  10  -7  -5 5.58717 1.42702   1
 -10   7  -5 2.99505 1.82446   3
  -3  10  -4 52.5493 4.30937   3
  -3  10  -4 49.8104 3.69549   1
   7   3  -4 43.9791 3.08590   3
   3   7  -4 40.6794 3.70697   3
   3   7  -4 42.3798 2.76195   5
  10  -3  -4 45.4937 3.17943   1
  -3  10  -4 42.4538 3.84508   5
   7 -10  -4 44.3070 4.43859   5
  10  -7  -4 43.5907 3.26317   5
   3 -10  -4 36.4413 4.36426   5
  -3  -7  -4 43.5221 4.31788   5
   3 -10  -4 34.5159 3.41840   3
  -7  -3  -4 39.3423 3.92510   5
  -7  10  -4 34.5253 3.91950   5
   7   3  -4 50.2889 4.00178   1
  -3  -7  -4 44.8434 4.31903   3
 -10   7  -4 51.2606 4.03553   4
   3   7  -4 44.5952 3.95901   1
 -10   7  -4 43.4785 2.76159   1
 -10   7  -4 26.5021 3.13197   2
  -7  10  -4 34.2864 3.57692   4
   7   3  -4 43.9961 2.55977   4
  -3  10  -4 48.9009 4.09628   4
  10  -3  -4 45.8300 1.71344   2
   3   7  -4 43.4921 3.49355   4
  -7  10  -4 39.9806 3.68932   2
  10  -7  -4 47.9545 2.60390   1
  -3  10  -4 45.8277 4.00095   2
   7   3  -4 55.5975 3.84876   2
   3   7  -4 42.6828 3.86076   2
   3 -10  -4 49.5460 4.26573   4
   7 -10  -4 40.5775 3.23884   4
  -3  -7  -4 46.9189 4.47246   4
  -7  10  -4 43.3227 3.11608   1
 -10   7  -4 45.4587 3.77842   3
  -7  10  -4 47.7778 3.94191   3
  -7  10  -3 3.27564 1.36078   3
   7   3  -3 0.45413 1.17856   1
  -3  10  -3-1.42789 1.56127   3
   3   7  -3 1.24146 1.23486   1
   7   3  -3 0.64052 0.95862   3
   3   7  -3 3.56698 1.49159   3
  -7  10  -3 2.97418 1.80533   5
  -7  10  -3 0.42679 0.71976   1
  -3  10  -3 0.17998 1.14525   5
   3   7  -3 0.03352 0.77630   5
   7 -10  -3 0.69550 1.68852   5
  10  -7  -3 0.88670 0.99721   5
   3 -10  -3 1.42547 1.52697   5
  -3  -7  -3-0.74273 1.62571   5
   3 -10  -3 1.24897 1.17444   3
   7 -10  -3 0.89499 0.93891   3
  -3  -7  -3 2.07838 1.65377   3
  -7  -3  -3-0.08954 1.18464   5
 -10   7  -3 0.40244 1.05575   4
  10  -3  -3 0.95790 0.35602   2
 -10   7  -3 0.68296 1.25077   2
  -7  10  -3 0.55647 1.06706   4
  -3  10  -3 0.02960 1.09797   4
   7   3  -3 0.65563 0.68643   4
   3   7  -3 0.10008 1.18808   4
  10  -3  -3 2.09915 1.01531   1
  10  -3  -3 0.57392 0.33997   2
  -7  10  -3 0.96881 1.21178   2
  -3  10  -3-0.60136 1.17764   1
   7 -10  -3-0.21104 1.05968   4
   3 -10  -3 1.79855 1.58871   4
  -3  -7  -3 1.36994 1.68859   4
  10  -7  -3 0.28713 0.38568   1
  -3  10  -3 0.23099 1.37134   2
   3   7  -3 3.85564 1.58402   2
 -10   7  -3 1.60287 1.16612   3
   7   3  -3 0.33556 0.98999   2
  -7  10  -2 149.462 6.07217   3
  -3  10  -2 131.142 6.02173   3
   3   7  -2 136.627 5.93608   3
   7   3  -2 119.469 4.85324   3
 -10   7  -2 137.645 5.97364   5
  -3  10  -2 142.377 6.31461   5
   3   7  -2 130.627 4.82854   5
  10  -7  -2 135.261 5.30404   5
   7 -10  -2 129.566 6.40533   5
   3 -10  -2 131.371 5.53284   2
   3 -10  -2 152.274 7.21623   5
   7 -10  -2 134.925 4.79840   3
   3 -10  -2 150.527 6.23904   3
  -3  -7  -2 116.655 5.97765   5
  -3  -7  -2 141.755 6.50507   2
  -3  -7  -2 121.289 6.18034   3
  -7  10  -2 116.103 5.86910   5
  -7  -3  -2 150.816 6.05555   5
  10  -3  -2 134.411 4.54324   1
 -10   7  -2 139.326 5.41088   4
 -10   7  -2 144.567 4.80359   2
  10  -3  -2 138.792 2.98973   2
  -7  10  -2 145.241 6.09291   4
  -3  10  -2 127.124 5.15239   1
  -3  10  -2 133.666 6.12034   4
   3   7  -2 93.7394 5.19858   4
   7   3  -2 144.688 4.72582   4
  -7  10  -2 140.250 5.45689   2
   7 -10  -2 110.259 5.11138   4
  10  -3  -2 138.282 2.84898   2
   3 -10  -2 132.116 6.33698   4
  -3  -7  -2 130.988 6.67807   4
  -3  10  -2 127.202 5.73297   2
   7   3  -2 122.330 5.51687   1
   3   7  -2 131.265 5.85337   1
  -7  -3  -2 136.045 6.14351   4
   3   7  -2 116.467 5.70413   2
   7   3  -2 124.395 5.24809   2
 -10   7  -2 135.871 5.12396   3
  -7  10  -2 149.032 3.88530   1
  -7  10  -1 26.0485 2.45140   3
  -7  10  -1 25.5535 1.28320   1
   7   3  -1 19.4036 2.28189   1
   3   7  -1 21.8145 2.53313   1
  -3  10  -1 22.2785 2.72289   3
   3   7  -1 28.2045 2.80268   3
  10  -3  -1 23.1813 1.18908   3
 -10   7  -1 24.4466 2.57160   5
   7   3  -1 30.9657 2.54962   3
  -7  10  -1 23.6498 2.90084   5
  -3  10  -1 19.0641 2.51923   5
   3   7  -1 26.2531 2.34642   5
   7   3  -1 27.0498 1.43937   5
   3 -10  -1 30.2154 2.70403   2
   7 -10  -1 27.5028 1.89510   2
  10  -3  -1 27.3161 1.60188   5
  10  -7  -1 26.3170 2.42004   5
   7 -10  -1 21.1374 2.04295   3
   7 -10  -1 22.5231 2.80929   5
   3 -10  -1 24.7566 2.58484   3
  -3  -7  -1 22.0151 2.58833   2
   3 -10  -1 23.9526 3.04007   5
  -3  -7  -1 28.2366 3.00626   3
  -3  -7  -1 21.1752 2.59563   5
  10  -3  -1 28.3665 1.60675   5
  -7  -3  -1 26.6604 2.75802   2
  -7  -3  -1 24.7041 2.63721   3
  -7  -3  -1 23.7494 2.20900   5
 -10   7  -1 27.4297 2.22472   4
  -7  10  -1 21.4755 1.14019   1
  10  -3  -1 26.3236 1.55956   2
  -7  10  -1 26.0488 2.58340   4
  -3  10  -1 31.2502 3.00265   4
   3   7  -1 26.4928 2.66565   4
   7   3  -1 24.3921 2.11785   4
  10  -3  -1 21.6274 0.85953   4
  10  -7  -1 24.3833 1.55932   4
  10  -3  -1 25.5904 1.90690   1
   7 -10  -1 23.3733 2.40082   4
  -7  10  -1 25.9723 2.22018   2
   3 -10  -1 26.4417 2.92923   4
  -3  10  -1 28.1382 2.35779   1
  -3  -7  -1 24.4801 2.85316   4
  -7  -3  -1 23.2170 2.44317   4
  -3  10  -1 32.0450 2.81480   2
 -10   7  -1 23.5851 1.98950   3
  10  -3  -1 24.0695 1.46088   2
   3   7  -1 30.3812 2.95179   2
   7   3  -1 27.6905 2.52789   2
  10  -3  -1 26.4139 1.18269   3
  10  -3   0 35.4620 2.22348   1
   7   3   0 29.5374 2.66429   2
  -3  -7   0 37.2970 3.27391   2
  -3  10   0 32.7570 2.48436   1
  -7  10   0 43.5536 2.94194   3
  10  -3   0 26.1686 1.84012   2
  -3  10   0 24.1155 2.65248   3
   7 -10   0 32.2333 2.16498   2
  10  -7   0 28.9853 1.59905   3
 -10   7   0 30.1613 2.67436   5
   3   7   0 32.0347 3.04198   3
   7   3   0 26.2306 2.51935   1
   7   3   0 34.9806 2.74034   3
  -7  10   0 28.8034 2.99635   5
  10  -3   0 28.5262 2.03889   5
  -3  10   0 32.4293 3.25700   5
   7 -10   0 31.3295 2.51301   3
  10  -7   0 32.0053 2.78869   5
  10  -3   0 31.7596 1.93073   3
   3 -10   0 32.6036 2.95429   3
   3   7   0 31.7840 2.84207   1
   7   3   0 35.8434 2.33230   5
   3 -10   0 33.9178 3.44491   5
  -3  -7   0 30.6228 2.97275   3
  -7  -3   0 32.4020 2.95187   2
  -3  -7   0 34.0672 3.04710   5
  -7  -3   0 32.9384 2.90140   3
  10  -3   0 31.4391 2.24488   5
  -7  -3   0 29.8020 2.13613   5
  -3  10   0 34.7973 2.52423   1
 -10   7   0 32.4214 2.13590   4
  10  -3   0 34.1973 2.32918   1
  10  -3   0 37.5108 1.97887   4
  10  -3   0 30.4747 2.02373   2
   7 -10   0 37.3174 3.41478   5
  -7  10   0 26.1156 2.50596   4
  -7  10   0 33.2518 1.06409   1
  -3  10   0 32.9134 3.13580   4
  10  -7   0 30.5537 2.09021   4
   3   7   0 31.3158 2.91858   4
   7   3   0 34.3839 2.66573   4
  -3  -7   0 28.4626 2.88210   1
   7 -10   0 27.4472 2.60611   4
   3 -10   0 29.5254 2.65001   2
   3 -10   0 30.2346 3.02486   4
  -7  10   0 29.1916 2.15834   2
  -7  10   0 30.0862 1.02774   1
  10  -3   0 28.2954 1.99456   4
  -3  -7   0 32.8983 3.18108   4
   3   7   0 24.9354 2.61717   5
  -7  -3   0 35.6357 2.82063   4
  -3  10   0 24.4949 2.53996   2
  10  -3   0 32.7473 1.91529   3
   3   7   0 22.6367 2.60343   2
   3   7   1 25.1464 2.70130   2
   7 -10   1 26.0364 2.15037   2
  -7  10   1 21.8941 2.13716   3
   7   3   1 28.8167 2.78695   2
  10  -7   1 25.5036 1.91458   3
   3 -10   1 24.9887 2.59675   2
  -3  10   1 25.3163 2.69208   3
  10  -3   1 27.0314 2.02772   2
 -10   7   1 20.6483 2.13700   5
  -3  -7   1 22.3184 2.46572   2
   7 -10   1 25.0584 2.37707   3
  10  -3   1 23.7059 2.08894   5
   3   7   1 26.9662 2.84399   3
  -7  -3   1 22.2320 2.44615   2
  -7  10   1 17.0469 2.60257   5
  10  -7   1 26.2431 2.63980   5
   7   3   1 27.5367 2.60385   3
  -3  10   1 22.4581 2.80352   5
   3 -10   1 22.6582 2.59035   3
   7 -10   1 27.9227 3.12208   5
   3   7   1 24.3482 2.69090   5
   3 -10   1 24.7566 2.90221   5
  -3  -7   1 28.6158 2.87525   3
   7   3   1 24.9602 2.45917   5
  10  -3   1 26.1951 2.17151   3
  -3  -7   1 23.7630 2.48602   5
  -3  10   1 19.6305 2.07076   1
  -7  -3   1 25.1204 2.60804   3
  10  -7   1 26.3484 1.66996   2
  10  -3   1 24.6049 2.23361   5
  10  -3   1 29.6906 2.15262   1
 -10   7   1 24.5320 1.57482   4
   3   7   1 23.1370 2.56208   1
   7   3   1 25.8887 2.62410   1
  10  -3   1 29.5748 2.19634   4
  -3  10   1 26.0934 2.31985   1
   3   7   1 27.4597 2.70017   1
   7   3   1 27.4753 2.67547   1
  10  -3   1 23.0440 2.03671   2
  -7  10   1 23.9797 2.35993   4
  -7  10   1 24.2733 1.05093   1
  10  -7   1 30.1194 2.34222   4
  10  -3   1 23.1909 2.02144   1
  -3  10   1 22.1882 2.66447   4
   7 -10   1 26.7565 2.72592   4
   3   7   1 25.3031 2.81402   4
   3 -10   1 19.6835 2.53768   4
   7   3   1 32.3019 2.84242   4
  -3  -7   1 18.8646 2.52468   4
  10  -3   1 19.7959 2.00890   4
  -7  10   1 20.5356 1.81853   2
  -7  -3   1 28.4248 2.45568   4
  -3  -7   1 25.7741 2.62486   1
  10  -7   1 24.3072 1.55512   2
  -3  10   1 25.4269 2.45484   2
  -7  -3   1 25.4621 2.63689   1
  10  -3   1 29.7928 2.12693   3
   3 -10   1 26.2615 2.29293   1
  -7  10   2 134.140 3.09555   1
   3 -10   2 129.830 5.95001   2
  10  -7   2 121.729 4.89264   3
   3   7   2 128.266 6.34761   2
  -7  10   2 121.362 4.54996   3
   7   3   2 148.664 6.24440   2
  -3  -7   2 127.783 5.79317   2
   7 -10   2 135.958 5.72778   3
 -10   7   2 130.680 4.91796   5
  -7  -3   2 151.906 6.01550   2
   3 -10   2 127.119 5.91020   3
  10  -7   2 128.472 6.07182   5
   3   7   2 132.205 6.27951   3
   7 -10   2 142.579 3.62618   1
  -7  10   2 148.485 6.68743   5
  10  -3   2 116.217 4.77925   2
  -3  -7   2 148.385 6.18198   1
   7 -10   2 144.035 6.82227   5
  -3  -7   2 135.449 6.06971   3
   7   3   2 116.243 5.71313   3
   3 -10   2 112.804 5.92644   5
   3   7   2 122.533 6.13829   5
  -7  10   2 133.626 3.12905   1
   7   3   2 135.762 5.88560   5
  -7  -3   2 126.362 5.31552   3
  -3  -7   2 159.782 5.78595   5
  10  -3   2 127.125 5.24056   3
  -7  -3   2 142.614 6.02303   1
  10  -3   2 128.816 5.56190   5
   7   3   2 149.480 6.46909   2
  10  -3   2 141.970 5.25141   4
  10  -7   2 130.849 2.50912   1
   3   7   2 133.140 5.87536   1
   7   3   2 131.655 5.77239   1
  10  -7   2 142.655 5.39843   4
  10  -3   2 136.632 5.11267   2
  -7  10   2 141.612 5.54694   4
 -10   3   2 143.827 4.79631   1
  -3  10   2 142.286 5.25409   1
   7 -10   2 140.351 6.07880   4
  -3  10   2 130.627 5.99256   4
  10  -3   2 141.336 5.56999   5
   3 -10   2 130.219 6.07138   4
   3   7   2 129.657 6.27893   4
   3 -10   2 149.019 5.32134   1
  -3  10   2 119.523 4.93475   1
  10  -7   2 134.537 2.50977   1
  -3  -7   2 89.9977 5.57750   4
   7   3   2 94.9665 5.84615   4
  10  -3   2 140.980 5.09789   1
  -3  10   2 130.084 5.77753   3
  -3  10   2 113.613 6.23692   5
  -7  -3   2 143.827 5.03318   4
  10  -7   2 149.554 4.68857   2
  10  -3   2 148.653 5.80269   4
  -7  10   2 145.942 4.11847   2
   3   7   2 137.366 6.09895   1
  10  -3   2 138.508 4.69548   1
   7   3   2 137.133 5.84846   1
  10  -3   2 144.348 5.24333   3
   7 -10   2 129.468 5.10276   2
  -3  10   2 119.037 5.39889   2
  10  -3   3 0.80133 1.00714   3
  -7  10   3 1.00925 0.72449   2
   3   7   3-0.12044 1.34179   1
   7 -10   3 0.47906 1.05971   2
  10  -3   3 0.46026 1.02129   1
  10  -7   3-0.07146 1.08258   3
   7   3   3-0.25675 1.06206   1
   3 -10   3 1.03302 1.26229   2
  -3  10   3 1.39952 1.11207   2
  10  -7   3 0.58161 0.60304   1
   3   7   3 0.50375 1.37055   2
  -7  10   3 0.90685 0.96042   3
  10  -3   3 1.06534 1.38316   5
   7 -10   3-0.16754 1.29362   3
 -10   7   3 0.69981 0.91828   5
  -3  -7   3 0.62476 1.41220   2
  10  -7   3-0.03200 1.38828   5
  -3  10   3 0.72868 1.20059   3
   3 -10   3 0.51751 1.32064   3
  -7  10   3 0.86045 1.23019   5
   7 -10   3 4.31953 1.93176   5
  -3  10   3 0.58985 1.51942   5
   3 -10   3 1.43582 1.53736   5
  -7  -3   3-0.12551 1.15160   2
   3 -10   3 0.24783 1.01892   1
   3   7   3 3.58100 1.96034   3
  -3  -7   3 0.08735 1.11842   3
   7   3   3 1.33349 1.27633   2
   3   7   3 2.26215 1.78404   5
  -3  -7   3 0.39243 1.02019   5
   7   3   3 1.58442 1.96479   3
  -7  -3   3 0.61114 1.03643   3
  10  -3   3 1.18593 1.11037   2
  10  -3   3 1.02473 0.92864   1
  10  -3   3 1.58877 1.34950   3
  10  -3   3 1.69413 1.38988   5
   7   3   3 0.98660 1.19143   5
  10  -7   3-0.26476 1.35132   5
  -7  10   3-0.05675 0.60055   1
   3   7   3 1.47002 1.23538   2
  10  -3   3 0.12361 1.00148   4
   7   3   3 1.25589 1.36081   2
  -7  10   3 0.13946 0.61112   2
  -3  -7   3 2.73919 1.38879   1
  10  -7   3-0.54615 1.15835   4
   7 -10   3 0.54237 0.68515   1
  -7  10   3 2.27323 1.31411   4
   7 -10   3 1.51518 1.47426   4
  -3  10   3 0.20651 1.06468   4
   3 -10   3 0.99213 1.15865   4
  10  -3   3 0.79720 1.13570   2
 -10   7   3 0.99469 0.43636   1
   3   7   3 2.91868 1.86012   4
  -3  -7   3-0.36999 1.21794   4
   7   3   3-0.53477 1.62795   4
  -7  -3   3 1.36389 1.16427   1
  10  -7   3 0.28227 0.62992   1
 -10   3   3 1.87104 1.04039   1
  -7  -3   3 1.99871 1.08041   4
   3   7   3 0.99198 1.32399   1
  10  -3   3 0.63878 1.09840   4
   7   3   3 0.19981 1.24146   1
  10  -7   3 0.29643 0.92596   2
  -7  10   3 0.37181 0.59670   1
   7   3   3 0.25227 1.16732   3
  -3  10   3-0.52440 1.07665   1
  -3  10   3 1.51847 1.13258   1
  10  -7   4 49.5951 3.84083   3
  -3  -7   4 29.6909 3.69768   2
  -3  10   4 43.7398 3.75316   2
  -7  -3   4 40.7616 3.51142   2
  10  -3   4 51.8916 3.60209   1
   7 -10   4 40.9730 3.87219   3
  -7  10   4 47.1868 2.97934   3
   3   7   4 36.7167 3.79901   2
  10  -3   4 50.5169 4.25708   5
   3 -10   4 34.9373 3.75043   3
  -7  10   4 44.9186 2.69235   1
   7   3   4 38.5369 3.94031   2
  10  -7   4 51.5784 4.50437   5
 -10   7   4 35.5345 3.12378   5
  -3  10   4 42.6520 3.67221   3
  -3  -7   4 49.1464 4.06196   3
   7 -10   4 40.1079 4.09838   5
   7 -10   4 38.2989 2.77973   1
  -7  10   4 43.7767 4.12299   5
   3   7   4 47.9501 4.27997   3
   3 -10   4 46.2458 4.16844   5
  -3  10   4 46.1505 4.48788   5
  -7  -3   4 46.5025 3.43288   3
  -3  -7   4 37.0555 2.93358   5
   3   7   4 40.3219 4.24025   5
   7   3   4 34.7566 3.79136   3
 -10   7   4 40.4613 2.52574   1
 -10   3   4 28.2246 1.34658   2
  10  -3   4 45.1109 3.86079   2
   7   3   4 21.9592 3.52772   5
  10  -3   4 42.5557 3.75265   3
  10  -3   4 45.2454 4.11731   5
  10  -7   4 37.0318 2.63309   1
  10  -7   4 44.5004 4.46982   5
   7   3   4 46.0817 4.25003   4
   3   7   4 28.6828 3.47282   2
  -3  10   4 38.9047 3.28995   2
   3   7   4 42.9605 3.89740   1
   7   3   4 37.7641 3.81173   2
  10  -3   4 39.6733 3.63885   4
   3 -10   4 45.0888 3.48389   1
  -3  10   4 40.2171 3.32484   1
  -7  10   4 29.4865 2.07919   2
  10  -7   4 45.6853 3.85255   4
 -10   3   4 35.9271 2.99155   1
   7 -10   4 41.9577 3.95886   4
   7   3   4 44.8733 3.94424   1
  10  -3   4 48.7651 3.93198   2
  -7  10   4 42.7113 3.45566   4
   3 -10   4 42.8345 4.08622   4
  -3  10   4 40.4269 3.96764   4
  -3  -7   4 55.3410 4.31355   1
  -3  -7   4 45.1004 3.77727   4
  -7  -3   4 35.1776 3.52388   1
   3   7   4 42.5298 3.82412   1
   3   7   4 46.8814 4.30052   4
   7   3   4 44.4346 3.89187   1
   7   3   4 48.0159 4.49580   4
  -7  -3   4 50.4290 2.97722   4
  10  -7   4 49.9521 3.67804   2
  10  -3   4 53.8515 4.27065   4
  -3  10   4 47.1706 3.59620   1
  -7  10   4 38.2603 2.69389   3
   7   3   4 42.2877 4.04742   3
   7 -10   4 40.0833 3.61160   2
  10  -3   4 41.6578 3.48071   1
  -7  10   4 47.1252 2.82909   1
  -7  10   4 46.0403 2.53062   2
  10  -3   4 52.0049 3.98974   3
   3 -10   4 38.8734 3.72132   2
   3   7   5 3.77613 2.17300   1
   7 -10   5 1.89239 1.74722   2
  10  -3   5 2.71027 1.59494   1
  10  -3   5 3.38058 1.95265   3
   7   3   5 1.50550 1.94431   1
   3 -10   5 2.18645 2.14303   2
  10  -7   5 3.64019 2.07816   3
   7   3   5 5.03887 2.26339   1
  -7  10   5 5.53834 1.29876   2
  -3  -7   5 3.95602 1.89983   2
  -3  10   5 5.08511 2.01914   1
   7 -10   5 0.79889 1.79802   3
  -7  10   5 5.50398 1.41623   3
  10  -7   5 0.59110 2.25095   5
  -7  -3   5 2.58150 1.76781   2
   3 -10   5 7.00434 2.56185   3
 -10   7   5 4.99240 1.65499   5
  -3  10   5 2.86611 1.82422   1
   7 -10   5 5.90400 2.67312   5
   3 -10   5 9.71350 2.72534   5
  -3  -7   5 4.90012 2.32520   3
  -3  10   5 5.09929 1.89479   3
  -3  10   5 4.37095 2.29919   5
  10  -3   5 5.77620 2.05344   1
  10  -3   5 1.90426 2.15803   5
   3   7   5 7.12638 2.21320   2
  -3  -7   5 3.13287 1.35399   5
  -7  -3   5 4.04932 1.66373   3
   3 -10   5 1.72729 1.75823   1
   3   7   5 1.07385 2.15273   5
   3   7   5 0.39009 1.83023   3
   7   3   5 3.17318 2.27541   5
   7   3   5 2.96321 1.85316   2
   7   3   5 1.89717 1.83164   3
  10  -3   5 4.81687 2.29397   5
  10  -3   5 2.10989 1.97372   2
  10  -3   5 0.71696 1.98982   3
 -10   3   5 4.19556 1.78891   1
  10  -7   5 4.33247 2.63375   5
  -3  -7   5 2.37092 1.37511   5
   7   3   5 6.28786 2.24687   4
  -7  10   5-0.27581 1.90049   5
  -3  10   5 1.52763 1.62958   2
  10  -3   5-1.00013 1.76788   4
   3   7   5 5.16680 2.18429   2
  10  -7   5 4.91510 2.04075   4
  -3  10   5 3.91020 1.76500   2
  -7  10   5 0.89778 1.14583   1
   7   3   5 1.04861 2.13546   2
   7 -10   5 3.69264 2.02508   4
  -3  -7   5 2.08476 1.64921   1
  -7  10   5 2.11558 1.34403   4
   3 -10   5 5.85916 2.15050   4
  -3  10   5 6.62276 2.12777   4
  -7  10   5 4.61121 1.17645   2
  -3  -7   5 3.83807 1.84057   4
  -7  -3   5 2.59947 2.03477   1
  10  -3   5 2.23238 1.72606   2
   3   7   5 2.42218 2.01456   4
  -7  10   5 1.87706 1.27729   1
  -7  -3   5 2.56689 1.25164   4
   7   3   5 4.09122 2.23033   4
  10  -7   5 0.93435 1.21933   1
 -10   7   5 3.92800 1.40984   1
   7 -10   5 3.90639 1.58136   1
  10  -3   5 2.06964 2.19616   4
  10  -7   5 9.28085 2.14012   2
  -3  10   5 3.03911 1.90613   3
   3   7   5 3.86058 2.28016   3
   3   7   5 5.04458 2.04392   1
  -7  10   5 3.16515 1.18489   3
   7   3   5 2.08033 2.15118   3
   7 -10   6 7.21117 2.87772   2
  10  -3   6 14.4917 3.39123   3
   3 -10   6 7.41020 2.93745   2
  10  -7   6 9.30803 2.75600   3
   7   3   6 8.96859 2.79952   1
 -10   3   6 7.70241 1.36618   2
   3 -10   6 8.69234 2.49594   1
  -3  -7   6 10.7224 3.24124   2
   7 -10   6 6.07238 2.86643   3
  -7  10   6 9.10817 1.64171   2
  10  -3   6 4.63353 3.01738   5
  -7  -3   6 5.60907 2.66811   2
 -10   7   6 10.0956 2.15255   5
 -10   3   6 5.16828 2.29311   1
   7 -10   6 7.60135 3.15280   5
  -3  10   6 6.06771 2.26540   2
  -3  -7   6 14.7398 3.05858   3
   3 -10   6 6.00192 2.74543   5
  -7  10   6 4.20916 2.70378   5
  -3  10   6 10.3687 2.54984   1
  -3  10   6 2.16065 3.13640   5
  -7  -3   6 10.0856 2.36537   3
  -3  -7   6 11.3357 2.00077   5
   3   7   6 2.39452 2.58347   2
   3   7   6 7.32466 3.24895   5
   3   7   6 3.71529 2.56263   3
   7   3   6 2.49383 3.16097   5
   7   3   6 5.76662 2.64885   2
   7   3   6 10.0909 3.33531   3
  10  -3   6 7.29968 2.49911   1
   3   7   6 7.52094 2.79056   1
  -3  10   6 7.75328 2.56216   3
  10  -3   6 6.05854 3.31713   5
  10  -3   6 13.6546 3.30672   2
  -3  -7   6 5.11401 1.58417   5
  10  -3   6 0.83015 2.48355   3
  10  -7   6 9.53045 3.78570   5
  -7  10   6 12.4107 2.06957   3
  -3  -7   6 10.5351 2.82251   1
   7 -10   6 2.98144 2.81519   5
   3 -10   6 5.06113 2.63521   5
  -7  10   6 3.67924 1.88754   4
   3   7   6 2.54851 2.65359   4
  -7  -3   6 9.73970 3.09526   1
   7   3   6 11.9014 3.06064   4
  10  -3   6 6.31737 2.85442   4
  10  -7   6 10.1022 2.81650   4
   3 -10   6 10.5386 2.99905   3
   3   7   6 9.72612 3.16155   2
  -3  10   6 8.43316 2.44355   2
   7 -10   6 9.62527 2.85121   4
 -10   7   6 8.59347 2.02284   1
   7   3   6 5.15639 2.77870   2
   3 -10   6 6.89456 2.83570   4
  -7  10   6 6.16095 1.96236   4
  -7  10   6 12.5315 2.28478   1
   7   3   6 10.1737 2.78292   1
  -3  -7   6 9.14109 2.61868   4
  -3  10   6 8.75606 2.61873   4
  10  -7   6 9.43115 3.30594   5
   3   7   6 1.39695 2.80738   4
  10  -3   6 4.93118 2.74986   2
  -7  10   6 11.3088 1.75882   2
   7   3   6 2.87451 3.04264   4
   3   7   6 20.8211 3.68178   1
  10  -3   6 12.0766 3.52818   4
  10  -7   6 10.8661 2.25762   1
  10  -7   6 7.76550 3.04346   4
  10  -7   6 9.28982 2.93072   2
  -7  10   6 10.3995 1.98430   3
  -3  10   6 8.27483 2.53006   3
   3   7   6 4.97615 2.91496   3
  -3  10   6 5.84490 2.42444   1
   7   3   6 12.5972 3.40022   3
  -8  10  -5 2.52505 1.86988   3
  -8  10  -5 5.53500 1.83989   1
   8   2  -5 5.05094 1.42371   3
  -2  10  -5 9.09732 2.75044   3
   2   8  -5 3.87006 2.20604   3
  -8  10  -5 3.02229 2.01193   5
  -2  10  -5 4.15665 2.14039   5
   8 -10  -5 3.98345 2.23153   5
  10  -8  -5 2.61293 1.71614   5
   2 -10  -5 2.36220 2.67316   5
  -2  -8  -5 1.31878 2.28964   5
   8   2  -5 7.41380 0.76424   4
  10  -2  -5 5.21432 1.97022   1
 -10   8  -5 2.50064 2.13637   4
  -8  10  -5 2.14427 2.03281   4
  -2  10  -5 8.65133 2.45262   4
  -2  10  -5 5.07591 2.11567   1
   2   8  -5 1.52844 1.89367   4
 -10   8  -5 4.34127 2.02438   2
  10  -2  -5 5.55738 1.20006   2
   8   2  -5 3.03739 1.84727   1
  -8  10  -5 4.19354 2.22085   2
 -10   8  -5 4.52553 1.54103   1
   2   8  -5 2.94520 1.89503   1
  10  -8  -5 5.84748 1.35265   1
  -2  10  -5 3.70893 1.96684   2
   8   2  -5 3.88322 1.70385   2
   2   8  -5 3.85368 2.30085   2
   2 -10  -5 2.11915 2.25362   4
  -2  -8  -5 6.65520 2.69068   4
   8 -10  -5 2.01110 1.38934   4
 -10   8  -5 5.21198 2.32571   3
   8   2  -4 16.1734 2.05599   3
   2   8  -4 20.1080 2.85067   3
  -2  10  -4 14.5048 2.72903   3
   2   8  -4 18.4400 2.20047   5
  -2  10  -4 20.5169 2.92077   5
  10  -2  -4 21.1289 2.42678   1
  -2  10  -4 17.8393 2.46590   1
  10  -8  -4 16.3490 2.51657   5
   8 -10  -4 13.0345 2.72496   5
   2 -10  -4 17.4014 3.24790   5
  -2  -8  -4 11.3507 2.90285   5
   8   2  -4 24.8943 2.92480   1
   2 -10  -4 10.0590 2.20737   3
  -2  -8  -4 16.5307 3.08072   3
   2   8  -4 16.1894 2.56290   1
 -10   8  -4 16.8364 2.71057   4
   8   2  -4 17.8671 1.34767   4
 -10   8  -4 22.3623 2.74702   2
 -10   8  -4 15.7496 1.69067   1
  -2  10  -4 16.2547 2.67678   4
  -8  10  -4 14.0710 2.49529   4
   2   8  -4 15.9094 2.44385   4
  10  -8  -4 16.2698 1.41451   1
  -8  10  -4 18.8572 2.75972   2
  10  -2  -4 14.1550 1.51044   2
   8   2  -4 13.6961 2.16063   2
  -8  10  -4 17.4411 2.01705   1
   2 -10  -4 19.3150 3.05557   4
   8 -10  -4 11.7434 2.01394   4
  -8  10  -4 14.2436 2.66098   5
  -2  10  -4 13.1624 2.41572   2
  -2  -8  -4 16.5019 3.08420   4
   2   8  -4 13.7624 2.54045   2
 -10   8  -4 16.7348 2.52897   3
  -8  10  -4 22.0433 2.99108   3
  -2  10  -3 39.8245 3.70033   3
   8   2  -3 50.4855 3.01345   3
   2   8  -3 45.7696 3.76224   3
 -10   8  -3 43.7435 4.07660   5
  -8  10  -3 35.9141 3.77327   5
   2   8  -3 40.1687 2.98202   5
  -2  10  -3 42.7525 3.61497   5
  10  -8  -3 41.1411 3.38121   5
   8 -10  -3 30.4365 3.61138   5
   2 -10  -3 33.2045 4.03029   5
   2 -10  -3 39.5455 3.67581   3
  -2  -8  -3 27.9114 3.54052   5
  10  -2  -3 35.3673 2.93181   1
  -2  -8  -3 39.0073 3.79442   3
   8 -10  -3 44.5040 2.56639   3
  -2  10  -3 47.4895 3.52971   1
  -8  -2  -3 45.2987 3.66541   5
 -10   8  -3 43.7515 3.50957   4
 -10   8  -3 37.7691 2.98275   2
  -8  10  -3 45.7530 3.76698   4
   8   2  -3 42.6472 2.11128   4
  -2  10  -3 40.1223 3.68759   4
   2   8  -3 35.6688 3.26450   4
   8   2  -3 49.7282 3.73783   1
  -8  10  -3 37.4494 3.25077   2
   2   8  -3 49.0448 3.99589   1
  10  -2  -3 38.9066 2.09161   2
   8 -10  -3 38.5654 2.92966   4
  -2  10  -3 42.1171 3.68442   2
   2 -10  -3 37.6390 3.75631   4
  -8  10  -3 42.7692 2.40112   1
  -2  -8  -3 44.3781 4.15750   4
   8   2  -3 50.2452 3.37706   2
   2   8  -3 43.8599 3.79061   2
 -10   8  -3 45.4250 3.37879   3
  -8  10  -3 45.9076 3.65889   3
  10  -2  -2 29.3592 1.02195   3
  -2  10  -2 33.7469 3.32495   3
   2   8  -2 29.9385 2.96807   3
   8   2  -2 31.8306 2.48927   3
 -10   8  -2 33.4192 3.17051   5
  -8  10  -2 34.8787 3.49368   5
  -2  10  -2 35.9567 3.36245   5
   2   8  -2 33.0087 2.72798   5
  10  -8  -2 29.0030 2.90668   5
   8 -10  -2 33.2396 3.52022   5
   2 -10  -2 27.1180 2.88802   2
   2 -10  -2 26.7374 3.41869   5
   8 -10  -2 31.8507 2.24460   3
   2 -10  -2 36.6701 3.40309   3
  -2  -8  -2 30.3223 3.14983   2
  -2  -8  -2 27.2931 3.15459   5
  -2  -8  -2 27.0912 3.05806   3
  -8  -2  -2 35.2740 2.99010   5
 -10   8  -2 30.9470 2.76578   4
 -10   8  -2 36.3289 2.54220   2
  -8  10  -2 33.9531 3.16463   4
  10  -2  -2 25.7869 2.39459   1
  -2  10  -2 35.8780 3.31826   4
   2   8  -2 41.9955 3.42232   4
   8   2  -2 27.7848 2.03053   4
  -2  10  -2 34.7731 2.94508   1
  -8  10  -2 18.7877 2.30352   2
   8 -10  -2 35.0318 2.79279   4
  -8  10  -2 33.4850 1.49346   1
  10  -8  -2 32.8100 1.76378   4
   2 -10  -2 31.2393 3.43684   4
   8   2  -2 31.1872 2.87598   1
  -2  -8  -2 33.6620 3.48689   4
   2   8  -2 34.2663 3.13783   1
  10  -2  -2 34.7310 1.98512   2
  -2  10  -2 35.2493 3.30040   2
   2   8  -2 37.5320 3.41071   2
   8   2  -2 32.7527 2.76144   2
 -10   8  -2 25.3081 2.36296   3
  -8  10  -2 35.3123 2.90292   3
   2   8  -1 58.1183 3.89809   1
  -2  10  -1 44.8140 3.80696   3
   2   8  -1 45.0036 3.81047   3
 -10   8  -1 44.2599 3.52122   5
  10  -2  -1 53.8081 2.20468   3
   8   2  -1 54.8373 3.21836   3
  -8  10  -1 45.5978 3.72789   5
  -2  10  -1 55.8575 4.08593   5
   2   8  -1 54.7567 3.62648   5
   2 -10  -1 52.2697 3.61851   2
  10  -2  -1 45.0700 1.56769   5
   8 -10  -1 52.2144 2.92427   3
  10  -8  -1 48.5956 3.46748   5
   8 -10  -1 56.1057 2.32515   2
   8 -10  -1 37.6463 3.64406   5
  -2  -8  -1 44.5488 3.60277   2
   2 -10  -1 55.9205 4.47840   5
  -2  -8  -1 52.4169 3.96274   3
  10  -2  -1 40.0082 1.63958   5
  -2  -8  -1 53.2137 4.09770   5
  -8  -2  -1 59.6665 3.91172   3
 -10   8  -1 48.5953 2.25623   2
 -10   8  -1 57.2785 3.26828   4
  10  -2  -1 49.9943 2.61791   2
  -8  10  -1 51.4325 3.44426   4
  -2  10  -1 52.5725 3.94920   4
   2   8  -1 53.9286 3.93916   4
   8   2  -1 54.5333 2.91114   4
  -8  10  -1 56.6965 3.14047   2
  10  -2  -1 49.4823 1.64919   4
  10  -8  -1 50.2945 2.52061   4
   8 -10  -1 54.4101 3.42498   4
   2 -10  -1 50.0430 4.04594   4
  -2  -8  -1 49.1784 4.06882   4
  10  -2  -1 48.7726 2.87370   1
  -2  10  -1 53.9356 3.44449   1
  -8  -2  -1 43.4480 3.18974   4
  -2  10  -1 47.7723 3.72591   2
   2   8  -1 50.0602 3.92921   2
 -10   8  -1 49.3033 2.76511   3
  10  -2  -1 50.2693 2.13081   3
  10  -2  -1 50.6768 2.53569   2
   8   2  -1 56.1947 3.49042   2
   2 -10  -1 51.8732 4.03475   3
   8   2  -1 47.7408 3.40366   1
  -8  10  -1 38.9153 3.14457   3
  -8  10   0 46.5922 3.02132   3
   8   2   0 40.3009 3.02693   2
  10  -2   0 51.8880 2.70000   2
  10  -2   0 49.0216 2.88339   1
  -2  10   0 45.8796 3.13121   1
  -2  10   0 39.4386 3.36931   3
   8 -10   0 49.6560 2.44644   2
   8   2   0 40.2512 2.15309   5
   2   8   0 41.2070 3.47323   3
 -10   8   0 44.2772 3.60449   5
  10  -8   0 46.3739 2.20482   3
   8   2   0 43.7730 3.11574   3
  -8  10   0 41.8407 3.55235   5
  10  -2   0 48.2582 2.42003   5
  -2  -8   0 51.7737 3.83566   2
   8 -10   0 51.7331 3.04190   3
  -2  10   0 36.8790 3.52862   5
   2   8   0 36.4223 3.24029   1
  10  -2   0 44.7945 2.44986   3
   2   8   0 50.1042 3.54615   5
   8   2   0 37.1230 3.10454   1
  10  -8   0 35.4869 3.19363   5
   8 -10   0 51.8683 4.01508   5
   2 -10   0 44.7299 3.70550   3
   8   2   0 46.9480 2.51474   5
   2 -10   0 54.0074 4.21980   5
  -2  -8   0 42.1531 3.63428   3
  -2  -8   0 39.6888 3.64420   5
  -8  -2   0 45.3779 3.44029   2
  10  -2   0 43.9556 2.48607   5
  -8  -2   0 46.3425 3.34768   3
   8   2   0 42.4594 3.38330   1
  -2  10   0 43.8897 3.07453   1
 -10   8   0 44.7560 2.66110   4
  10  -2   0 50.2591 2.82113   2
  10  -2   0 48.5671 2.37905   4
  10  -2   0 47.5875 3.05301   1
  -8  10   0 51.6822 3.36519   4
  -2  10   0 43.1928 3.65664   4
   2   8   0 47.1710 3.63493   4
  10  -8   0 43.4693 2.58318   4
   8 -10   0 45.7475 3.22069   4
  -8  10   0 46.1978 2.51858   2
   8   2   0 53.6818 3.22980   4
   2 -10   0 33.0396 3.35840   4
  10  -2   0 44.6039 2.48555   4
  -2  -8   0 41.2204 3.68525   4
   2 -10   0 54.7748 3.66648   2
  -8  -2   0 37.2743 2.73339   4
 -10   8   0 52.9438 2.43146   3
  -2  10   0 35.5491 3.26231   2
  10  -2   0 48.0201 2.52977   3
   2   8   0 48.3135 3.73415   2
  -2  -8   0 33.1288 3.00770   1
   2   8   1 51.6599 3.91778   2
   2 -10   1 53.5193 3.41351   1
   8 -10   1 45.8536 2.68589   2
  -8  10   1 40.5923 2.62039   3
   8   2   1 52.5249 3.52094   2
  10  -8   1 54.5812 2.82770   3
   2 -10   1 48.0266 3.49474   2
  -8  -2   1 58.8368 3.76460   1
  10  -2   1 43.7731 2.74358   2
  -2  10   1 54.6322 3.97176   3
   8 -10   1 50.9883 3.25170   3
  10  -2   1 48.8421 2.90843   5
   2   8   1 49.7789 3.92819   3
   2 -10   1 46.0162 3.73962   3
  -8  10   1 46.3230 3.77364   5
  10  -8   1 63.4042 4.18204   5
   8   2   1 46.1245 3.40931   3
  -2  10   1 47.7211 4.05862   5
   8 -10   1 54.7897 4.19939   5
   2   8   1 50.6346 4.03051   5
  -2  -8   1 50.9939 3.87137   3
   2 -10   1 47.9522 3.98347   5
  10  -2   1 54.5167 3.16753   3
  -8  -2   1 48.7989 3.51658   2
   8   2   1 48.9559 3.22509   5
  -2  -8   1 47.1210 3.57971   5
  -2  10   1 49.5630 3.34815   1
  -8  -2   1 49.3172 3.20245   3
  10  -2   1 54.1353 3.19301   5
  10  -2   1 46.5080 2.96474   1
   8   2   1 51.8338 3.78272   2
   2   8   1 43.6842 3.46942   1
 -10   8   1 54.4192 2.59421   4
  10  -2   1 54.2886 2.96709   4
   2   8   1 48.9527 3.58211   1
   8   2   1 45.9668 3.52295   1
   8   2   1 49.2199 3.51037   1
  10  -2   1 52.5119 3.20839   2
  -2  10   1 42.6030 2.97669   1
  -8  10   1 49.5719 3.22639   4
  10  -2   1 57.3079 3.31838   1
  10  -8   1 50.6307 3.13300   4
  -2  10   1 52.6333 4.01640   4
   8 -10   1 45.1508 3.32029   4
   2   8   1 67.8883 4.45971   4
 -10   8   1 49.6043 3.43428   5
   2 -10   1 49.5270 3.89774   4
  -8  10   1 48.2891 2.23831   2
   8   2   1 49.5952 3.58359   4
 -10   2   1 38.4844 2.83744   1
  -2  -8   1 46.3899 3.82945   4
  10  -2   1 47.8760 3.10276   4
  -8  -2   1 49.5412 2.91568   4
  -2  -8   1 54.4424 3.90358   2
  -2  -8   1 45.2940 3.49797   1
  10  -8   1 49.3191 2.20047   2
  10  -2   1 48.0981 2.89451   3
  -2  10   1 50.4672 3.60300   2
   2   8   2 28.2408 3.10193   2
  -8  10   2 35.2810 2.36657   3
   2 -10   2 34.6587 3.21786   2
  10  -8   2 40.6632 2.91053   3
  -2  -8   2 31.7274 3.11982   2
   8   2   2 29.8598 2.92879   2
   8 -10   2 32.0951 2.86661   3
  10  -2   2 38.0727 2.93338   5
  -2  10   2 41.6672 3.52157   3
 -10   8   2 37.1803 3.00344   5
  10  -2   2 33.2795 2.73839   2
   2   8   2 31.8706 3.39950   3
  -8  10   2 34.2426 3.40711   5
   2 -10   2 35.1356 3.34084   3
  10  -8   2 33.0300 3.27311   5
  -8  -2   2 36.4939 3.05082   2
   8 -10   2 33.2839 3.53216   5
  -2  -8   2 41.8161 3.57888   3
  -2  10   2 39.2914 3.89178   5
   8   2   2 32.5819 3.28112   3
   2   8   2 27.9715 3.24273   5
   2 -10   2 34.6316 3.38183   5
   2 -10   2 25.2998 2.53904   1
  -2  -8   2 35.5065 3.02170   5
  -2  -8   2 31.8517 3.07521   1
  10  -2   2 38.5148 3.06374   3
   8   2   2 37.4689 3.16517   5
  -8  -2   2 39.5264 2.94367   3
  10  -2   2 37.4984 2.96328   5
  -8  -2   2 36.4077 3.19959   1
   8   2   2 34.5157 3.12267   4
   8   2   2 26.9917 3.00915   2
  -8  10   2 32.4463 1.54182   2
 -10   8   2 33.7340 1.77272   4
  10  -2   2 37.2651 2.84335   4
  10  -2   2 37.5667 2.98816   2
   2   8   2 29.1163 2.90351   1
   8   2   2 30.8663 2.96548   1
  -8  10   2 40.1211 2.91655   4
  -2  10   2 35.4176 2.90956   1
  10  -8   2 29.2526 2.80936   4
   8 -10   2 33.8081 1.43643   1
   8 -10   2 34.5853 3.28589   4
 -10   2   2 38.8955 2.77649   1
  -2  10   2 31.6100 3.28447   4
   2   8   2 37.1707 3.49046   4
  10  -2   2 36.7492 2.90088   1
  -2  10   2 35.2310 2.96808   1
   2 -10   2 32.3240 3.30343   4
  -2  -8   2 31.2079 3.16271   4
   8   2   2 32.7173 3.22937   4
  -8  10   2 35.4780 1.67199   2
  10  -2   2 32.0359 2.93037   4
   2   8   2 34.1994 3.17912   1
  -8  -2   2 37.8005 2.35642   4
  10  -2   2 35.7581 2.66269   1
  10  -8   2 30.0495 2.22461   2
   8   2   2 37.2561 3.13725   1
   8   2   2 32.1828 3.14171   3
  10  -2   2 29.8426 2.65019   3
   8 -10   2 35.8389 2.67952   2
  -2  10   2 33.6192 3.06582   2
  -8  -2   3 44.3089 3.63405   1
  -2  10   3 50.6772 3.80658   2
   2 -10   3 41.5597 3.66505   2
  -2  10   3 42.4408 3.35645   1
  10  -8   3 41.6693 3.26186   3
 -10   2   3 40.3107 3.16813   1
  -8  10   3 47.7683 2.59491   3
   2   8   3 37.7204 3.67454   2
  -2  -8   3 37.9577 3.55410   2
   8 -10   3 37.1450 3.39050   3
   2   8   3 45.9836 3.90417   1
  10  -2   3 41.9021 3.75723   5
  -8  -2   3 37.5950 3.18788   2
  -2  10   3 45.9672 3.72913   3
 -10   8   3 38.9706 3.14765   5
   2 -10   3 53.2958 4.18039   3
  10  -8   3 45.1368 4.02161   5
   2   8   3 44.8411 4.01567   3
   8   2   3 47.0746 3.75038   1
  -8  10   3 43.7912 3.94194   5
  -2  -8   3 38.3170 3.67373   3
   8 -10   3 42.3637 3.99573   5
  10  -2   3 44.5295 3.50821   2
  -2  10   3 40.4242 4.13263   5
   2 -10   3 51.4174 4.26775   5
   2   8   3 37.1709 4.03836   5
   8   2   3 41.5016 3.81232   3
  -2  -8   3 34.9499 3.08491   5
   8   2   3 30.9368 3.30148   2
  -8  -2   3 48.8054 3.22110   3
 -10   2   3 39.4782 2.16139   2
   8   2   3 43.2114 3.83070   5
  10  -2   3 44.3598 3.65435   3
  10  -2   3 44.9936 3.76934   5
  -8  10   3 46.9224 1.92001   1
   2   8   3 37.0321 3.70660   2
   8   2   3 36.2824 3.54350   4
   8 -10   3 45.7789 2.28197   1
  10  -2   3 55.3287 3.79149   4
   8   2   3 39.4401 3.72292   2
  -8  10   3 39.4033 1.62561   2
  10  -2   3 49.3919 3.74727   2
  10  -8   3 33.4431 3.22286   4
  -8  10   3 48.8634 3.24918   4
   2   8   3 48.9384 3.85259   1
   8 -10   3 43.0615 3.69623   4
  10  -8   3 38.3931 1.91200   1
   8   2   3 34.6219 3.36752   1
  -2  10   3 42.4446 3.71671   4
   2 -10   3 34.7802 3.68762   4
  -2  10   3 44.6812 3.44898   1
   2   8   3 47.3424 4.08905   4
  -2  -8   3 45.6847 3.99630   4
   8   2   3 49.6259 4.19527   4
  10  -2   3 46.2273 3.42604   1
  10  -2   3 37.9794 3.51325   4
  -8  -2   3 35.7095 2.35664   4
  10  -2   3 44.5860 3.15336   1
  -8  10   3 45.5283 1.72648   2
  10  -8   3 49.8459 3.27706   2
  -8  10   3 42.0433 1.83360   1
   2 -10   3 34.5572 3.12345   1
   8   2   3 52.5375 4.15166   3
   8 -10   3 41.1272 3.21864   2
  -2  -8   3 44.5071 3.68980   1
  10  -2   3 36.1307 3.27351   3
   2 -10   4 21.1430 3.02427   2
  -2  -8   4 15.2517 2.76133   2
  -8  10   4 17.5443 1.67839   3
   2   8   4 17.5078 3.00689   2
   8 -10   4 21.8238 3.00622   3
  -8  -2   4 18.0280 2.45927   2
  10  -8   4 12.3910 2.36398   3
  10  -2   4 23.2912 3.09553   5
   8 -10   4 15.7205 1.83781   1
 -10   8   4 17.1519 2.32080   5
  -2  10   4 10.0009 2.26575   2
   8 -10   4 19.5685 3.19094   5
 -10   8   4 16.6028 1.41998   1
  10  -8   4 14.7119 2.99889   5
 -10   2   4 16.3260 1.60130   2
   2 -10   4 11.5428 2.49282   3
  -8  10   4 12.1252 2.40814   5
  -2  -8   4 15.8168 2.36944   5
  -2  10   4 10.4131 2.38328   3
  -2  -8   4 13.4894 2.48686   3
  -8  -2   4 16.1543 2.05693   3
   2 -10   4 11.4611 2.67336   5
  -2  10   4 13.2016 2.95453   5
   2   8   4 15.3543 2.60846   3
   2   8   4 16.3361 2.96778   5
   2   8   4 13.1486 2.65121   1
  10  -2   4 18.2271 2.87168   3
   8   2   4 11.5376 2.46836   2
   8   2   4 15.2922 2.89032   5
   8   2   4 14.5318 2.85865   3
  -8  10   4 14.4952 1.59175   1
  10  -2   4 14.8309 2.54377   2
  -2  10   4 16.9520 2.48876   1
  10  -2   4 9.43595 2.55115   5
  10  -8   4 12.8524 2.81803   5
   8   2   4 13.8939 2.70343   4
   2   8   4 20.8380 3.06619   2
  10  -2   4 15.9544 2.60869   4
   8   2   4 11.9684 2.53161   1
  -2  10   4 13.1160 2.37339   2
  10  -8   4 16.7474 2.71502   4
  10  -8   4 15.9612 1.74177   1
  -8  10   4 17.9712 2.16852   4
   8 -10   4 14.6887 2.63943   4
   8   2   4 12.0514 2.51427   2
  -2  10   4 15.6680 2.77913   4
   2   8   4 16.6282 2.85376   4
   2   8   4 15.8253 2.65030   1
  -2  -8   4 22.1741 2.97778   1
  10  -2   4 15.0104 2.69369   2
   2 -10   4 13.0906 2.58838   4
 -10   2   4 17.1116 2.36921   1
  -2  -8   4 13.6006 2.53763   4
  -8  -2   4 14.1724 2.39074   1
  -2  10   4 17.3211 2.49481   1
  10  -8   4 17.9174 2.37787   2
  10  -2   4 14.8562 2.24475   1
   8   2   4 7.86912 2.34784   4
  10  -2   4 14.2083 2.66108   4
  10  -2   4 14.0551 2.38987   1
  -8  10   4 16.2729 1.11564   2
   2 -10   4 12.0725 2.17669   1
  -8  10   4 13.5265 1.50051   3
   8 -10   4 17.1350 2.51258   2
   8   2   4 14.2429 2.60497   3
  -8  10   4 14.8818 1.63868   1
  10  -2   4 15.3769 2.46422   3
   8   2   4 11.3647 2.43886   1
   8 -10   5 7.47566 2.36171   2
  10  -8   5 3.13348 1.50323   1
   2   8   5 5.92400 2.18075   1
  10  -2   5 3.17156 2.20226   3
  -8  10   5 5.49543 0.87729   2
   8   2   5 2.92726 1.94668   1
   2 -10   5 2.28733 1.87943   2
  10  -8   5 4.61249 2.09369   3
  -2  10   5 5.17317 2.10368   1
   8   2   5 4.32151 2.36778   5
   8 -10   5 5.27314 2.36953   3
  -8  10   5 6.26238 1.30391   3
  10  -2   5 2.30870 1.85563   1
  10  -8   5 3.87312 2.15512   5
  -2  10   5 4.88649 2.07688   2
   2 -10   5 5.78745 2.54737   3
 -10   8   5 4.14618 1.80856   5
   8 -10   5 4.38865 2.26765   5
  -8  -2   5 6.13121 2.00904   2
  -8  10   5 3.85509 2.29207   5
  10  -2   5 1.64057 2.04912   5
  -2  -8   5 1.36019 2.21011   3
   2   8   5 4.67365 2.05608   2
   2 -10   5 5.03928 2.15545   5
  -2  10   5 4.73521 2.00145   3
  -2  10   5 4.88652 3.02770   5
  -2  -8   5 1.59845 1.54479   5
   2   8   5 5.62753 2.40640   3
   2   8   5 2.55084 2.65481   5
 -10   2   5 6.02420 1.25050   2
  -8  -2   5 9.13442 1.87184   3
   8   2   5 0.17062 2.30821   5
   8   2   5 6.28865 2.50394   2
   8   2   5 4.74195 2.32411   3
  10  -2   5 4.65998 2.39836   5
  10  -2   5 3.67231 2.17380   2
  10  -2   5 5.79442 2.29372   3
  10  -8   5-0.14090 2.37937   5
  -2  -8   5 5.12109 1.63288   5
   2 -10   5 7.58230 2.09691   1
   8   2   5 0.99627 2.11532   4
  10  -2   5 0.66313 1.88014   4
   2   8   5 3.93520 2.29683   2
  -2  10   5 7.91125 2.28848   2
  10  -8   5 6.10465 2.56584   4
   8   2   5 2.39389 2.35823   2
   8 -10   5 2.08499 1.96403   4
  -8  10   5 8.20288 1.70124   4
 -10   2   5 4.18538 1.83312   1
   2 -10   5 7.52942 2.70804   4
 -10   8   5 4.82320 1.30183   1
  -2  10   5 3.25635 2.11470   4
  -2  -8   5 5.69460 2.18502   4
  10  -2   5 6.48118 2.36344   2
   8 -10   5 3.78116 1.42431   1
   2   8   5 4.74551 2.50718   4
  -2  -8   5 6.96134 2.42418   1
  10  -2   5 4.40176 2.06302   1
  -2  -8   5 8.59029 2.73377   2
   2   8   5 6.37129 2.49805   1
   8   2   5 2.68441 2.26715   4
  -8  10   5 2.69395 1.32895   1
  -8  -2   5 4.64672 2.19604   1
  10  -2   5 3.37189 2.45768   4
  -2  10   5 2.14483 1.95715   1
  10  -8   5 0.84466 1.71521   2
  -2  10   5 5.36489 2.31884   3
   2   8   5 5.42701 2.52181   3
   8   2   5 2.14611 2.33032   3
   8   2   5 1.85123 2.08598   1
  -8  10   5 5.55147 1.13594   3
   9   1  -5 11.0580 1.52041   3
  -1  10  -5 6.64854 2.81890   3
   1   9  -5 8.75306 2.60340   3
   1   9  -5 9.51260 2.25821   5
  -1  10  -5 10.4957 2.53296   5
   9 -10  -5 4.31772 2.40692   5
   1 -10  -5 7.66112 2.98106   5
  -1  -9  -5 6.67658 3.18670   5
 -10   9  -5 4.45214 2.41548   4
  -9  10  -5 3.72671 2.49062   4
  10  -1  -5 11.4688 2.37008   1
  -1  10  -5 9.68492 2.53858   4
   1   9  -5 5.02746 2.24021   4
 -10   9  -5 5.69105 2.24417   2
  10  -1  -5 12.9469 1.81193   2
  -1  10  -5 5.62558 2.45057   1
   9   1  -5 11.2047 2.52543   1
  -9  10  -5 5.39661 2.40691   2
  10  -9  -5 7.41240 1.47867   1
   1   9  -5 10.5165 2.68179   1
 -10   9  -5 11.8831 1.95071   1
   9   1  -5 8.08199 2.02122   2
  -1  10  -5 14.3758 3.26564   2
   1   9  -5 7.81401 2.88357   2
   1 -10  -5 9.22599 3.01213   4
  -1  -9  -5 16.5002 3.58274   4
  -9  10  -5 4.47823 1.66246   1
 -10   9  -5 5.21605 2.05362   3
  -9  10  -5 9.88675 2.55097   3
  -9  10  -4 8.81148 2.26445   3
  -1  10  -4 18.2188 2.76988   3
   1   9  -4 12.5020 2.52015   3
  -9  10  -4 15.4202 2.86251   5
   1   9  -4 12.1916 2.11146   5
  10  -1  -4 12.9493 2.15868   1
   9 -10  -4 17.6367 3.10681   5
  10  -9  -4 15.5740 2.61975   5
   1 -10  -4 8.02425 2.79097   5
  -1  -9  -4 9.65451 3.11755   5
   1 -10  -4 7.43106 2.32637   3
  -1  -9  -4 9.18006 2.72974   3
  -9  10  -4 16.6020 2.70331   4
 -10   9  -4 12.0295 2.36136   4
 -10   9  -4 15.2547 1.63053   1
   1   9  -4 15.1704 2.54829   4
  -1  10  -4 12.7966 2.45478   4
 -10   9  -4 11.6590 2.23017   2
  -9  10  -4 17.6378 1.87528   1
  -9  10  -4 5.72395 2.04123   2
  10  -1  -4 16.0633 1.78555   2
  -1  10  -4 10.2681 2.36445   5
  -1  10  -4 11.7375 2.50056   1
   9 -10  -4 12.6596 1.75535   4
   9   1  -4 9.59367 2.17694   1
   9   1  -4 10.5207 1.76388   2
   1 -10  -4 14.0272 2.85975   4
  -1  -9  -4 11.2690 2.57107   4
  -1  10  -4 13.6165 2.63986   2
   1   9  -4 13.6010 2.64284   1
   1   9  -4 9.64391 2.55408   2
 -10   9  -4 13.4882 2.41307   3
   9   1  -4 8.36157 1.46576   3
   9   1  -3 3.83344 1.45496   1
  -9  10  -3 4.23882 1.67962   3
   1   9  -3 4.54939 1.66084   1
   9   1  -3 4.66514 1.06036   3
  -1  10  -3 6.10749 1.98344   3
   1   9  -3 7.35253 2.11633   3
 -10   9  -3 6.20472 2.11827   5
  -1  10  -3 2.68695 1.54053   5
  -9  10  -3 2.28170 1.72305   5
   1   9  -3 6.89897 1.69614   5
  10  -9  -3 3.80282 1.69976   5
   9 -10  -3 5.73285 2.00964   5
   1 -10  -3 4.14832 2.42576   5
  -1  -9  -3 1.59572 1.95516   5
   1 -10  -3 4.68517 1.86076   3
  -1  -9  -3 1.48006 1.71172   3
   1 -10  -3 6.62647 2.04707   2
   9   1  -3 5.70469 0.53903   4
   9   1  -3 4.06880 0.50632   4
 -10   9  -3 4.45886 1.70638   4
  -9  10  -3 3.97012 1.67987   4
  -9  10  -3 6.01197 0.84599   1
  -1  10  -3 5.34582 2.05767   4
 -10   9  -3 5.88848 1.49390   2
   1   9  -3 8.44014 2.11986   4
  -9  10  -3 5.88112 1.62783   2
   9 -10  -3 6.99907 1.52112   4
   1 -10  -3 4.77304 2.00008   4
  -1  -9  -3 2.32677 2.00426   4
  10  -9  -3 4.51467 0.87491   4
  10  -1  -3 6.25198 1.59284   1
  10  -1  -3 3.69539 0.99927   2
  -1  10  -3 5.08827 1.86200   2
   9   1  -3 2.88100 1.17689   2
   1   9  -3 7.57391 2.23223   2
  -1  10  -3 4.07442 1.51767   1
 -10   9  -3 6.06663 1.59220   3
  10  -1  -3 6.38633 0.67595   3
   9   1  -2 4.99602 1.23909   2
  -9  10  -2 9.39365 1.72652   3
  10  -1  -2 7.41094 0.92981   3
  10  -1  -2 4.58439 1.31673   1
  -1  10  -2 9.36984 2.14901   3
   1   9  -2 9.34218 2.03268   3
   9   1  -2 6.25849 1.22665   3
 -10   9  -2 7.94363 2.05230   5
  -1  10  -2 8.78280 1.77620   1
  -9  10  -2 5.14495 2.14847   5
  -1  10  -2 5.96779 1.75988   5
   1   9  -2 5.44572 1.60348   5
   9   1  -2 7.91524 1.73707   1
   1   9  -2 6.59530 1.79670   1
  10  -9  -2 6.29772 1.71323   5
   9 -10  -2 3.12510 1.78476   5
   1 -10  -2 6.94677 2.25969   5
  -1  -9  -2 8.20864 2.20611   5
   1 -10  -2 6.74763 2.07585   3
   9 -10  -2 6.55525 1.00669   3
   1 -10  -2 7.30759 1.76459   2
  -1  -9  -2 6.85700 1.86690   3
  -1  -9  -2 6.69227 2.09448   2
 -10   9  -2 5.38545 1.50801   4
  -9  10  -2 3.77440 1.47983   4
   9   1  -2 7.43965 0.97174   4
 -10   9  -2 6.74425 1.35452   2
  -1  10  -2 6.31824 1.69956   4
   1   9  -2 6.49571 1.89602   4
  -9  10  -2 7.78358 1.48421   2
  10  -9  -2 6.99032 1.22213   4
   9 -10  -2 5.16709 1.37830   4
   1 -10  -2 5.84557 1.81193   4
  -1  -9  -2 2.41028 1.41993   4
  10  -1  -2 7.67648 0.91568   3
  -1  10  -2 6.45575 1.74880   2
  10  -1  -2 4.68213 1.03977   2
   1   9  -2 4.99709 1.70796   2
 -10   9  -2 8.75373 1.66830   3
  -1  10  -1 34.1177 3.25411   3
   1   9  -1 28.2997 3.02318   3
  10  -1  -1 32.6149 2.05056   3
   9   1  -1 30.6814 2.40616   3
 -10   9  -1 20.7462 2.88296   5
  -9  10  -1 31.4360 3.22669   5
   1   9  -1 25.2376 2.70880   5
   1 -10  -1 36.0724 3.19597   2
   9 -10  -1 31.2507 2.18319   3
  10  -9  -1 31.9265 3.14849   5
  -1  -9  -1 30.2375 3.12845   2
   9 -10  -1 21.7661 2.87857   5
  10  -9  -1 29.9316 1.62257   3
  -1  10  -1 28.8452 3.14376   5
   1 -10  -1 32.5077 3.20779   3
   1 -10  -1 35.4334 3.70228   5
  -1  -9  -1 33.9621 3.42972   3
  -1  -9  -1 21.7793 3.19106   5
  10  -1  -1 34.2233 2.59153   2
 -10   9  -1 31.0287 2.61994   4
  10  -1  -1 28.7984 1.56018   4
 -10   9  -1 35.7789 2.06202   2
  -9  10  -1 29.7681 2.84699   4
  -9  10  -1 32.9973 2.30002   2
  -1  10  -1 32.9136 3.37467   4
   1   9  -1 28.6040 3.05593   4
   9   1  -1 34.2067 2.19775   4
  10  -1  -1 32.8791 1.64636   4
  10  -9  -1 31.3923 2.27086   4
   9 -10  -1 34.8961 2.75971   4
   1 -10  -1 34.4572 3.55338   4
  -1  -9  -1 27.5313 3.21472   4
  10  -1  -1 31.3588 2.59703   1
  -1  10  -1 30.2152 3.03488   2
   1   9  -1 33.1107 3.19979   2
  -1  10  -1 31.6341 2.88787   1
  10  -1  -1 35.1402 2.14043   3
 -10   9  -1 36.5710 2.59907   3
  10  -1  -1 29.9788 2.19828   2
   9   1  -1 34.1458 2.67874   2
   9   1  -1 30.3226 2.71983   1
   1   9  -1 31.6370 2.96667   1
  -9  10  -1 32.0772 2.59716   3
  -1  10   0 2.53799 1.55281   2
  -9  10   0 4.74066 1.14742   3
   1   9   0 3.25634 1.40777   2
  10  -1   0 3.82371 1.70442   1
   9   1   0 2.37387 1.17245   2
  10  -1   0 1.84238 0.84654   2
  10  -9   0 1.65244 0.31339   2
  10  -1   0 2.36684 0.94336   3
  -1  10   0 3.62579 1.63987   3
 -10   9   0 2.55632 1.28265   5
   1   9   0 4.63431 1.70909   3
  -9  10   0 1.09058 1.16956   5
  10  -1   0 3.58839 0.82248   5
  -1  10   0 2.86933 1.56995   5
  10  -9   0 3.57401 0.92284   3
   1   9   0 0.63046 1.14845   5
   9   1   0 3.56155 1.14463   3
   9 -10   0 2.84634 0.98118   3
  10  -9   0 1.40351 1.15430   5
   9 -10   0 3.11326 0.74329   2
   9 -10   0 4.15123 1.72860   5
   9   1   0 2.51803 0.90078   5
   1 -10   0 4.21166 1.69920   5
   1 -10   0 1.47108 1.17934   2
   1 -10   0 1.70126 1.40347   3
  -1  -9   0 2.34132 1.45607   5
  -1  -9   0 3.15172 1.32200   2
  -1  -9   0 4.66718 1.75914   3
  10  -1   0 2.94509 0.89220   5
   9   1   0 2.71898 0.98158   4
  10  -1   0 2.57374 0.81266   4
 -10   9   0 2.45191 0.95045   4
  10  -1   0 3.21194 1.05851   2
  -9  10   0 2.51849 1.13396   4
  -1  10   0 4.42574 1.44989   1
   9   1   0 1.91038 1.20742   1
  10  -1   0 2.66098 1.15446   1
  -1  10   0 1.08329 1.15599   4
   1   9   0 0.97897 1.41440   4
  10  -9   0 2.89911 0.95286   4
  -9  10   0 3.51638 0.81633   2
   9 -10   0 2.15504 1.10771   4
   9   1   0 1.95405 0.70205   5
   9   1   0 2.69762 1.12765   4
  10  -1   0 3.04568 0.94874   4
   1 -10   0 3.27750 1.69326   4
  -1  -9   0 3.71088 1.57468   4
  -1  10   0 0.96615 0.99558   1
  10  -1   0 3.40052 1.04420   3
   1   9   0 1.97242 1.24677   1
   9   1   0 3.74068 1.28359   1
 -10   9   0 4.18929 0.93176   3
   9 -10   1 32.0355 2.13772   2
  -1  -9   1 29.6327 3.00070   1
   1 -10   1 33.2039 2.95214   1
   9   1   1 33.2152 2.93285   2
  10  -1   1 32.4650 2.57276   2
  10  -9   1 37.3043 2.55370   3
   1 -10   1 30.3094 3.02161   2
  -1  10   1 28.7165 3.14152   3
   9   1   1 31.5366 2.40511   5
  -1  -9   1 30.9272 3.03200   2
   1   9   1 32.0569 3.29875   3
  10  -1   1 28.7541 2.25852   5
   9 -10   1 33.1341 2.69761   3
  -9  10   1 24.7156 3.11178   5
  -1  10   1 25.0058 3.06445   5
   9   1   1 30.4820 2.70264   3
  10  -9   1 24.5981 2.90052   5
   1 -10   1 34.2177 3.27737   3
   1   9   1 31.3420 3.38766   5
   9 -10   1 28.2591 3.21730   5
  10  -1   1 28.5923 2.57278   3
  -1  -9   1 20.7724 2.86604   3
   1 -10   1 38.6903 3.67318   5
  -1  -9   1 27.5503 3.01462   5
   9   1   1 30.5602 2.58705   5
  -9  -1   1 30.8790 2.77965   2
  10  -1   1 33.3436 2.63349   5
  -9  -1   1 31.2801 2.88591   1
  -1  10   1 25.2268 2.61641   1
  -9  -1   1 31.8195 2.58124   3
  10  -1   1 29.5678 2.57482   1
   1   9   1 33.8582 3.19407   1
 -10   9   1 37.0365 3.21947   5
   9   1   1 27.1855 2.67829   1
   9   1   1 27.2409 2.58960   4
   9   1   1 34.4763 3.14398   2
  10  -1   1 30.8123 2.35875   4
  10  -1   1 29.9270 2.70187   2
   1   9   1 32.7303 2.99192   1
 -10   9   1 25.9727 2.08095   4
  -1  10   1 27.9588 2.75365   1
   9   1   1 29.1814 2.85819   1
  -9  10   1 29.4254 2.45422   4
  10  -1   1 29.6562 2.61446   1
  -9  10   1 28.8509 1.22598   2
  10  -9   1 28.7659 2.53523   4
  -1  10   1 28.6184 3.10247   4
   9 -10   1 31.7267 2.82691   4
   1   9   1 37.1757 3.46964   4
 -10   1   1 24.8693 2.58656   1
   1 -10   1 35.0216 3.50284   4
   9   1   1 29.7007 2.79810   4
  -1  -9   1 34.2521 3.43958   4
  10  -1   1 28.2871 2.61472   4
   9   1   1 31.8682 2.86314   3
  10  -1   1 31.8856 2.49480   3
 -10   9   1 33.5282 1.65130   3
  -1  10   1 30.9395 3.03302   2
  10  -9   1 22.2996 1.66404   2
   1   9   1 30.8361 3.23537   2
  -9  10   1 24.9880 2.10201   3
  -9  10   2 8.97866 1.16227   3
  10  -9   2 4.06614 1.16888   2
   9 -10   2 6.02901 1.32808   2
   1   9   2 4.21247 1.54372   1
   9 -10   2 10.5102 1.82417   3
  -1  10   2 6.63940 2.05413   2
   1   9   2 7.08568 1.95676   2
   9   1   2 5.30193 1.38970   5
  10  -9   2 5.85828 1.40836   3
  10  -1   2 4.66425 1.35028   5
 -10   9   2 4.96796 1.66434   5
  -9  10   2 2.90104 1.55991   5
   1 -10   2 4.81613 1.78053   2
  -1  10   2 3.50617 1.76366   3
  10  -9   2 5.11485 1.90758   5
  -1  -9   2 7.10322 1.84022   2
   9 -10   2 5.75069 1.96589   5
   9   1   2 5.93397 1.71156   2
  -1  10   2 6.68618 2.23317   5
   1   9   2 5.86182 1.90872   5
   1 -10   2 5.60824 1.78364   3
   9   1   2 9.40259 1.88554   1
   1 -10   2 5.97329 1.57357   1
  10  -1   2 5.77891 1.57332   2
  -1  -9   2 7.54511 1.87414   3
   1 -10   2 6.34397 1.93168   5
  -1  -9   2 2.82658 1.44951   1
  -1  -9   2 6.03709 1.84350   5
   9   1   2 2.90965 1.57696   3
   9   1   2 4.60486 1.39724   5
  10  -1   2 6.00964 1.64514   3
  10  -1   2 4.90478 1.45129   5
  -9  -1   2 5.78089 1.55552   2
  -9  -1   2 6.64800 1.33339   3
 -10   1   2 6.45529 1.28301   2
   9   1   2 4.34736 1.36700   4
  10  -1   2 6.60401 1.49506   4
   1   9   2 6.49178 1.92042   3
 -10   9   2 3.93085 0.98455   4
   9   1   2 5.48160 1.72543   2
  -9  -1   2 5.34373 1.61369   1
  -9  10   2 7.58992 1.48892   4
  10  -1   2 5.55409 1.61049   2
  10  -9   2 7.50709 1.71983   4
   9 -10   2 6.01573 1.69150   4
  -1  10   2 2.05682 1.57527   4
   1   9   2 7.50592 2.09086   4
   1 -10   2 6.06217 1.85373   4
   1   9   2 4.96616 1.42999   1
  -1  -9   2 5.81136 1.79598   4
   9   1   2 5.13873 1.81351   4
  -1  10   2 4.97439 1.51386   1
   9   1   2 6.15271 1.66679   1
  10  -1   2 4.91172 1.57084   4
 -10   1   2 8.77085 1.69125   1
  10  -1   2 6.02983 1.45200   1
  10  -1   2 6.01412 1.53544   1
  -1  10   2 5.66658 1.50078   1
   9   1   2 4.73888 1.56217   3
  10  -1   2 8.17634 1.62921   3
  10  -1   3 7.13417 1.71226   1
  -9  10   3 8.24092 0.97834   3
 -10   1   3 3.02244 1.47704   1
   9 -10   3 4.43498 1.37225   2
  10  -9   3 4.04115 1.38467   3
  -1  10   3 8.35487 2.23761   2
  10  -1   3 3.32047 1.63285   5
   9 -10   3 5.06037 1.79549   3
   1 -10   3 0.92507 1.50090   2
   1   9   3 5.21884 2.05449   2
  -1  -9   3 6.45303 1.94402   2
 -10   9   3 2.51047 1.43143   5
  10  -9   3 0.99326 1.56072   5
  -1  10   3 5.45337 1.94913   3
   9 -10   3 1.87763 1.89571   5
   1   9   3 3.49502 1.83777   3
   1 -10   3 3.06674 1.69653   3
  -1  10   3 10.1592 2.50254   5
  -1  -9   3 4.95333 2.06327   3
   1   9   3 2.10779 2.04560   5
   1 -10   3 3.96574 1.69561   5
  -1  -9   3 4.64373 1.79787   5
   9   1   3 7.57371 1.99184   2
  10  -1   3 2.76579 1.56286   2
   9   1   3 7.47470 2.14242   3
  -9  10   3 5.74691 1.83500   5
   9   1   3 4.02256 1.85792   5
  -9  -1   3 1.95563 1.28295   2
  10  -1   3 3.90532 1.83229   3
  10  -1   3 5.75816 1.84286   5
 -10   1   3 4.16287 1.28722   2
  -9  -1   3 2.40918 1.20540   3
   9   1   3 7.57708 1.80560   4
  10  -1   3 4.76781 1.62921   4
   9 -10   3 6.23744 0.87204   1
 -10   9   3 5.85251 0.92222   4
  -9  10   3 6.10211 1.59698   4
   9   1   3 2.58706 1.70227   2
  10  -9   3 4.28379 1.83510   4
  10  -1   3 3.13533 1.48967   2
   9 -10   3 3.26704 1.55965   4
  -1  10   3 9.90621 2.23875   4
   1   9   3 6.47007 2.25293   4
   1 -10   3 5.39017 1.93026   4
  -1  -9   3 3.37935 1.98047   4
   9   1   3 4.16879 1.52303   5
   9   1   3 6.31444 2.24478   4
  -1  10   3 2.76409 1.59353   1
  10  -1   3 2.31494 1.65474   4
   1 -10   3 6.86079 1.76553   1
   1   9   3 1.42667 1.30200   1
   1   9   3 7.56184 1.92374   1
  -1  -9   3 5.23195 2.02983   1
  -1  10   3 3.11384 1.43666   1
   9   1   3 5.76521 1.77863   1
  -9  10   3 4.17080 0.77920   3
   9   1   3 2.50595 1.42024   1
   9   1   3 5.64359 1.84674   3
  10  -1   3 4.63368 1.72109   1
  10  -9   3 4.87807 1.37019   2
  -9  -1   3 5.26695 1.61055   1
  10  -1   3 4.84212 1.76178   3
  10  -1   4 11.3068 2.51051   3
   9 -10   4 11.6666 2.14442   2
   1 -10   4 19.5841 3.02740   2
  -9  10   4 13.4974 1.01742   3
  -1  10   4 12.9574 2.81603   2
  10  -9   4 14.4797 2.48240   3
   9   1   4 15.5980 2.69415   5
  -1  -9   4 10.3493 2.65656   2
   9   1   4 16.3656 2.76899   2
   1   9   4 8.64858 2.35835   1
  10  -1   4 15.9720 2.82917   5
 -10   1   4 17.1018 1.98361   2
   9 -10   4 7.05272 2.20243   3
  -1  10   4 9.30341 2.28126   1
   1   9   4 11.3143 2.71889   2
 -10   9   4 9.21630 2.26101   5
  10  -9   4 9.74016 2.67522   5
  -9  10   4 13.5466 2.61723   5
   1 -10   4 11.3812 2.64795   3
  -1  10   4 15.4097 2.73998   3
  -1  -9   4 14.2502 2.66220   3
   1   9   4 13.8889 2.65425   3
   1 -10   4 9.53827 2.26881   5
  -1  10   4 15.5003 3.19691   5
   1   9   4 12.6655 2.97290   5
  -1  -9   4 11.1629 2.28259   5
  -9  -1   4 18.1984 1.91046   3
  -9  -1   4 12.6032 2.04973   2
   9   1   4 5.24149 2.19722   5
   9   1   4 14.5291 2.75259   3
  10  -1   4 10.8138 2.34089   2
  10  -1   4 15.0199 2.80538   5
  10  -1   4 15.2251 2.76394   3
   9 -10   4 10.6934 1.55196   1
   9   1   4 16.7158 2.58980   1
   9   1   4 17.9231 2.84896   4
  10  -1   4 13.1580 2.34144   1
 -10   9   4 14.5036 1.02750   4
   9   1   4 16.8561 3.06398   2
  10  -1   4 13.4529 2.39681   4
  -1  10   4 10.1811 2.33545   2
   1   9   4 11.1068 2.55631   2
  -9  10   4 13.1134 1.79406   4
   9 -10   4 15.1237 3.09149   5
  10  -9   4 10.5696 2.52459   4
   9 -10   4 17.9778 3.03860   4
  10  -1   4 8.39626 2.40733   2
  -9  10   4 17.5514 1.44533   1
  -9  10   4 13.5524 1.27874   1
   1 -10   4 17.7016 2.92132   4
  -1  10   4 12.9659 2.68332   4
   1 -10   4 22.6262 3.04371   1
  -1  -9   4 12.5514 2.59381   4
   1   9   4 14.5696 2.97171   4
  -1  10   4 15.1945 2.58525   1
   9   1   4 17.8362 2.92443   1
  10  -1   4 24.6803 3.24060   4
  -1  -9   4 19.8069 2.93868   1
   9   1   4 8.19676 2.62281   4
  10  -1   4 20.3119 2.86117   1
 -10   1   4 15.0869 2.43912   1
  -9  -1   4 15.6169 2.54977   1
  10  -9   4 16.6749 1.64365   1
   1   9   4 13.2847 2.43388   1
  10  -9   4 13.4951 2.20753   2
   9   1   4 10.3500 2.44970   3
   9 -10   5 7.58487 2.41801   2
   9 -10   5 12.4657 1.98735   1
  10  -1   5 8.94572 2.90193   3
  -9  10   5 4.23514 0.44981   3
   1   9   5 12.3049 2.76006   1
  10  -1   5 10.4866 2.50293   1
  10  -1   5 5.39166 2.60018   5
  -1  10   5 14.7886 2.87398   1
  -9  10   5 9.04093 1.68843   1
   9   1   5 6.51645 2.60360   1
   1 -10   5 4.21562 2.11292   2
  10  -9   5 6.04286 2.27170   3
   9   1   5 12.3291 3.23020   5
  -1  -9   5 10.9681 3.14743   2
  10  -1   5 8.15399 2.54840   1
 -10   1   5 11.7619 1.93618   2
  -1  10   5 6.92636 2.52142   2
  10  -9   5 7.67308 3.16866   5
 -10   9   5 7.29607 2.23568   5
   9 -10   5 9.97214 3.18303   5
   1 -10   5 9.26710 2.80462   3
   1   9   5 10.4781 2.61245   2
  -9  10   5 13.1799 3.11873   5
  -1  -9   5 7.06548 2.42257   3
  10  -9   5 10.2999 1.71207   1
  -1  10   5 9.62161 2.75409   3
  -9  -1   5 11.5516 2.24509   2
   1 -10   5 8.58014 2.74505   5
  -9  -1   5 12.8187 1.78575   3
  -1  10   5 7.72660 3.17564   5
   1   9   5 11.4019 2.72491   3
  -1  -9   5 13.4905 2.57825   5
   1   9   5 11.6824 3.35811   5
   9   1   5 14.0914 3.24033   5
   9   1   5 7.46779 2.64997   2
   9   1   5 12.0154 3.17169   3
  10  -1   5 9.14504 2.92082   5
  10  -1   5 7.69922 2.74179   2
  10  -1   5 11.7976 3.02492   3
  10  -9   5 7.15705 2.67758   5
   9 -10   5 4.70453 2.86260   5
   9   1   5 5.89191 3.26415   4
  10  -1   5 13.2604 3.16724   4
   9 -10   5 7.72400 2.56456   3
   1   9   5 20.5572 3.42783   1
  -1  10   5 7.75741 2.32969   1
   1   9   5 6.38014 2.45498   2
  -1  10   5 7.89091 2.57760   2
 -10   9   5 7.14530 1.38239   1
  10  -9   5 8.75296 2.77359   4
  -9  10   5 9.77806 1.63833   4
   9 -10   5 8.43086 2.88611   4
   9   1   5 5.72629 2.94524   2
  10  -1   5 13.8182 2.96486   2
   1 -10   5 7.81783 2.58629   4
  -1  -9   5 7.61638 2.50356   4
  -1  10   5 11.0177 2.85683   4
   1   9   5 10.6096 3.07547   4
   1 -10   5 8.32275 2.41727   1
   9   1   5 8.76397 2.69332   4
  10  -1   5 7.52218 2.63338   4
   9   1   5 9.72906 2.65594   1
  -1  -9   5 11.3968 2.64446   1
 -10   1   5 10.8368 2.48635   1
  -1  10   5 16.7263 3.05399   3
   1   9   5 5.11461 2.40331   3
  10  -9   5 6.78723 2.14850   2
  -9  -1   5 10.7696 2.88386   1
   9   1   5 7.30785 2.79978   3
   0  10  -5 0.41911 2.16541   3
   0  10  -5 0.27706 1.85977   5
  10 -10  -5-1.39384 2.18798   5
   0 -10  -5-0.98434 3.04649   5
 -10  10  -5 5.52273 2.65445   4
   0  10  -5-0.60488 1.94718   4
  10   0  -5-0.96976 1.80468   1
 -10  10  -5 1.56560 2.23741   2
   0  10  -5 1.88101 1.96371   1
  10   0  -5 2.44464 1.54155   2
 -10  10  -5-0.09672 1.32115   1
   0  10  -5 3.80730 2.98019   2
   0 -10  -5-0.04684 2.82334   4
  10   0  -5 0.86924 0.55513   3
 -10  10  -5 1.48043 2.24445   3
  10   0  -4 0.90505 0.67330   3
   0  10  -4 7.43877 2.39122   3
 -10  10  -4 0.12098 2.02167   5
   0  10  -4 3.68919 1.69661   5
  10 -10  -4 0.87159 1.91962   5
   0 -10  -4 2.29068 2.71785   5
   0 -10  -4-1.10429 2.13277   3
 -10  10  -4 0.48841 1.63885   4
   0  10  -4-1.21899 2.00867   4
 -10  10  -4 0.27257 1.63684   2
 -10  10  -4 1.26204 0.86570   1
  10   0  -4 1.97901 1.74521   1
  10   0  -4 2.36261 1.25861   2
   0  10  -4 1.26874 1.96449   1
   0 -10  -4 2.65328 2.08185   4
  10 -10  -4 1.07088 0.92304   4
   0  10  -4 1.35699 1.83907   2
 -10  10  -4 2.86314 1.95794   3
  10   0  -3 59.6261 2.54753   3
   0  10  -3 54.2931 4.47476   3
   0  10  -3 45.3764 3.76201   5
 -10  10  -3 56.0014 4.74264   5
  10 -10  -3 41.9482 4.07713   5
   0 -10  -3 62.9981 5.33874   5
   0 -10  -3 54.8590 4.63746   3
 -10  10  -3 48.9816 4.05490   4
  10   0  -3 65.4208 4.30106   1
 -10  10  -3 57.7487 3.99520   2
   0  10  -3 53.3551 4.23676   1
   0  10  -3 55.2928 4.43367   4
  10   0  -3 58.9154 3.37766   2
  10 -10  -3 65.6850 3.20565   4
   0 -10  -3 43.6473 4.64526   4
   0  10  -3 38.1475 4.30691   2
 -10  10  -3 61.5495 4.25027   3
   0  10  -2 14.6113 2.74854   3
  10   0  -2 11.5656 1.47192   3
 -10  10  -2 18.1123 2.81106   5
   0  10  -2 14.3422 2.36201   5
  10 -10  -2 19.1389 2.74846   5
   0 -10  -2 15.1778 2.58859   2
   0 -10  -2 15.7120 2.80958   5
  10 -10  -2 16.7907 1.12765   3
   0 -10  -2 12.9657 2.55695   3
 -10  10  -2 14.1895 2.20406   4
 -10  10  -2 16.5655 2.09341   2
  10   0  -2 10.4217 0.74126   4
   0  10  -2 10.2113 2.30061   4
  10   0  -2 20.0901 2.39272   1
   0  10  -2 17.2626 2.48918   1
  10 -10  -2 19.4544 2.09780   4
   0 -10  -2 19.4380 2.94286   4
   0  10  -2 21.4704 2.85303   2
  10   0  -2 16.6827 2.05746   2
 -10  10  -2 19.8318 2.37199   3
  10   0  -1 11.9908 1.61476   3
   0  10  -1 9.93744 2.26284   3
 -10  10  -1 8.28506 2.20435   5
   0  10  -1 12.9863 2.22746   5
  10 -10  -1 9.04066 1.22858   3
  10 -10  -1 8.00483 2.19573   5
   0 -10  -1 15.1428 2.74941   5
   0 -10  -1 6.55427 1.99142   3
   0 -10  -1 9.41291 2.07759   2
  10   0  -1 9.37276 1.10132   4
 -10  10  -1 11.5621 1.92548   4
 -10  10  -1 10.2250 1.38583   2
  10   0  -1 12.9378 1.30779   4
   0  10  -1 9.55365 2.31524   4
  10 -10  -1 10.9969 1.67372   4
   0 -10  -1 13.8263 2.63379   4
   0  10  -1 17.7620 2.62640   2
  10   0  -1 9.93999 1.56595   3
  10   0  -1 14.9103 2.08754   1
   0  10  -1 14.3915 2.10967   1
  10   0  -1 9.34787 1.54188   2
 -10  10  -1 10.5279 1.64385   3
 -10  10   0 6.67781 1.22113   3
   0  10   0 6.04518 1.91819   2
  10   0   0 7.57698 1.51207   2
  10   0   0 6.49130 1.01876   5
   0  10   0 8.75709 1.98955   3
  10 -10   0 7.77207 1.26774   3
 -10  10   0 9.31647 1.99800   5
   0  10   0 7.20616 2.08586   5
  10   0   0 7.61690 1.43124   3
  10 -10   0 5.95404 2.01269   5
  10   0   0 6.45668 1.11909   5
   0 -10   0 7.53478 2.21850   5
   0 -10   0 8.17762 2.10413   3
   0 -10   0 3.68799 1.56448   2
   0  10   0 12.9206 2.24954   1
  10   0   0 10.7177 1.90293   2
 -10  10   0 9.00646 0.80960   2
 -10  10   0 9.60303 1.72158   4
  10   0   0 6.32205 1.23905   4
  10   0   0 6.02131 1.58424   1
   0  10   0 5.55106 1.82142   4
  10 -10   0 6.71315 1.49671   4
  10   0   0 6.70375 1.32693   4
   0 -10   0 3.63961 1.84151   4
   0  10   0 3.10486 1.43151   1
  10   0   0 4.60408 1.37584   1
  10   0   0 5.51418 1.32303   3
  10 -10   1 12.2014 1.37245   2
  10   0   1 11.4857 1.82151   2
   0 -10   1 13.4437 2.21845   2
  10   0   1 12.5558 1.71735   5
   0 -10   1 16.4769 2.34535   1
  10 -10   1 15.5559 1.94292   3
 -10  10   1 7.57683 2.13807   5
   0  10   1 10.6063 2.22578   3
   0  10   1 19.7183 2.86899   5
  10   0   1 13.5297 2.00529   3
  10 -10   1 9.61652 2.32743   5
   0 -10   1 14.4467 2.46755   5
  10   0   1 10.0501 1.70758   5
  10   0   1 4.56245 1.67778   1
   0  10   1 13.0277 2.21281   1
   0 -10   1 5.20344 1.97595   3
 -10   0   1 16.2667 2.06845   2
  10   0   1 9.81534 1.60116   4
  10   0   1 13.2275 2.17424   2
   0  10   1 13.5089 2.17160   1
 -10  10   1 10.9279 1.61995   4
  10 -10   1 18.6199 2.23831   4
   0  10   1 9.84061 2.15303   4
 -10   0   1 9.45125 1.98543   1
  10   0   1 10.7550 2.01352   4
  10   0   1 7.64386 1.78052   1
   0 -10   1 11.8662 2.67712   4
  10   0   1 14.1759 1.98597   3
 -10  10   1 13.5127 1.34060   3
   0  10   1 14.2072 2.40943   2
   0  10   2 16.7565 2.67814   2
   0 -10   2 16.0271 2.49723   2
  10   0   2 11.4318 2.13888   2
  10 -10   2 11.1477 1.98454   3
  10   0   2 13.8967 1.97756   5
   0  10   2 16.3066 2.63558   3
  10 -10   2 17.4163 2.79866   5
 -10  10   2 11.7047 2.27660   5
   0 -10   2 19.5764 2.92286   3
   0  10   2 15.8574 2.97686   5
 -10   0   2 12.9434 1.98707   2
   0 -10   2 13.2808 2.39699   5
  10   0   2 10.6164 2.10185   3
  10   0   2 11.1011 1.96835   5
  10   0   2 14.9205 2.15806   4
   0 -10   2 12.5815 2.20960   1
  10   0   2 16.7793 2.44866   2
 -10  10   2 12.1989 1.59674   4
   0  10   2 13.3806 2.19786   1
   0  10   2 18.3610 2.50531   1
  10   0   2 12.8082 2.19764   1
  10 -10   2 11.7854 2.15876   4
   0  10   2 19.3167 2.86050   4
  10   0   2 19.0252 2.35855   1
   0 -10   2 11.3961 2.55698   4
  10   0   2 13.6367 2.27586   4
 -10   0   2 17.0947 2.29290   1
  10   0   2 17.2651 2.38352   3
  10 -10   2 16.4748 1.89747   2
 -10  10   2 16.3980 1.02397   3
  10   0   3 54.6235 3.99946   1
   0  10   3 56.2479 4.44847   2
   0 -10   3 48.1962 4.25552   2
  10 -10   3 48.7886 3.80669   3
   0 -10   3 52.7652 4.23311   1
  10   0   3 61.1576 4.22799   5
  10   0   3 54.1486 4.13529   2
   0  10   3 58.8675 4.69462   3
 -10  10   3 53.3174 4.46953   5
   0 -10   3 57.6046 4.67229   3
  10 -10   3 57.7936 4.91342   5
   0  10   3 44.7951 4.70399   5
 -10   0   3 61.9813 3.61625   2
   0 -10   3 40.6371 4.18428   5
  10   0   3 47.3465 4.13215   3
 -10   0   3 53.0019 3.96406   1
  10   0   3 67.2028 4.57411   5
 -10   0   3 52.6766 2.60692   3
  10   0   3 60.2938 4.19103   4
  10   0   3 49.9414 4.23545   2
 -10  10   3 49.4475 2.78468   4
  10 -10   3 39.3588 4.21159   4
   0  10   3 58.2882 4.35158   1
   0  10   3 54.1923 4.59255   4
   0 -10   3 46.1438 4.28037   4
  10   0   3 56.2329 4.27641   1
  10   0   3 52.1752 4.38551   4
   0  10   3 46.9519 4.17285   1
  10 -10   3 51.9027 3.56875   2
  10   0   3 55.4113 4.19077   3
  10 -10   4 3.37709 1.69304   2
   0  10   4 1.34524 1.69212   1
  10   0   4 1.77684 1.95561   1
  10 -10   4 1.52583 1.67802   3
  10   0   4-0.57406 1.74132   5
   0  10   4 0.69376 2.11007   2
 -10  10   4 0.27416 1.81564   5
  10 -10   4 0.17592 1.85550   5
   0  10   4-0.03784 2.09024   3
   0 -10   4 1.61574 1.80191   3
   0  10   4 5.57249 2.88465   5
   0 -10   4 0.33116 1.81436   5
  10   0   4 1.38710 1.78625   2
 -10   0   4 1.85798 1.38005   2
  10   0   4 5.83367 2.33139   5
  10   0   4 1.59806 2.07861   3
   0 -10   4 2.53223 1.74721   1
  10   0   4 3.19239 1.85521   1
 -10   0   4 3.31623 0.91564   3
  10   0   4 4.62144 2.22067   4
   0  10   4 3.49187 2.14020   2
 -10  10   4 2.95024 0.98314   4
  10 -10   4 1.46713 1.90709   4
  10   0   4 0.52141 2.02142   2
   0  10   4 1.45437 1.79567   4
   0 -10   4 2.24239 2.18822   4
  10   0   4 0.07732 2.08934   4
 -10   0   4 3.67090 1.94295   1
   0 -10   4 0.46300 1.75410   2
  10 -10   4 1.46448 0.96358   1
   0  10   4 2.42091 2.09651   1
 -10  10   4 1.11908 0.33216   1
  10   0   4 0.50346 1.65128   3
  10   0   5 0.95947 2.61790   3
   0 -10   5-1.02672 2.07516   1
   0  10   5-0.88479 2.39254   1
  10   0   5 1.52001 2.15431   1
 -10   0   5-0.28589 2.00954   1
   0  10   5-1.00224 2.04973   2
  10 -10   5 9.05497 4.03857   5
 -10  10   5 1.11629 2.12229   5
   0 -10   5-1.59378 2.41510   3
   0  10   5 3.72988 2.72790   3
   0 -10   5-0.73577 2.07968   5
   0  10   5 0.24981 2.71353   5
   0  10   5-1.68596 2.18578   1
 -10   0   5-0.51537 1.51132   2
  10   0   5 0.60968 2.48795   5
  10   0   5-1.50993 2.58592   2
  10   0   5 0.81195 2.67630   5
  10   0   5 2.25439 2.53028   3
 -10   0   5-0.26784 0.55182   3
  10 -10   5 4.68492 2.71717   5
 -10  10   5-0.17635 0.69211   4
 -10  10   5-0.68444 0.97732   1
  10   0   5-1.17113 2.30520   4
  10 -10   5 1.32183 2.06980   3
   0  10   5-0.30478 2.31149   2
 -10  10   5 0.08833 0.73681   4
   0 -10   5-0.46106 2.25458   2
  10 -10   5-0.05579 1.23424   1
  10 -10   5 0.71069 2.03574   4
  10   0   5 2.36762 2.45557   1
  10   0   5-0.16909 2.39174   2
   0 -10   5-1.20620 2.46920   4
   0  10   5-1.38624 2.64923   4
  10   0   5-0.74751 2.25484   4
   0  10   5-1.24590 2.39514   3
  10 -10   5-0.63588 2.09326   2
   6   5  -5 52.5375 4.34977   3
   5   6  -5 67.7560 4.90577   3
  -5  11  -5 49.8688 4.13684   1
  -6  11  -5 52.4050 4.98277   5
  -5  11  -5 64.6889 5.45252   5
   6 -11  -5 70.5625 6.02870   5
   5 -11  -5 50.4742 5.31450   5
   6   5  -5 61.4405 5.09498   1
   5   6  -5 68.1775 5.32720   1
  -5  -6  -5 60.1019 5.59630   5
  -6  -5  -5 77.9013 6.21402   5
  -6  11  -5 53.1123 4.76593   4
  -5  11  -5 61.4643 5.10500   4
   6   5  -5 57.3853 3.67816   4
   5   6  -5 47.3398 3.72467   4
  -6  11  -5 33.3572 4.38899   2
  -5  11  -5 61.9771 5.07468   2
   6   5  -5 53.8698 4.53337   2
   5   6  -5 57.8544 4.78992   2
   5 -11  -5 68.0976 5.15982   4
   6 -11  -5 67.2608 4.89639   4
  11  -6  -5 63.0352 3.74412   1
  11  -5  -5 53.9053 3.87239   1
  -6  11  -5 58.1559 4.99186   3
  -6  11  -5 57.3642 4.34479   1
  -5  11  -5 62.7751 5.14403   3
  -6  11  -4 11.0099 2.36325   3
  -5  11  -4 4.56617 2.26419   3
   6   5  -4 11.6736 2.12320   3
   5   6  -4 13.0952 2.38055   3
  11  -6  -4 7.72566 1.45176   1
  -6  11  -4 16.0823 3.03099   5
  -5  11  -4 9.60123 2.63922   5
  -6  11  -4 9.23936 1.89051   1
  11  -6  -4 9.21140 1.17932   5
   6 -11  -4 10.5999 2.74152   5
   5 -11  -4 5.34157 2.50642   5
  -5  -6  -4 7.78266 2.37090   5
  -6  -5  -4 5.59808 2.50261   5
   5 -11  -4 10.7811 2.32286   3
   6 -11  -4 7.95834 1.81546   3
  -5  11  -4 6.84082 1.78835   1
   6   5  -4 18.6353 2.91399   1
   6   5  -4 12.7566 1.90895   4
  -6  11  -4 4.60849 2.17734   4
  -5  11  -4 7.16813 2.40966   4
   5   6  -4 9.89950 1.89871   4
  -6  11  -4 10.5942 2.44823   2
  -5  11  -4 4.97022 2.15838   2
   5 -11  -4 11.2910 2.56552   4
   6 -11  -4 9.19397 2.23094   4
  -5  -6  -4 7.81246 2.47951   4
  -6  -5  -4 12.3462 2.87448   4
   6   5  -4 14.8369 2.46732   2
   5   6  -4 6.00572 2.04086   2
   5   6  -4 10.8079 2.38744   1
  11  -5  -4 12.3448 1.83143   1
  -6  11  -3 48.0334 4.17874   3
  -5  11  -3 47.4239 4.06533   3
  11  -5  -3 53.8208 2.82430   1
   6   5  -3 42.2507 3.52357   3
   5   6  -3 43.3488 3.75027   3
  -6  11  -3 59.8278 3.38660   1
   5   6  -3 50.4797 2.20370   5
  -6  11  -3 40.2594 4.26963   5
  -5  11  -3 47.3011 4.26091   5
  -5  11  -3 55.6425 3.52283   1
   6 -11  -3 37.9264 4.17743   5
   5 -11  -3 46.5551 4.42786   5
  11  -6  -3 44.8427 2.69599   5
   5 -11  -3 49.3938 3.85526   3
   6 -11  -3 52.8965 3.69728   3
  -5  -6  -3 49.9680 4.42194   5
  -6  -5  -3 54.8792 4.39416   5
  -5  -6  -3 56.0512 4.67028   3
  11  -5  -3 43.2031 1.58908   5
  -6  11  -3 59.4518 4.45856   4
  -5  11  -3 52.1952 4.33105   4
   6   5  -3 25.1295 2.98648   4
   5   6  -3 50.0921 3.57419   4
   6   5  -3 48.0907 3.99234   1
   5   6  -3 47.7161 4.01485   1
  -6  11  -3 46.9445 3.77760   2
  -5  11  -3 54.0066 4.08486   2
   6 -11  -3 50.5843 4.07148   4
   5 -11  -3 49.3225 4.22249   4
  -5  -6  -3 46.8700 4.34257   4
   5   6  -3 49.0439 3.92869   2
   6   5  -3 53.0317 4.01244   2
  -6  -5  -3 56.5422 4.63689   4
  11  -6  -3 54.8017 2.58860   1
  -6  11  -2 20.1269 2.54222   3
   6   5  -2 13.0787 2.13446   3
  -5  11  -2 13.9983 2.23498   3
  11  -5  -2 16.0483 1.43368   1
   6   5  -2 17.4010 1.18938   5
  -6  11  -2 22.2657 2.94113   5
  -5  11  -2 14.9061 2.47706   5
   5   6  -2 15.5990 1.59080   5
  -6  11  -2 15.5780 1.68574   1
  11  -6  -2 14.4016 1.70534   5
  11  -5  -2 14.6703 1.45591   5
   6 -11  -2 16.9035 2.77899   5
   6 -11  -2 14.2541 2.02883   3
   5 -11  -2 18.9779 2.39656   3
   5 -11  -2 14.9588 2.07085   2
   6 -11  -2 16.3966 1.88494   2
   5 -11  -2 8.78625 2.53870   5
  -5  11  -2 17.4747 1.90321   1
  -6  -5  -2 13.8109 2.24606   5
   5   6  -2 11.3646 2.01380   3
  11  -5  -2 12.4895 1.27166   5
  -5  -6  -2 10.3262 2.18694   5
  -5  -6  -2 14.7285 2.60417   3
  -6  -5  -2 8.32202 2.10081   3
  -5  -6  -2 15.7414 2.53911   2
  11  -6  -2 14.4123 1.10107   1
  -5  11  -2 14.3684 2.26322   4
  -6  11  -2 13.4267 2.15699   4
   5   6  -2 18.7417 2.32504   4
   6   5  -2 15.6400 2.03734   4
  -6  11  -2 11.6523 2.02426   2
   6 -11  -2 14.6164 2.36778   4
   5 -11  -2 14.1396 2.57819   4
  -5  11  -2 13.2505 2.06829   2
  -5  -6  -2 13.8992 2.62217   4
   6   5  -2 20.1255 2.68427   1
   5   6  -2 16.5987 2.41416   1
  -6  -5  -2 12.3585 2.28747   4
   5   6  -2 17.1863 2.44215   2
   6   5  -2 20.9006 2.58248   2
  11  -6  -2 18.9004 1.13503   1
   6   5  -1 46.6773 3.61880   1
   5   6  -1 56.1772 3.98489   1
  -6  11  -1 49.0003 3.63400   3
  -5  11  -1 52.8467 3.92342   3
   5   6  -1 59.5570 3.99805   3
   6   5  -1 54.5081 3.83172   3
  -6  11  -1 56.4118 4.42712   5
  -5  11  -1 44.2904 3.94402   5
   5   6  -1 50.3974 2.92140   5
   6   5  -1 51.6779 2.68559   5
   5 -11  -1 47.5647 3.27108   2
   6 -11  -1 51.5287 3.15741   2
  11  -5  -1 44.3967 2.61349   5
  11  -6  -1 60.0659 3.37317   5
   6 -11  -1 52.9697 3.59227   3
   5 -11  -1 50.2353 3.77415   3
   6 -11  -1 50.5064 4.39852   5
   5 -11  -1 39.6310 3.93808   5
  -5  -6  -1 51.7647 4.12158   2
  11  -5  -1 51.2448 2.16310   1
  -6  -5  -1 51.9276 4.02684   2
  -5  -6  -1 44.0085 3.92301   3
  -5  -6  -1 40.7274 3.35855   5
  -6  -5  -1 51.7619 4.05296   3
  -6  11  -1 53.3884 2.67853   1
  -6  -5  -1 42.7345 3.24160   5
  11  -5  -1 43.8934 2.57108   5
  -6  11  -1 48.7094 2.53925   1
  11  -5  -1 51.0510 2.29422   1
  -5  11  -1 53.1310 2.93220   1
  -6  11  -1 55.7326 3.96773   4
  -5  11  -1 29.9774 3.63005   4
   5   6  -1 54.0785 3.67598   4
   6   5  -1 48.6232 3.38533   4
  11  -6  -1 45.3717 1.40937   4
   6 -11  -1 43.0724 3.55340   4
   5 -11  -1 57.8757 4.23563   4
  -6  11  -1 50.4522 3.42834   2
  11  -6  -1 48.7121 1.55670   4
  -5  11  -1 38.9087 3.33201   2
  -5  -6  -1 65.9077 4.55283   4
  -6  -5  -1 50.0020 3.96876   4
   5   6  -1 40.2291 3.51480   2
   6   5  -1 53.1760 3.79390   2
  11  -6  -1 50.6674 1.19923   1
  11  -5   0 45.4778 1.73832   2
  11  -5   0 53.2348 2.07736   3
  -6  11   0 51.5679 3.61226   3
  -5  11   0 51.3875 3.68743   3
  11  -6   0 45.9969 1.85387   3
 -11   6   0 52.9747 3.26068   5
   6 -11   0 39.0139 2.81322   2
   5 -11   0 46.3950 3.21254   2
   5   6   0 50.4730 3.87361   3
   6   5   0 51.9619 3.76673   3
  -6  11   0 39.4529 3.70306   5
  -5  11   0 38.0559 3.77074   5
  11  -6   0 47.3047 1.02578   1
  11  -5   0 51.2293 3.06779   5
  11  -6   0 53.9911 3.32115   5
   6 -11   0 51.1135 3.52724   3
   5 -11   0 55.6629 3.78227   3
   5   6   0 41.1751 3.65060   1
   6   5   0 46.5511 3.84230   1
   5   6   0 43.1651 3.13845   5
   6   5   0 50.0016 3.18659   5
  -5  -6   0 50.1847 3.96662   2
  11  -5   0 48.0171 2.05447   3
   6 -11   0 53.6793 4.31318   5
   5 -11   0 36.8015 3.75731   5
  -6  -5   0 75.5497 4.67019   2
  11  -6   0 49.8748 1.99793   3
  -5  -6   0 53.1514 4.09183   3
  -6  -5   0 51.7371 3.91933   3
  -5  -6   0 50.9175 3.40566   5
  -6  -5   0 50.4486 3.04588   5
  11  -5   0 45.2158 2.90101   5
  -5  11   0 46.1978 2.71041   1
  -6  11   0 52.3184 2.45681   1
  -6  11   0 53.1994 3.92486   4
  11  -5   0 49.5185 2.31249   4
  -5  11   0 41.4240 3.55764   4
  11  -6   0 47.8349 2.41765   4
  -6  11   0 56.1692 2.62173   1
   5   6   0 45.2019 3.57350   4
  11  -5   0 51.6166 2.09923   1
   6   5   0 50.1002 3.62942   4
  11  -5   0 51.6198 2.28566   1
   6 -11   0 44.7332 3.66509   4
  11  -5   0 45.8072 1.77433   2
   5 -11   0 47.6530 3.86414   4
  -5  -6   0 39.7715 3.64904   4
  -5  11   0 53.9857 2.86194   1
  11  -5   0 49.9438 2.59244   4
  -6  -5   0 52.0875 3.95908   4
  -6  11   0 48.9945 3.22596   2
  11  -6   0 50.9687 2.67563   4
  -5  11   0 50.9078 3.41069   2
   5   6   0 44.5076 3.65946   2
   6   5   0 54.0991 3.88615   2
  11  -5   1 56.2630 2.89599   3
   5   6   1 38.8059 3.50289   2
  11  -6   1 45.6561 1.60404   1
   6   5   1 48.6567 3.78250   2
  -5  -6   1 46.2883 3.71647   1
  11  -6   1 50.9471 2.66885   3
  -6  -5   1 41.5075 3.61296   1
   6 -11   1 48.9971 3.27832   2
  -6  11   1 49.4025 3.46530   3
   5 -11   1 48.1827 3.41714   2
  -5  11   1 48.6261 3.56629   3
  11  -5   1 55.3236 2.39417   1
  -5  11   1 46.3776 2.72579   1
 -11   6   1 54.6433 3.10318   5
  11  -5   1 49.7991 2.46063   2
   5   6   1 49.8594 3.91391   3
   6   5   1 49.3129 3.89338   3
  11  -6   1 48.3467 2.24812   2
  -5  -6   1 52.1976 3.91680   2
  11  -5   1 48.3443 3.31723   5
   6 -11   1 48.0549 3.66834   3
  -6  11   1 40.4428 3.84943   5
  11  -6   1 48.3724 3.44565   5
  -5  11   1 43.6156 4.03207   5
   5 -11   1 41.0814 3.43002   3
  -6  -5   1 44.2830 3.65982   2
   6 -11   1 47.7993 4.10074   5
   5   6   1 48.7104 3.65007   5
   5 -11   1 44.2047 3.94653   5
   6   5   1 45.8959 3.43175   5
  -5  -6   1 52.1441 3.92538   3
  -6  -5   1 43.2825 3.58180   3
  11  -5   1 60.7366 3.13634   3
  -5  -6   1 44.0818 2.91963   5
  11  -6   1 48.9023 2.82770   3
  -6  -5   1 49.8226 2.61449   5
  11  -5   1 47.5568 3.34407   5
  11  -6   1 45.8512 3.36237   5
   5   6   1 56.3123 4.13329   1
   6   5   1 46.3927 3.67169   1
   5   6   1 52.5612 3.92089   1
   6   5   1 50.9771 3.84518   1
  11  -5   1 51.5203 2.89104   4
  11  -6   1 46.5482 2.86030   4
  -6  11   1 46.6854 3.67401   4
  -5  11   1 53.7370 2.85337   1
  -5  11   1 50.4226 4.03147   4
   5 -11   1 42.0862 2.63448   1
  11  -5   1 46.7281 2.49306   2
   5   6   1 50.5700 3.87397   4
   6 -11   1 47.8710 3.91023   4
  -6  11   1 47.3811 2.35795   1
   6   5   1 52.4924 3.95168   4
   5 -11   1 52.6722 4.06370   4
  11  -6   1 51.7558 2.33394   2
  -5  -6   1 52.5463 4.03650   4
  -6  -5   1 55.3817 3.88838   4
  11  -5   1 49.4597 2.34748   1
  11  -5   1 45.7228 3.01969   4
  11  -6   1 45.3315 2.93878   4
  -6  11   1 52.6015 3.21145   2
  11  -6   1 51.0466 1.64544   1
  -5  11   1 48.0853 3.26918   2
  -6  11   1 42.1552 2.30916   1
  11  -5   2 17.7826 2.15486   3
   6 -11   2 13.4252 1.96149   2
  11  -6   2 14.5154 1.90230   3
   5 -11   2 13.9136 2.11816   2
  11  -6   2 15.1206 1.28874   1
   6   5   2 15.8050 2.47317   2
  -6  11   2 15.6661 2.07135   3
  -5  11   2 14.9168 2.09902   3
 -11   6   2 15.2121 1.63791   5
  -5  -6   2 21.0110 2.64818   2
   6 -11   2 17.7536 2.51425   3
  -6  -5   2 14.0669 2.26646   2
  11  -5   2 13.4854 2.20347   5
  11  -6   2 15.6550 2.34688   5
   5   6   2 14.7295 2.52071   2
   5   6   2 17.6121 2.61063   3
  -6  11   2 13.8906 2.44024   5
   6   5   2 18.0298 2.65165   3
  -5  11   2 17.1103 2.65608   5
  11  -5   2 15.2637 1.83727   2
   5 -11   2 11.5209 2.16518   3
   5   6   2 12.4214 2.37979   5
   6   5   2 14.7068 2.38124   5
   6 -11   2 13.2196 2.62624   5
  -6  -5   2 14.3454 2.32809   3
   5 -11   2 9.27678 2.39972   5
  11  -6   2 19.4367 1.95388   2
  -6  11   2 14.0812 1.61748   1
  -5  -6   2 16.7223 1.73569   5
  -5  -6   2 10.8162 2.22811   3
  11  -5   2 10.2213 1.79114   3
  -6  -5   2 13.8546 1.18796   5
  11  -6   2 11.8253 1.78935   3
  11  -5   2 19.2635 2.55865   5
  -5  -6   2 15.4714 2.36170   1
  11  -6   2 15.4477 2.28428   5
  -6  -5   2 21.6510 2.80214   1
  -5  11   2 17.1793 1.87094   1
   6   5   2 18.5298 2.76359   2
   5 -11   2 14.4058 1.73494   1
   6 -11   2 14.0895 1.56288   1
  11  -6   2 16.1911 1.32174   1
  11  -5   2 15.9962 2.00567   4
   5   6   2 13.8782 2.23283   1
   6   5   2 14.5031 2.23205   1
  11  -6   2 12.0037 1.74886   4
  11  -5   2 17.2354 1.56991   1
  -5  11   2 14.8835 2.34585   4
 -11   5   2 12.2734 1.45166   1
   6 -11   2 20.8347 2.70583   4
  -6  11   2 11.4990 2.12953   4
  11  -5   2 15.2911 1.74547   2
   5 -11   2 13.7868 2.46886   4
   5   6   2 15.6437 2.51297   4
   6   5   2 19.8736 2.77370   4
  11  -6   2 17.7479 1.83690   2
  -5  11   2 15.8351 1.78216   1
  -5  -6   2 19.4089 2.63599   4
   5   6   2 17.2234 2.48167   1
  -6  -5   2 14.0150 2.09505   4
   6   5   2 19.7584 2.55693   1
  -6  11   2 13.6499 1.58693   1
  11  -5   2 17.8322 2.25175   4
  11  -6   2 16.0464 2.07518   4
  -6  11   2 16.8807 1.91462   2
  11  -5   2 13.8169 1.53509   1
  -5  11   2 13.0177 1.88019   2
  11  -5   3 56.0860 3.75224   3
   5 -11   3 52.7830 4.04181   2
  11  -6   3 58.5529 3.82007   3
   5   6   3 49.6276 4.08555   1
   6   5   3 44.4846 3.82322   1
  -5  -6   3 51.1364 4.14112   1
  -6  -5   3 52.8862 4.12132   1
   5   6   3 42.6226 4.14173   2
   6   5   3 41.4486 3.99392   2
  11  -6   3 47.1991 2.67275   1
  -5  -6   3 47.6962 3.95004   2
  -6  11   3 50.2206 3.46358   3
  -5  11   3 44.5720 3.48825   3
  -6  -5   3 43.9874 3.78088   2
 -11   6   3 49.0192 2.55798   5
   6 -11   3 61.3585 4.45873   3
  11  -5   3 49.2735 4.20319   5
  11  -6   3 47.5647 3.99645   5
  -6  11   3 51.8086 4.59548   5
   5   6   3 42.7342 4.28882   3
  -5  11   3 57.5198 4.90511   5
   6   5   3 55.7340 4.45483   3
  11  -5   3 45.7804 2.88166   1
   6 -11   3 51.0685 4.59601   5
   5 -11   3 58.8361 4.86511   5
  -5  -6   3 36.3445 3.63546   3
  -6  -5   3 51.0354 4.06906   3
   5   6   3 46.2411 4.30837   5
   6   5   3 50.1463 4.33749   5
 -11   5   3 48.1583 2.82271   1
  11  -6   3 47.5845 2.61242   1
  11  -5   3 37.5772 3.16712   2
  -5  -6   3 52.0916 2.43756   5
  11  -6   3 46.1828 3.47649   2
 -11   6   3 47.4969 2.33359   1
  11  -5   3 46.0045 3.60802   3
   5 -11   3 52.5150 4.24503   3
  11  -5   3 50.0049 4.15858   5
  11  -6   3 47.6929 3.66597   3
  11  -6   3 59.6073 4.58151   5
  -5  11   3 41.3454 3.10246   2
   5   6   3 52.2158 4.43764   2
  -6  11   3 42.9581 2.92115   2
   6   5   3 46.4633 4.24873   2
  11  -5   3 54.3967 3.78592   4
  11  -6   3 42.4421 3.53432   4
   5   6   3 48.5777 4.04530   1
   6   5   3 41.3499 3.76416   1
  -6  11   3 54.3229 4.01140   4
  -5  11   3 48.0053 3.87111   4
   6 -11   3 48.4931 4.15971   4
   5 -11   3 55.2596 4.46062   4
  11  -5   3 47.0805 3.32361   2
   5   6   3 48.9670 4.33473   4
   6   5   3 34.2951 3.87318   4
  11  -6   3 41.3204 3.02717   2
  -5  -6   3 44.8484 3.71399   4
  -6  -5   3 42.0448 3.45017   4
  -6  11   3 43.4400 2.84326   1
  11  -5   3 54.2968 3.92823   4
  -5  11   3 45.2795 3.02896   1
  11  -6   3 42.8147 3.60857   4
   6 -11   3 38.8585 2.70858   1
  -5  11   3 46.7154 3.12138   1
   5 -11   3 54.0954 3.30917   1
  -6  11   3 37.5941 2.66046   1
  -6  11   3 49.8498 3.16531   2
  -5  11   3 51.8033 3.44730   2
   6 -11   3 57.4891 4.05473   2
  11  -5   3 50.1539 2.97321   1
  11  -5   4 7.00376 1.99154   3
  11  -6   4 11.7831 2.36757   3
   6 -11   4 6.20950 2.23061   2
  11  -5   4 8.50114 1.67926   1
   5 -11   4 10.9768 2.54648   2
  -5  11   4 7.78211 1.74948   2
 -11   6   4 8.27487 1.22727   5
  11  -6   4 15.8633 1.95707   1
  -5  11   4 8.96958 1.82779   1
  -5  11   4 8.57759 1.81267   1
  11  -5   4 8.96505 2.45910   5
  -6  11   4 7.70162 1.82646   3
   6 -11   4 4.85245 2.15027   3
  11  -6   4 13.0542 2.65351   5
  -6  11   4 8.63519 1.64149   1
   5 -11   4 9.59684 2.45479   3
  -5  11   4 9.66664 2.12954   3
  -5  -6   4 9.05712 2.44663   2
   5   6   4 11.2083 2.40265   1
  -6  -5   4 10.7109 2.42126   2
   6 -11   4 9.33122 2.50910   5
  -6  11   4 6.36417 2.59112   5
   5 -11   4 6.36869 2.24783   5
  -5  11   4 8.95989 2.84522   5
   5   6   4 6.84815 2.10057   2
   6   5   4 7.36124 2.47062   1
   6   5   4 9.29902 2.26937   2
  -6  11   4 9.10350 1.66170   1
  -5  -6   4 8.90232 2.14090   3
   5   6   4 13.8211 3.10378   3
   5   6   4 6.03346 2.46315   5
  -6  -5   4 8.25782 2.03607   3
   6   5   4 5.14079 2.42088   3
   6   5   4 7.99920 2.60238   5
  11  -5   4 7.74701 1.65486   1
  -5  -6   4 11.7913 0.92482   5
  -5  -6   4 7.30831 2.33548   1
  -6  -5   4 10.2377 2.42475   1
  11  -5   4 8.43557 2.05531   2
  11  -5   4 7.08714 2.42994   5
  11  -6   4 8.91934 2.47120   5
  11  -5   4 5.84256 1.96766   3
  11  -6   4 11.2207 2.35998   3
  11  -6   4 6.54531 2.00340   2
  11  -6   4 7.79006 1.53280   1
   5   6   4 7.06409 2.21648   2
  -5  11   4 9.78561 1.84397   2
   6   5   4 7.98070 2.45981   2
  11  -5   4 5.21494 1.94044   4
  11  -6   4 11.7614 2.41782   4
  -6  11   4 6.53992 1.44679   2
   6 -11   4 12.2609 1.88917   1
  11  -5   4 15.3666 2.46758   2
  -6  11   4 5.69332 1.83564   4
   6 -11   4 9.39220 2.40107   4
  -5  11   4 6.40630 2.26108   4
   5 -11   4 8.92377 2.30947   4
 -11   6   4 10.4812 1.57700   1
   5   6   4 7.45050 2.54195   4
 -11   5   4 8.77705 1.72376   1
  -5  -6   4 3.91499 2.02444   4
   6   5   4 3.51774 2.44608   4
  -6  -5   4 11.7778 2.22080   4
   5 -11   4 5.60844 1.62709   1
  11  -6   4 10.0931 2.07970   2
  11  -5   4 9.43493 2.35098   4
  11  -6   4 10.0273 2.21884   4
   5   6   4 5.42769 2.11851   1
   6   5   4 10.5823 2.56658   1
   5   6   4 10.5493 2.55254   3
   6   5   4 13.2667 3.02478   3
  -6  11   4 13.0623 2.03934   2
  -5  11   5 48.3578 3.74903   1
  11  -5   5 43.5646 4.49699   3
  -6  11   5 56.9370 3.61027   2
  11  -6   5 56.4037 4.68019   3
  -5  11   5 52.5352 3.91338   2
  -5  -6   5 62.2698 5.12062   2
  -6  11   5 55.6258 3.71560   1
  -6  -5   5 64.5687 5.13120   2
  11  -5   5 54.8876 3.95275   1
   6 -11   5 58.5467 5.02634   3
   5 -11   5 65.7643 5.43639   3
   5   6   5 51.7338 4.95295   2
 -11   6   5 54.0183 2.18770   5
  -6  11   5 57.8260 4.07170   3
   6   5   5 54.2012 5.04841   2
  11  -5   5 60.4601 6.05098   5
  -5  11   5 51.0521 4.07986   3
  11  -6   5 54.3848 5.15914   5
  -5  -6   5 55.1498 4.56802   3
   5 -11   5 63.8734 5.48184   5
  -6  -5   5 60.4552 4.54538   3
  -6  11   5 46.3537 4.92342   5
  -5  11   5 53.9303 5.26622   5
   5   6   5 41.7380 5.05165   3
   6   5   5 66.6354 5.57428   3
   5   6   5 57.8442 5.62161   5
   6   5   5 52.7444 5.55480   5
   6 -11   5 53.1975 4.06215   1
  11  -5   5 44.0227 4.63437   2
  11  -5   5 71.1992 5.99561   5
  11  -5   5 47.0961 4.49818   3
  11  -6   5 63.5840 5.69925   5
  11  -6   5 61.9901 4.83776   3
   5 -11   5 58.9546 4.29994   1
 -11   6   5 59.1463 3.66055   1
   6   5   5 58.2555 5.23270   4
 -11   5   5 56.0038 3.80061   1
  11  -5   5 52.4182 3.93377   1
   5   6   5 37.2116 4.39460   2
   6   5   5 62.9351 5.39603   2
  -5  11   5 45.2678 3.56740   2
  11  -5   5 51.4201 4.74799   4
  11  -6   5 68.0554 5.30023   4
  -6  11   5 49.4982 3.35732   2
   5   6   5 53.5278 4.92424   1
   6   5   5 60.0074 5.17454   1
   6 -11   5 54.1863 5.00126   4
   5 -11   5 62.4139 5.46899   4
  -6  11   5 67.7003 4.60652   4
  -5  11   5 51.4923 4.34153   4
  -5  -6   5 53.6410 4.99705   1
  -6  -5   5 62.2129 5.11650   1
  11  -5   5 41.8865 4.14236   2
  -5  -6   5 74.9882 4.95857   4
   5   6   5 62.6806 5.53046   4
  -6  -5   5 60.3414 4.31051   4
  11  -6   5 46.2484 4.32309   2
  -5  11   5 55.0336 4.14124   1
   6   5   5 45.1405 5.23951   4
   6 -11   5 55.6745 5.18027   5
  11  -6   5 53.0913 3.77679   1
   5   6   5 52.7421 4.95532   1
   6   5   5 59.9656 5.03008   1
  -6  11   5 65.7250 4.14216   1
  11  -5   5 52.4332 4.76964   4
  11  -6   5 50.8596 4.80921   4
  -5  11   5 49.0724 3.91724   3
  -6  11   5 55.1353 3.82863   3
   5   6   5 46.1454 4.97639   3
   6   5   5 70.1164 5.69904   3
   6 -11   5 63.0926 5.06247   2
   5 -11   5 44.3180 4.94003   2
  -7  11  -5 10.0378 2.84317   3
  -4  11  -5 7.82019 2.87744   3
   7   4  -5 9.98668 2.26919   3
   4   7  -5 4.32467 2.09083   3
  -7  11  -5 5.87249 1.91237   1
  11  -4  -5 10.5491 2.09279   1
   7 -11  -5 9.04586 2.88528   5
   4 -11  -5 7.14274 3.13410   5
  -4  -7  -5 7.17533 3.12058   5
  -4  11  -5 5.90882 2.09180   1
  -7  -4  -5 14.5270 3.54347   5
   7   4  -5 11.8690 1.70381   4
 -11   7  -5 7.25920 2.58815   2
  -7  11  -5 12.5099 2.98968   4
  -4  11  -5 6.13058 2.51717   4
   4   7  -5 14.8489 2.43346   4
 -11   7  -5 7.53119 1.83436   1
  -4  11  -5 14.2519 3.29916   5
  -7  11  -5 4.96647 2.55488   2
   7   4  -5 5.58268 2.27285   1
   4   7  -5 5.49204 2.18081   1
  -4  11  -5 4.55536 2.24756   2
   7   4  -5 6.35359 2.34126   2
   4   7  -5 9.61131 2.60824   2
   4 -11  -5 9.32146 2.81794   4
   7 -11  -5 6.81593 2.15868   4
  -4  -7  -5 4.92154 3.05318   4
 -11   7  -5 13.8282 2.87579   3
  11  -7  -5 7.58848 1.66905   1
  -7  11  -5 8.03584 2.70864   5
  -4  11  -4 15.5654 3.06104   3
   7   4  -4 17.7489 2.37151   3
  11  -4  -4 18.8391 2.26771   1
   4   7  -4 16.4062 2.66551   3
  -7  11  -4 25.0056 3.59591   5
  -4  11  -4 18.2930 2.99983   5
  -4  11  -4 23.2111 2.71372   1
   4 -11  -4 21.0903 3.87177   5
  11  -7  -4 18.0090 2.17080   5
   7 -11  -4 16.1629 3.20272   5
  -4  -7  -4 15.8512 3.19584   5
   4 -11  -4 22.1493 2.87756   3
  -7  -4  -4 11.6737 2.77157   5
   7   4  -4 22.3510 3.04618   1
   4   7  -4 18.8194 2.91752   1
  -7  11  -4 17.6308 2.84717   4
  -4  11  -4 19.7705 3.17294   4
   7   4  -4 21.8390 2.11817   4
 -11   7  -4 14.3255 2.43126   2
   4   7  -4 19.9187 2.58958   4
  -7  11  -4 21.4001 3.08478   2
  -4  11  -4 21.3067 3.24434   2
  11  -7  -4 20.5178 1.75722   1
   7   4  -4 15.4764 2.53105   2
   4   7  -4 17.5028 2.95018   2
   4   7  -4 20.3899 1.80420   5
   4 -11  -4 20.5747 3.39547   4
   7 -11  -4 16.0928 2.65201   4
  -4  -7  -4 26.6688 3.75623   4
 -11   7  -4 23.1955 3.01401   3
  -7  11  -4 18.3593 2.27821   1
  -7  11  -4 22.7264 3.16460   3
  -4  11  -3 133.308 6.77328   3
   7   4  -3 132.788 5.61930   3
   4   7  -3 132.357 6.25457   3
   4   7  -3 120.156 4.31362   5
  -7  11  -3 121.793 6.71002   5
  -4  11  -3 138.684 6.87325   5
  11  -4  -3 137.295 4.84177   1
   7 -11  -3 124.165 7.00522   5
  -4  11  -3 125.957 5.50076   1
  11  -7  -3 135.125 5.11562   5
   4 -11  -3 114.838 6.98823   5
   4 -11  -3 123.513 6.03860   3
   7 -11  -3 144.375 5.44816   3
  -4  -7  -3 127.141 6.86157   5
  -4  -7  -3 128.973 6.91804   3
  -7  -4  -3 145.742 6.84226   5
 -11   7  -3 124.247 5.80231   4
 -11   7  -3 131.523 5.54549   2
  -7  11  -3 141.313 6.69971   4
  -4  11  -3 133.627 6.61551   4
   7   4  -3 148.113 5.12921   4
   4   7  -3 135.109 6.02128   4
   7   4  -3 116.312 6.00358   1
   4   7  -3 146.764 6.79694   1
  -7  11  -3 88.7041 5.26688   2
  11  -7  -3 123.999 2.84356   1
  -4  11  -3 128.408 6.29246   2
   7 -11  -3 130.124 5.98938   4
   4 -11  -3 117.905 6.25559   4
  -4  -7  -3 115.482 6.89426   4
   4   7  -3 136.411 6.63362   2
   7   4  -3 123.078 5.82368   2
  -7  -4  -3 134.859 6.89926   4
 -11   7  -3 146.181 6.15826   3
  -7  11  -3 118.508 6.12577   3
  -7  11  -3 115.325 4.41724   1
   4   7  -2 2.75170 1.38104   2
   7   4  -2 5.93663 1.63026   2
  -7  11  -2 2.49406 1.49024   3
  -4  11  -2 3.38456 1.57003   3
   4   7  -2 2.21218 1.50993   3
   7   4  -2 6.18346 1.54939   3
  -7  11  -2 1.74091 1.41292   5
  -4  11  -2 2.04918 1.48622   5
   4   7  -2 4.52939 1.11761   5
  11  -7  -2 4.74359 1.34833   5
   7 -11  -2 2.94729 1.77363   5
   4 -11  -2 1.63196 1.74795   5
  11  -4  -2 2.72708 0.41146   5
  -7  11  -2 3.85090 0.97942   1
   7   4  -2-0.02864 1.33860   1
   4   7  -2 8.71258 1.92605   1
   7 -11  -2 4.62167 1.29405   3
   4 -11  -2 2.86576 1.44109   3
  -4  -7  -2 2.76526 1.55922   5
   4 -11  -2 1.68925 1.30537   2
  -4  -7  -2 4.58078 1.82573   3
  -4  -7  -2 1.47997 1.42149   2
  -7  -4  -2 3.99795 1.54517   5
   7 -11  -2 4.35247 1.08644   2
  -7  -4  -2 3.46773 1.68551   3
 -11   7  -2 3.11508 1.18252   4
  -7  11  -2 4.22218 1.67557   4
  -4  11  -2 2.98847 1.50366   4
   4   7  -2 1.84945 1.30809   4
   7   4  -2 4.03406 1.14380   4
  11  -4  -2 2.70914 0.98668   1
   7 -11  -2 3.41772 1.45238   4
   4 -11  -2 6.09499 1.92851   4
  -7  11  -2 2.73247 1.29390   2
  -4  -7  -2 3.16233 1.75376   4
  -7  -4  -2 3.58795 1.75027   4
  -4  11  -2 3.38218 1.46338   2
  -4  11  -2 3.81557 1.26688   1
 -11   7  -2 2.68037 1.24643   3
   7   4  -1 46.1103 3.63405   1
  -7  11  -1 39.4389 3.36288   3
   4   7  -1 50.5941 3.84811   1
  -4  11  -1 25.5680 2.91615   3
   4   7  -1 47.5885 3.77083   3
 -11   7  -1 33.2502 3.01233   5
  -7  11  -1 42.0949 1.96589   1
   7   4  -1 35.7866 3.12144   3
  -7  11  -1 40.6427 3.75948   5
  -4  11  -1 30.3687 3.49241   5
   4   7  -1 42.3555 2.93508   5
   7   4  -1 41.5150 2.03936   5
   4 -11  -1 47.4975 3.37639   2
   7 -11  -1 35.2312 2.49499   2
  11  -4  -1 34.9642 2.06162   5
  11  -7  -1 34.5260 2.84195   5
   7 -11  -1 35.3249 2.81690   3
   7 -11  -1 31.5241 3.80374   5
   4 -11  -1 36.3319 3.33095   3
   4 -11  -1 45.4710 4.28633   5
  -4  -7  -1 41.2889 3.74061   2
  -4  -7  -1 39.3243 3.70639   3
  -4  -7  -1 43.3690 3.72146   5
  -7  -4  -1 32.1017 3.36383   2
  -7  -4  -1 46.1207 3.85558   3
  11  -4  -1 37.1956 2.13991   5
  -7  -4  -1 43.2947 3.15011   5
 -11   7  -1 43.6935 2.86024   4
  11  -4  -1 41.1198 2.50923   1
  -7  11  -1 39.6875 1.86267   1
  11  -4  -1 41.0122 2.33250   1
  -7  11  -1 33.1900 3.19544   4
  -4  11  -1 46.8227 3.85981   4
   4   7  -1 49.6325 3.74500   4
   7   4  -1 42.7541 2.98587   4
  -4  11  -1 33.6999 2.60852   1
  11  -7  -1 34.9990 1.67240   4
   7 -11  -1 41.8797 3.44348   4
  -7  11  -1 33.3546 2.73115   2
   4 -11  -1 39.0346 3.67769   4
  -4  -7  -1 36.9619 3.64022   4
  -4  11  -1 28.2681 2.83791   2
  -7  -4  -1 38.5922 3.37392   4
  11  -4  -1 39.1973 1.33481   2
  11  -7  -1 40.4957 1.86090   4
   4   7  -1 47.1022 3.85321   2
   7   4  -1 42.1081 3.33514   2
  11  -4   0 34.2659 1.91669   3
  11  -4   0 27.6304 1.73987   2
  -7  11   0 34.2884 2.93540   3
  -4  11   0 26.1919 2.80022   3
  11  -7   0 27.7672 1.50709   3
 -11   7   0 34.1573 2.88704   5
   7 -11   0 27.7513 2.22984   2
   4   7   0 26.1121 3.05004   3
   4 -11   0 34.0651 2.93563   2
   7   4   0 31.0752 2.91656   3
  -7  11   0 37.6732 3.60885   5
  -4  11   0 29.4510 3.41519   5
  11  -4   0 25.1248 2.12831   5
   4   7   0 24.2387 2.88131   1
   7 -11   0 25.5905 2.46744   3
   4   7   0 32.5401 2.90194   5
   7   4   0 27.9965 2.97207   1
  11  -7   0 19.5012 2.52468   5
  11  -4   0 28.1262 1.72375   3
  -4  -7   0 35.5887 3.35960   2
   4 -11   0 33.9386 3.12671   3
   7   4   0 26.1960 2.33318   5
   4 -11   0 29.3112 3.45819   5
  -7  -4   0 34.2074 3.35085   2
  -4  -7   0 33.6151 3.34606   3
  -7  11   0 27.5744 1.45238   1
  -4  -7   0 28.8209 2.93273   5
  11  -7   0 33.7489 1.74282   3
  -7  -4   0 30.7288 3.04005   3
  11  -4   0 31.3627 2.34020   5
   7 -11   0 27.4607 3.34426   5
  -7  -4   0 26.9614 2.18950   5
   7   4   0 35.8205 3.30489   1
  -4  11   0 34.6154 2.58688   1
  11  -4   0 31.8287 1.89901   4
  -7  11   0 35.8421 3.19539   4
  11  -4   0 28.2265 2.09966   1
  -4  11   0 33.2014 3.30201   4
  11  -4   0 31.7673 1.85460   2
  11  -7   0 30.3665 2.08328   4
   4   7   0 25.5968 2.89102   4
  -7  11   0 27.4389 1.40315   1
   7   4   0 26.9107 2.69395   4
   7 -11   0 27.0723 2.95271   4
   4 -11   0 27.9142 3.05051   4
  11  -4   0 29.9022 2.03185   4
  -7  11   0 29.2831 2.45118   2
  -4  -7   0 27.3365 3.03445   4
  -7  -4   0 28.2691 2.94383   4
  11  -4   0 28.4144 1.95424   1
  -4  11   0 25.2661 2.68066   2
  -4  11   0 32.3053 2.50772   1
   4   7   0 26.1512 2.98719   2
   7   4   0 25.1181 2.75061   2
   4   7   1 49.2409 3.90953   2
  -4  -7   1 46.4448 3.70723   1
   7   4   1 48.3025 3.75773   2
  -7  11   1 35.7221 2.95799   3
   7 -11   1 38.1329 2.78476   2
  11  -7   1 38.3169 2.38261   3
   4 -11   1 37.5231 3.17512   2
  -4  11   1 42.1451 3.46939   3
  -7  -4   1 33.1677 3.28751   1
  11  -4   1 32.9079 2.19435   2
 -11   7   1 40.3364 2.91759   5
   4   7   1 39.9753 3.60476   3
  -4  -7   1 34.2227 3.31642   2
  -4  11   1 39.6922 2.82118   1
   7 -11   1 28.8409 2.83978   3
  11  -4   1 45.5684 3.12498   5
  -7  11   1 43.4600 3.99577   5
   7   4   1 43.6139 3.58479   3
  11  -4   1 38.8075 2.34093   1
  -4  11   1 39.3403 3.85987   5
  11  -7   1 42.8600 3.33024   5
   4 -11   1 39.4297 3.49965   3
  -7  -4   1 32.6005 3.36295   2
   4   7   1 37.6612 3.48112   5
   7 -11   1 29.4541 3.71162   5
  11  -7   1 37.5412 1.92861   2
   4 -11   1 42.0708 3.91294   5
   7   4   1 34.2700 2.88034   5
  -4  -7   1 36.8837 3.54897   3
  11  -4   1 39.1804 2.64865   3
  -7  -4   1 34.7357 3.21308   3
  -4  -7   1 36.3304 3.12714   5
  11  -4   1 40.4953 2.97649   5
   4 -11   1 40.0201 2.69932   1
  11  -7   1 41.6663 2.62840   3
  -7  -4   1 39.4830 2.05446   5
   4   7   1 47.9926 3.80612   1
   7   4   1 45.3224 3.60113   1
   4   7   1 41.0088 3.52513   1
   7   4   1 41.9811 3.51414   1
  11  -4   1 39.6931 2.54473   4
  -4  11   1 37.9316 2.65417   1
  -7  11   1 32.7989 3.04363   4
  11  -7   1 41.5447 2.76136   4
  11  -4   1 39.5081 2.49157   2
  -4  11   1 42.4437 3.71237   4
   4   7   1 30.9065 3.44076   4
   7 -11   1 36.6674 3.41884   4
  -7  11   1 41.0842 1.72502   1
   7   4   1 40.6047 3.40946   4
   4 -11   1 28.7600 3.29260   4
  11  -4   1 42.1633 2.63063   1
  -4  -7   1 39.0441 3.64388   4
  11  -4   1 34.6975 2.72650   4
  -7  -4   1 45.7666 3.37058   4
  -7  11   1 43.3373 2.75838   2
  11  -7   1 38.3766 1.94826   2
  -7  11   1 40.5462 1.70813   1
  -4  11   1 34.8064 2.98693   2
  11  -4   1 46.8013 2.69236   3
  11  -4   2 2.66914 1.08358   3
  11  -4   2 3.84168 1.21849   1
  -4  11   2 3.62064 1.28565   2
  11  -7   2 6.21344 1.40255   3
   7 -11   2 2.53114 1.24374   2
  -7  11   2 1.56654 1.15450   3
  -7  11   2 5.23195 0.88766   1
   4   7   2 4.43111 1.54834   1
 -11   7   2 3.37863 1.10016   5
   7   4   2 6.49929 1.78544   1
   4   7   2 2.09422 1.50189   2
  -4  11   2 7.28074 1.72787   3
  11  -4   2 3.32642 1.35114   5
   7   4   2 2.73218 1.51905   2
  11  -7   2 4.39039 1.56969   5
   7 -11   2 4.34763 1.52900   3
  -7  11   2 3.48717 1.94650   5
  -4  11   2 7.62082 2.44833   5
   4 -11   2 2.27558 1.59955   3
   4   7   2 5.45554 1.88290   3
   7 -11   2 5.62589 1.84366   5
  11  -7   2 4.66618 0.53430   1
   4 -11   2 8.16039 2.20547   5
  -4  -7   2 5.10425 1.72988   2
   4   7   2 5.92117 2.03594   5
   7   4   2 1.68022 1.35768   3
   7   4   2 5.16819 1.80991   5
  -4  -7   2 5.87134 2.21172   3
   4 -11   2 5.87147 1.84770   2
  -7  -4   2 6.52153 1.78357   2
  -4  -7   2 4.06419 1.39008   5
  -4  -7   2 3.13692 1.42774   1
  11  -4   2 3.53015 1.19701   2
  -7  -4   2 4.90966 1.70390   3
   4 -11   2 2.47600 1.07618   1
  11  -4   2 3.03185 1.28737   3
  11  -4   2 1.28066 1.19426   5
  11  -7   2 2.43176 1.01924   2
  -7  -4   2 3.38963 1.48893   1
  11  -7   2 2.62884 1.38524   5
   7   4   2 4.37920 1.77567   2
  11  -4   2 6.49331 1.47179   4
  -4  11   2 4.01624 1.33836   1
  11  -7   2 2.53669 1.13365   4
  -7  11   2 4.83458 1.49555   4
  -4  11   2 8.53554 1.89907   4
   7 -11   2 3.10953 1.44262   4
   4 -11   2 5.06126 1.86541   4
   4   7   2 6.38336 1.87089   4
  11  -4   2 3.57593 1.20022   2
   7 -11   2 4.64655 0.95097   1
   4   7   2 2.79492 1.57627   1
   7   4   2 1.54511 1.28716   1
   7   4   2 4.60474 1.82180   4
  -4  -7   2 5.31059 1.81063   4
  -7  -4   2 1.77927 1.09863   4
  11  -4   2 5.81084 1.60479   4
 -11   4   2 2.91567 1.04104   1
  11  -7   2 4.25783 1.10222   2
  -4  11   2 6.21669 1.49044   1
  -7  11   2 4.56741 0.86986   1
  -7  11   2 4.49332 1.13589   2
  11  -4   2 5.74334 1.23666   1
   4   7   3 124.533 6.39872   1
   4 -11   3 125.961 6.16250   2
   7   4   3 132.386 6.42717   1
  11  -7   3 121.962 5.58420   3
  -7  11   3 109.455 3.76888   1
   4   7   3 121.220 6.91816   2
  -4  -7   3 129.981 6.43690   1
  -7  11   3 134.867 5.28759   3
  -4  -7   3 140.387 6.61201   2
   7   4   3 144.803 6.95863   2
  -7  -4   3 110.275 5.98017   1
   7 -11   3 140.248 6.67828   3
  -4  11   3 140.782 6.28550   3
  -7  -4   3 136.751 6.16157   2
 -11   7   3 112.946 4.53369   5
  11  -4   3 133.923 5.02532   1
  11  -4   3 141.875 6.45105   5
   4 -11   3 123.248 6.46894   3
  11  -7   3 135.909 6.76946   5
   4   7   3 130.929 6.82086   3
  -7  11   3 131.109 7.11225   5
   7 -11   3 124.755 7.02076   5
  -4  11   3 130.370 7.31181   5
  -4  -7   3 136.657 6.50862   3
   7   4   3 127.870 6.72089   3
   4 -11   3 127.900 6.81545   5
  11  -4   3 120.010 5.40834   2
   4   7   3 128.603 6.84096   5
  -7  -4   3 119.570 5.72163   3
 -11   4   3 123.961 4.73813   1
   7   4   3 102.745 6.29136   5
  -4  -7   3 139.501 4.99831   5
  11  -7   3 130.606 3.80309   1
  11  -7   3 142.832 3.86395   1
  11  -4   3 131.235 6.08778   3
  11  -4   3 122.044 6.29157   5
  11  -7   3 136.156 6.91962   5
  -4  11   3 137.477 5.88627   2
   4   7   3 140.361 6.87347   2
   7   4   3 127.509 6.69623   2
  -7  11   3 126.382 4.34306   2
  11  -4   3 107.103 5.53636   4
  11  -7   3 133.992 6.04740   4
   4   7   3 133.239 6.44852   1
  -7  11   3 136.653 5.97230   4
   7   4   3 96.6754 5.48907   1
  11  -4   3 141.669 5.82182   2
   7 -11   3 133.762 6.64292   4
  -4  11   3 146.859 6.70860   4
   4 -11   3 142.379 6.98087   4
  -7  11   3 134.320 4.20272   1
   4   7   3 133.443 6.92201   4
   7   4   3 84.8999 5.92271   4
  -4  -7   3 86.7030 5.93865   4
  11  -7   3 114.596 4.94223   2
  -7  -4   3 121.373 5.27313   4
  -4  11   3 122.131 5.31154   1
  11  -4   3 127.284 6.11158   4
   7 -11   3 118.226 4.29260   1
 -11   7   3 121.453 2.78499   1
  -4  11   3 108.688 5.01197   1
   7   4   3 108.078 6.37001   3
  11  -4   3 142.499 5.49129   1
  -7  11   3 128.249 4.51295   2
   4 -11   3 121.676 5.24577   1
   7 -11   3 123.399 5.66680   2
  11  -4   3 142.084 5.96218   3
  -4  11   3 95.7480 5.20984   2
  -4  11   4 14.9041 2.33343   2
  11  -7   4 27.2419 3.10198   3
  -7  11   4 15.8223 1.85372   1
  -7  11   4 21.0512 2.41770   3
   4 -11   4 10.8696 2.60136   2
   7 -11   4 18.7111 2.92055   3
   7   4   4 18.4020 3.04173   2
   4 -11   4 25.8531 3.36850   3
  11  -4   4 18.5352 2.86565   5
  -4  11   4 18.6019 2.73818   3
   4   7   4 10.3509 2.67461   1
  -4  -7   4 15.4404 2.75638   3
  11  -7   4 14.1213 3.09798   5
  -4  -7   4 10.3941 2.71725   2
  -4  11   4 18.2098 2.56227   1
   7   4   4 19.8418 3.10102   3
  -7  -4   4 16.9403 2.58357   3
   4   7   4 15.7525 2.98968   2
   7 -11   4 17.6353 3.28000   5
  -7  11   4 15.3347 2.92355   5
  -7  11   4 22.9133 2.16714   1
  -7  -4   4 17.4717 2.63768   2
   4 -11   4 16.2708 3.12704   5
  -4  11   4 20.1829 3.48741   5
  11  -4   4 17.5611 2.62608   2
  -4  -7   4 16.9540 2.03394   5
   4   7   4 17.7591 3.31591   3
  11  -7   4 23.7296 2.10852   1
   4   7   4 17.8377 3.43427   5
   7   4   4 15.9035 3.13402   5
   7   4   4 20.0959 3.02476   1
  11  -7   4 18.5502 1.96289   1
  11  -4   4 18.3519 3.19112   5
  11  -4   4 11.8727 2.46970   3
  11  -7   4 17.6453 3.35343   5
   7   4   4 24.4096 3.44845   4
   7 -11   4 21.5540 2.22403   1
  -4  11   4 16.8951 2.47135   2
 -11   7   4 20.2987 2.07611   5
   7   4   4 22.2286 3.22724   2
  11  -4   4 17.5853 2.67001   4
  -7  11   4 15.6743 1.93433   2
   4   7   4 14.9457 2.78810   2
  11  -7   4 15.2923 2.68227   4
  -7  11   4 19.9922 2.57902   4
   7 -11   4 20.6891 3.12094   4
  11  -4   4 23.1646 2.93651   2
   4 -11   4 22.2084 3.30603   4
   4 -11   4 14.3586 2.38741   1
   4   7   4 22.8807 3.23138   1
 -11   7   4 18.6524 1.69285   1
   7   4   4 16.7416 2.77542   1
  -4  11   4 17.8554 2.80642   4
  -4  -7   4 23.8866 3.14632   4
  11  -4   4 18.1366 2.27431   1
   7   4   4 25.7805 3.68229   4
  -7  -4   4 13.6237 2.16155   4
   4   7   4 17.1650 3.03485   4
  11  -4   4 15.8552 2.78118   4
 -11   4   4 14.8173 2.11177   1
  -4  -7   4 26.9251 3.41274   1
  -4  11   4 17.3410 2.41875   1
  -7  -4   4 21.5694 3.15750   1
  11  -7   4 14.2863 2.22557   2
  11  -7   4 22.5279 3.09672   4
   4   7   4 19.7068 3.19217   3
  -7  11   4 19.2604 1.87039   2
   7 -11   4 22.2232 2.98762   2
   7   4   4 14.7217 2.85621   3
  11  -4   4 18.7365 2.41737   1
  11  -4   4 18.5038 2.80664   3
  -4  -7   5 11.9639 2.77947   1
   4   7   5 6.72303 2.67985   1
   7   4   5 13.9579 2.95567   1
   7 -11   5 8.96467 2.57340   2
  11  -4   5 8.67854 2.73151   3
  -7  -4   5 11.7592 2.95273   1
  11  -7   5 8.12182 2.40061   3
  -7  11   5 5.65497 1.53890   2
   4 -11   5 7.07135 2.70390   2
  -4  11   5 10.1592 2.24474   2
   7 -11   5 9.68738 2.07528   1
   7 -11   5 6.29634 2.57965   3
  -4  -7   5 4.18372 2.48634   2
  11  -4   5 8.50512 2.90331   5
 -11   7   5 10.0498 1.75901   5
  -7  11   5 9.63833 1.90437   3
  11  -7   5 2.45274 2.69880   5
  -4  11   5 8.91774 2.22722   1
   4 -11   5 10.1867 2.82089   3
  -7  -4   5 6.29521 2.37414   2
  -4  11   5 10.5896 2.40531   3
   7 -11   5 6.75215 2.77563   5
  -7  11   5 11.3600 3.03943   5
   4 -11   5 9.17519 2.88367   5
  -4  11   5 8.65541 3.37925   5
   4   7   5 7.09671 2.76209   2
  -4  -7   5 10.2140 2.79376   3
   4   7   5 6.11430 2.85345   3
   4   7   5 9.07129 3.22806   5
   7   4   5 7.46227 2.52163   2
  -7  -4   5 2.93248 1.89967   3
  -4  -7   5 5.08185 1.33719   5
   7   4   5 18.6060 3.48704   5
   7   4   5 6.65688 2.97005   3
  11  -4   5 8.68928 2.22350   1
 -11   7   5 10.3368 1.85911   1
  11  -4   5 8.85847 2.99783   5
  11  -4   5 8.38807 2.98468   2
  11  -4   5 5.95443 2.51581   3
  -4  -7   5 7.59317 1.32086   5
  11  -7   5 3.30429 2.79039   5
   7   4   5 5.49469 2.89764   4
   4   7   5 11.5241 2.90999   1
  -7  11   5 6.56177 1.70924   1
   4 -11   5 14.4632 2.71213   1
  11  -4   5 6.58649 2.53025   4
   4   7   5 6.79098 2.51124   2
  11  -7   5 12.3284 3.02787   4
  -4  11   5 6.08355 2.07537   2
  -4  11   5 8.52803 2.23991   1
   7   4   5 10.6401 2.70397   1
   7   4   5 2.98254 2.46205   2
  11  -4   5 9.94975 2.24302   1
   7 -11   5 11.6447 3.23708   4
  -7  11   5 7.84185 2.29110   4
   4 -11   5 7.12058 2.88586   4
  -7  11   5 4.15810 1.50468   2
  -4  11   5 6.65980 2.31933   4
  -4  -7   5 9.83295 2.57582   4
   4   7   5 5.60764 2.89335   4
  11  -4   5 10.2111 2.53728   2
   7   4   5 6.05451 3.15232   4
  11  -7   5 3.56382 1.59822   1
  -7  -4   5 8.39785 1.87075   4
 -11   4   5 8.08974 2.03727   1
  11  -4   5 9.22078 3.13145   4
  -7  11   5 12.1842 2.15561   1
  11  -7   5 9.41509 2.67665   4
  11  -7   5 6.91206 2.12696   2
  -4  11   5 6.07870 2.09021   3
   4   7   5 15.0231 3.47308   3
  -7  11   5 11.0556 1.96637   3
   7   4   5 5.63780 2.46800   3
  -8  11  -5 0.19909 2.25766   3
  -8  11  -5 0.36045 1.61049   1
   8   3  -5-0.37301 1.46837   3
  -3  11  -5 1.30839 2.16857   3
   3   8  -5 1.35267 2.05420   3
  -8  11  -5 4.64294 2.63284   5
  -3  11  -5 0.07652 2.21688   5
   8 -11  -5-0.39392 2.51656   5
  11  -3  -5 0.19198 1.59987   1
   3 -11  -5-0.20128 2.81889   5
  11  -8  -5 0.11991 1.58246   5
  -3  -8  -5 0.84460 2.91306   5
 -11   8  -5 0.44741 2.02700   4
   8   3  -5 1.01693 0.83045   4
  -3  11  -5-1.87929 2.17807   1
  -8  11  -5 5.57454 2.54884   4
 -11   8  -5 0.42324 2.01162   2
  -3  11  -5 2.76260 2.38374   4
  11  -3  -5 0.40497 0.35517   2
   3   8  -5 0.73260 1.79659   4
 -11   8  -5 0.91670 1.42153   1
  -8  11  -5 3.08057 2.31554   2
   8   3  -5-0.33617 1.93613   1
   3   8  -5 2.66951 2.44750   1
  -3  11  -5-0.32974 2.17466   2
  11  -8  -5 1.12884 1.10781   1
   8   3  -5 1.02780 1.84234   2
   3   8  -5-0.98657 2.03889   2
   3 -11  -5 0.50909 2.17975   4
   8 -11  -5 0.97860 1.62784   4
  -3  -8  -5-1.24206 2.86580   4
 -11   8  -5 0.63235 2.00638   3
  -8  11  -4 11.1166 2.50554   3
  -3  11  -4 12.1450 2.73707   3
   8   3  -4 11.5199 1.90687   3
   3   8  -4 9.61587 2.27334   3
   3   8  -4 9.74113 1.69406   5
  -8  11  -4 11.6529 2.73690   5
  -3  11  -4 10.2137 2.45289   5
   8 -11  -4 7.92251 2.72748   5
  11  -8  -4 8.41094 1.95939   5
   3 -11  -4 4.57882 2.62130   5
  -3  -8  -4 6.76118 2.74616   5
   3 -11  -4 6.63357 2.17573   3
   8   3  -4 21.2195 3.02045   1
  -8  -3  -4 7.87657 2.37856   5
  -3  -8  -4 11.9030 2.77240   3
 -11   8  -4 17.9460 2.64418   2
 -11   8  -4 9.25020 2.19315   4
   8   3  -4 9.40102 1.31008   4
  11  -3  -4 8.69959 1.80355   1
  11  -3  -4 11.1116 0.66734   2
  -8  11  -4 5.94194 1.98866   4
  11  -8  -4 15.0548 1.21440   1
  -3  11  -4 14.5082 2.80359   4
   3   8  -4 13.5643 2.44269   4
  -8  11  -4 14.8458 2.72803   2
  -3  11  -4 10.1130 2.10167   1
  -8  11  -4 12.8402 1.95628   1
  -3  11  -4 10.4303 2.51890   2
   3 -11  -4 10.7687 2.78558   4
   8 -11  -4 8.42090 1.97581   4
  -3  -8  -4 12.8096 2.95492   4
   8   3  -4 10.0816 2.18987   2
   3   8  -4 14.8116 2.83888   2
   3   8  -4 13.7127 2.75785   1
 -11   8  -4 7.46436 2.21770   3
  -8  11  -3 2.65642 1.50131   3
   8   3  -3 3.99960 1.93669   1
  -8  11  -3 2.77023 1.05700   1
  -3  11  -3 1.38345 1.67177   3
   3   8  -3 1.07757 1.69025   1
   8   3  -3 2.61766 1.34628   3
   3   8  -3 2.33378 1.60116   3
  -8  11  -3 4.77900 2.24988   5
   3   8  -3 3.36732 1.28450   5
  -3  11  -3 4.09116 1.88138   5
   8 -11  -3 6.18405 2.47629   5
  11  -8  -3 2.57504 1.40427   5
   3 -11  -3 4.97353 2.19581   5
  -3  -8  -3 1.90885 1.91059   5
   3 -11  -3 2.70357 1.58553   3
   8 -11  -3 2.84132 1.13576   3
  -3  -8  -3 3.71734 2.08441   3
  -8  -3  -3 3.54878 1.80782   5
  11  -3  -3 3.97850 0.52178   2
 -11   8  -3 3.39743 1.58525   4
 -11   8  -3 1.94364 1.27706   2
  -8  11  -3 1.34294 1.51650   4
  -3  11  -3 1.61669 1.77938   4
   8   3  -3 2.11935 0.95149   4
   3   8  -3 0.84402 1.56745   4
  11  -3  -3 1.66860 1.09523   1
  11  -3  -3 2.61527 0.43572   2
  -8  11  -3 4.12092 1.70455   2
   8 -11  -3 4.96317 1.61738   4
  -3  11  -3 2.05042 1.40108   1
   3 -11  -3 2.41286 1.63002   4
  -3  -8  -3 3.92622 2.31128   4
  -3  11  -3 2.36541 1.66555   2
 -11   8  -3 4.66459 1.69890   3
   3   8  -3 4.65306 1.92633   2
   8   3  -3 3.27031 1.61976   2
  -3  11  -2 26.6483 3.12609   3
   3   8  -2 32.4287 3.28563   3
   8   3  -2 20.7838 2.39112   3
  -8  11  -2 22.7722 3.04719   5
  -3  11  -2 20.5522 3.01335   5
   3   8  -2 28.8519 2.66713   5
  11  -8  -2 19.5460 2.46641   5
   8 -11  -2 28.6791 3.43706   5
   3 -11  -2 21.8854 2.64501   2
   3 -11  -2 22.1430 3.19096   5
   8 -11  -2 26.9593 2.35931   3
   3 -11  -2 23.4209 2.94897   3
  -3  -8  -2 26.4150 3.30855   5
  -3  -8  -2 20.3627 3.01793   3
  -3  -8  -2 26.4140 3.23448   2
  -8  -3  -2 33.8982 3.05212   5
  11  -3  -2 25.8280 2.26761   1
 -11   8  -2 21.6653 2.04213   2
 -11   8  -2 23.4941 2.52951   4
  -8  11  -2 13.3094 2.50716   4
  -3  11  -2 24.3482 2.65156   1
  -3  11  -2 30.6937 3.35903   4
   3   8  -2 32.1192 3.23410   4
   8   3  -2 27.1965 2.27914   4
  -8  11  -2 26.2055 2.60155   2
   8 -11  -2 27.5955 2.90375   4
  11  -3  -2 26.7700 1.38554   2
   3 -11  -2 22.4055 3.03983   4
 -11   8  -2 24.9476 2.92336   5
   8   3  -2 28.8655 3.02191   1
  -3  -8  -2 19.6780 3.12546   4
  -3  11  -2 20.3777 2.85041   2
   3   8  -2 20.2018 2.65147   1
  -8  11  -2 28.0899 1.53491   1
  11  -8  -2 16.5676 0.78934   4
  -8  -3  -2 27.5954 3.06878   4
   3   8  -2 19.8829 2.79499   2
   8   3  -2 24.7401 2.68124   2
 -11   8  -2 26.3978 2.53824   3
  -8  11  -2 25.9852 2.88347   3
  11  -3  -1 3.25686 0.74679   2
   3   8  -1 2.10053 1.30963   2
  11  -3  -1 2.77550 0.51718   3
   8   3  -1 2.87828 1.40380   2
  -8  11  -1 3.48931 1.47125   3
  -3  11  -1 1.95920 1.48619   3
 -11   8  -1 2.47493 1.34755   5
  11  -3  -1 3.31623 0.98063   1
   8   3  -1 1.99872 0.40851   5
   3   8  -1 4.97912 1.91930   3
  11  -3  -1 2.88083 0.49095   3
   8   3  -1 2.52391 0.46794   5
  -8  11  -1 2.78717 1.59924   5
   8   3  -1 2.70672 1.23291   3
  -3  11  -1 2.26847 1.61263   5
   3   8  -1 1.23358 1.09250   5
  -3  11  -1 2.90557 1.27003   1
  11  -3  -1 2.33613 0.55987   5
  11  -8  -1 4.18679 1.41661   5
   8 -11  -1 4.47580 1.88162   5
   3 -11  -1 3.37412 2.08281   5
   8 -11  -1 2.88623 1.13109   3
   3 -11  -1 2.92741 1.51367   3
  -3  -8  -1 3.98173 1.72428   5
   3 -11  -1 4.48252 1.60038   2
  11  -3  -1 2.51063 0.63003   5
   8 -11  -1 3.36143 0.95857   2
  -3  -8  -1 4.64092 1.64543   2
  -3  -8  -1 2.64429 1.42807   3
  -8  -3  -1 2.68682 1.53154   3
  -8  -3  -1 4.11702 1.31425   5
 -11   8  -1 0.71298 0.90526   4
  -8  11  -1 4.29530 1.66953   4
  11  -3  -1 3.84612 1.24745   1
  11  -3  -1 3.00078 0.79158   2
  -3  11  -1 2.01017 1.73309   4
   8   3  -1 4.48314 1.71499   1
   3   8  -1 2.36476 1.32646   1
   3   8  -1 1.76322 1.40797   4
   8   3  -1 2.20803 1.11228   4
  11  -8  -1 4.89824 0.96040   4
   8 -11  -1 1.02661 1.14445   4
   3 -11  -1 6.22757 1.80832   4
  -8  11  -1 3.58802 1.20799   2
  -3  -8  -1 3.60403 1.85615   4
  -8  -3  -1 3.85302 1.52279   4
 -11   8  -1 1.60257 0.86840   3
  -3  11  -1 5.08921 1.62054   2
  11  -3   0 51.6588 2.60686   2
  -8  11   0 45.0487 3.21794   3
  -3  11   0 48.3430 3.86143   3
   3   8   0 59.7665 4.50860   3
 -11   8   0 51.2408 3.65923   5
   8 -11   0 49.3390 2.73425   2
   3 -11   0 47.8648 3.57810   2
   8   3   0 54.3378 3.66959   3
  -8  11   0 42.2597 4.05506   5
   3   8   0 45.9988 3.71673   1
  -3  11   0 48.9675 4.25140   5
  11  -3   0 45.2590 2.66596   5
   8   3   0 54.4004 3.85087   1
   8 -11   0 53.1786 3.41090   3
  11  -3   0 42.7720 2.31656   3
   3   8   0 58.5832 3.98455   5
  -3  -8   0 49.9532 4.23257   2
  11  -8   0 54.1091 3.88007   5
   3 -11   0 50.5859 4.10071   3
   8   3   0 52.1031 2.82459   5
   8 -11   0 45.8733 4.23790   5
   3 -11   0 46.3662 4.30511   5
  -3  -8   0 40.8126 3.76483   3
  -3  -8   0 61.1049 4.23441   5
  -8  -3   0 63.6938 4.29805   2
  11  -3   0 54.1272 2.88934   5
  -8  -3   0 56.3150 3.89427   3
  11  -8   0 53.3016 2.33499   3
   8   3   0 48.6415 3.89896   1
 -11   8   0 51.2111 2.85884   4
  -3  11   0 53.3543 3.49104   1
  11  -3   0 48.4628 2.43549   4
  11  -3   0 48.9188 2.80473   2
  11  -3   0 47.2277 2.98785   1
  -8  11   0 47.8807 3.60235   4
  -3  11   0 48.9780 4.13083   4
   3   8   0 44.2522 3.80665   4
  11  -8   0 55.6465 2.92211   4
   8   3   0 57.8842 3.55416   4
   8 -11   0 50.0312 3.67002   4
  -8  11   0 58.7228 3.12916   2
   3 -11   0 50.2663 4.21067   4
  11  -3   0 51.4549 2.67856   4
  -3  -8   0 53.0867 4.36744   4
  11  -8   0 46.8029 2.08159   3
  -8  -3   0 54.7045 3.61186   4
  -3  11   0 43.8164 3.63455   2
  11  -3   0 64.1633 3.18958   1
   3   8   0 54.2896 4.07689   2
  11  -3   0 56.1071 2.60017   3
  -3  11   0 49.8128 3.41463   1
   8   3   0 51.1897 3.59386   2
  11  -3   1 1.73843 0.87613   3
  11  -8   1 2.74490 0.67470   2
  -3  11   1 0.62351 1.19846   2
  -3  11   1 2.69687 1.27140   1
  -8  11   1 4.10037 1.30724   3
  11  -3   1 2.23848 0.90479   1
   3   8   1 2.52122 1.63591   2
  11  -8   1 2.08639 0.88382   3
   8   3   1 1.55907 1.36694   2
 -11   8   1 3.04123 1.18047   5
  -3  11   1 1.42837 1.24025   3
   8 -11   1 1.55232 0.92585   2
  11  -3   1 2.61775 1.10737   5
  -8  11   1 3.33070 1.78562   5
   3   8   1 3.28313 1.57691   3
  -3  11   1 3.03235 1.70225   5
  11  -3   1 1.73150 0.89903   2
  11  -8   1 2.67355 1.41007   5
   8 -11   1 3.20139 1.28011   3
   3 -11   1 1.97747 1.29909   2
   3 -11   1 2.37057 1.16919   1
   3   8   1 0.74292 1.25914   5
   8   3   1 1.38532 1.37240   3
   8 -11   1 5.12451 1.90055   5
   3 -11   1 2.24303 1.48318   3
   3 -11   1 0.70713 1.60659   5
   8   3   1 1.92851 1.31691   5
  -3  -8   1 0.89252 1.41821   2
  11  -3   1 2.08053 1.01869   3
  -3  -8   1-0.44513 1.47151   3
  -3  -8   1 3.45892 1.40832   5
  -8  -3   1 2.65495 1.47459   2
  -3  -8   1 1.73485 1.36991   1
  11  -3   1 3.23678 1.21036   5
  11  -8   1 2.02140 0.66762   2
  -8  -3   1 2.75332 1.31905   3
   3   8   1 3.34057 1.66565   1
 -11   8   1 3.05532 0.84474   4
   8   3   1 6.44091 1.70717   1
  11  -3   1 2.73282 1.03192   4
  -8  11   1 2.52052 1.26426   4
   3   8   1 2.45714 1.41658   1
  11  -8   1 3.09914 1.24530   4
  -3  11   1 4.99004 1.94087   4
  11  -3   1 2.60031 1.04013   2
   8   3   1 2.47443 1.51372   1
   3   8   1 1.44424 1.46854   4
   8 -11   1 3.47318 1.54321   4
  -3  11   1 1.86198 1.10116   1
   8   3   1 4.66748 1.72945   4
   3 -11   1 0.96019 1.20805   4
  -3  -8   1 0.73198 1.36636   4
  11  -3   1 4.30972 1.30369   4
  -8  -3   1 2.12170 1.18262   4
  -8  11   1 3.89224 0.97326   2
  11  -3   1 2.32959 1.10143   1
  -8  -3   1 1.70891 1.25492   1
   8 -11   2 20.0454 2.31557   2
   3   8   2 25.6707 3.12450   2
  -8  11   2 28.3062 2.49903   3
   3 -11   2 25.0644 2.87727   2
  11  -8   2 28.4261 2.44408   3
   8   3   2 28.4581 3.07310   2
 -11   3   2 24.8526 2.41388   1
  -3  -8   2 28.0598 3.18727   2
  -3  11   2 23.8083 3.00031   3
 -11   8   2 22.9149 2.46434   5
   8 -11   2 27.5180 2.90730   3
  11  -3   2 25.8858 2.62534   5
  11  -3   2 20.4785 2.27146   2
   3   8   2 24.2216 3.30926   3
  -8  11   2 20.4540 3.18695   5
   3 -11   2 28.2035 3.16948   3
  11  -8   2 25.7326 3.06544   5
  -3  11   2 26.4303 3.55328   5
  -8  -3   2 23.4776 2.84070   2
   8   3   2 34.4399 3.39176   3
   8 -11   2 27.1191 3.45900   5
  -3  -8   2 28.1537 3.39332   3
   3   8   2 21.6201 3.15940   5
   8 -11   2 24.4595 1.38237   1
   3 -11   2 22.2940 3.04687   5
   8   3   2 29.4646 3.15864   5
  -3  -8   2 26.3071 2.79792   5
  11  -3   2 28.0810 2.76769   3
  -8  -3   2 28.5568 2.91289   3
  11  -3   2 23.1480 2.58959   5
  -8  11   2 26.2531 1.74214   2
  -3  -8   2 25.2570 3.10395   1
   8   3   2 21.6999 2.90091   2
   3 -11   2 27.7443 2.71986   1
  -3  11   2 28.2069 2.71724   1
  11  -3   2 32.3132 2.81689   4
   3   8   2 24.0221 2.98160   1
   8   3   2 33.0250 3.31268   1
  11  -3   2 27.8233 2.60387   2
  -8  11   2 27.2901 2.75987   4
  11  -8   2 32.3268 2.86467   4
  -8  -3   2 29.5668 3.09657   1
  -3  11   2 25.4748 2.54719   1
  11  -3   2 27.5700 2.39547   1
  -3  11   2 23.3490 3.03327   4
   8 -11   2 23.0080 2.80752   4
   3   8   2 19.2930 2.92326   4
   3   8   2 26.8994 3.03609   1
   3 -11   2 20.2511 2.79721   4
   8   3   2 30.5579 3.26977   4
  -3  -8   2 22.4229 3.01956   4
   8   3   2 23.7127 2.74790   1
  11  -3   2 24.8523 2.45019   1
  -8  11   2 24.5916 1.77612   2
  11  -3   2 19.6820 2.45152   4
  -8  -3   2 25.0973 2.28907   4
  11  -8   2 24.8556 2.08867   2
   8   3   2 24.6637 3.01966   3
  11  -3   2 31.1403 2.75600   3
  -3  11   2 23.1655 2.66446   2
  11  -3   3 2.36193 1.42948   3
  -8  -3   3 2.14095 1.47512   1
  11  -3   3 1.96362 1.45067   1
   8 -11   3 3.73812 1.57755   2
  -3  11   3 1.18836 1.43500   2
  11  -8   3 1.64879 1.30375   3
  -8  11   3 1.50236 1.03741   3
   3 -11   3 3.44324 1.89924   2
  11  -3   3 2.35856 1.71638   5
 -11   8   3 4.01404 1.41277   5
   3   8   3 2.93432 1.76308   2
   8 -11   3 3.32912 1.83696   3
  11  -8   3 4.91564 0.79406   1
  -3  11   3 4.56440 1.89391   3
  11  -8   3 3.32255 1.99268   5
  -8  11   3 4.11792 2.06858   5
  -3  -8   3 4.67199 1.87384   2
 -11   3   3 0.99748 1.19816   1
   3 -11   3 1.00427 1.72161   3
   8 -11   3 2.76621 2.04850   5
  -3  11   3 2.01274 2.24300   5
   3   8   3 4.60214 2.06563   3
   8   3   3 1.97325 1.75736   2
   3 -11   3 2.73807 2.33543   5
   3   8   3 0.96853 1.62334   5
  -3  -8   3 1.94941 1.74701   3
   8   3   3 1.74824 1.65108   3
  -8  -3   3 2.91381 1.61802   2
  -3  -8   3 1.14032 1.42274   5
   8   3   3 5.37661 1.93982   5
  11  -3   3 3.57171 1.55397   2
  -8  -3   3 3.38348 1.44639   3
  11  -3   3 4.07562 1.71938   3
  11  -3   3 1.14161 1.49125   5
  -3  11   3 4.01382 1.55437   1
  11  -8   3 8.61768 2.62948   5
   8   3   3 3.59895 2.05341   4
  -8  11   3 2.25081 0.62802   1
   3   8   3 8.31616 2.40206   2
  11  -3   3 4.18545 1.52639   4
   8   3   3 2.50640 1.95767   2
  -8  11   3 2.35441 0.75478   2
  11  -8   3 2.86870 1.40069   4
  -8  11   3 3.70605 1.56095   4
  11  -8   3 3.66446 0.65929   1
   8 -11   3 1.53759 1.75217   4
  -3  11   3 2.23212 1.78145   4
  11  -3   3 3.39297 1.56560   2
   3 -11   3 1.16880 1.46154   4
   3   8   3 1.77719 2.00206   4
   8 -11   3 4.26354 0.95848   1
  -3  -8   3 0.56953 1.64587   4
   8   3   3 4.85649 2.25789   4
   3   8   3 2.05059 1.51788   1
   3   8   3 3.78553 1.82097   1
  11  -3   3 2.69676 1.85078   4
  -8  -3   3 2.16274 1.08928   4
   8   3   3 2.17812 1.58275   1
   8   3   3 5.92955 2.14753   1
   3 -11   3 3.98261 1.46777   1
  11  -3   3 3.85840 1.58925   1
  11  -8   3 3.62845 1.31190   2
   8   3   3 3.89964 1.81162   3
  -8  11   3 2.69600 0.76634   2
  -3  -8   3 1.03821 1.62829   1
  -3  11   3 1.75934 1.39508   1
  11  -3   4 10.4804 2.36736   3
  -3  11   4 10.6258 2.17371   1
  -3  11   4 11.8063 2.31092   1
   8 -11   4 12.9304 2.53638   2
  -8  11   4 10.8423 1.72916   3
   3   8   4 14.9280 2.88655   1
  11  -8   4 17.5876 2.65293   3
   3 -11   4 10.0473 2.40513   2
  -3  11   4 11.9393 2.34273   2
  -8  11   4 12.5212 1.53245   1
  -3  11   4 16.6669 2.74261   3
  11  -3   4 12.0396 2.53333   5
   8 -11   4 11.9779 2.68251   3
   8   3   4 17.5138 2.98991   1
 -11   8   4 10.0144 1.94122   5
  -3  -8   4 10.5169 2.74630   2
  11  -8   4 14.0524 2.89248   5
   3   8   4 11.2586 2.84538   2
   3 -11   4 10.4500 2.71106   3
  -8  11   4 11.4773 2.72853   5
   8 -11   4 12.5146 2.93389   5
  -3  11   4 8.52882 3.01830   5
  -8  -3   4 13.4085 2.30737   3
  -8  11   4 17.0133 1.72328   1
   3 -11   4 11.6066 2.82965   5
   3   8   4 10.3663 2.52128   3
  -8  -3   4 9.63050 2.29398   2
  -3  -8   4 13.9376 2.71907   3
   3   8   4 4.83190 2.39043   5
   8   3   4 12.1356 2.60286   2
  -3  -8   4 7.79090 1.88553   5
   8   3   4 9.21608 2.48849   3
   8   3   4 16.5157 3.03158   5
  11  -3   4 13.8183 2.63241   2
  11  -3   4 12.5510 2.85136   5
  11  -3   4 4.45170 2.29148   3
  11  -8   4 15.8348 3.08740   5
   8 -11   4 17.7546 1.95899   1
  11  -3   4 11.4654 2.09432   1
  -3  11   4 15.2710 2.45754   2
   8   3   4 10.9928 2.93634   4
  11  -8   4 8.69473 1.54052   1
   3   8   4 15.9139 3.00761   2
  -3  -8   4 14.3207 2.81470   1
  11  -3   4 14.9513 2.72519   4
  11  -8   4 19.7410 2.97631   4
  -8  11   4 12.5374 1.30667   2
  -8  11   4 15.4943 2.31019   4
   8   3   4 9.98660 2.68362   2
  11  -8   4 12.7204 1.60659   1
   8 -11   4 8.21976 2.56734   4
  -3  11   4 14.5414 2.84618   4
   3 -11   4 10.0889 2.43063   4
  11  -3   4 11.2999 2.38725   2
   3 -11   4 15.2315 2.47593   1
   3   8   4 16.5210 3.01416   4
  -3  -8   4 10.6351 2.43550   4
 -11   3   4 11.2300 2.04646   1
 -11   8   4 13.4179 1.15141   1
  -8  -3   4 12.8230 1.62226   4
   8   3   4 14.1301 2.84423   4
  11  -3   4 9.96586 2.62461   4
  -8  11   4 15.7904 1.41713   2
  -8  11   4 12.6532 1.71137   3
  11  -3   4 18.5508 2.77484   1
  -8  -3   4 16.9151 3.10267   1
  11  -8   4 8.00032 2.03972   2
   3   8   4 11.1162 2.54437   1
   8   3   4 14.4474 2.85792   3
   8   3   4 14.2777 2.88134   1
 -11   3   5 0.11790 1.73815   1
   3   8   5-0.32163 2.32648   1
  11  -3   5 1.25349 2.23013   3
   8 -11   5-0.68000 2.14228   2
  -8  11   5 0.01151 0.83028   2
   8   3   5 3.17105 2.76405   1
  -3  -8   5 3.77375 2.84512   1
   8 -11   5-0.09057 1.47452   1
  11  -3   5-0.40325 1.76233   1
  11  -8   5 1.62498 2.32746   3
   3 -11   5 0.28241 2.42390   2
  -8  -3   5 6.40927 2.68900   1
  -8  11   5 3.00012 1.31228   3
  -3  11   5 0.88126 1.91017   2
  11  -3   5-0.04076 2.10953   5
 -11   8   5 0.54491 1.61111   5
  11  -8   5-0.55675 2.71417   5
  -3  11   5-0.22429 1.83351   1
   3 -11   5 0.87831 2.41713   3
   8 -11   5-0.75884 2.34631   5
 -11   8   5 0.59924 1.13042   1
  -3  11   5-0.55462 2.04287   3
   3   8   5 0.49276 2.13747   2
  -8  11   5 0.08419 2.29856   5
  -8  -3   5-0.65313 1.87882   2
  11  -3   5-0.76756 1.92524   1
   3 -11   5-0.21094 2.48784   5
  -3  -8   5 1.21177 2.16340   3
  -3  11   5 2.09602 2.88241   5
   8 -11   5-1.34211 2.15275   3
   3   8   5-0.55114 2.15770   3
   3   8   5 3.67986 2.73366   5
  -3  -8   5 0.02318 1.53117   5
   8   3   5 0.04213 2.28022   2
  -8  -3   5 0.31849 1.64272   3
   8   3   5 0.13655 2.65805   5
   8   3   5-0.51997 2.50072   3
   3   8   5 0.61963 2.07080   1
  11  -3   5-0.26748 2.06119   2
  11  -3   5 2.29855 2.73786   5
  11  -3   5 1.30576 2.27427   3
  -3  11   5-0.71576 1.96908   1
  11  -8   5 5.72928 3.28356   5
  -3  -8   5 0.27919 1.30959   5
   8   3   5 0.99087 2.23015   4
  -3  -8   5 2.18147 2.27842   2
   8   3   5 2.05914 2.49200   1
  11  -3   5-0.42207 2.11567   4
   3   8   5 1.05460 2.51636   2
  -3  11   5 0.32134 1.79666   2
  11  -8   5 1.48576 2.24319   4
   8   3   5-0.56941 2.27873   2
  -8  11   5 0.98741 1.59571   4
   8 -11   5 1.01173 2.50703   4
   3 -11   5-0.04155 2.30944   4
  -3  11   5 1.21881 2.11417   4
  -3  -8   5-0.51103 2.08444   4
   3   8   5 1.36074 2.32125   4
  11  -3   5-0.03770 2.08241   2
  -8  11   5 0.54273 1.22763   1
   3 -11   5-0.59428 1.84259   1
  -8  11   5 1.53473 0.86334   2
   8   3   5 8.01305 3.00977   4
  -8  -3   5-0.43737 0.91341   4
  11  -3   5 1.81320 2.41387   4
  11  -8   5 0.35582 1.83541   2
  -8  11   5 2.11933 1.40623   1
  -3  11   5-0.13540 1.88787   3
   3   8   5 0.86653 2.17883   3
  -8  11   5 1.86747 1.27027   3
   8   3   5 0.42976 2.25071   3
  11  -8   5 1.02416 1.32614   1
  -9  11  -5 4.19811 2.42669   3
   9   2  -5 8.47834 1.75303   3
  -2  11  -5 12.1636 3.18156   3
   2   9  -5 3.63221 2.37260   3
  -9  11  -5 1.36267 2.46738   5
  -2  11  -5 4.82182 2.49893   5
   9 -11  -5 5.04228 2.85920   5
  11  -9  -5 5.79584 2.21405   5
   2 -11  -5 2.75024 3.24840   5
  -2  -9  -5 2.06841 2.64312   5
  11  -2  -5 6.06671 2.15191   1
 -11   9  -5 3.46983 2.32043   4
  -9  11  -5 3.49597 2.66836   4
  -2  11  -5 7.24746 2.70189   4
 -11   9  -5 6.81764 2.61130   2
  -2  11  -5 3.57309 2.23184   1
   2   9  -5 5.85417 2.44492   4
 -11   9  -5 3.59033 1.55760   1
  11  -9  -5 5.23478 1.19525   1
  11  -2  -5 5.74637 1.16507   2
  -9  11  -5 3.73712 2.36808   2
   9   2  -5 6.24182 2.31717   1
   2   9  -5 2.57802 2.61900   1
   9   2  -5 4.59310 2.03028   2
  -2  11  -5 1.80513 2.51729   2
   2   9  -5 2.28267 2.08843   2
   2 -11  -5 2.99865 2.60083   4
  -2  -9  -5 3.73796 2.58205   4
   9 -11  -5 1.84466 1.58197   4
  -9  11  -5 2.28797 1.70275   1
 -11   9  -5 2.70386 2.44573   3
   9   2  -4 92.9216 4.25615   3
  -2  11  -4 114.819 6.73088   3
   2   9  -4 110.810 6.40133   3
   2   9  -4 102.483 5.03049   5
  -2  11  -4 103.402 6.12917   5
  11  -2  -4 95.8487 5.08563   1
  -2  11  -4 98.2735 5.76997   1
   9 -11  -4 94.5872 6.32625   5
  11  -9  -4 89.9916 5.48509   5
   2 -11  -4 97.6236 7.05313   5
  -2  -9  -4 70.6553 6.17753   5
   2 -11  -4 103.151 6.30648   3
  -2  -9  -4 101.500 6.64795   3
   9   2  -4 94.7631 5.78335   1
   2   9  -4 108.353 6.34278   1
 -11   9  -4 88.9359 5.58401   4
  -9  11  -4 99.9189 6.07645   4
 -11   9  -4 104.895 5.65656   2
  -2  11  -4 90.1090 6.04151   4
   2   9  -4 93.3363 5.58088   4
  -9  11  -4 99.8622 5.76681   2
  11  -2  -4 97.3082 3.30146   2
  -9  11  -4 103.399 4.12826   1
  -2  11  -4 88.0551 5.95535   2
   9   2  -4 98.4229 5.05300   2
   2   9  -4 89.3360 5.87575   2
   2 -11  -4 109.451 6.86896   4
   9 -11  -4 80.2747 4.47626   4
  -2  -9  -4 95.6424 6.82612   4
  -9  11  -4 89.7479 6.44019   5
 -11   9  -4 83.4027 5.33696   3
  -9  11  -4 93.5508 5.84522   3
  -2  11  -3 31.1084 3.80566   3
   9   2  -3 30.2541 2.53704   3
   2   9  -3 28.6975 3.59569   3
 -11   9  -3 22.7839 3.35832   5
  -9  11  -3 26.2961 3.56039   5
   2   9  -3 26.0188 2.73922   5
  -2  11  -3 29.9191 3.40168   5
  11  -9  -3 26.8561 3.06661   5
   9 -11  -3 27.0271 3.74480   5
   2 -11  -3 25.4702 3.65634   5
  -2  -9  -3 23.7943 3.67689   5
   2 -11  -3 31.6834 3.67689   3
  11  -2  -3 26.5873 2.83429   1
  -2  -9  -3 29.4484 3.70777   3
   9 -11  -3 32.1576 2.16589   3
  -2  11  -3 30.6147 3.20441   1
 -11   9  -3 25.1149 2.92768   4
 -11   9  -3 27.6240 2.71865   2
  -9  11  -3 29.6288 3.38172   4
   9   2  -3 31.3477 1.78666   4
  -2  11  -3 19.5259 3.15566   4
   2   9  -3 30.8392 3.35804   4
   9   2  -3 31.0589 3.44274   1
  -9  11  -3 38.5101 3.39951   2
   2   9  -3 33.0199 3.54272   1
  -9  11  -3 28.3118 1.67533   1
  11  -2  -3 27.2990 1.86395   2
   9 -11  -3 28.9766 2.78992   4
  -2  11  -3 31.2638 3.49245   2
   2 -11  -3 21.9866 3.37407   4
  -2  -9  -3 31.0779 4.06983   4
   9   2  -3 31.7353 2.97897   2
   2   9  -3 23.4178 3.21220   2
 -11   9  -3 22.3171 2.84879   3
  -9  11  -3 32.1164 3.29369   3
  -2  11  -2 139.200 6.87419   3
   2   9  -2 118.337 6.54057   3
   9   2  -2 139.540 5.18908   3
 -11   9  -2 116.948 6.24632   5
  -9  11  -2 103.979 6.52287   5
  -2  11  -2 106.634 6.12856   5
   2   9  -2 128.471 5.67513   5
  11  -9  -2 129.040 6.14687   5
   9 -11  -2 148.075 7.27821   5
   2 -11  -2 135.976 6.41692   2
   2 -11  -2 132.828 7.46820   5
   2 -11  -2 136.820 6.79157   3
   9 -11  -2 138.703 4.68703   3
  -2  -9  -2 141.660 6.98649   2
  -2  -9  -2 137.437 7.21197   5
  -2  -9  -2 106.288 6.33951   3
  11  -2  -2 139.081 4.31226   2
 -11   9  -2 142.047 5.94590   4
 -11   9  -2 138.750 4.80479   2
  -9  11  -2 125.692 6.26322   4
  11  -2  -2 142.644 5.44326   1
  -2  11  -2 137.072 7.07088   4
   2   9  -2 130.616 6.40895   4
   9   2  -2 135.241 4.33406   4
  -9  11  -2 123.706 5.31756   2
  -2  11  -2 140.669 6.19399   1
   9 -11  -2 127.303 5.58827   4
  11  -9  -2 115.288 3.53491   4
   9   2  -2 127.820 6.07656   1
   2 -11  -2 112.842 6.50606   4
   2   9  -2 144.225 6.66681   1
  -2  -9  -2 139.827 7.54795   4
  11  -2  -2 134.554 4.01281   2
  -2  11  -2 146.838 6.88657   2
   2   9  -2 146.236 7.06032   2
   9   2  -2 119.182 5.30398   2
 -11   9  -2 137.014 5.53100   3
  -9  11  -2 142.792 6.30412   3
   2   9  -1 6.74335 1.99424   2
  11  -2  -1 5.51226 1.10346   2
  -9  11  -1 5.60133 1.49844   3
   9   2  -1 8.28299 1.73768   2
  -2  11  -1 7.32741 1.95555   3
 -11   9  -1 5.69435 1.77328   5
   2   9  -1 6.32603 1.78424   3
   2   9  -1 11.2324 2.19090   5
  -9  11  -1 3.11060 1.84413   5
  11  -2  -1 5.19232 0.86965   3
   9   2  -1 5.32323 1.38212   3
  -2  11  -1 8.31199 2.16302   5
  11  -2  -1 7.93289 1.58056   1
  11  -9  -1 2.70280 1.45347   5
   9 -11  -1 7.00831 2.16160   5
   9 -11  -1 7.78635 0.98384   2
   9 -11  -1 4.07550 1.16374   3
   2 -11  -1 7.89349 2.44020   5
  -2  11  -1 6.21407 1.52866   1
  -2  -9  -1 4.87220 1.95021   5
   2 -11  -1 3.58170 1.72259   3
   2 -11  -1 7.06641 1.87710   2
  -2  -9  -1 8.13713 2.13547   2
  -2  -9  -1 3.76150 1.99229   3
 -11   9  -1 4.58760 1.40612   4
   9   2  -1 6.59078 1.61362   1
  11  -2  -1 5.91932 1.23508   2
  -9  11  -1 1.95039 1.46244   4
  11  -2  -1 8.92817 1.73472   1
   2   9  -1 8.18061 2.04723   1
  11  -2  -1 8.10238 0.67623   4
   9   2  -1 9.05820 1.48095   4
  -2  11  -1 5.20913 1.75923   4
   2   9  -1 5.51176 1.98018   4
  -9  11  -1 6.66038 1.43174   2
  11  -9  -1 5.03545 1.11542   4
   9 -11  -1 5.29440 1.53642   4
   2 -11  -1 5.28074 1.85652   4
  -2  -9  -1 7.54771 2.18757   4
  11  -2  -1 6.54015 0.95055   3
 -11   9  -1 4.57854 1.26258   3
  -2  11  -1 7.88597 2.00116   2
  -9  11   0 12.3987 1.85416   3
   9   2   0 20.2127 2.33118   2
  11  -2   0 16.2149 1.91704   1
  11  -2   0 14.5331 1.65569   2
  -2  11   0 14.8395 2.08158   1
   2   9   0 10.2629 2.31731   2
  -2  11   0 19.5362 2.81861   3
   2   9   0 16.4901 2.62243   3
   9   2   0 14.4866 1.41413   5
 -11   9   0 13.2993 2.26551   5
   9 -11   0 14.9495 1.48607   2
   9   2   0 19.8052 2.38051   3
  11  -9   0 16.0029 1.38748   3
   9   2   0 7.82378 2.06207   1
  11  -2   0 16.0493 1.54634   5
  11  -2   0 20.5859 1.83317   3
  -2  11   0 21.7219 3.11968   5
  -9  11   0 9.21163 2.54040   5
   9 -11   0 14.8835 1.92305   3
   2   9   0 21.2696 2.66994   5
  -2  -9   0 15.0862 2.42083   2
  11  -9   0 18.2289 2.63012   5
   9 -11   0 16.8666 2.77885   5
   9   2   0 14.7681 1.55122   5
   2 -11   0 15.8982 2.50944   3
  -2  -9   0 14.0147 2.69017   5
  11  -2   0 13.3239 1.55931   5
   2 -11   0 13.0813 2.72349   5
   2 -11   0 13.5605 2.15137   2
  -9  -2   0 16.0434 2.42123   2
  -2  -9   0 12.9979 2.51445   3
  -9  -2   0 18.4202 2.42493   3
   2   9   0 16.7014 2.38923   1
  -2  11   0 13.0214 1.93151   1
 -11   9   0 17.9278 1.97418   4
  11  -2   0 18.8061 1.98769   2
  11  -2   0 16.2097 1.56442   4
  11  -2   0 21.1952 2.27404   1
  -9  11   0 16.6456 2.32646   4
  -2  11   0 12.5326 2.31424   4
   9   2   0 12.0348 2.27355   1
   2   9   0 17.1991 2.65433   4
  -9  11   0 17.3232 1.66765   2
  11  -9   0 18.0689 1.89227   4
   9   2   0 19.8285 2.16887   4
  11  -2   0 17.5253 1.71811   4
   9 -11   0 12.3669 1.98546   4
   2 -11   0 13.8159 2.66298   4
  -2  -9   0 10.0051 2.41064   4
  -9  -2   0 14.4705 1.97356   4
  -2  11   0 15.4513 2.57851   2
 -11   9   0 18.5691 1.56265   3
  11  -2   0 13.8941 1.64317   3
   2   9   0 5.98364 1.94498   1
  -2  11   1 4.48798 1.83410   2
  -9  11   1 7.14717 1.39283   3
  -2  11   1 5.23101 1.58464   1
   2   9   1 6.24468 2.02882   2
   9   2   1 9.79167 1.57470   5
  11  -2   1 6.29217 1.37334   1
   9   2   1 7.38037 1.85934   2
 -11   9   1 6.97379 1.77727   5
   9 -11   1 3.27465 1.09806   2
  -2  11   1 8.30717 2.14564   3
  11  -9   1 7.53980 1.33131   3
  11  -2   1 5.25339 1.33076   5
  -9  11   1 5.57215 1.84306   5
  11  -2   1 4.00452 1.23554   2
   2   9   1 7.64674 2.06616   3
   9 -11   1 6.56730 1.57155   3
  -2  11   1 7.74713 2.14072   5
  11  -9   1 5.69270 1.92831   5
   2   9   1 5.27889 1.94691   5
   9 -11   1 3.97690 1.98714   5
   9   2   1 6.88447 1.76935   3
   2 -11   1 9.74072 2.11337   2
   2 -11   1 9.54661 1.76879   1
   2 -11   1 5.96864 1.84064   3
   2 -11   1 6.91620 2.02486   5
   2   9   1 2.76315 1.65025   1
  -2  -9   1 2.49918 1.66809   2
   9   2   1 6.18204 1.52187   5
  11  -2   1 6.59051 1.46622   3
  -2  -9   1 4.65917 2.00651   3
  -2  -9   1 6.72750 1.81697   5
  -9  -2   1 10.8066 1.92272   3
   9   2   1 5.60570 1.61727   1
  11  -2   1 8.81188 1.58839   5
  -9  -2   1 5.55680 1.71790   2
   9   2   1 6.02768 1.53800   4
 -11   9   1 8.15345 1.23805   4
   9   2   1 9.39048 2.16817   2
  11  -2   1 7.28095 1.44325   4
  -9  11   1 9.31225 1.82405   4
  11  -2   1 7.30474 1.55154   2
  -9  11   1 6.47220 0.91690   2
  -2  -9   1 7.47432 1.90560   1
  -9  -2   1 5.96417 1.64922   1
   2   9   1 10.6293 1.97540   1
  -2  11   1 7.09065 2.30624   4
  11  -9   1 7.99115 1.58091   4
   9   2   1 11.1045 2.09119   4
   2   9   1 3.71769 1.83903   4
   9   2   1 5.42444 1.80626   1
   9 -11   1 3.93750 1.41280   4
  -2  11   1 8.49409 1.73847   1
   2 -11   1 6.73865 2.25265   4
  -2  -9   1 6.62727 1.99459   4
  11  -2   1 8.35711 1.69983   4
  11  -2   1 6.96864 1.52333   1
  -9  -2   1 7.65702 1.47112   4
   9   2   1 3.81804 1.63416   3
  11  -2   1 8.45653 1.59652   3
  11  -9   1 5.28593 0.90226   2
   2   9   2 151.390 7.10809   2
  -9  11   2 139.639 4.74679   3
   2 -11   2 108.162 6.00799   2
   9   2   2 114.288 6.24834   2
  11  -9   2 120.632 5.22824   3
 -11   2   2 134.792 5.57145   1
   9   2   2 127.183 5.34458   5
  -2  -9   2 128.674 6.49698   2
  11  -2   2 126.677 5.50081   2
  -2  11   2 115.188 6.32460   3
   9 -11   2 126.099 5.75699   3
  11  -2   2 133.244 5.59789   5
 -11   9   2 141.832 6.16222   5
   2   9   2 128.588 6.75066   3
  -9  11   2 133.561 6.90392   5
   2 -11   2 124.128 6.53911   3
  11  -9   2 118.158 6.39688   5
  -2  11   2 128.695 7.24668   5
   9 -11   2 142.447 7.36753   5
   9   2   2 142.488 6.59691   3
   2   9   2 136.073 7.15473   5
  -2  -9   2 105.196 6.17316   3
  -9  -2   2 135.898 6.01444   2
   2 -11   2 118.089 6.69472   5
  11  -2   2 112.782 5.51060   3
  -2  -9   2 127.943 6.18872   5
   9   2   2 133.460 6.14892   5
  11  -2   2 105.013 5.32791   5
  -9  -2   2 135.681 5.47776   3
   9   2   2 130.205 5.96858   4
 -11   9   2 142.003 3.63234   4
   9   2   2 124.703 6.49005   2
  -2  11   2 137.472 6.12940   1
  11  -2   2 126.485 5.24985   4
  -2  -9   2 136.537 6.51278   1
  11  -2   2 138.779 5.92374   2
   2   9   2 88.2324 5.42683   1
   2 -11   2 145.823 6.06306   1
  -9  11   2 134.190 5.43492   4
   9   2   2 121.520 6.04706   1
  11  -2   2 129.892 5.29994   1
  -2  11   2 124.168 5.60610   1
   2   9   2 142.889 6.70368   1
  11  -9   2 125.012 5.77154   4
  -2  11   2 118.465 6.53325   4
   9 -11   2 137.982 6.34662   4
  -9  11   2 115.842 2.31431   2
   2   9   2 124.005 6.70417   4
   9   2   2 114.264 5.79867   1
  11  -2   2 138.605 5.70646   1
   2 -11   2 140.764 7.09000   4
   9   2   2 94.1989 5.88104   4
  -2  -9   2 77.6159 6.00411   4
  -9  -2   2 140.290 6.37976   1
  11  -2   2 119.168 5.70146   4
  -9  -2   2 131.167 4.36578   4
  11  -9   2 142.796 4.60776   2
   9   2   2 131.828 6.52113   3
  11  -2   2 141.328 5.72314   3
  -2  11   2 113.605 5.90159   2
   9 -11   2 136.104 5.35754   2
  -2  11   3 29.4035 3.34821   2
  -9  11   3 27.2082 2.03395   3
   2   9   3 30.3177 3.72026   2
   2 -11   3 20.4292 3.35248   2
   9 -11   3 26.6008 1.56127   1
  11  -9   3 30.5712 3.15025   3
  -2  -9   3 19.6102 3.15524   2
   9 -11   3 24.0201 3.23007   3
   9   2   3 26.4977 2.97151   5
   9   2   3 29.8096 3.32886   2
  11  -2   3 23.4894 2.91800   5
   2 -11   3 28.4374 3.02958   1
  -2  11   3 31.5029 3.51694   3
  -2  -9   3 22.1174 3.10877   1
 -11   9   3 24.6718 2.92201   5
  11  -2   3 31.4786 3.22808   2
   2   9   3 36.4442 3.95515   3
   2 -11   3 27.9393 3.53740   3
  -9  11   3 21.9329 3.19727   5
  11  -9   3 32.1818 3.77361   5
  -9  -2   3 38.7143 3.54591   2
   9 -11   3 31.2287 4.02464   5
  -2  -9   3 27.5128 3.47727   3
  -2  11   3 23.9384 3.54789   5
   2   9   3 24.5524 3.79694   5
   9   2   3 24.4524 3.25656   3
   2 -11   3 31.5496 3.55748   5
  -9  -2   3 22.1641 3.02232   1
  -2  -9   3 25.7239 2.99258   5
  11  -2   3 28.5726 3.18320   3
   9   2   3 18.3153 3.02475   5
  -9  -2   3 29.0748 2.74636   3
  11  -2   3 27.5896 3.36581   5
 -11   2   3 29.2387 2.90178   1
   2   9   3 18.7373 3.11135   2
   9   2   3 28.8552 3.27890   4
  11  -2   3 29.0073 2.96851   4
   9   2   3 30.6293 3.56528   2
  11  -2   3 23.5834 2.86018   2
  -9  11   3 26.2819 2.73598   4
  11  -9   3 29.4331 3.21355   4
   2   9   3 28.0208 3.23571   1
   9 -11   3 20.6294 3.02631   4
  -2  11   3 31.5031 3.72971   4
   9   2   3 27.8405 3.39906   1
   2   9   3 24.1499 3.66233   4
  -2  11   3 26.3899 2.98804   1
   2 -11   3 25.6174 3.36542   4
  -2  -9   3 31.8806 3.75725   4
   9   2   3 21.1512 3.21056   4
  11  -2   3 28.1916 3.38688   4
  11  -2   3 24.3028 2.87891   1
  -2  11   3 29.2178 3.11409   1
  -9  -2   3 29.5479 1.85460   4
  11  -9   3 29.8361 2.70971   2
   2   9   3 21.2121 3.15031   1
   9   2   3 35.6435 3.82266   3
  11  -2   3 29.8253 3.13089   3
   9 -11   3 29.6685 2.92573   2
   9   2   3 25.0024 2.94545   1
  11  -2   3 30.7739 2.96821   1
 -11   2   4 105.076 5.45408   1
  -2  11   4 99.5425 5.76798   2
   2 -11   4 96.7678 6.23101   2
  -9  11   4 105.535 3.51765   3
  -2  -9   4 105.664 6.46269   2
  11  -9   4 81.1152 5.41799   3
   2   9   4 111.687 6.61610   2
  -2  11   4 89.0673 5.54120   1
   9 -11   4 91.8785 5.73344   3
   9   2   4 99.0736 5.92395   5
  11  -2   4 105.183 6.23743   5
   2   9   4 85.1736 5.84933   1
   9   2   4 98.1312 6.23337   2
  -9  -2   4 93.6884 5.44392   2
  -2  11   4 111.046 6.28415   3
 -11   9   4 85.8938 5.08500   5
   2 -11   4 95.2166 6.22026   3
  11  -9   4 76.2870 6.22814   5
   2   9   4 104.916 6.61693   3
  -9  11   4 84.5940 6.04554   5
  -2  -9   4 97.8377 6.19431   3
   9   2   4 83.5282 5.64269   1
   9 -11   4 93.3848 6.61664   5
  11  -2   4 105.040 6.06247   2
  -2  11   4 97.9726 7.13459   5
   2 -11   4 83.9765 5.85083   5
   2   9   4 95.6261 6.81366   5
   9   2   4 87.4501 6.01167   3
  -2  -9   4 94.2772 5.28297   5
  -9  -2   4 91.8225 4.62271   3
   9   2   4 84.5728 5.87109   5
 -11   2   4 75.3292 3.00425   2
  11  -2   4 103.646 6.26739   3
  11  -2   4 90.6445 5.16841   1
  11  -2   4 82.7128 6.14125   5
  11  -9   4 93.0706 6.70151   5
   9 -11   4 93.4930 3.72736   1
   9   2   4 111.970 6.51136   4
  -2  11   4 82.5699 5.39243   2
   2   9   4 85.5070 5.88756   2
  11  -2   4 106.993 6.09548   4
   9   2   4 89.5285 6.23700   2
  -9  11   4 106.992 4.82847   4
  11  -9   4 98.9553 6.04031   4
  11  -2   4 107.556 6.25371   2
  -9  11   4 91.0592 3.00884   1
  -2  11   4 95.0117 6.14699   4
   2 -11   4 90.1017 5.97610   4
   2   9   4 121.083 7.14725   4
  -2  -9   4 91.4855 6.05945   4
   2   9   4 64.8724 5.16972   1
   9   2   4 86.9953 5.89866   1
   9   2   4 86.3510 6.35814   4
  -2  11   4 64.4786 5.02731   1
  11  -2   4 86.7761 5.84719   4
  11  -9   4 98.2683 3.38026   1
  11  -9   4 101.122 5.25686   2
   2 -11   4 88.2618 5.42646   1
  11  -2   4 97.1498 5.65067   1
  -9  11   4 96.5540 3.27291   3
   9   2   4 63.8843 5.52381   3
  -2  -9   4 83.5523 5.76223   1
  -9  11   4 93.5797 2.94246   1
   9 -11   4 99.2386 5.53483   2
  11  -2   4 100.976 5.90182   3
  -9  -2   4 107.694 6.21929   1
   2 -11   5 1.90284 2.19893   1
  -9  11   5 2.20874 0.83773   3
  -9  11   5 6.19393 1.52323   1
   2   9   5 1.95530 2.58339   1
  11  -2   5 1.03925 2.30109   3
   9 -11   5 2.85954 2.39378   2
   9 -11   5 1.93609 1.44672   1
   9   2   5 5.19325 2.48967   1
  -2  11   5 4.13910 2.40617   1
  -9  11   5 4.07955 0.98236   3
  11  -9   5 2.41741 2.10465   3
   2 -11   5 5.50066 2.47972   2
   9   2   5 7.47846 2.65863   5
  -2  -9   5 2.97897 2.61233   1
  11  -2   5 2.48387 2.61643   5
  -2  -9   5 6.23797 3.13086   2
  -2  11   5 3.53231 2.37886   2
  11  -2   5 2.83634 2.30522   1
 -11   9   5 1.85107 1.91167   5
  11  -9   5 4.47466 3.15350   5
 -11   9   5 3.45909 1.05270   1
  11  -9   5 3.25327 1.41090   1
   9 -11   5 6.57627 3.38458   5
  -9  11   5 2.97105 2.57158   5
   2 -11   5 1.67783 2.50188   3
  -2  11   5 3.85585 2.64654   3
   2   9   5 5.21696 2.76156   2
   9 -11   5 1.74945 2.23362   3
  -2  11   5 0.98892 2.20022   1
  -2  -9   5 2.91691 2.48053   3
   2 -11   5 0.81707 2.29367   5
  -2  11   5 2.52775 3.07957   5
   2   9   5 7.40816 2.98266   1
   2   9   5 5.90642 2.89727   3
  -9  -2   5 2.91390 2.02292   2
   2   9   5 3.89975 3.13834   5
 -11   2   5 3.97725 2.31119   1
  -2  -9   5 2.64177 2.13280   5
  -9  -2   5 2.16229 2.32593   1
   9   2   5 1.66364 2.22575   2
   9   2   5 5.43417 2.81757   5
   9   2   5 1.01159 2.66833   3
  -9  -2   5 3.92960 1.80131   3
  11  -2   5 1.80509 2.19264   2
  11  -2   5 4.62957 2.78543   5
 -11   2   5 3.04475 1.15887   2
  11  -2   5 4.76740 2.70889   3
   9   2   5-1.57197 2.62887   1
  11  -9   5 0.25794 2.51444   5
   9   2   5 0.39108 2.56743   4
  11  -2   5 5.38979 2.54420   4
   2   9   5 0.24552 2.38408   2
  -2  11   5 1.87735 2.00047   2
  11  -9   5 4.03351 2.31779   4
  -9  11   5 1.00951 1.52337   4
   9   2   5 1.16150 2.71825   2
   9 -11   5 1.55041 2.62389   4
  11  -2   5 1.78920 2.00011   1
   2 -11   5 4.68938 2.65445   4
  -2  11   5 1.75642 2.44833   4
  11  -2   5 5.05587 2.68745   2
  -2  -9   5 2.66360 2.32320   4
   2   9   5 5.39346 2.60309   4
  -9  11   5 3.09953 1.32956   1
   9   2   5 1.54257 2.90658   4
  11  -2   5 6.86289 2.84062   4
  -2  11   5 3.60888 2.41942   3
   2   9   5 3.33164 2.75022   3
  11  -9   5 2.92597 2.18091   2
   9   2   5 2.50738 2.43475   3
  10   1  -4 2.03265 1.10617   3
  -1  11  -4 3.01163 2.32402   3
   1  10  -4-0.11887 2.03140   3
 -10  11  -4 1.37854 2.42667   5
   1  10  -4 1.56084 1.79431   5
  -1  11  -4 1.07894 2.00605   5
  10 -11  -4 2.14017 2.25054   5
  11 -10  -4 1.58886 1.97424   5
   1 -11  -4 0.74503 2.35979   5
  -1 -10  -4-0.14657 2.28261   5
   1 -11  -4 2.56374 2.39594   3
  -1 -10  -4-1.07048 2.55853   3
 -11  10  -4 7.00074 2.29700   4
 -10  11  -4 4.67836 2.43449   4
  -1  11  -4 2.21570 2.31273   4
   1  10  -4 1.72962 2.04016   4
 -11  10  -4 0.88912 1.76890   2
 -10  11  -4 1.40664 1.93037   2
  11  -1  -4 2.13223 1.95355   1
 -10  11  -4 1.27753 0.89352   1
  11  -1  -4 2.16805 1.21095   2
  -1  11  -4 1.92228 2.16051   1
  10   1  -4 0.96425 1.89729   1
  10   1  -4 0.95805 1.49451   2
   1 -11  -4-1.39561 2.66501   4
  -1 -10  -4 1.44661 2.52376   4
  10 -11  -4 2.04424 1.33375   4
  -1  11  -4 2.59870 2.03972   2
   1  10  -4 3.16482 2.30457   1
   1  10  -4 2.05299 2.40454   2
 -11  10  -4 1.83365 1.89094   3
 -10  11  -4 1.83475 1.96426   3
  10   1  -3 4.56064 1.88475   1
 -10  11  -3 3.90617 1.91547   3
  10   1  -3 6.28280 1.49875   3
   1  10  -3 8.95570 2.52877   1
  -1  11  -3 6.08733 2.53474   3
   1  10  -3 5.20306 2.03407   3
 -11  10  -3 5.49419 2.21166   5
 -10  11  -3 5.65271 2.50396   5
   1  10  -3 6.72930 2.11009   5
  -1  11  -3 7.04490 2.11203   5
  11 -10  -3 6.11151 2.11548   5
  10 -11  -3 7.72975 2.37621   5
   1 -11  -3 8.10059 3.11244   5
  -1 -10  -3 10.8431 2.98710   5
   1 -11  -3 10.8105 2.59237   3
  -1 -10  -3 3.69138 2.32749   3
 -11  10  -3 7.49407 2.10000   4
 -10  11  -3 7.37179 2.06997   4
 -11  10  -3 5.29582 1.69604   2
  -1  11  -3 8.71760 2.43568   4
   1  10  -3 7.31001 2.22548   4
 -10  11  -3 6.71180 2.01015   2
  10 -11  -3 6.55618 1.53267   4
   1 -11  -3 3.90298 2.25583   4
  -1 -10  -3 5.40760 2.38530   4
  11 -10  -3 3.98540 0.99106   4
  11  -1  -3 5.40847 1.34436   2
  11  -1  -3 6.51347 1.91525   1
  -1  11  -3 5.83279 2.07618   2
  10   1  -3 6.39253 1.66594   2
   1  10  -3 12.2585 2.67836   2
  -1  11  -3 4.90689 2.02090   1
 -11  10  -3 2.94946 1.73685   3
 -10  11  -2 0.58837 1.32944   3
  11  -1  -2 1.58928 1.37960   1
  11  -1  -2 1.59725 0.69350   3
  -1  11  -2 1.57707 1.78197   3
   1  10  -2 1.27249 1.64702   3
  10   1  -2 2.39606 1.14164   3
 -11  10  -2 2.64117 1.76232   5
  -1  11  -2 2.67507 1.54825   1
 -10  11  -2-0.15255 1.63985   5
  -1  11  -2 0.63053 1.58954   5
   1  10  -2 1.73352 1.66491   5
  10   1  -2 0.59566 1.36109   1
   1  10  -2 0.22565 1.31250   1
  11 -10  -2 0.69165 1.59860   5
  10 -11  -2-1.03805 2.00841   5
   1 -11  -2 0.59031 1.72050   5
  -1 -10  -2 0.90129 2.02182   5
   1 -11  -2 1.10234 1.87748   3
  -1 -10  -2-0.99458 1.66601   3
   1 -11  -2 1.28220 1.49047   2
  10 -11  -2 1.52033 0.80716   3
  -1 -10  -2 1.07723 1.90164   2
  10   1  -2 1.16594 0.63267   4
 -11  10  -2 0.49222 1.41839   4
 -10  11  -2 1.43329 1.49671   4
 -11  10  -2 1.23406 1.08892   2
  10   1  -2 0.59428 0.62846   4
  -1  11  -2 0.28407 1.44235   4
   1  10  -2 1.20254 1.84751   4
 -10  11  -2 1.04430 1.25094   2
  10 -11  -2 1.49076 1.25468   4
  11 -10  -2 0.93375 1.03465   4
   1 -11  -2-0.23829 1.75807   4
  -1 -10  -2-0.32049 1.86057   4
  -1  11  -2-0.42396 1.76382   2
  11  -1  -2 1.13530 0.93622   2
  11  -1  -2 1.24651 0.63942   3
   1  10  -2 2.97047 2.02502   2
 -11  10  -2 0.28597 1.20832   3
  10   1  -2 0.53609 1.12981   2
  -1  11  -1 17.9490 2.79946   3
  11  -1  -1 21.6538 1.84371   3
  10   1  -1 17.9248 2.02129   3
 -11  10  -1 17.3901 2.81876   5
   1  10  -1 12.1313 2.69830   3
 -10  11  -1 12.4933 2.63156   5
   1  10  -1 20.1957 2.69063   5
  -1  11  -1 16.2443 2.70473   5
  10 -11  -1 13.5936 2.94609   5
  -1 -10  -1 22.3964 3.07004   2
  10 -11  -1 19.8949 1.83720   3
  11 -10  -1 11.9658 2.33956   5
  -1 -10  -1 24.8974 3.31564   3
  -1 -10  -1 18.9910 3.17703   5
   1 -11  -1 8.69942 2.94157   5
   1 -11  -1 16.3870 2.80894   3
   1 -11  -1 12.3163 2.38403   2
  10   1  -1 17.1963 1.70674   4
  11  -1  -1 15.0673 2.39716   1
  11  -1  -1 16.8142 2.07737   2
 -11  10  -1 16.0001 1.49187   2
 -11  10  -1 20.1212 2.39981   4
  11  -1  -1 19.0235 1.28473   4
 -10  11  -1 20.8022 2.67888   4
 -10  11  -1 15.0375 1.74019   2
  11  -1  -1 21.7431 1.37422   4
  10   1  -1 16.3080 1.70399   4
  -1  11  -1 13.5158 2.89216   4
   1  10  -1 11.3908 2.57709   4
  11 -10  -1 21.3782 2.20700   4
  10 -11  -1 12.8444 2.01257   4
   1 -11  -1 14.7782 2.93710   4
  -1 -10  -1 20.0489 3.24264   4
  11  -1  -1 18.3856 2.30408   1
  -1  11  -1 19.2836 2.64633   1
  -1  11  -1 18.3828 2.68974   2
   1  10  -1 15.5020 2.62978   2
  11  -1  -1 20.8212 1.77837   3
  10   1  -1 17.9619 2.47403   1
  11  -1  -1 19.5960 2.02439   2
 -11  10  -1 17.8525 2.02340   3
  10   1  -1 17.9578 2.20835   2
   1  10  -1 16.2966 2.58169   1
 -10  11  -1 20.0677 2.41352   3
  -1  11   0 3.22742 1.75345   2
 -10  11   0 0.61022 0.99387   3
   1  10   0 2.47257 1.84521   2
  10   1   0 2.35338 1.24627   2
  11  -1   0 1.46146 1.06531   2
  -1  11   0 5.26759 1.93900   3
 -11  10   0 2.70830 1.85998   5
   1  10   0 2.35349 2.05701   3
  10   1   0 1.96016 0.72459   5
 -10  11   0 2.97716 1.66076   5
  11  -1   0 1.22227 0.71890   5
  -1  11   0 3.26600 2.01377   5
   1  10   0 3.00595 1.87117   5
  10   1   0 2.00921 1.21894   3
  11  -1   0 0.45623 0.86370   3
  11 -10   0 3.35147 0.97629   3
  11 -10   0 3.87576 1.78845   5
  10 -11   0 2.64669 1.14133   3
  10 -11   0 2.77030 1.84949   5
  10   1   0 2.48711 0.84843   5
   1 -11   0 1.38660 2.04262   5
  10 -11   0 3.42389 0.78727   2
  11  -1   0 3.14432 0.95292   5
  -1 -10   0-0.35829 1.67534   5
   1 -11   0 0.48181 1.26760   3
   1 -11   0 3.21071 1.63807   2
  -1 -10   0 8.29138 2.09815   3
  -1 -10   0 0.95825 1.78752   2
  10   1   0 2.66812 1.03357   4
  10   1   0 1.58876 1.44757   2
  11  -1   0 3.70747 1.04784   4
 -11  10   0 2.21359 1.20703   4
 -10  11   0 2.26162 1.32950   4
  11  -1   0 3.93970 1.44273   2
   1  10   0 3.29919 1.63079   1
  -1  11   0 2.41240 1.42723   1
  10   1   0 5.25745 1.77883   1
 -10  11   0 3.02069 0.77030   2
  -1  11   0 5.05026 2.19704   4
   1  10   0 3.11439 1.60688   4
  11  -1   0 2.40859 1.45988   1
  11  -1   0 3.12632 1.30387   1
  -1  11   0 2.50020 1.35729   1
  11 -10   0 0.50939 1.21464   4
  10   1   0 1.66794 1.04753   4
  10 -11   0 1.89722 1.29717   4
  11  -1   0 1.71369 0.98823   4
   1 -11   0 2.57456 1.87715   4
  -1 -10   0 2.67149 1.83133   4
   1  10   0 2.07611 1.38405   1
  10   1   0 3.09256 1.37275   1
  10   1   0 3.45504 1.42092   3
  11  -1   0 3.13396 1.13369   3
 -11  10   0 3.49447 0.99783   3
  11 -10   1 17.9873 1.44146   2
  10   1   1 16.8874 2.38069   2
  10 -11   1 18.2876 1.82536   2
  11  -1   1 20.2381 2.25905   2
  -1  11   1 20.0770 2.93461   3
  10   1   1 17.1621 1.93421   5
   1 -11   1 21.4322 2.94972   2
  11 -10   1 20.4300 2.06167   3
 -11  10   1 17.0014 2.56988   5
  11  -1   1 16.1400 1.90015   5
  -1 -10   1 22.1600 2.96207   2
  10 -11   1 13.0146 1.88132   3
 -10  11   1 23.3033 3.14754   5
  10   1   1 15.7894 2.32683   3
   1  10   1 23.8423 3.24669   5
  11  -1   1 19.7068 2.22808   3
  11 -10   1 23.6768 3.27161   5
  10 -11   1 17.6430 3.09938   5
  -1  11   1 15.1890 2.41116   1
   1 -11   1 16.9630 2.76348   3
  -1  11   1 15.1055 2.80836   5
  -1 -10   1 24.0260 3.24584   3
  11  -1   1 20.0043 2.36745   1
  -1 -10   1 15.5623 2.59487   1
   1 -11   1 20.2996 3.38608   5
  10   1   1 18.3705 2.26675   5
  -1 -10   1 17.7918 2.81409   5
   1  10   1 23.5249 3.05340   1
  11  -1   1 17.2140 2.19030   5
  10   1   1 21.2604 2.58030   1
 -10  -1   1 12.7137 2.16787   2
   1  10   1 16.9555 2.98165   3
   1 -11   1 19.6049 2.53957   1
  10   1   1 15.1232 2.06409   4
  10   1   1 20.4934 2.73395   2
  11  -1   1 20.4329 2.12835   4
 -11  10   1 22.7638 2.14986   4
  11  -1   1 17.7987 2.36050   2
   1  10   1 16.0342 2.55989   1
  -1  11   1 23.2213 2.70176   1
 -10  11   1 21.6345 2.39373   4
  10   1   1 17.7127 2.56270   1
  11  -1   1 18.0555 2.27953   1
 -10  -1   1 19.4578 2.57399   1
  -1  11   1 23.6212 3.20187   4
  11 -10   1 21.3401 2.38357   4
  10 -11   1 16.2857 2.34869   4
   1  10   1 14.2360 2.66074   4
  10   1   1 22.1892 2.59851   4
  11  -1   1 16.9022 2.23680   4
   1 -11   1 18.4213 3.04351   4
  -1 -10   1 13.3717 2.59307   4
  10   1   1 20.0861 2.54358   3
 -11  10   1 20.6061 1.28983   3
  11  -1   1 23.6596 2.37089   3
  -1  11   1 22.5407 2.95048   2
   1  10   1 16.0479 2.87696   2
 -10  11   1 16.1953 1.73804   3
 -10  11   2 1.55431 0.74708   3
  11 -10   2-0.50789 0.89185   2
  -1  11   2-0.16700 1.67681   2
  10 -11   2 0.63390 1.03691   2
   1  10   2 0.35656 1.88715   2
  10   1   2-0.11602 1.15776   5
  11  -1   2 1.41977 1.40728   5
  11 -10   2 1.21228 1.32065   3
 -11  10   2 0.28048 1.46693   5
  10 -11   2 3.61807 1.57045   3
  -1  11   2 3.79553 2.24079   3
 -10  11   2 1.21139 1.71217   5
 -10  -1   2 0.26799 1.39886   1
   1  10   2-0.33815 1.94716   3
  10   1   2 1.54671 1.51493   2
   1 -11   2 0.06783 1.69469   2
  11 -10   2 1.90126 2.01819   5
  11  -1   2-0.17974 1.26644   2
  -1  11   2-0.42056 1.79866   5
  10 -11   2 5.16230 2.39278   5
   1  10   2 0.04070 1.79888   5
  -1 -10   2 0.03461 1.66238   2
   1 -11   2-1.40461 1.77988   3
   1 -11   2 0.62821 1.83242   5
  10   1   2 0.75143 1.45705   3
  -1 -10   2 3.79041 2.23876   3
  -1 -10   2 0.30222 1.58302   5
  11  -1   2 0.77139 1.38350   3
  10   1   2 3.26266 1.68192   5
  11  -1   2 0.02691 1.33231   5
 -10  -1   2 2.32091 1.50419   2
 -10  -1   2 1.99254 1.25171   3
  10   1   2 0.47788 1.32904   4
  11  -1   2 0.78307 1.25401   4
 -11  10   2 0.91333 0.86787   4
  -1  11   2 1.08571 1.54011   1
  10   1   2-0.26370 1.52128   2
 -10  11   2 0.55985 1.09794   4
 -11   1   2 1.19027 1.43730   1
  11  -1   2 0.34105 1.40967   2
  11 -10   2-0.08390 1.43806   4
   1  10   2-0.42577 1.42477   1
  10 -11   2 0.96230 1.51544   4
  -1  11   2 0.33583 1.81339   4
   1  10   2 0.22661 1.89341   4
  -1 -10   2-0.22202 1.58462   1
   1 -11   2-0.26730 1.62012   4
  11  -1   2 1.46989 1.32027   1
   1  10   2 1.12647 1.33843   1
  -1 -10   2-1.20850 2.00087   4
  10   1   2 0.54955 1.57576   4
   1 -11   2-0.20215 1.35609   1
  -1  11   2 2.17456 1.44104   1
  11  -1   2-0.47500 1.55284   4
  10   1   2 0.20978 1.41150   1
  10   1   2 0.76358 1.43398   1
  11  -1   2 0.44588 1.37565   1
  10   1   2 0.36340 1.46948   3
  11  -1   2 0.05181 1.33841   3
  11  -1   3 8.11640 2.11695   3
  11 -10   3 9.16155 1.85815   2
  10 -11   3 4.50043 1.52518   2
   1 -11   3 3.91022 1.79280   1
  -1  11   3 6.50652 2.18978   2
  -1 -10   3 4.37605 1.90313   1
   1  10   3 5.23473 2.10529   2
  10   1   3 7.50581 1.97783   5
  -1  11   3 2.94174 1.89323   1
  11 -10   3 5.64565 1.98956   3
  11  -1   3 5.64018 1.93105   5
  10 -11   3 8.60956 2.17121   3
 -11  10   3 4.94917 2.12172   5
   1 -11   3 3.86879 2.02464   2
 -10  11   3 5.57407 2.12762   5
  -1  11   3 9.26165 2.59297   3
  -1 -10   3 4.33001 2.31692   2
  11 -10   3 10.0516 2.91028   5
   1  10   3 4.27563 2.23808   3
  10 -11   3 5.84953 2.61122   5
  -1  11   3 6.16106 2.74430   5
   1  10   3 8.89317 2.72178   5
  10   1   3 4.79698 2.05144   2
   1 -11   3 6.32779 2.74961   3
  -1 -10   3 4.99218 2.29750   3
   1 -11   3 6.81991 2.26962   5
   1  10   3 9.93876 2.40923   1
  11  -1   3 8.08489 2.06678   2
  -1 -10   3 4.68036 2.02710   5
  10   1   3 6.13940 2.20111   3
  10   1   3 4.61900 2.06330   5
  11  -1   3 5.46448 2.12431   3
 -10  -1   3 10.2643 1.69489   3
 -10  -1   3 3.77589 1.82235   1
  11  -1   3 8.98736 2.41878   5
 -10  -1   3 8.00050 1.85715   2
 -11   1   3 8.16713 1.53905   2
 -11   1   3 5.19501 1.88372   1
 -11  10   3 9.86903 1.10757   4
  10   1   3 9.64873 2.24456   4
  11  -1   3 6.81400 2.04784   4
  11  -1   3 6.71869 1.92840   1
  10   1   3 6.98997 2.17783   1
 -10  11   3 7.53770 1.53824   4
  10   1   3 8.39902 2.43641   2
  11 -10   3 3.93351 2.01204   4
  11  -1   3 3.80947 2.05008   2
  10 -11   3 9.32255 2.35392   4
  -1  11   3 4.14606 2.43127   4
   1  10   3 6.70244 2.57299   4
   1 -11   3 10.3455 2.71311   4
  -1 -10   3 3.08484 2.12301   4
  10   1   3 8.07427 2.48764   4
  11  -1   3 5.01422 2.26409   4
   1  10   3 3.33619 1.90655   1
 -10  11   3 3.05200 0.67889   3
  -1  11   3 5.45749 1.88741   1
  10   1   3 5.90370 2.05619   1
  10   1   3 4.34867 2.05322   3
 -10  11   3 5.17748 0.74325   3
  11  -1   3 6.50011 2.07278   1
 -11   1   4 3.51099 2.43357   1
  10   1   4-0.20928 1.79529   1
  10   1   4 3.14092 2.01592   1
  11  -1   4 1.57474 2.24885   3
  11  -1   4 3.03446 2.11009   1
  10 -11   4 3.79554 1.87701   2
  11  -1   4-0.93044 1.93516   1
  11 -10   4-0.09941 1.86309   3
  -1  11   4 2.63157 2.08839   2
  10   1   4 0.97701 1.91437   5
  11  -1   4 0.91803 1.89518   5
  10 -11   4 0.31522 1.85407   3
   1  10   4 3.00831 2.58380   2
   1 -11   4 1.01963 2.06838   2
  -1 -10   4 2.18379 2.07712   2
 -11  10   4 3.29320 2.17842   5
 -10  11   4 2.36270 2.36421   5
  11 -10   4 2.58234 2.44528   5
  -1  11   4 2.90958 2.20657   3
  10 -11   4-0.55994 2.67318   5
   1  10   4-0.94743 2.26873   3
   1 -11   4 3.83950 2.30277   3
  -1  11   4 0.14510 2.49753   5
  -1 -10   4 0.24379 2.32718   3
   1  10   4 0.71317 2.72505   5
   1 -11   4 1.24503 1.93975   5
  -1 -10   4 0.93380 2.11004   5
  10   1   4 1.21953 2.18354   2
  11  -1   4 1.97956 2.12191   2
  10   1   4 4.19850 2.33433   3
  10   1   4 1.14988 2.04665   5
 -10  -1   4 0.73294 1.72081   2
  11  -1   4 1.10389 2.44570   5
  11  -1   4 0.87423 2.18700   3
 -11   1   4 1.04163 1.26345   2
 -10  -1   4 1.55477 1.19172   3
  10   1   4 0.89765 2.02499   4
  11  -1   4 1.58811 1.89315   4
  -1  11   4-0.38963 1.79245   2
   1  10   4 1.81843 1.96228   2
 -10  11   4 2.81646 1.43417   4
  10 -11   4 1.19747 0.85445   1
  10   1   4 3.40237 2.51326   2
  11 -10   4 1.13275 1.94069   4
  10 -11   4-2.03425 2.46998   4
  11  -1   4 1.57927 2.24727   2
  -1  11   4 0.45129 2.16372   4
   1  10   4 3.38399 2.25811   4
   1 -11   4-1.86456 2.48463   4
  -1 -10   4 2.72924 2.36652   4
  10   1   4-0.04218 2.43475   4
   1 -11   4 6.04295 2.42748   1
  11  -1   4 1.54849 2.07231   4
  -1 -10   4 0.73625 1.86687   1
  -1  11   4 1.53434 1.85457   1
   1  10   4 12.9474 3.36819   1
 -10  -1   4 0.65926 2.04023   1
   1  10   4-0.40889 1.76607   1
  10   1   4 1.47752 2.31199   3
  -1  11   4 1.78604 2.02848   1
  11 -10   4 2.82657 1.86538   2
   0  11  -4 22.2526 4.17256   3
   0  11  -4 32.3599 3.70382   5
 -11  11  -4 23.1063 4.11420   5
  11 -11  -4 23.3081 3.75914   5
  11   0  -4 36.6333 3.87767   1
   0 -11  -4 34.5457 4.50847   3
   0  11  -4 26.6871 3.89085   1
   0 -11  -4 24.8661 4.58836   5
 -11  11  -4 31.6116 4.03011   4
 -11  11  -4 31.2596 3.64330   2
   0  11  -4 21.3828 3.80776   4
  11   0  -4 29.9064 2.76293   2
   0 -11  -4 36.0056 4.87446   4
  11 -11  -4 37.9397 2.15593   4
   0  11  -4 25.1632 3.99006   2
 -11  11  -4 26.1583 3.51964   3
  11   0  -3 22.2706 1.66249   3
   0  11  -3 15.1978 3.24116   3
   0  11  -3 30.8236 3.45659   5
 -11  11  -3 21.5372 3.57161   5
  11 -11  -3 21.8895 3.31946   5
   0 -11  -3 22.1658 4.03680   5
   0 -11  -3 19.7248 3.52333   3
  11   0  -3 19.1422 2.86267   1
 -11  11  -3 20.5091 3.09205   4
 -11  11  -3 23.5547 2.84102   2
   0  11  -3 22.9387 3.36705   1
   0  11  -3 23.8774 3.59366   4
  11   0  -3 18.8317 2.21773   2
  11 -11  -3 18.0224 1.96793   4
   0 -11  -3 19.8134 3.66756   4
  11   0  -3 23.7429 1.71518   3
   0  11  -3 12.8866 3.10611   2
 -11  11  -3 26.2643 3.25253   3
   0  11  -2 21.1878 3.55128   3
  11   0  -2 21.4611 1.99193   3
 -11  11  -2 26.2950 3.48775   5
   0  11  -2 21.9607 3.18597   5
  11 -11  -2 25.4145 3.43806   5
   0 -11  -2 27.0833 3.93993   5
   0 -11  -2 25.1376 3.48181   2
   0 -11  -2 22.4691 3.45632   3
 -11  11  -2 33.4886 3.47130   4
 -11  11  -2 33.5370 2.69193   2
   0  11  -2 38.2467 4.01023   4
  11   0  -2 29.6588 3.08942   1
   0  11  -2 29.4499 3.48097   1
  11 -11  -2 28.4811 2.66240   4
   0 -11  -2 27.6063 3.80105   4
   0  11  -2 25.0309 3.40121   2
  11   0  -2 29.1186 2.60732   2
  11   0  -2 30.2197 2.18439   3
 -11  11  -2 24.0911 2.85500   3
   0  11  -1 83.4283 5.70085   3
  11   0  -1 116.197 4.51436   3
 -11  11  -1 110.133 6.47102   5
   0  11  -1 111.865 6.35416   5
  11 -11  -1 96.0314 6.18187   5
   0 -11  -1 103.569 6.18675   2
  11 -11  -1 110.058 3.57329   3
   0 -11  -1 113.569 6.66558   3
   0 -11  -1 113.694 6.91375   5
  11   0  -1 124.757 5.61105   2
  11   0  -1 105.805 5.96647   1
  11   0  -1 107.301 3.41822   4
 -11  11  -1 104.829 5.34635   4
 -11  11  -1 113.526 3.79162   2
   0  11  -1 137.811 7.18174   4
  11   0  -1 107.857 3.52341   4
  11 -11  -1 108.958 4.91195   4
   0 -11  -1 108.097 6.86607   4
  11   0  -1 96.6162 5.23061   1
   0  11  -1 117.401 6.51244   2
   0  11  -1 100.493 5.71296   1
  11   0  -1 112.729 4.49098   3
  11   0  -1 110.472 4.88586   2
 -11  11  -1 102.984 4.82641   3
  11   0   0 19.8585 2.55559   1
   0  11   0 19.9923 2.73461   1
 -11  11   0 22.1788 3.07606   5
  11   0   0 21.3279 2.25572   3
  11   0   0 18.2782 1.47080   5
   0  11   0 13.0637 2.85510   3
   0  11   0 24.1632 3.27344   5
   0 -11   0 19.7550 2.91170   2
  11 -11   0 21.6066 2.04872   3
  11   0   0 16.7429 1.52790   5
   0 -11   0 14.4775 2.98079   3
  11 -11   0 15.2440 2.83271   5
   0 -11   0 24.8239 3.52466   5
   0  11   0 19.9240 2.78984   1
  11   0   0 20.4592 1.95623   4
  11   0   0 22.5201 2.74873   2
 -11  11   0 20.1005 2.44461   4
  11   0   0 15.5798 2.64928   1
   0  11   0 18.4467 3.19437   4
  11 -11   0 18.8677 2.24620   4
  11   0   0 13.9895 1.86762   4
   0 -11   0 22.4449 3.38875   4
  11   0   0 19.8529 2.31837   3
   0  11   0 29.7486 3.56878   2
 -11  11   0 19.9200 2.03234   3
  11   0   0 16.0142 2.12219   2
  11   0   1 104.015 5.07638   2
  11 -11   1 106.868 3.56209   2
   0  11   1 106.022 6.48835   3
  11   0   1 109.996 4.40825   5
 -11  11   1 112.038 6.33197   5
   0 -11   1 115.772 6.53322   2
  11 -11   1 109.279 4.70272   3
  11   0   1 99.0350 4.94717   3
   0  11   1 76.9790 5.74208   5
   0  11   1 93.6696 5.79046   1
  11 -11   1 106.291 6.53723   5
  11   0   1 103.179 5.34488   1
   0 -11   1 97.8042 6.12364   3
   0 -11   1 63.2503 5.46335   5
  11   0   1 103.776 4.83802   5
  11   0   1 86.8842 4.41106   4
  11   0   1 107.795 5.70306   2
 -11  11   1 114.814 4.96542   4
   0  11   1 100.868 5.60247   1
  11   0   1 111.915 5.75086   1
   0 -11   1 105.361 5.76668   1
   0  11   1 98.4427 6.26007   4
  11 -11   1 101.207 5.22840   4
  11   0   1 108.321 5.15459   4
   0 -11   1 103.859 6.58792   4
  11   0   1 109.746 5.15813   3
 -11  11   1 95.6236 3.47732   3
   0  11   1 114.882 6.52641   2
  11   0   2 31.2273 3.35894   2
   0 -11   2 31.7502 3.67004   2
  11 -11   2 31.5853 3.01888   3
  11   0   2 23.7697 2.91532   5
 -11  11   2 26.3007 3.42226   5
   0  11   2 22.0620 3.42026   3
  11 -11   2 26.1130 3.61095   5
   0  11   2 25.1969 3.80433   5
   0 -11   2 26.9691 3.47355   3
  11   0   2 33.2437 3.31056   3
 -11   0   2 23.8510 3.06271   1
   0 -11   2 21.0115 3.37116   5
  11   0   2 28.8831 3.15493   5
 -11   0   2 32.2491 2.84530   2
   0  11   2 28.5457 3.54476   1
  11   0   2 37.5392 3.24016   4
  11   0   2 25.5389 2.90257   1
  11   0   2 31.1520 3.40621   2
 -11  11   2 27.5453 2.52469   4
   0  11   2 25.1814 3.10591   1
  11   0   2 22.1186 3.03987   1
  11 -11   2 36.1462 3.52900   4
   0  11   2 26.9893 3.79506   4
   0 -11   2 25.9289 3.69760   4
  11   0   2 31.0652 3.53733   4
   0 -11   2 29.9500 3.42665   1
 -11  11   2 22.2791 0.83143   3
  11   0   2 26.3550 3.01505   3
   0  11   2 24.1678 3.39494   2
  11 -11   2 21.0230 2.30603   2
   0  11   3 24.9079 3.81897   2
  11 -11   3 19.9012 2.91682   3
  11   0   3 17.2042 3.06927   2
   0  11   3 25.2196 3.56336   3
 -11  11   3 22.8112 3.47151   5
  11   0   3 14.5110 2.57698   5
  11 -11   3 20.4403 3.57083   5
   0 -11   3 21.6235 3.77704   3
   0 -11   3 22.7120 3.45301   2
  11   0   3 27.7351 3.56148   3
   0  11   3 20.7898 3.92894   5
 -11   0   3 16.3344 2.30354   2
   0 -11   3 16.6677 3.10125   5
  11   0   3 17.7729 2.99354   5
   0 -11   3 24.1030 3.31220   1
  11   0   3 21.4519 3.05475   4
 -11  11   3 22.6342 2.11792   4
  11 -11   3 21.3076 3.21033   4
 -11   0   3 23.6447 3.08004   1
   0  11   3 32.4156 3.72849   1
  11   0   3 17.8901 3.13919   2
   0  11   3 23.0658 3.56788   4
   0  11   3 25.4652 3.48318   1
   0 -11   3 32.9451 4.09110   4
  11   0   3 23.5878 3.18669   1
  11   0   3 21.9551 3.36123   4
  11   0   3 24.5008 3.16333   1
  11   0   3 21.0192 3.12587   3
  11 -11   3 22.2164 2.58823   2
  11   0   4 35.3648 3.82030   1
   0  11   4 30.3252 3.97866   2
   0 -11   4 31.8043 4.24960   2
  11 -11   4 30.3512 3.80633   3
   0 -11   4 38.9571 4.23824   1
  11   0   4 38.4759 4.29105   5
  11   0   4 33.8214 3.96350   2
   0  11   4 33.3189 4.13593   3
 -11  11   4 37.9188 4.18306   5
   0 -11   4 33.8438 4.31591   3
  11 -11   4 38.9226 4.92524   5
 -11   0   4 31.7901 3.69489   1
   0  11   4 32.6880 4.68208   5
 -11   0   4 29.9867 3.08652   2
   0 -11   4 27.5694 3.97018   5
  11   0   4 29.1226 3.90746   3
  11   0   4 29.3596 4.18080   5
   0  11   4 20.1399 3.64247   2
  11   0   4 35.0980 3.94147   4
 -11  11   4 32.4174 2.05161   4
  11   0   4 20.8683 3.99567   2
  11 -11   4 32.6305 4.26726   4
   0  11   4 40.7726 4.66619   4
  11 -11   4 30.4129 1.45373   1
   0 -11   4 29.2031 4.31666   4
   0  11   4 24.8946 3.70332   1
  11   0   4 23.8808 3.93666   4
  11   0   4 31.6599 3.86500   1
   0  11   4 32.4265 3.91116   1
  11 -11   4 29.1201 3.35143   2
  11   0   4 32.7927 4.00955   3
  -6  12  -4 1.83775 2.27450   3
   6   6  -4 2.70023 1.77193   3
  12  -6  -4 1.83485 1.12987   1
  -6  12  -4 4.92766 2.65124   5
  -6  12  -4 0.20188 1.50113   1
   6 -12  -4 0.94878 2.80972   5
  -6  -6  -4 0.25837 2.38909   5
   6 -12  -4 1.24918 1.95797   3
  -6  12  -4 0.83338 1.88708   4
   6   6  -4 1.77611 1.50199   4
  -6  12  -4 2.29698 2.28199   2
   6 -12  -4 0.50779 1.92213   4
  -6  -6  -4 3.38676 2.75854   4
   6   6  -4 2.63305 2.01318   2
   6   6  -4 4.19999 2.23102   1
  -6  12  -3 0.18218 1.97294   3
   6   6  -3-0.38782 1.41831   3
   6   6  -3-0.63091 1.84606   1
  -6  12  -3 1.19297 1.93827   5
  12  -6  -3 0.24392 0.76489   1
   6 -12  -3-0.22167 1.83782   5
  12  -6  -3-0.12303 0.62315   5
   6 -12  -3-0.71251 1.51122   3
  -6  -6  -3-0.55646 1.83412   5
  12  -6  -3-0.16679 0.57522   5
  -6  -6  -3 2.18047 2.15173   3
  -6  12  -3-0.71921 1.17307   1
  -6  12  -3 0.18273 1.89393   4
   6   6  -3-0.02474 1.31052   4
  -6  12  -3-1.12222 1.78821   2
   6 -12  -3 0.06818 1.73553   4
  -6  -6  -3 0.16377 2.09368   4
   6   6  -3-0.42784 1.69588   2
  -6  12  -2 19.0023 2.78767   3
   6   6  -2 23.8738 2.88076   3
   6   6  -2 23.6343 1.70268   5
  -6  12  -2 21.6746 3.03283   5
  -6  12  -2 23.7091 2.27509   1
  12  -6  -2 16.6277 1.82390   5
   6 -12  -2 22.7841 2.73924   3
   6 -12  -2 27.0390 2.58433   2
   6 -12  -2 22.0338 3.39982   5
  -6  -6  -2 19.3700 2.84527   5
  -6  -6  -2 22.7000 3.24904   3
  12  -6  -2 20.1041 1.79712   5
  12  -6  -2 19.8156 1.40274   1
  -6  12  -2 22.9285 3.08046   4
   6   6  -2 19.4331 2.47387   4
  -6  12  -2 17.8319 2.50086   2
   6 -12  -2 23.3404 3.27739   4
   6   6  -2 22.0608 3.09049   1
  -6  -6  -2 18.6546 3.04964   4
   6   6  -2 26.0058 3.12068   2
  12  -6  -2 25.0455 1.39374   1
   6   6  -1 3.63063 1.88025   2
  -6  12  -1-0.80461 1.50877   3
   6   6  -1 4.57484 1.78930   3
  -6  12  -1 2.13419 1.88040   5
   6   6  -1 1.71298 1.05716   5
  12  -6  -1-0.86035 1.07265   5
   6 -12  -1-1.87549 2.10297   5
   6 -12  -1 0.16370 1.33020   3
  12  -6  -1 0.10156 0.28556   1
   6 -12  -1 0.44857 1.15195   2
  -6  -6  -1-0.52356 1.44771   2
  -6  -6  -1-0.29237 1.26233   5
  -6  -6  -1 3.17463 2.05076   3
  12  -6  -1 0.17332 0.98057   5
  -6  12  -1-1.00332 1.51266   4
  -6  12  -1-0.31465 0.87062   1
   6   6  -1-0.34448 1.26660   1
   6   6  -1 0.24121 1.33701   4
   6 -12  -1-0.98364 1.61498   4
  -6  12  -1 0.47658 0.95958   1
  -6  -6  -1-0.56112 1.51734   4
  -6  12  -1 0.28623 1.23199   2
  -6  12   0 46.6919 3.71933   3
  12  -6   0 40.9028 1.66747   3
   6   6   0 57.9462 4.30847   3
   6 -12   0 42.5419 3.30528   2
  -6  12   0 39.9500 4.02159   5
   6   6   0 42.2741 3.76544   1
  12  -6   0 45.2419 3.21554   5
   6   6   0 38.7733 3.14227   5
   6 -12   0 41.1418 3.40605   3
  12  -6   0 41.1067 1.73929   3
   6 -12   0 26.9569 3.84086   5
  -6  -6   0 36.3377 3.87949   2
  12  -6   0 44.1870 1.41246   1
  -6  -6   0 48.5486 4.21816   3
  -6  -6   0 42.5547 3.13847   5
  12  -6   0 49.9460 3.34465   5
   6   6   0 45.6058 4.04415   1
  -6  12   0 39.3844 2.41541   1
  -6  12   0 41.4046 3.88650   4
  12  -6   0 39.5710 2.16784   4
  -6  12   0 42.3720 2.62293   1
   6   6   0 44.4989 3.77111   4
   6 -12   0 51.6930 4.23860   4
  -6  -6   0 41.8022 3.97202   4
  12  -6   0 37.7321 2.34277   4
  -6  12   0 44.9577 3.41881   2
   6   6   0 33.2676 3.71930   2
  -6  -6   1 1.52243 1.66122   1
  12  -6   1-0.07350 0.82869   3
   6   6   1 1.90920 1.84205   2
  -6  12   1-0.24654 1.34273   3
  -6  12   1 1.44642 2.01025   5
  12  -6   1-0.91686 1.33223   5
   6 -12   1-0.12278 1.18381   2
   6   6   1 0.16484 1.63629   3
  12  -6   1 0.17765 0.45357   1
  12  -6   1-0.01416 0.43737   1
  12  -6   1 0.11903 0.66028   2
   6 -12   1 1.12278 1.44567   3
   6   6   1-0.66752 1.34571   5
   6 -12   1-0.98578 1.57572   5
  -6  -6   1-2.12735 1.78131   2
   6   6   1-0.25724 1.47110   1
  -6  -6   1 0.69332 1.62701   3
  12  -6   1 0.01598 0.86995   3
  -6  -6   1-0.32752 0.96911   5
  12  -6   1-0.36826 1.24961   5
  -6  12   1 0.17467 0.79514   1
  12  -6   1-0.48598 0.91015   4
  -6  12   1-1.10373 1.61463   4
   6   6   1 1.09186 1.28621   1
   6   6   1 0.50821 1.53272   4
   6 -12   1 0.87295 1.69689   4
  -6  -6   1 5.52068 2.00375   4
  12  -6   1 1.65272 0.77572   2
  12  -6   1-0.04102 1.05526   4
  -6  12   1 0.23340 0.84285   1
  -6  12   1 3.28363 1.49052   2
  12  -6   2 17.3881 2.19990   3
  12  -6   2 18.8253 1.51360   1
   6   6   2 16.4888 2.89189   2
   6 -12   2 15.4813 2.52602   2
  -6  12   2 18.5608 2.73220   3
  -6  -6   2 15.0554 2.59217   2
   6 -12   2 15.6367 2.69875   3
  12  -6   2 21.6915 2.73690   5
   6   6   2 20.9709 3.01880   3
  -6  12   2 16.9366 1.85543   1
  12  -6   2 24.4277 2.19987   2
  -6  12   2 17.5887 3.17654   5
  12  -6   2 20.1640 1.57687   1
  -6  -6   2 19.4083 2.84888   3
   6 -12   2 17.4484 3.04648   5
   6   6   2 16.3071 2.68989   5
  12  -6   2 17.7034 2.23038   3
  -6  -6   2 19.3373 1.56446   5
  12  -6   2 13.0354 2.35259   5
   6   6   2 15.4961 2.71519   1
  12  -6   2 16.7599 2.18137   4
  -6  12   2 15.5502 2.55432   4
   6   6   2 19.6939 3.01565   1
   6   6   2 15.9477 2.65267   4
  -6  -6   2 22.0049 3.04256   1
  12  -6   2 23.2400 2.25069   2
   6 -12   2 13.2929 2.60049   4
  -6  -6   2 23.6185 3.05623   4
  -6  12   2 17.4646 1.93438   1
  12  -6   2 19.0952 2.49433   4
  -6  12   2 17.3251 2.26593   2
   6 -12   2 21.9087 2.12197   1
  -6  12   3-0.38034 1.26684   2
   6 -12   3 5.42123 1.58657   1
  12  -6   3-0.36213 1.35000   3
   6 -12   3-0.43586 1.53419   2
  -6  12   3-0.72505 1.08588   1
  -6  -6   3-1.44988 1.98752   1
  -6  12   3 0.24381 1.38338   3
  12  -6   3-1.23932 1.90470   5
   6   6   3 0.53508 1.90547   2
   6 -12   3-0.45601 1.57729   3
  -6  12   3 2.28700 2.17069   5
   6 -12   3-0.17133 2.08137   5
   6   6   3 11.0923 2.79650   3
  -6  -6   3-0.06862 1.70107   2
   6   6   3-0.73446 1.82710   5
  -6  -6   3 0.36709 1.81582   3
  12  -6   3-0.02465 1.31766   2
  12  -6   3-0.04352 0.88340   1
  12  -6   3 0.27018 0.89806   1
  12  -6   3-0.58677 1.48634   3
  12  -6   3 0.96458 1.83155   5
  -6  12   3-0.50599 1.20317   2
   6   6   3-0.19034 1.59479   2
 -12   6   3-0.08545 0.79284   1
   6   6   3 1.43666 2.04962   1
  12  -6   3-0.87888 1.49654   4
  -6  12   3-0.51582 1.50373   4
   6 -12   3-0.44888 1.84901   4
   6   6   3 2.21744 1.87731   4
  -6  12   3-0.01891 1.08693   1
  -6  -6   3 1.78165 1.84280   4
  12  -6   3-0.15914 1.22597   2
   6   6   3 0.31162 1.77782   1
  12  -6   3-0.81497 1.63130   4
 -12   6   4 1.95580 1.25189   1
  -6  12   4 4.08773 1.60095   2
  12  -6   4 0.54392 1.80936   3
   6 -12   4 2.58962 2.05256   2
  -6  12   4 2.31770 1.66178   3
  12  -6   4 2.18206 2.08394   5
   6 -12   4 3.11913 2.25423   3
   6   6   4 0.74081 1.87050   2
  -6  12   4 3.65435 2.34877   5
  -6  -6   4 3.14496 2.46712   2
  -6  12   4-0.06405 1.26971   1
   6 -12   4-1.10438 2.69200   5
   6   6   4 1.60387 2.43884   3
   6 -12   4 2.28277 1.53813   1
   6   6   4 0.69866 2.37848   5
  -6  -6   4 2.37541 1.98039   3
  12  -6   4 2.34711 1.32860   1
  12  -6   4 2.58693 1.84539   2
  12  -6   4 0.78675 2.37967   5
  12  -6   4 2.21346 1.96054   3
  12  -6   4 3.64353 1.44805   1
   6   6   4 1.43716 2.60529   2
  -6  12   4 2.08782 1.41778   2
  12  -6   4 1.31451 1.94630   4
  -6  12   4 3.51921 1.95163   4
   6 -12   4 4.32569 2.38104   4
   6   6   4 1.84020 2.42158   4
  -6  12   4 2.29235 1.43520   1
  -6  -6   4 1.73921 1.91415   4
  12  -6   4 1.05229 1.63062   2
  12  -6   4 3.17013 2.24895   4
  -6  -6   4-0.64725 2.23793   1
   6   6   4 2.61917 2.49076   1
   6   6   4 0.59093 1.98358   3
   6   6   4 0.79105 2.23798   1
  -5  12  -4 28.2069 4.08211   3
   7   5  -4 24.2939 2.95905   3
   5   7  -4 24.7908 3.51569   3
  -7  12  -4 19.9575 3.36288   3
  -5  12  -4 30.2263 3.17798   1
  -7  12  -4 20.3264 3.68773   5
  -5  12  -4 21.9638 3.65029   5
  12  -7  -4 26.8150 2.02393   5
   7 -12  -4 16.9700 3.37022   5
   5 -12  -4 24.0742 4.11037   5
  -5  -7  -4 26.2211 3.87651   5
   5 -12  -4 31.4680 3.53556   3
   7 -12  -4 22.4685 2.76322   3
  -7  -5  -4 22.2446 3.69159   5
   7   5  -4 33.9717 3.97977   1
   5   7  -4 36.3045 4.08269   1
  -7  12  -4 25.5140 3.64598   4
  -5  12  -4 22.2479 3.84699   4
   7   5  -4 22.7073 2.49028   4
   5   7  -4 22.9095 2.88111   4
  -7  12  -4 14.0622 3.22126   2
  12  -7  -4 24.3520 1.90910   1
   7   5  -4 23.1433 3.09236   2
   5   7  -4 26.9939 3.55461   2
   7 -12  -4 30.9719 3.60368   4
   5 -12  -4 29.3056 3.94552   4
  -5  12  -4 18.2291 3.19257   2
  -5  -7  -4 17.9684 3.76839   4
  -7  12  -4 21.6153 2.67934   1
  12  -5  -4 21.8340 2.37555   1
  -7  12  -3-0.74929 1.73183   3
  -5  12  -3 0.22253 1.70098   3
   7   5  -3 1.66565 1.70333   1
   7   5  -3 1.32692 1.51196   3
   5   7  -3-0.19214 1.51613   3
   5   7  -3 0.17744 1.77214   1
   5   7  -3 0.17346 0.74897   5
  -7  12  -3 0.24310 1.82461   5
  -5  12  -3 1.28071 1.73133   5
  -7  12  -3-0.03672 1.03015   1
   7 -12  -3 0.39678 1.96680   5
   5 -12  -3 0.04511 2.15320   5
  12  -7  -3 0.36495 1.22089   5
  12  -5  -3 0.50161 0.93424   1
   5 -12  -3 0.31353 1.49297   3
   7 -12  -3 0.97977 1.35370   3
  -5  -7  -3 0.11693 1.87823   5
  -7  -5  -3 0.14496 1.83408   5
  -5  -7  -3-1.26715 1.87471   3
  -7  12  -3-0.40008 1.53899   4
  -5  12  -3-1.02570 2.06519   4
   7   5  -3 0.13036 1.25609   4
   5   7  -3 0.44239 1.45348   4
  -5  12  -3 0.42524 1.28100   1
  -7  12  -3 1.99999 1.78630   2
   7 -12  -3-0.55318 1.71966   4
   5 -12  -3 1.23157 1.94497   4
  -5  12  -3 1.22442 1.52731   2
  -5  -7  -3-0.16987 2.23802   4
  -7  -5  -3 2.63852 1.98310   4
  12  -7  -3 0.41979 0.38224   1
   5   7  -3 1.05460 1.84035   2
   7   5  -3 0.37694 1.70027   2
  -7  12  -2 59.3150 4.54870   3
  -5  12  -2 50.2509 4.26471   3
  -7  12  -2 43.3953 2.59516   1
   5   7  -2 48.5527 4.03609   3
   7   5  -2 50.3415 3.80875   3
  -7  12  -2 44.0768 4.31154   5
  -5  12  -2 46.7978 4.36438   5
   5   7  -2 47.5891 2.83708   5
  12  -5  -2 50.6642 2.62507   1
  12  -7  -2 47.2727 3.16825   5
   7 -12  -2 42.3010 4.40374   5
  12  -5  -2 44.9905 2.02541   5
   5 -12  -2 39.7211 4.39989   5
   7 -12  -2 45.2395 3.54752   3
   5 -12  -2 38.7987 3.65904   3
   5 -12  -2 46.7733 3.57857   2
   7 -12  -2 54.2703 3.25959   2
  -5  -7  -2 52.8619 4.39323   5
  -5  -7  -2 44.1348 4.37463   2
  -5  -7  -2 44.3801 4.22962   3
  -5  12  -2 46.5553 3.37848   1
  12  -5  -2 45.4228 1.94108   5
  -7  -5  -2 48.6777 4.02113   5
  -7  -5  -2 39.4184 4.15830   3
  12  -5  -2 46.5278 2.65590   1
  -7  12  -2 48.7437 4.23093   4
  -5  12  -2 39.6693 4.01814   4
   5   7  -2 25.5538 3.20700   4
   7   5  -2 35.5069 3.20711   4
  -7  12  -2 43.4404 3.62763   2
   7 -12  -2 53.7101 4.21864   4
   5 -12  -2 45.6279 4.33360   4
  -5  12  -2 41.9557 3.72072   2
   7   5  -2 50.3464 4.22058   1
  -5  -7  -2 38.2139 4.16137   4
   5   7  -2 37.9689 3.89755   1
  -7  -5  -2 49.8714 4.38148   4
   5   7  -2 44.9978 3.99900   2
   7   5  -2 47.0281 3.84659   2
  -5  12  -1 2.83950 1.22392   1
   5   7  -1 2.45434 1.81526   2
   7   5  -1 1.29008 1.41077   2
  -7  12  -1 0.61697 1.45519   3
  -5  12  -1 0.99240 1.69416   3
   5   7  -1 1.06792 1.54133   3
   7   5  -1 0.92926 1.33935   3
  -7  12  -1 0.83122 1.48819   5
  -5  12  -1 0.52610 1.46931   5
   7   5  -1 0.86244 0.77268   5
   5   7  -1 1.06142 1.10462   5
  12  -5  -1 1.07820 1.02727   5
  12  -7  -1 2.95855 1.37291   5
   7 -12  -1 0.73266 1.96338   5
   5 -12  -1-1.20367 2.11883   5
   7 -12  -1 0.60613 1.26165   3
   5 -12  -1 0.67656 1.48587   3
   5 -12  -1 1.07685 1.29341   2
   7 -12  -1 1.45852 1.07390   2
  -5  -7  -1 1.47309 1.45694   5
  -5  -7  -1 1.90664 1.91471   2
  -5  -7  -1 0.36252 1.62665   3
  12  -5  -1 1.58551 0.94989   5
  -7  -5  -1 1.98202 1.61304   2
  -7  -5  -1 0.64762 1.65614   3
  -7  -5  -1 0.53460 1.26084   5
  -7  12  -1 1.05734 0.71453   1
  -5  12  -1-0.21004 0.94409   1
  -7  12  -1 1.29348 1.83784   4
  -5  12  -1-0.13580 1.51458   4
   7   5  -1 0.34067 1.52817   1
   5   7  -1 2.03805 1.72321   1
   5   7  -1 2.44352 1.52265   4
  -7  12  -1 1.20948 0.78617   1
   7   5  -1 2.01984 1.42136   4
  12  -5  -1 2.13843 0.87646   1
  12  -5  -1 1.39273 0.77155   1
   7 -12  -1 2.26815 1.87369   4
   5 -12  -1 1.78460 1.87350   4
  12  -7  -1 1.26290 0.34655   4
  -5  -7  -1 0.91464 1.67515   4
  -7  12  -1 1.93004 1.40046   2
  -7  -5  -1 0.13337 1.51380   4
  -5  12  -1-0.11357 1.25724   2
  -7  12   0 39.1553 3.35249   3
  12  -5   0 31.8485 1.70921   3
  -5  12   0 45.1836 3.76284   3
 -12   7   0 39.0755 3.12525   5
  12  -7   0 42.7930 1.60956   3
   5   7   0 40.2972 3.92302   3
   7   5   0 42.3170 3.78195   3
   7 -12   0 38.1096 2.93586   2
   5 -12   0 39.4777 3.27696   2
  -7  12   0 37.8152 3.92826   5
   5   7   0 45.1800 3.93382   1
   7   5   0 39.0567 3.59178   1
  -5  12   0 39.9371 4.10896   5
  12  -5   0 40.6452 1.83519   3
  12  -5   0 42.0506 2.90475   5
   5   7   0 46.3502 3.49883   5
   7 -12   0 38.2666 3.36664   3
  12  -7   0 49.6074 3.56852   5
   7   5   0 36.1528 2.81944   5
   5 -12   0 34.1038 3.40057   3
  -5  -7   0 47.5785 4.06982   2
   7 -12   0 45.8073 4.43174   5
   5 -12   0 34.8082 4.00656   5
  12  -7   0 38.7476 1.60075   3
  -7  -5   0 30.2226 3.66535   2
  -5  -7   0 43.1215 4.04242   3
  -7  -5   0 50.1370 4.12145   3
  -5  -7   0 46.1227 3.53165   5
  -7  12   0 40.9225 2.09038   1
  -7  -5   0 38.3145 2.80318   5
  12  -5   0 37.5765 2.79015   5
   5   7   0 35.0019 3.66756   1
   7   5   0 35.1850 3.70731   1
  -5  12   0 45.2856 2.94867   1
  -7  12   0 38.2576 3.60061   4
  -5  12   0 36.4701 3.71723   4
  12  -5   0 42.7741 2.17045   4
  12  -5   0 44.2724 2.17636   1
  12  -7   0 40.4482 2.35178   4
  -7  12   0 41.2309 2.02066   1
   5   7   0 43.8433 3.79765   4
   7   5   0 38.5288 3.41066   4
  12  -5   0 42.4911 2.34051   1
  12  -5   0 41.3696 1.76216   2
   7 -12   0 46.5944 3.95722   4
   5 -12   0 41.6049 3.99607   4
  -5  12   0 39.6011 2.83794   1
  12  -5   0 42.3143 2.34242   4
  -7  12   0 44.6156 3.20463   2
  -5  -7   0 34.9646 3.66477   4
  -7  -5   0 25.4971 3.33593   4
  12  -7   0 43.7485 2.63760   4
  -5  12   0 37.0989 3.18972   2
   5   7   0 35.0535 3.78637   2
  12  -5   0 33.1431 1.60473   2
   7   5   0 42.4682 3.75558   2
  -5  12   1 1.09533 1.24667   2
  -7  12   1 1.13720 0.65486   1
  12  -5   1 0.79974 0.85426   1
  12  -5   1 1.18540 0.93530   3
  -7  12   1 1.34970 1.38335   3
   5   7   1 0.47721 1.52782   2
  12  -7   1 1.06821 0.84759   3
   7   5   1 0.31877 1.23440   2
 -12   7   1 1.94353 1.25240   5
  -5  12   1 5.21294 1.79841   3
  -7  12   1 0.55512 0.62516   1
  -7  12   1 0.07783 1.85370   5
  12  -5   1 1.41026 1.24114   5
  -5  12   1 3.94154 2.00289   5
   7 -12   1-0.40722 1.09890   2
  -7  -5   1 0.03227 1.41114   1
   5   7   1 0.10227 1.34261   3
  12  -7   1 0.90105 1.36658   5
  12  -5   1 1.59624 0.85846   2
   7   5   1 3.99914 1.98507   3
   5 -12   1 1.46448 1.49364   2
   7 -12   1 1.88479 1.41239   3
   5   7   1 1.13590 1.44671   5
   7 -12   1 1.75255 2.06983   5
   5 -12   1 0.34194 1.44334   3
   7   5   1 1.42820 1.37970   5
   5 -12   1 0.27747 1.61890   5
  12  -7   1 0.35264 0.53523   2
  -5  -7   1-0.36473 1.28008   2
   5   7   1-0.88597 1.65016   1
  12  -5   1-0.04849 0.84186   3
   7   5   1 0.60194 1.55454   1
  -5  -7   1 0.71752 1.58008   3
  -7  -5   1 0.28914 1.55195   2
  -5  -7   1 0.08855 1.10851   5
  -7  -5   1 0.28832 1.56123   3
  12  -7   1 3.15079 1.15202   3
  12  -5   1 1.39324 1.34798   5
  -7  -5   1 1.20481 0.85558   5
  12  -7   1 2.23815 1.70762   5
  12  -5   1 0.47232 0.86868   4
  -7  12   1 1.47568 1.37080   4
  12  -5   1 0.44519 0.70377   1
  12  -7   1 0.85213 0.99963   4
  -5  12   1 0.16718 1.31943   4
   5   7   1 0.74254 1.49819   1
  -5  12   1 0.55268 1.19268   1
   7   5   1 1.60536 1.60622   1
   5   7   1-0.53245 1.63435   4
   7   5   1 4.29026 1.79721   4
   7 -12   1 4.74728 1.89857   4
   5 -12   1-0.59636 1.77647   4
  12  -5   1 1.86624 0.87923   2
  -5  -7   1-0.43717 1.41510   4
  -5  12   1 2.15938 1.06799   1
  12  -5   1 1.32346 1.18635   4
  -7  -5   1-0.40297 1.39360   4
  12  -7   1 0.55483 1.03409   4
  -7  12   1 1.92106 1.14585   2
  -5  -7   1 0.39186 1.28324   1
  12  -5   2 37.6254 3.00558   3
  12  -7   2 41.1537 1.45405   1
   5   7   2 57.0714 4.63315   2
   7 -12   2 42.6144 3.44602   2
  -7  12   2 44.6321 2.33757   1
  12  -7   2 46.9373 3.31169   3
   7   5   2 31.3461 3.99827   2
   5 -12   2 42.8624 3.68734   2
  -7  12   2 46.0273 3.47473   3
  -5  12   2 45.3960 3.75043   3
 -12   7   2 45.9230 3.13964   5
  -5  -7   2 56.0410 4.54405   2
   7 -12   2 41.9061 3.77796   3
  12  -5   2 45.6099 3.69460   5
  12  -5   2 44.9241 3.01573   2
   5   7   2 40.9399 4.29785   3
   5 -12   2 42.7972 3.98083   3
  12  -7   2 49.9423 4.18195   5
  -7  -5   2 47.5594 4.10810   2
  -7  12   2 49.5200 4.81977   5
   7   5   2 47.5851 4.28811   3
  -5  12   2 41.9324 4.38062   5
   7 -12   2 39.0395 2.46465   1
   7 -12   2 38.1073 4.34220   5
   5 -12   2 45.9853 4.60630   5
   5   7   2 50.7506 4.43953   5
   7   5   2 38.4556 3.79615   5
  12  -7   2 42.8877 2.85126   2
  -5  -7   2 45.0942 4.07156   3
  -5  12   2 46.9991 3.19307   1
  -7  -5   2 43.1087 3.86924   3
  12  -5   2 34.4522 3.04690   3
  -5  -7   2 42.8788 2.98311   5
  12  -7   2 40.7250 1.50615   1
  12  -5   2 45.0555 2.71112   1
  12  -7   2 41.8853 3.14497   3
  12  -5   2 46.9705 3.79494   5
  12  -7   2 44.6555 4.05325   5
   7   5   2 43.2134 4.17172   2
  12  -5   2 53.3354 3.57556   4
   5   7   2 49.3807 4.14235   1
   7   5   2 48.7541 4.15877   1
  12  -7   2 45.0464 3.35795   4
   5   7   2 44.3941 4.05149   1
  -7  12   2 36.5353 3.59537   4
  -5  12   2 45.2852 4.20679   4
   7   5   2 42.4606 3.90098   1
   7 -12   2 46.4546 4.08721   4
  12  -5   2 37.8736 2.80744   2
   5 -12   2 32.5034 3.82930   4
   5   7   2 48.8217 4.40623   4
   7   5   2 55.3408 4.51988   4
  -5  -7   2 48.3582 4.15206   1
  -5  12   2 44.2351 3.04562   1
  -7  -5   2 44.6209 4.11326   1
  -5  -7   2 34.3201 3.67257   4
  12  -7   2 43.6255 2.68613   2
  -7  -5   2 45.7896 3.66281   4
  12  -5   2 32.2732 3.26908   4
  12  -7   2 36.3045 3.20876   4
  -7  12   2 52.6055 3.26781   2
   5 -12   2 49.5984 3.26258   1
  12  -5   2 45.3511 2.82349   1
  -5  12   2 36.2526 3.30709   2
  -7  12   2 40.8038 2.28397   1
  -7  12   3 1.04472 1.19322   2
 -12   5   3-0.04989 0.96982   1
  12  -5   3-0.37596 1.40526   3
  -5  12   3-0.11118 1.20989   1
  -5  12   3-0.35443 1.32927   2
   5 -12   3-0.13660 1.19173   1
   7 -12   3 1.51071 1.10198   1
  12  -7   3-1.06153 1.45589   3
   7 -12   3-0.83567 1.57575   2
  -5  -7   3-0.60682 1.95176   1
  -7  12   3 1.94335 1.52092   3
   5 -12   3 0.59177 1.83281   2
 -12   7   3-0.19253 1.02286   5
  12  -7   3 0.56226 0.82608   1
  -5  12   3-0.02999 1.58053   3
  -7  -5   3 1.51464 1.90173   1
   5   7   3 3.72251 2.44803   2
  12  -5   3 0.49598 1.74391   5
  12  -7   3 0.07232 1.92406   5
   7   5   3 0.15028 1.96593   2
   7 -12   3 1.35331 2.02670   3
  -7  12   3-1.00573 2.12109   5
   5 -12   3-1.01762 1.81020   3
  -5  12   3-0.73879 2.02160   5
  12  -5   3 0.59543 1.08950   1
   7 -12   3 0.22020 2.23443   5
   5   7   3-1.14538 2.20664   3
   5 -12   3 2.28293 2.30950   5
  -5  -7   3 0.77516 1.81564   2
   7   5   3-0.68984 2.02736   3
  -7  12   3-0.17337 0.89883   1
   5   7   3 0.86629 2.08947   5
   7   5   3 0.22479 1.78336   5
  -7  -5   3 1.87966 1.69663   2
  -5  -7   3-0.35147 1.88057   3
  -7  -5   3 1.88902 1.71020   3
  -5  -7   3 0.21858 1.01073   5
  12  -5   3 0.30169 1.35576   2
  12  -5   3-0.17541 1.50698   3
  12  -7   3 0.07139 1.28072   2
  12  -5   3 0.42400 1.00531   1
  12  -5   3 0.44499 1.73099   5
  12  -7   3 2.67342 1.89639   5
  12  -7   3-0.19365 1.43480   3
  -7  12   3 1.01810 1.01894   1
  -5  12   3-0.43213 1.33443   2
   5   7   3 0.91246 2.04623   2
   5   7   3 0.25539 1.52451   1
   7   5   3-0.99631 1.97814   2
  -7  12   3-0.32655 1.03311   2
  12  -5   3 0.87657 1.63024   4
   7   5   3 1.91541 2.16766   1
  12  -7   3 0.25918 1.41082   4
  -7  12   3 2.93880 1.94559   4
  -5  12   3-0.41069 1.75686   4
   7 -12   3 0.07415 1.54055   4
   5 -12   3 1.83392 2.05636   4
   5   7   3-0.80871 1.84584   4
   7   5   3-0.59382 1.88910   4
  12  -5   3-0.51191 1.33191   2
  -5  -7   3 1.29097 1.89438   4
  -7  -5   3-0.15935 1.48053   4
   5   7   3-0.27831 1.61066   1
  -5  12   3-0.24620 1.26187   1
   7   5   3-0.24269 1.62908   1
  12  -5   3-0.53213 1.61621   4
  12  -7   3-0.45114 1.57709   4
  12  -7   3 0.08681 1.18994   2
   7   5   3-0.51221 1.80031   3
   5 -12   4 29.2666 3.74996   2
  -7  -5   4 29.7924 3.64988   1
  12  -5   4 29.2010 2.76594   1
  12  -5   4 15.5346 2.91284   3
  -7  12   4 22.7545 2.19044   1
   5   7   4 27.2713 3.92153   2
  12  -7   4 15.1984 2.78100   3
   5   7   4 21.8177 3.54050   1
  -7  12   4 29.2021 3.02504   3
   7   5   4 25.8161 3.70983   2
  -7  -5   4 25.7276 3.58829   2
 -12   7   4 25.4206 2.04153   5
  -5  12   4 27.9320 3.26119   3
   7 -12   4 30.4576 3.91108   3
   5 -12   4 31.8699 4.13701   3
 -12   5   4 23.3421 2.44537   1
  12  -5   4 24.5949 3.44564   5
  12  -7   4 26.2747 3.69390   5
  -7  12   4 25.1009 3.87199   5
   5   7   4 25.7923 4.01514   3
   7 -12   4 31.7802 4.46247   5
   5 -12   4 22.0219 4.19817   5
  -5  -7   4 25.7945 3.56058   3
  -5  -7   4 21.0889 3.31642   2
  -5  12   4 24.4870 4.13221   5
  -7  -5   4 22.7926 3.24218   3
   5   7   4 27.5575 4.04370   5
  12  -5   4 24.1819 3.16448   2
  12  -7   4 24.0526 2.20854   1
   7   5   4 21.8704 3.68881   3
   7   5   4 16.5627 3.37937   5
  12  -5   4 31.9683 2.86147   1
  -5  -7   4 16.1827 1.38213   5
  12  -5   4 23.4359 3.19881   3
  12  -7   4 21.6963 2.97595   2
  12  -5   4 23.8007 3.57390   5
  12  -7   4 25.8307 4.11814   5
  12  -7   4 29.1224 3.50291   3
  -5  -7   4 18.3268 1.43273   5
  12  -7   4 23.9069 2.25854   1
   7   5   4 22.5931 3.80608   4
   5   7   4 28.0384 4.02343   2
  -5  12   4 23.7910 2.94620   2
  -7  12   4 27.4251 2.48951   2
  12  -5   4 30.0686 3.42409   4
  12  -7   4 19.7986 3.05281   4
   7   5   4 23.8555 3.65428   2
  -7  12   4 44.6005 4.02535   4
  -5  12   4 23.6522 3.38124   4
   5 -12   4 23.3294 3.57706   4
  12  -5   4 32.5719 3.43727   2
   5   7   4 22.5637 3.35320   1
   7   5   4 22.4339 3.33778   1
   7 -12   4 19.1009 3.42223   4
   5   7   4 30.6844 4.31813   4
   7   5   4 31.6335 4.27521   4
  -5  -7   4 22.2191 3.38438   4
  12  -7   4 28.1686 3.04703   2
  -7  -5   4 23.8873 2.94604   4
   7 -12   4 26.4096 2.61865   1
  12  -7   4 26.8811 3.53521   4
   5 -12   4 29.5788 3.10855   1
  12  -5   4 20.0631 3.34191   4
  -7  12   4 29.5439 2.57045   1
  -5  -7   4 14.8211 3.17551   1
   5   7   4 33.3492 4.05892   3
   7   5   4 26.6639 4.02899   3
  -5  12   4 20.8195 2.76075   1
  -7  12   4 22.9118 2.38701   2
  -5  12   4 24.0044 2.77080   1
   7   5   4 20.8674 3.45604   1
  -5  12   4 21.0592 2.98373   2
   7 -12   4 11.4674 3.14006   2
  -8  12  -4 8.86200 2.67828   3
  -4  12  -4 8.70241 2.88447   3
   8   4  -4 5.00219 1.87630   3
   4   8  -4 6.66689 2.59468   3
  -8  12  -4 5.99065 1.71424   1
   4   8  -4 4.82229 1.34713   5
  -8  12  -4 1.89874 2.58462   5
  -4  12  -4 6.15875 2.81599   5
   8 -12  -4 9.12427 3.08381   5
   4 -12  -4 9.59537 3.42186   5
  12  -8  -4 8.31714 1.85195   5
  12  -4  -4 6.58077 1.76947   1
  -4  -8  -4 2.28497 2.73960   5
   4 -12  -4 6.49034 2.43297   3
  -8  -4  -4 2.79875 2.39865   5
 -12   8  -4 7.07381 2.19029   2
  12  -8  -4 7.13785 0.78616   1
  -8  12  -4 7.34059 2.63246   4
   8   4  -4 5.25250 1.47588   4
  -4  12  -4 8.17267 2.18594   1
  -4  12  -4 6.21080 2.57729   4
   4   8  -4 9.42882 2.51384   4
  -8  12  -4 7.73537 2.57312   2
  -4  12  -4 6.81141 2.49514   2
   4 -12  -4 5.34105 2.64696   4
   8 -12  -4 5.21045 2.22205   4
  -4  -8  -4 10.6617 3.33004   4
   8   4  -4 4.44997 1.92639   2
   4   8  -4 8.34107 2.84568   2
   8   4  -4 2.25939 2.09002   1
 -12   8  -4 7.52515 2.30160   3
   4   8  -4 4.46846 2.24838   1
  -4  12  -3 22.5946 3.49187   3
   8   4  -3 28.8955 3.00870   3
   4   8  -3 26.5575 3.59067   3
  -8  12  -3 14.7754 3.47740   5
   4   8  -3 33.9137 2.63745   5
  -4  12  -3 38.0190 4.04959   5
  12  -4  -3 30.6535 2.57996   1
   8 -12  -3 23.8875 3.93851   5
  12  -8  -3 31.5781 2.97606   5
  -4  12  -3 41.2754 3.50559   1
   4 -12  -3 19.8107 4.11045   5
   4 -12  -3 36.7718 3.81666   3
   8 -12  -3 30.9859 2.86806   3
  -4  -8  -3 42.1445 4.57818   5
  -4  -8  -3 25.9273 3.84126   3
  -8  -4  -3 31.6379 3.60004   5
  -8  12  -3 24.7019 3.53333   4
  -4  12  -3 35.2058 3.83476   4
   8   4  -3 25.9049 2.38655   4
   4   8  -3 17.2091 3.05806   4
   8   4  -3 41.6969 4.04308   1
  -8  12  -3 31.0301 3.34705   2
   4   8  -3 37.5021 3.92757   1
  -4  12  -3 38.8038 3.90796   2
   8 -12  -3 36.2983 3.45456   4
   4 -12  -3 33.0843 3.90216   4
  -4  -8  -3 27.0850 3.79192   4
   4   8  -3 31.3269 3.88588   2
   8   4  -3 47.2775 3.96719   2
 -12   8  -3 37.3735 3.43490   3
  -8  12  -3 39.8478 2.52824   1
  -8  12  -3 26.3107 3.44638   3
   8   4  -2 12.7982 2.22953   2
  -8  12  -2 7.86354 2.20178   3
  -4  12  -2 12.1555 2.61875   3
  -8  12  -2 16.2979 2.88562   5
   4   8  -2 11.0386 2.30926   3
   8   4  -2 10.3003 1.99427   3
   4   8  -2 13.3835 2.01219   5
  -4  12  -2 10.6000 2.81620   5
  12  -4  -2 14.2692 1.83194   1
   8 -12  -2 13.2043 2.02466   3
  12  -8  -2 8.33180 1.82578   5
   8   4  -2 13.4846 2.41890   1
   8 -12  -2 12.0298 2.95927   5
   4   8  -2 12.6770 2.44065   1
   4 -12  -2 7.46936 2.68037   5
   4 -12  -2 11.4767 2.45154   3
  -4  -8  -2 11.5480 2.59321   5
   4 -12  -2 12.5864 2.31884   2
  -4  -8  -2 8.17331 2.45149   3
  -4  -8  -2 12.8478 2.93081   2
  -8  -4  -2 13.9640 2.36335   5
 -12   8  -2 16.4612 2.44389   4
  -8  12  -2 15.5971 1.34100   1
  -4  12  -2 17.0082 2.33347   1
  -8  12  -2 14.3880 2.54245   4
  -4  12  -2 16.0066 2.72866   4
   8   4  -2 15.0757 1.96373   4
   4   8  -2 9.36123 2.28885   4
  -8  12  -2 14.9414 2.42693   2
  -4  12  -2 19.5609 2.79909   2
   8 -12  -2 9.18894 2.16989   4
   4 -12  -2 10.6974 2.56346   4
  -4  -8  -2 14.2269 2.97785   4
  -8  -4  -2 15.0483 2.73016   4
  -8  12  -2 13.9243 1.30697   1
   4   8  -2 14.4094 2.70041   2
   4   8  -1 6.57628 2.23022   2
   8   4  -1 4.84132 1.65891   2
  -8  12  -1 0.60016 1.44805   3
  -4  12  -1 0.74172 1.37755   3
   8   4  -1 4.73301 0.71292   5
  -4  12  -1 3.63287 1.36365   1
 -12   8  -1 3.54861 1.63827   5
   4   8  -1 3.87419 1.90516   3
   8   4  -1 5.93814 1.71646   3
  -8  12  -1 4.41990 1.89312   5
  -4  12  -1 6.17495 2.17073   5
   8   4  -1 3.52101 0.63160   5
   4   8  -1 3.84386 1.41401   5
  12  -8  -1 4.50905 1.66147   5
   8 -12  -1 3.28153 2.32310   5
   4 -12  -1 0.71644 2.07694   5
   8 -12  -1 1.21432 1.21948   3
   4 -12  -1 2.21847 1.78136   3
   4 -12  -1 1.96684 1.64984   2
  -4  -8  -1-0.03322 1.60834   5
   8 -12  -1 2.75407 1.14100   2
  12  -4  -1 3.07381 0.82090   5
  -4  -8  -1 3.54951 1.95791   2
  -4  -8  -1 9.06709 2.72545   3
  -8  -4  -1 3.34144 1.94637   3
  -8  -4  -1 3.02229 1.35066   5
  -8  -4  -1 4.41651 2.03209   2
 -12   8  -1 3.89913 1.39650   4
  -8  12  -1 3.99151 1.64611   4
   8   4  -1 4.27926 1.67594   1
  -4  12  -1 4.27142 1.91112   4
   4   8  -1 1.85830 1.47764   1
   4   8  -1 4.94353 1.97762   4
   8   4  -1 3.73598 1.33411   4
  12  -4  -1 1.74438 1.08572   1
  12  -8  -1 4.10105 0.79322   4
   8 -12  -1 3.38137 1.60775   4
   4 -12  -1 2.54554 1.83645   4
  -8  12  -1 5.76139 1.64519   2
  12  -4  -1 3.72635 0.54265   2
  -4  -8  -1 2.64881 1.99148   4
  12  -8  -1 4.44378 0.83801   4
  -8  -4  -1 1.70536 1.69920   4
  -8  12  -1 2.43328 0.44872   1
  -4  12  -1 1.90623 2.29328   2
  12  -4  -1 2.68840 1.02120   1
  12  -4   0 5.75973 1.16664   3
   4   8   0 5.71584 2.02738   2
  -8  12   0 3.94418 1.68766   3
  12  -4   0 5.42205 1.03156   2
   8   4   0 5.18392 1.90016   2
  -4  12   0 7.89306 2.36640   3
 -12   8   0 10.7386 1.98304   5
  12  -8   0 6.83941 0.77285   3
  12  -4   0 9.30182 1.15672   3
   4   8   0 0.76204 1.70655   3
  -8  12   0 8.49826 2.25052   5
  -4  12   0 3.33030 1.98212   5
   8   4   0 9.15400 1.51370   5
   8   4   0 6.77120 1.81284   3
  12  -4   0 7.75442 1.43002   5
   4   8   0 6.51199 1.82093   5
  12  -8   0 6.49616 1.82270   5
   8 -12   0 6.88390 2.13427   5
   8 -12   0 10.1544 1.93392   3
   4 -12   0 9.38353 2.52840   5
   8 -12   0 7.73688 1.47849   2
  12  -8   0 7.02923 0.87470   3
   4 -12   0 6.71909 1.95785   3
   4 -12   0 6.00776 1.67604   2
  12  -4   0 9.07626 1.52038   5
  -4  -8   0 10.2056 2.20692   5
  -4  -8   0 7.47054 2.09009   2
  -4  -8   0 7.04066 2.33888   3
  -8  -4   0 12.2924 2.42819   2
  -8  -4   0 6.55324 1.95046   3
  -4  12   0 7.45792 1.61161   1
  -8  -4   0 7.93290 1.40714   5
  12  -4   0 6.06941 1.02153   4
   4   8   0 7.18765 2.07283   1
  12  -4   0 10.0299 1.24223   2
  -8  12   0 8.55558 1.95578   4
   8   4   0 10.2388 2.28740   1
  -4  12   0 5.53227 2.04739   4
  -4  12   0 5.77269 1.53498   1
   4   8   0 7.58170 1.97798   4
  12  -8   0 8.29245 1.30645   4
   8   4   0 6.12725 1.58311   4
  -8  12   0 9.59812 1.69151   2
   8 -12   0 7.27437 1.91137   4
   4 -12   0 10.7682 2.53715   4
  12  -4   0 8.79111 1.31474   1
  12  -4   0 6.51090 1.15839   4
  12  -4   0 6.30039 1.32455   1
  -4  -8   0 7.87738 2.14514   4
  -8  -4   0 7.57112 1.99496   4
   4   8   0 2.23882 1.60917   1
   8   4   0 2.43075 1.69857   1
  -4  12   0 6.49263 1.84304   2
  -4  12   1 3.47144 1.72117   2
  12  -4   1 2.41939 1.05878   3
  -4  -8   1 3.89950 1.89528   1
  -8  12   1 2.85410 1.39524   3
   4   8   1 2.96337 2.01462   2
   8   4   1 0.59292 1.32621   2
 -12   8   1 3.26320 1.41972   5
  12  -8   1 3.02105 1.00967   3
  -4  12   1 3.70106 1.71349   3
  -8  12   1 3.33535 1.86184   5
  12  -4   1 3.07201 1.06602   2
  12  -4   1 2.55325 1.33193   5
   8 -12   1 2.53002 1.25796   2
   4   8   1 3.84711 2.00109   3
  -4  12   1 2.83745 2.03621   5
  12  -8   1 2.68953 1.55991   5
   8   4   1 4.82160 1.78982   3
   8 -12   1 7.43363 1.91870   3
   4   8   1 4.47027 1.93594   5
   4 -12   1 5.41092 1.82600   2
   8 -12   1 6.17819 2.30989   5
   8   4   1 3.27965 1.40410   5
   4 -12   1 1.11694 1.72592   3
   4   8   1 3.13188 1.96279   1
   4 -12   1 1.87874 2.05219   5
   8   4   1 1.34924 1.51934   1
  12  -4   1 3.12959 1.13348   3
  12  -8   1 4.26512 0.69554   2
  -4  -8   1 5.11415 2.04199   2
  -4  -8   1 0.94501 1.40235   3
  -4  -8   1 2.95108 1.60730   5
  -8  -4   1 2.54587 1.58259   2
  -8  -4   1 4.66493 1.80134   3
  12  -4   1 4.15117 1.41944   5
  12  -8   1 3.98653 1.19459   3
  12  -4   1 3.16246 1.14208   4
  -8  12   1 1.78212 1.59167   4
  -8  -4   1 1.79151 1.48185   1
  -4  12   1 3.16844 1.81366   4
  12  -8   1 2.97249 1.26462   4
   4   8   1 2.11819 1.47068   1
   8   4   1 3.79367 1.75133   1
   4   8   1 2.91987 1.91506   4
   8 -12   1 3.14209 1.53739   4
  12  -4   1 5.28913 1.32047   2
   8   4   1 5.03200 1.82450   4
   4 -12   1 2.18749 1.93280   4
  -4  12   1 4.99812 1.48326   1
  -4  -8   1 1.26310 1.71459   4
  12  -4   1 5.80556 1.30100   1
  -4  12   1 3.67548 1.29284   1
  12  -4   1 2.94908 1.23965   4
  -8  -4   1 3.06767 1.66396   4
  -8  12   1 4.15549 1.29884   2
  12  -4   1 4.91665 1.31553   1
   8 -12   2 14.6861 2.17324   2
  -8  12   2 13.9364 2.06444   3
  12  -8   2 14.8760 2.01724   3
 -12   8   2 12.5058 2.04975   5
   4   8   2 10.9342 2.43035   2
  12  -4   2 15.8484 2.02552   2
   8 -12   2 16.4348 2.60269   3
  -4  12   2 8.76858 2.11643   3
   8   4   2 10.3392 2.30642   2
  12  -4   2 11.6867 2.09096   5
   4 -12   2 10.8864 2.30827   2
  -8  12   2 9.63753 2.76906   5
  12  -8   2 11.7341 2.38001   5
  -4  12   2 14.1416 2.81794   5
  -4  12   2 12.2136 1.94121   1
   4   8   2 4.82464 2.26206   3
   8 -12   2 13.0028 3.03506   5
   4 -12   2 10.3181 2.31833   3
   4   8   2 16.4383 2.88543   5
   8   4   2 15.9061 2.74124   3
   4 -12   2 11.1457 2.73662   5
  12  -8   2 11.4621 1.60212   2
   8   4   2 9.06675 2.13832   5
  -4  -8   2 11.6100 2.38392   2
  -4  -8   2 9.61300 2.38023   3
  12  -4   2 14.6501 2.39025   5
  -4  -8   2 9.69304 2.02927   5
  -8  -4   2 9.59777 2.33677   2
  12  -4   2 9.77301 1.95576   3
  -8  -4   2 11.2437 2.29733   3
  12  -4   2 13.6386 1.79152   1
  12  -8   2 9.26271 2.46887   5
  -8  12   2 13.5968 1.57424   2
  12  -4   2 13.9866 2.18752   4
   8   4   2 11.6159 2.48544   2
   4   8   2 20.3491 3.01411   1
  -8  12   2 15.1187 2.41725   4
  12  -8   2 13.8505 2.19166   4
  12  -4   2 11.9025 1.88850   2
  -4  12   2 12.4632 2.59486   4
  -8  12   2 14.2857 0.85616   1
   8 -12   2 10.5897 2.28724   4
   4   8   2 11.8445 2.75294   4
   4 -12   2 15.8228 2.78189   4
   8   4   2 12.7089 2.73129   4
   4   8   2 9.72671 2.28176   1
  -4  -8   2 6.59740 2.19116   1
   8   4   2 10.4535 2.30862   1
  -8  12   2 9.77777 1.63712   2
  -4  -8   2 12.1986 2.69563   4
  12  -4   2 12.7534 1.92915   1
  12  -8   2 14.4103 1.68433   2
   8   4   2 12.5575 2.32063   1
  12  -4   2 11.0491 2.11777   4
  -8  -4   2 10.4540 1.91589   4
   4 -12   2 16.6929 2.17762   1
  -4  12   2 12.3557 1.97415   1
  -8  -4   2 13.0259 2.43502   1
  -4  12   2 10.7191 2.38825   2
  12  -4   2 13.8430 1.99372   3
   4 -12   3 33.9254 3.89778   2
   4   8   3 36.2864 4.07472   2
  12  -8   3 37.4605 3.52350   3
  -8  12   3 36.5475 2.99567   3
   8   4   3 29.7573 3.87386   2
  -4  -8   3 33.2497 3.80246   2
  -4  12   3 29.8065 3.59271   3
 -12   8   3 28.7767 2.70402   5
   8 -12   3 29.0711 3.43975   3
  12  -4   3 27.1407 3.28505   5
  -8  -4   3 34.6912 3.65837   2
   4 -12   3 29.7607 3.68356   3
  12  -8   3 31.8686 3.93206   5
   4   8   3 26.8277 3.86242   3
  -8  12   3 26.0790 1.73269   1
  -8  12   3 26.5938 3.88077   5
  12  -4   3 29.1765 3.09285   2
  -8  12   3 36.2815 1.95219   1
  -4  12   3 36.4476 4.43532   5
   8   4   3 34.0144 3.84906   3
   8 -12   3 31.6819 4.30622   5
   4 -12   3 27.3419 2.91826   1
  -4  -8   3 35.1219 3.94629   3
   4 -12   3 27.2920 3.86418   5
   4   8   3 36.0786 4.16196   5
   8   4   3 39.0319 4.00063   5
  -4  -8   3 38.5126 3.99639   1
  -8  -4   3 30.6250 3.28992   3
  -4  -8   3 35.0966 3.02613   5
  12  -4   3 33.2065 3.42037   3
   8 -12   3 37.5970 2.30526   1
  -8  -4   3 36.8927 3.84249   1
  12  -4   3 26.7105 3.45890   5
  12  -8   3 32.4092 3.87355   5
  12  -8   3 34.0548 2.99501   2
  -4  12   3 31.1612 3.21021   2
   4   8   3 36.3234 3.90859   2
   8   4   3 30.8495 3.82273   2
  -8  12   3 36.8135 2.29605   2
  12  -4   3 32.3473 3.23714   4
  12  -8   3 32.4164 1.42459   1
  12  -8   3 35.1470 3.47478   4
  -8  12   3 35.3239 3.43020   4
   4   8   3 38.8703 4.00004   1
  -4  12   3 31.3659 3.08394   1
   8   4   3 34.0787 3.85941   1
  12  -4   3 33.5705 3.19927   2
  -4  12   3 30.1228 3.68410   4
   8 -12   3 41.8847 4.13682   4
   4 -12   3 30.7754 3.73702   4
   4   8   3 26.2653 3.81440   4
   8   4   3 31.1566 4.02069   4
  -4  -8   3 22.6944 3.47020   4
  -4  12   3 38.2745 3.26741   1
  -8  -4   3 36.9891 3.00330   4
  12  -4   3 34.2117 3.56046   4
  12  -8   3 27.7091 2.65502   2
 -12   4   3 30.9596 2.77690   1
   4   8   3 34.5370 3.86868   1
  12  -4   3 31.0851 2.70717   1
  -8  12   3 34.2123 2.32070   2
   8   4   3 29.4830 3.62015   1
   8   4   3 38.1222 4.17531   3
  12  -4   3 34.0923 2.98374   1
  -4  12   3 33.6132 3.39197   2
  12  -4   3 34.2002 3.22215   3
   8 -12   3 39.5605 3.63766   2
  12  -4   4 3.94182 2.23318   3
 -12   4   4 7.04243 1.83303   1
  12  -4   4 3.46084 1.69612   1
  -8  12   4 6.99938 1.35356   1
   8 -12   4 6.77129 2.46192   2
  -4  12   4 11.1414 2.40097   1
  12  -8   4 7.39651 2.22588   3
  -4  12   4 6.57839 2.24955   2
   4 -12   4 2.27518 2.13815   2
  -8  12   4 4.57741 1.65585   3
 -12   8   4 6.88428 1.69313   5
  12  -4   4 5.60414 2.51207   5
   8 -12   4 3.00002 2.06799   3
  -4  12   4 6.61384 2.31404   3
   4   8   4 2.69389 2.58750   2
  12  -8   4 4.23967 2.47591   5
  -8  12   4 4.58577 2.76693   5
  -4  -8   4 8.49991 2.72375   2
   4 -12   4 8.30399 2.58344   3
  12  -4   4 10.4854 2.31087   1
   8 -12   4 7.90637 2.86767   5
  -4  12   4 4.71754 3.00870   5
   8   4   4 7.66245 2.80627   2
   4 -12   4 6.90761 2.90609   5
   8 -12   4 6.35224 1.56491   1
   4   8   4 7.65188 3.03828   3
   4   8   4 3.42711 2.45348   5
  -4  -8   4 5.63762 2.48133   3
  -8  -4   4 12.2767 2.78448   2
   8   4   4 2.89496 2.63618   3
   8   4   4 2.81226 2.59499   5
  -4  -8   4 9.31425 1.76892   5
  -8  -4   4 4.87059 2.10076   3
  12  -4   4 5.09326 2.13141   2
  12  -4   4 9.58075 2.67864   5
  12  -4   4 3.93636 2.45801   3
  12  -8   4 7.82662 1.31113   1
  12  -8   4 9.24113 2.90002   5
   8   4   4 5.57313 2.58436   4
   4   8   4 0.85141 2.32879   2
  -4  12   4 6.02353 2.08513   2
  12  -4   4 6.92008 2.25206   4
   8   4   4 1.73848 2.42326   2
  12  -8   4 6.00332 2.29577   4
  -8  12   4 7.11294 1.41861   1
  -8  12   4 8.63876 2.53353   4
  -8  12   4 5.59644 1.21035   2
   8 -12   4 13.1897 2.97790   4
  -4  12   4 13.8398 2.97208   4
   4 -12   4 4.44793 2.53024   4
   4   8   4 11.0611 2.92471   4
  12  -4   4 7.08084 2.30232   2
   4 -12   4 10.9636 2.31445   1
  -4  -8   4 4.12607 2.38986   4
   8   4   4 2.18074 2.76571   4
  -4  12   4 5.84125 2.12884   1
 -12   8   4 5.12256 0.67710   1
  -8  -4   4 6.78028 1.68679   4
  12  -4   4 7.91541 2.74417   4
  12  -8   4 4.08741 2.18143   4
  -4  -8   4 5.59952 2.42450   1
  12  -8   4 6.21292 1.99984   2
   4   8   4 7.28098 2.41786   1
  -8  12   4 6.65979 1.64308   3
   4   8   4 5.23809 2.48435   1
  -8  -4   4 3.33556 2.14918   1
   8   4   4 8.99571 2.63891   1
   8   4   4 10.9012 2.97127   1
   8   4   4 2.82331 2.10766   3
  12  -8   4 8.40141 1.38447   1
  -8  12   4 8.20914 1.38053   2
  -3  12  -4 22.8966 3.64584   3
   9   3  -4 21.5710 2.61635   3
   3   9  -4 35.5763 4.06063   3
   3   9  -4 26.9903 2.80760   5
  -9  12  -4 32.3310 4.30376   5
  -3  12  -4 31.6195 4.01789   5
  12  -3  -4 35.3954 3.23654   1
  -3  12  -4 24.8621 3.30915   1
   9 -12  -4 31.0249 4.29164   5
  12  -9  -4 31.6329 3.18690   5
   3 -12  -4 33.7425 4.77421   5
   3 -12  -4 31.2291 4.06891   3
  -3  -9  -4 26.7703 4.45590   5
  -3  -9  -4 23.0347 4.12857   3
 -12   9  -4 32.4681 3.82976   4
 -12   9  -4 25.6053 3.36524   2
   3   9  -4 32.7067 4.09734   1
  -9  12  -4 27.7459 3.83090   4
   9   3  -4 33.2786 1.91664   4
  -3  12  -4 37.3603 4.30484   4
   3   9  -4 29.2660 3.50924   4
  -9  12  -4 28.9436 3.85901   2
  -3  12  -4 28.6218 3.94777   2
  -9  12  -4 31.6279 2.54851   1
   9   3  -4 33.7611 3.37232   2
   3   9  -4 24.1501 3.85001   2
   3 -12  -4 28.2416 4.06012   4
   9 -12  -4 31.3293 3.29944   4
  -3  -9  -4 23.1080 4.30964   4
   9   3  -4 22.1504 3.53870   1
 -12   9  -4 29.6904 3.67469   3
  -9  12  -4 28.8785 3.89194   3
  -9  12  -3 2.48632 1.81188   3
   9   3  -3 1.80144 2.01324   1
   3   9  -3 4.41779 2.36909   1
  -3  12  -3 2.86731 1.92406   3
   9   3  -3 3.01859 1.57188   3
   3   9  -3 1.74990 1.82067   3
  -9  12  -3 1.37381 1.89561   5
  -3  12  -3 3.68816 1.98779   5
   3   9  -3 3.05907 1.48618   5
   9 -12  -3 3.03904 2.45901   5
  12  -9  -3 1.60274 1.61040   5
   3 -12  -3 4.95103 2.97584   5
  -3  -9  -3 2.98125 2.53615   5
   3 -12  -3 2.22739 2.22904   3
   9 -12  -3 2.86532 1.27842   3
  -3  -9  -3 2.77163 2.27465   3
 -12   9  -3 2.36975 1.80351   4
 -12   9  -3 1.79542 1.39928   2
  -9  12  -3 3.36507 2.13627   4
   9   3  -3 2.13127 1.02015   4
  -3  12  -3 0.80335 2.13357   4
   3   9  -3 1.27596 1.99515   4
  12  -3  -3 1.08901 1.30108   1
  -9  12  -3 1.21087 1.74083   2
   9 -12  -3 4.13278 1.77744   4
  -3  12  -3 3.83695 1.92577   1
   3 -12  -3 3.13451 2.25994   4
  -3  -9  -3 1.72211 2.23525   4
  -3  12  -3 0.52166 1.68370   2
 -12   9  -3 1.36852 1.59164   3
   3   9  -3 0.96677 2.08082   2
  -9  12  -3 2.35767 0.86307   1
   9   3  -3 1.93186 1.75631   2
   9   3  -2 2.88070 1.56065   2
  -3  12  -2 2.39293 1.55118   1
  -9  12  -2 1.90200 1.59397   3
  -3  12  -2 2.89840 1.79120   3
 -12   9  -2 3.80137 2.04371   5
   3   9  -2 2.62085 2.14087   3
   9   3  -2 2.18791 1.47356   3
  -9  12  -2 1.25267 1.64693   5
  -3  12  -2 1.77348 1.82465   5
   3   9  -2 3.38627 1.47650   5
   9   3  -2 1.73856 1.50629   1
   3   9  -2 3.93478 1.93577   1
  12  -9  -2 4.03573 1.73879   5
   9 -12  -2 3.51253 2.09484   5
   3 -12  -2 3.62014 2.58835   5
  -3  -9  -2 4.96791 2.21730   5
   3 -12  -2 3.33095 1.83865   3
   9 -12  -2 1.84392 1.25671   3
   3 -12  -2 4.55472 1.85439   2
  -3  -9  -2 1.44575 1.72440   3
  -3  -9  -2 2.19849 1.69886   2
 -12   9  -2 3.08434 1.51442   4
  -9  12  -2 3.27334 2.02326   4
  -3  12  -2 4.13241 2.23510   4
  12  -3  -2 3.46831 0.72219   2
   3   9  -2 4.88149 2.02180   4
   9   3  -2 1.58145 1.09598   4
  -9  12  -2 1.11578 1.46111   2
   9 -12  -2 5.41735 2.00963   4
   3 -12  -2 5.01868 2.28057   4
  -3  -9  -2 1.42743 2.18597   4
  12  -3  -2 3.94884 0.66504   2
  12  -3  -2 3.30111 1.34100   1
  -3  12  -2 2.92984 1.81869   2
 -12   9  -2 3.09820 1.44405   3
   3   9  -2 2.66885 1.83552   2
   9   3  -1 9.44759 2.17979   2
  12  -3  -1 7.20475 0.84344   3
   9   3  -1 14.0378 2.22118   3
 -12   9  -1 19.1722 2.76649   5
  -3  12  -1 11.1147 2.44306   3
   3   9  -1 9.22610 2.37134   3
  -9  12  -1 11.9503 2.72947   5
  -3  12  -1 13.9282 2.86563   5
   3   9  -1 9.57338 2.04405   5
   3 -12  -1 14.7965 2.62763   2
   9 -12  -1 16.4774 2.11362   3
   9 -12  -1 14.3033 1.50871   2
  12  -9  -1 7.70750 1.98176   5
   9 -12  -1 12.0856 2.78455   5
   3 -12  -1 11.0011 2.71130   5
   3 -12  -1 13.1993 2.57359   3
  -3  -9  -1 15.4007 2.72768   5
  -3  -9  -1 13.3287 2.85111   2
  -3  -9  -1 11.8613 2.51982   3
 -12   9  -1 13.3371 1.98193   4
  12  -3  -1 15.2541 2.10803   1
  -9  12  -1 17.7688 2.65454   4
  12  -3  -1 14.4650 1.49592   2
   9   3  -1 11.9954 2.40228   1
   9   3  -1 19.4422 2.19117   4
  -3  12  -1 12.2027 2.83707   4
  12  -3  -1 16.2673 1.95859   1
  -9  12  -1 12.0700 1.86272   2
   3   9  -1 11.6404 2.69023   4
  12  -9  -1 14.7954 1.52118   4
  -3  12  -1 13.6599 2.24094   1
   9 -12  -1 14.2413 2.34997   4
   3 -12  -1 13.4692 2.92792   4
  -3  -9  -1 12.6104 2.70313   4
  12  -3  -1 15.9723 1.43824   2
  -9  -3  -1 14.5137 2.38080   4
 -12   9  -1 10.2893 1.59492   3
   3   9  -1 23.5118 3.27543   2
  -3  12  -1 10.6375 2.19071   2
   3   9  -1 14.5254 2.55906   1
  -9  12  -1 12.7104 2.30310   3
  -9  12   0 45.2513 3.51370   3
  -3  12   0 35.6772 3.80071   3
   3   9   0 51.5376 4.53115   3
   9   3   0 42.5762 2.41556   5
 -12   9   0 45.3624 3.80164   5
   3   9   0 32.2028 3.65931   1
   9   3   0 30.9454 3.45575   1
   9   3   0 36.7028 3.29932   3
  -9  12   0 49.2919 4.55456   5
   9 -12   0 52.0415 2.94544   2
   3 -12   0 38.5640 3.59724   2
  12  -9   0 43.7411 1.98190   3
  12  -3   0 34.8430 2.28608   3
  -3  12   0 39.0490 4.22299   5
  12  -3   0 43.8174 2.62330   5
   3   9   0 39.6833 3.67403   5
   9 -12   0 39.8145 3.22596   3
  12  -9   0 38.9051 3.74104   5
  -3  -9   0 38.7824 3.86466   2
   9   3   0 44.3335 2.59245   5
   9 -12   0 43.1553 4.38247   5
   3 -12   0 44.9977 4.09589   3
   3 -12   0 36.1788 4.40363   5
  -3  -9   0 40.7405 4.04670   3
  -3  -9   0 43.7072 4.09247   5
  12  -3   0 43.7945 2.73682   5
  -9  -3   0 45.3689 3.89200   2
  12  -9   0 49.3716 2.22962   3
  -9  -3   0 45.2833 3.79704   3
 -12   9   0 42.1435 2.81784   4
   3   9   0 36.5535 3.69119   1
   9   3   0 33.2056 3.72219   1
  -3  12   0 41.5650 3.29305   1
  12  -3   0 40.5548 2.19804   4
  -9  12   0 38.5316 3.58939   4
  12  -3   0 44.1916 2.82625   2
  12  -3   0 44.3469 3.16667   1
  -3  12   0 45.2579 4.23884   4
   3   9   0 48.3001 4.27199   4
  12  -9   0 39.2862 2.72963   4
   9   3   0 44.4901 3.30246   4
  -9  12   0 42.3142 2.83817   2
   9 -12   0 34.2512 3.40213   4
  12  -3   0 42.5145 2.47867   4
   3 -12   0 40.3644 4.19768   4
  -3  -9   0 40.3604 4.10717   4
  -9  -3   0 32.3716 3.13329   4
  -3  12   0 41.2119 3.76084   2
  12  -3   0 45.2075 2.96189   1
  -3  12   0 39.1879 3.32388   1
   3   9   0 48.1557 4.28611   2
  12  -3   0 47.7112 2.54972   3
  12  -3   0 41.2122 2.55496   2
   9   3   0 35.5698 3.60753   2
  -9  12   1 11.6645 1.92272   3
  -3  12   1 13.1667 2.31734   2
  12  -3   1 12.1444 1.72414   2
   9 -12   1 11.7109 1.76309   2
   3   9   1 8.24930 2.21303   2
  12  -9   1 13.0849 1.66433   3
   9   3   1 12.1185 1.73123   5
  -3  12   1 10.2134 2.10666   1
  12  -3   1 8.44802 1.81492   1
   9   3   1 14.6996 2.53729   2
 -12   9   1 7.24898 2.11203   5
  -3  12   1 11.2214 2.45467   3
  12  -3   1 11.3178 1.82664   5
  -9  12   1 13.0226 2.80576   5
   3   9   1 11.0294 2.69900   3
  12  -3   1 10.4244 1.69632   3
  -3  12   1 8.56554 2.54055   5
   3   9   1 14.2155 2.65537   1
  12  -9   1 13.2434 1.01847   2
  12  -9   1 12.8513 2.38518   5
   9 -12   1 7.66762 1.92283   3
   3   9   1 12.1817 2.61405   5
   9   3   1 7.49931 2.01035   3
   9 -12   1 10.7076 2.94987   5
   3 -12   1 9.34160 2.34463   2
   9   3   1 10.0883 1.88501   5
   3 -12   1 9.90543 2.31947   3
   3 -12   1 16.3193 3.22716   5
   9   3   1 11.8912 2.44956   1
  -3  -9   1 14.1057 2.57908   2
  -3  -9   1 10.3192 2.54799   3
  -3  -9   1 11.0558 2.39144   5
  -9  -3   1 14.3523 2.38843   3
  12  -3   1 10.7446 1.88262   5
  -3  -9   1 11.7292 2.37587   1
  -9  -3   1 11.7807 2.45251   2
 -12   9   1 8.65700 1.24830   4
  -9  -3   1 5.01561 2.04103   1
  12  -3   1 7.78561 1.59066   4
   9   3   1 12.3118 2.75818   2
  -3  12   1 13.8393 2.14468   1
  12  -3   1 13.9210 1.91034   2
  -9  12   1 11.6623 2.10426   4
  -3  12   1 16.5954 3.00879   4
  12  -9   1 12.8506 1.96723   4
   3   9   1 20.9034 3.05337   4
  -9  12   1 12.8061 1.50630   2
   3   9   1 4.88386 2.04773   1
   9   3   1 11.6567 2.49238   1
   9 -12   1 12.3698 2.45042   4
   9   3   1 11.1949 2.23313   4
   3 -12   1 9.34776 2.44914   4
  -3  -9   1 8.06686 2.35232   4
  12  -3   1 10.2808 1.82418   4
  -9  -3   1 11.2271 1.92789   4
  12  -3   1 10.4163 1.87932   1
  12  -3   1 12.9978 1.74665   3
  12  -9   1 14.0293 1.01317   2
  12  -9   2 4.13954 1.14808   2
  12  -3   2 2.55499 1.40500   3
   3 -12   2 3.27144 1.48312   1
  -3  12   2 7.62872 2.21507   2
  -9  12   2 5.36133 1.55275   3
  -9  -3   2 1.46567 1.72331   1
   3   9   2 2.39420 1.91590   2
   9   3   2 4.73604 1.58469   5
   9 -12   2 2.35498 1.34945   2
  12  -9   2 3.03868 1.40939   3
 -12   9   2 3.41031 1.56185   5
  -3  12   2 4.05435 2.21276   3
   9   3   2 1.80892 1.74252   2
  12  -3   2 3.30418 1.57357   5
  -9  12   2 4.22867 2.10978   5
   9 -12   2 3.52148 1.60631   3
   3 -12   2 4.79192 1.93601   2
   3   9   2 5.58664 2.48861   3
  12  -9   2 4.66339 1.95461   5
  -3  12   2 2.04265 2.22559   5
   9 -12   2 0.85536 2.16056   5
   3   9   2 2.79449 2.16347   5
  12  -3   2 2.39236 1.28914   2
   3 -12   2 4.89372 2.31094   3
   9   3   2 1.01139 1.58131   3
   3 -12   2 4.73623 2.19699   5
  -3  -9   2 5.01840 1.88123   2
  -3  12   2 3.56421 1.78610   1
   9   3   2 1.77765 1.72319   5
  -3  -9   2 4.29680 2.00895   3
  -3  -9   2 4.61780 1.95917   5
  12  -3   2 4.99503 1.67792   3
  -9  -3   2 1.69769 1.64766   2
  12  -3   2 2.52717 1.54917   5
  -9  -3   2 5.40640 1.76687   3
  12  -9   2 4.50154 1.33048   2
  12  -3   2 3.00715 1.32358   1
   9   3   2 3.77302 1.87050   4
   9   3   2 5.09319 2.29579   2
  -9  12   2 2.80607 0.83410   2
  12  -3   2 3.01246 1.51192   4
  -9  12   2 4.40069 1.78647   4
  12  -9   2 3.72322 1.59942   4
  -3  12   2 3.01436 2.02014   4
   3   9   2 3.93343 1.93010   1
  12  -3   2 2.42268 1.50220   2
   9 -12   2 4.80516 1.92139   4
   3   9   2 5.43225 2.10290   4
   3 -12   2 3.98448 2.17221   4
   3   9   2 2.90548 1.85251   1
   9   3   2 2.16956 1.77060   4
   9   3   2 3.33371 1.68562   1
  -3  -9   2 2.16519 2.25055   4
   9   3   2 2.82850 1.62613   1
  -9  12   2 5.50935 0.91124   2
  12  -3   2 1.45869 1.54574   4
  -3  -9   2 7.06501 2.38473   1
  -3  12   2 4.48386 1.61038   1
  -9  -3   2 3.20241 1.41461   4
   9   3   2 2.54976 1.82478   3
  12  -3   2 2.24512 1.49238   1
  12  -3   3 3.16261 1.71689   3
  12  -3   3 6.52817 1.93503   1
  -3  12   3 1.15510 1.70527   2
  -9  12   3 1.70924 1.34745   3
   9 -12   3 2.58939 1.61356   2
  12  -9   3 1.44765 1.49642   3
   9   3   3 1.29366 1.64287   5
   3   9   3 2.08048 2.33404   2
 -12   9   3 5.17703 1.93408   5
   3   9   3 1.59653 2.03099   1
  12  -3   3 1.81377 1.75300   5
   3 -12   3-0.74559 1.98537   2
  -3  12   3 1.68395 2.05107   3
   9 -12   3 8.58158 2.50366   3
  -9  12   3 0.74892 2.20511   5
  12  -9   3 2.72211 2.43713   5
   9   3   3 15.2791 3.07570   2
   3   9   3 2.90861 2.40891   3
  -3  12   3 2.10877 2.55542   5
   9 -12   3 2.20678 2.10539   5
   3 -12   3 3.37357 1.82567   1
  -3  -9   3 2.80767 2.20116   2
   3 -12   3 3.15120 2.12892   3
   3   9   3 4.11607 2.44545   5
  -3  -9   3 1.25014 1.95029   1
   3 -12   3 0.99119 2.07912   5
  12  -3   3 2.12392 1.50756   1
   9   3   3 3.54088 2.24657   3
  -3  -9   3 2.71367 2.23810   3
   9   3   3 2.19448 1.77206   1
   9   3   3 2.18982 2.22646   5
  12  -3   3 2.60414 1.68914   2
  -3  -9   3 2.03841 1.66580   5
  -9  -3   3 0.88622 1.64659   2
  12  -3   3 3.27570 1.78819   3
  -9  -3   3 1.91631 2.02580   1
  12  -3   3 1.81916 1.86264   5
  -9  -3   3 0.53686 1.52074   3
  12  -9   3-0.20474 2.26681   5
   9   3   3 1.97131 2.09099   4
   3   9   3 0.27197 1.97418   2
  12  -3   3 2.00604 1.62690   4
   9   3   3 2.51002 2.34517   2
  -9  12   3 3.52925 1.66961   4
  12  -9   3 2.60390 1.99517   4
  -9  12   3 2.55911 0.59267   2
  -3  12   3 1.45839 2.08846   4
   9 -12   3 4.34339 2.13719   4
  12  -3   3 2.59115 1.70951   2
   3   9   3 3.60557 2.17556   4
   3 -12   3 4.64476 2.52040   4
   9   3   3 2.53588 2.48845   4
  -3  -9   3 2.85058 2.30589   4
   9 -12   3 2.71361 0.75469   1
  12  -3   3 3.10522 1.93773   4
   3   9   3 2.31797 1.78948   1
  -9  12   3 3.57937 0.65196   2
  -9  -3   3 2.38721 1.25540   4
   9   3   3 2.70422 1.87118   1
  -3  12   3 1.58366 1.78241   1
 -12   3   3 1.11672 1.48212   1
   9   3   3 5.58597 2.60807   3
  -3  12   3 2.77626 1.72717   1
  12  -9   3 2.71084 1.47741   2
  -3  12   4 22.6253 3.20964   2
   3 -12   4 27.8840 3.40930   1
  -9  -3   4 24.3101 3.51910   1
   9   3   4 34.8594 4.00417   1
   3 -12   4 26.3261 3.70004   2
  -9  12   4 30.6945 2.41292   3
  12  -9   4 36.8542 3.83922   3
  -3  -9   4 35.7291 4.18119   1
  12  -3   4 25.0444 2.97746   1
   9   3   4 26.9818 3.68144   5
   9   3   4 31.3187 3.96522   2
   9 -12   4 32.1655 3.80390   3
  -3  12   4 26.4642 3.89121   3
  12  -3   4 31.4255 3.82851   5
 -12   9   4 27.5951 3.01776   5
  -9  -3   4 22.1095 3.16780   2
   3 -12   4 27.6338 4.22313   3
  12  -9   4 28.8958 4.15600   5
   3   9   4 38.2347 4.48374   3
   3   9   4 22.1540 3.81503   2
  12  -3   4 27.2826 3.53838   2
   9 -12   4 29.0891 4.46402   5
  -3  -9   4 28.3415 3.80994   3
  -3  12   4 31.7517 4.51550   5
  -9  12   4 21.4688 3.76518   5
  -3  -9   4 22.3346 3.84797   2
   3 -12   4 25.6103 3.95811   5
   3   9   4 36.3184 4.66794   5
 -12   3   4 30.3036 3.19468   1
  -3  -9   4 17.3760 2.91623   5
   9   3   4 33.8586 4.24903   5
  -9  -3   4 34.4640 3.43988   3
  12  -3   4 33.2945 4.12386   3
   9   3   4 20.0028 3.90038   3
  12  -3   4 22.9721 3.59435   5
  12  -9   4 32.0599 1.83722   1
  12  -9   4 20.9472 3.72616   5
  -9  12   4 28.9572 1.68648   1
  -3  12   4 24.0037 3.48843   2
   3   9   4 25.3651 3.90871   2
   9   3   4 30.5068 4.03637   2
  12  -3   4 27.7114 3.79139   4
  -9  12   4 31.0496 1.73787   1
  12  -9   4 25.6203 3.69544   4
  -9  12   4 28.7972 3.09726   4
  12  -3   4 23.1467 3.29892   2
   9 -12   4 30.4372 3.94243   4
  -3  12   4 38.6926 4.22589   4
   3 -12   4 24.8955 3.76347   4
   3   9   4 31.6853 3.92909   1
  -3  -9   4 27.5510 3.91274   4
   9   3   4 30.7387 3.91153   1
   9   3   4 25.5983 3.98871   4
   3   9   4 25.6932 4.13470   4
  12  -3   4 22.2090 3.74468   4
   9 -12   4 29.2799 2.23972   1
  -3  12   4 30.2479 3.61877   1
  12  -9   4 39.4855 1.97259   1
  12  -9   4 27.9597 3.13784   2
   3   9   4 21.6696 3.71394   1
  -3  12   4 36.7922 3.66631   1
  -9  12   4 26.1577 2.17890   3
  12  -3   4 31.3535 3.46294   1
   9   3   4 25.4958 3.76696   3
   9 -12   4 21.4754 3.42185   2
  12  -3   4 35.9035 3.95858   3
 -10  12  -3 5.34779 2.28536   3
  10   2  -3 2.69231 2.36592   1
  10   2  -3 13.1327 1.99237   3
   2  10  -3 3.85014 2.42413   1
  -2  12  -3 5.05955 2.44680   3
   2  10  -3 12.2964 2.90546   3
 -12  10  -3 4.83910 2.22110   5
 -10  12  -3 12.5019 3.05762   5
   2  10  -3 4.48086 1.91998   5
  -2  12  -3 5.08166 2.42729   5
  12 -10  -3 5.28609 2.16490   5
  10 -12  -3 4.02220 2.42405   5
   2 -12  -3 0.44133 2.69086   5
  -2 -10  -3 4.77610 2.92701   5
   2 -12  -3 7.43335 2.80130   3
  -2 -10  -3 6.16328 2.85341   3
  10   2  -3 7.20544 0.86112   4
 -12  10  -3 5.32693 2.20247   4
  10   2  -3 5.93762 0.84966   4
  12  -2  -3 6.49562 1.16630   2
 -10  12  -3 6.92352 2.33688   4
 -12  10  -3 7.69059 1.89808   2
  -2  12  -3 8.05830 2.64907   4
   2  10  -3 5.03638 2.36989   4
 -10  12  -3 5.07600 1.96783   2
  12  -2  -3 5.74568 1.82914   1
  12  -2  -3 7.87583 1.17900   2
  10 -12  -3 7.83709 1.93034   4
   2 -12  -3 2.28377 2.77751   4
  -2 -10  -3 1.62722 2.62748   4
  -2  12  -3 8.29343 2.56613   1
  -2  12  -3 5.13627 2.59841   2
  10   2  -3 12.6094 2.36641   2
   2  10  -3 8.38065 2.73687   2
 -12  10  -3 3.71640 1.79218   3
 -10  12  -2-1.30175 1.69236   3
  -2  12  -2 1.72644 1.76524   1
  -2  12  -2 0.47042 1.71846   3
   2  10  -2-0.75757 2.12660   3
  10   2  -2-0.21022 1.21024   3
 -12  10  -2-0.14787 2.02193   5
 -10  12  -2 0.41647 2.18092   5
  -2  12  -2-1.13026 2.06391   5
   2  10  -2 0.08569 1.48055   5
  10   2  -2 0.32051 1.50858   1
   2  10  -2-1.50040 2.03978   1
  12 -10  -2-0.92848 1.78029   5
  10 -12  -2-0.04176 2.03053   5
   2 -12  -2 1.14599 2.07090   5
  -2 -10  -2-0.68803 2.20583   5
   2 -12  -2-1.04557 2.03706   3
  10 -12  -2 0.27490 1.02055   3
   2 -12  -2 1.05098 2.02667   2
  -2 -10  -2 1.36734 2.41383   3
  -2 -10  -2 1.14513 1.71195   2
 -12  10  -2 1.47374 1.66666   4
 -12  10  -2 1.14569 1.15672   2
 -10  12  -2 2.49149 1.74253   4
  12  -2  -2 1.07128 1.01102   2
  -2  12  -2 0.27341 2.07608   4
  10   2  -2 0.49933 0.91572   4
   2  10  -2-0.03626 1.62509   4
 -10  12  -2 0.36632 1.38075   2
  10 -12  -2-0.18887 1.57633   4
   2 -12  -2-0.08468 2.23918   4
  -2 -10  -2-0.12987 1.88963   4
  12  -2  -2 2.28432 1.01409   2
  -2  12  -2-0.14993 1.99565   2
 -12  10  -2-0.36356 1.43577   3
   2  10  -2-0.26838 1.94881   2
  12  -2  -2 0.07180 1.29954   1
  10   2  -2 2.02416 1.65940   2
  -2  12  -1 60.1797 5.02496   3
   2  10  -1 54.1458 4.73386   3
  12  -2  -1 51.8047 2.39595   3
  10   2  -1 46.5572 3.42879   3
 -12  10  -1 53.7561 4.44907   5
 -10  12  -1 61.8219 5.11500   5
  -2  12  -1 53.5712 4.70044   5
   2  10  -1 51.7558 4.15962   5
   2 -12  -1 59.2459 4.54005   2
  12 -10  -1 55.0848 4.42153   5
  10 -12  -1 59.8699 5.08900   5
  10 -12  -1 53.6553 3.30175   3
  -2 -10  -1 50.5440 4.68918   2
   2 -12  -1 49.3811 4.43971   3
   2 -12  -1 67.6635 5.58892   5
  -2 -10  -1 56.2994 4.98290   3
  -2 -10  -1 42.6207 4.64150   5
  10   2  -1 41.2278 2.94686   4
 -12  10  -1 57.8188 3.85664   4
  12  -2  -1 61.4941 4.20021   1
  12  -2  -1 52.3445 3.18079   2
 -10  12  -1 54.9459 4.53524   4
  -2  12  -1 54.0812 4.89221   4
 -10  12  -1 51.9971 3.26940   2
   2  10  -1 55.9278 4.85263   4
  10   2  -1 55.9604 3.30352   4
  12 -10  -1 48.5044 2.96075   4
  10 -12  -1 59.0441 4.21019   4
  12  -2  -1 54.7523 3.65610   1
   2 -12  -1 54.7819 4.95501   4
  -2  12  -1 53.1679 4.00871   1
  -2 -10  -1 38.1554 4.40640   4
  -2  12  -1 45.1090 4.21817   2
   2  10  -1 39.4546 4.56535   2
  12  -2  -1 53.1408 2.99782   2
 -12  10  -1 55.4215 3.32569   3
  10   2  -1 61.3950 4.41651   1
  10   2  -1 55.1038 3.89629   2
   2  10  -1 59.4578 4.64262   1
  12  -2  -1 62.4247 2.51230   3
 -10  12  -1 56.2992 3.84559   3
  12  -2   0 4.18430 1.20758   3
  -2  12   0 6.32765 2.16713   2
 -10  12   0 5.34541 1.55938   3
   2  10   0 5.97659 2.38060   2
  12  -2   0 1.96091 1.14244   2
  10   2   0 3.65940 1.74269   2
  -2  12   0 2.90918 2.13359   3
 -12  10   0 1.76639 1.72947   5
  10   2   0 3.94345 0.87899   5
   2  10   0 4.64580 1.96236   3
 -10  12   0 4.58049 2.13385   5
  -2  12   0 4.45799 2.18516   5
  10   2   0 3.09492 1.57062   3
  12  -2   0 2.93913 0.93436   5
   2  10   0 4.13087 1.93560   5
  12  -2   0 1.72240 1.05722   3
  12 -10   0 3.84914 0.93568   3
  12 -10   0 1.26636 1.84339   5
  10   2   0 4.77247 0.97844   5
  10 -12   0 2.87295 1.90353   5
  10 -12   0 4.44390 1.48667   3
   2 -12   0 4.94556 2.30304   5
   2 -12   0 3.01429 1.72045   3
  10 -12   0 4.56175 1.08038   2
  12  -2   0 3.23235 1.05098   5
   2 -12   0 4.56786 2.20597   2
  -2 -10   0 5.39890 2.53702   5
  -2 -10   0 3.10571 2.13416   3
  -2 -10   0 6.02397 2.08919   2
  10   2   0 5.58076 1.56996   4
  10   2   0 4.84446 1.89648   2
 -12  10   0 4.57563 1.41506   4
  12  -2   0 3.12999 1.49361   1
  12  -2   0 4.17615 1.01578   4
 -10  12   0 3.49175 1.64470   4
  -2  12   0 1.98902 1.48966   1
   2  10   0 3.48108 1.84396   1
  12  -2   0 5.30518 1.42545   2
  -2  12   0 0.13726 1.35667   1
  10   2   0 5.38631 2.10759   1
  -2  12   0 0.70300 1.62096   4
   2  10   0 2.27222 2.08875   4
 -10  12   0 6.22412 1.16810   2
  10   2   0 3.02045 1.38999   4
  12 -10   0 2.05938 1.18123   4
  12  -2   0 4.29420 1.51254   1
  10 -12   0 3.70003 1.80268   4
  12  -2   0 4.11576 1.11439   4
   2 -12   0 1.66224 2.19105   4
  -2 -10   0 3.94413 2.31761   4
  10   2   0 3.95609 1.63483   1
   2  10   0 3.61032 1.74047   1
  10   2   0 2.54675 1.64678   3
 -12  10   0 3.91676 0.96724   3
  10   2   1 51.4383 4.08793   2
  12 -10   1 50.1332 1.93367   2
  12  -2   1 42.9729 3.28969   2
  10 -12   1 45.1531 2.85878   2
  -2  12   1 50.7013 4.61216   3
  10   2   1 62.8269 3.41983   5
   2  10   1 39.8173 4.42837   3
  12 -10   1 56.9426 3.20149   3
 -12  10   1 52.9725 4.39504   5
   2 -12   1 50.7892 4.23870   2
  -2  12   1 32.1806 3.86422   1
 -10  12   1 54.7827 4.99710   5
  12  -2   1 49.7059 3.21947   5
  12  -2   1 44.8071 3.47577   1
  -2 -10   1 53.6285 4.68848   2
  10 -12   1 56.5586 3.88786   3
  10   2   1 44.5397 3.83958   3
  -2  12   1 57.6061 5.12480   5
   2  10   1 63.9644 5.16461   5
  12  -2   1 55.3997 3.56638   3
  12 -10   1 54.8448 4.65944   5
  10 -12   1 46.9421 4.93585   5
   2 -12   1 42.3263 4.54707   3
   2  10   1 58.0180 4.64051   1
  -2 -10   1 62.4271 5.02610   3
  10   2   1 62.4248 3.93796   5
   2 -12   1 67.2777 5.49073   5
  10   2   1 58.0627 4.27430   1
  -2 -10   1 61.9437 4.83328   5
  12 -10   1 54.8215 2.08822   2
  12  -2   1 64.8855 3.85217   5
 -10  -2   1 59.2227 4.39045   2
 -10  -2   1 53.2965 3.93160   3
  10   2   1 60.3318 4.07680   4
  10   2   1 37.3626 4.01154   2
 -12  10   1 59.1918 3.14065   4
  12  -2   1 59.5382 3.46233   4
   2  10   1 50.0353 4.42137   1
  -2 -10   1 61.4283 4.74435   1
  10   2   1 49.2975 4.20330   1
  12  -2   1 50.8787 3.81662   2
 -10  12   1 47.3028 3.72920   4
  -2  12   1 60.0807 4.22526   1
 -10  12   1 56.7416 1.87813   2
  12  -2   1 54.0073 3.83673   1
  -2  12   1 46.9376 4.51886   4
  12 -10   1 58.6113 3.74438   4
   2  10   1 46.7621 4.51357   4
  10 -12   1 43.7467 4.17736   4
  10   2   1 46.5584 3.76004   4
   2 -12   1 57.1778 5.02238   4
  12  -2   1 53.6589 3.65528   4
  -2 -10   1 50.9822 4.88115   4
  10   2   1 55.6375 4.41196   3
  -2  12   1 61.0378 4.78239   2
  12  -2   1 69.8055 3.84790   3
   2  10   1 56.9102 4.88755   2
 -10  12   1 41.7496 3.28204   3
  12  -2   2-0.23111 1.36046   3
  12 -10   2 1.31036 1.08071   2
 -10  12   2 0.72275 1.06196   3
  -2  12   2-0.44523 1.64565   2
   2  10   2 0.70651 1.87521   2
  10 -12   2 1.35661 1.29738   2
  10   2   2 0.09644 1.30467   5
  12 -10   2 0.49993 1.39133   3
 -12  10   2-0.12362 1.65956   5
  12  -2   2-0.20273 1.36016   5
  -2  12   2 0.03783 1.85489   3
   2 -12   2-0.29386 1.47364   1
  10   2   2 0.65910 1.78627   2
 -10  12   2 0.80752 2.22987   5
   2  10   2-0.04089 1.81559   3
  10 -12   2-0.11277 1.48850   3
  12  -2   2-0.20161 1.35148   2
  12 -10   2-0.74002 1.85645   5
  -2  12   2 1.25511 2.22424   5
   2 -12   2-0.10745 1.89644   2
  10 -12   2-1.19721 2.37550   5
   2  10   2 2.46600 2.42639   5
  10   2   2 1.59281 1.77756   3
  -2 -10   2-0.60326 2.11648   2
   2 -12   2 0.15509 2.07281   3
  -2  12   2-0.15594 1.68805   1
   2 -12   2 0.45706 2.13144   5
  10   2   2 0.09069 1.59099   5
  -2 -10   2 0.94528 2.15680   3
  12  -2   2 1.80140 1.71422   3
  -2 -10   2 0.27089 1.82956   5
  12  -2   2-0.11302 1.47604   5
 -10  -2   2-0.30183 1.69258   2
 -10  -2   2-0.82477 1.40062   3
  12  -2   2 0.59995 1.41421   1
  10   2   2 0.29770 1.52952   4
 -12  10   2 1.22198 0.74977   4
 -10  -2   2 0.26982 1.75024   1
  12  -2   2-0.21823 1.34970   4
   2  10   2-0.69930 1.80718   1
  10   2   2-0.11081 1.85807   2
 -12   2   2 0.28477 1.41852   1
 -10  12   2 0.81793 1.41827   4
  10   2   2 1.18220 1.88664   1
  12  -2   2-0.72028 1.59334   2
  12 -10   2 0.65384 1.55051   4
  -2  12   2-0.32090 2.07488   4
  10 -12   2 0.03336 1.75225   4
   2  10   2 0.24423 2.21126   4
   2 -12   2 0.16666 1.77241   4
  10   2   2-0.65344 1.70000   4
   2  10   2 0.33755 1.57911   1
  -2 -10   2 4.72809 2.66715   4
  12  -2   2 0.29930 1.66354   4
  10   2   2 1.77401 1.87528   1
  -2  12   2-0.37718 1.45931   1
  12  -2   2 1.12812 1.55526   1
  10   2   2-0.41045 1.88706   3
  -2 -10   2 1.40883 2.07340   1
   2  10   3 11.0508 2.70430   1
  12 -10   3 6.28619 1.72088   2
  12  -2   3 6.26393 2.12901   3
  12  -2   3 3.23257 1.96225   1
 -10  12   3 5.52806 1.27673   3
  12  -2   3 6.47501 2.02880   1
  10 -12   3 4.35671 1.86150   2
  -2  12   3 3.18915 2.37687   2
   2  10   3 6.60191 2.62447   2
  10   2   3 6.37630 2.05263   5
  12 -10   3 5.46613 1.98941   3
  10   2   3 4.72895 2.32850   1
  12  -2   3 5.46869 2.01935   5
 -12  10   3 5.91523 2.10310   5
  10 -12   3 9.69933 2.71175   3
  -2  12   3 11.3182 2.88474   3
 -10  12   3 9.59161 2.73324   5
   2 -12   3 6.20670 2.64302   2
  12 -10   3 2.70589 2.40201   5
   2  10   3 8.80250 2.91467   3
  10   2   3 5.77451 2.19541   2
  10 -12   3 4.54834 2.66955   5
  -2  12   3 3.88610 3.00172   5
  -2 -10   3 12.4628 3.04997   2
   2  10   3 8.82294 3.27954   5
   2 -12   3 4.95441 2.58771   3
  12  -2   3 6.09531 2.08467   2
   2 -12   3 4.64012 2.40765   5
  -2 -10   3 8.97085 2.76280   3
  10   2   3 4.45064 2.31547   3
  -2 -10   3 8.27264 2.52818   5
  10   2   3 4.17386 2.18209   5
  -2 -10   3 9.06310 2.54981   1
   2 -12   3 8.52623 2.28237   1
  12  -2   3 7.03985 2.33054   3
  12  -2   3 5.41807 2.27614   5
 -10  -2   3 5.83241 2.08991   2
 -10  -2   3 3.31448 1.83792   3
  10   2   3 3.94599 2.26399   4
   2  10   3 3.12836 2.29806   2
  12  -2   3 7.18178 2.02311   4
 -10  12   3 3.31112 1.59649   4
  10   2   3 7.41536 2.76859   2
 -10  -2   3 9.39511 2.71125   1
  10   2   3 19.0712 3.34173   1
  12 -10   3 6.70712 2.21481   4
  10 -12   3 7.05812 2.41727   4
  -2  12   3 9.06260 2.70884   4
  12  -2   3 10.7508 2.59628   2
   2  10   3 7.13848 2.63574   4
   2 -12   3 7.34473 2.93975   4
  -2 -10   3 10.2794 2.73443   4
  10   2   3 3.92842 2.73530   4
  12  -2   3 5.88166 2.38528   4
  -2  12   3 4.42007 2.14776   1
   2  10   3 8.10117 2.49522   1
  -2  12   3 9.56454 2.31423   1
  10   2   3 2.55385 2.26440   3
 -12   2   3 4.60439 1.92939   1
 -11  12  -3 0.20240 2.00091   3
   1  11  -3 2.26375 2.50933   1
  11   1  -3-0.28255 1.09812   3
  -1  12  -3 1.70880 2.32209   3
   1  11  -3-0.47523 2.11757   3
 -12  11  -3 0.82018 2.19423   5
 -11  12  -3-0.27115 2.21529   5
   1  11  -3-0.57204 1.95512   5
  -1  12  -3 3.79130 2.51288   5
  12 -11  -3 2.23977 2.30829   5
  11 -12  -3 0.30201 2.36698   5
   1 -12  -3-0.76064 2.55861   5
  -1 -11  -3 0.49877 2.82803   5
   1 -12  -3 6.50116 2.74309   3
  -1 -11  -3 4.59288 2.84468   3
 -12  11  -3-0.56069 2.03325   4
 -11  12  -3 0.03691 2.07709   4
 -12  11  -3-0.17326 1.61501   2
  -1  12  -3-0.45322 2.30705   4
   1  11  -3 2.47390 2.37197   4
 -11  12  -3-0.17029 1.74748   2
  11 -12  -3 0.60077 1.48288   4
   1 -12  -3 0.75650 2.55149   4
  12  -1  -3 1.52773 1.88493   1
  -1 -11  -3-0.87264 2.90304   4
  12  -1  -3-0.14895 1.15652   2
  12 -11  -3-0.44019 0.75513   4
  -1  12  -3-0.96299 2.56097   2
  11   1  -3-0.53897 1.55735   2
   1  11  -3-1.24218 2.15298   2
  -1  12  -3 0.36143 2.07310   1
 -12  11  -3 0.64717 1.85962   3
  11   1  -3 0.27185 1.95233   1
  12  -1  -2 47.5267 2.14533   3
  -1  12  -2 45.6841 4.93888   3
   1  11  -2 43.1221 4.69391   3
  11   1  -2 49.2118 3.10794   3
 -12  11  -2 35.4257 4.39060   5
 -11  12  -2 42.3142 4.56054   5
  -1  12  -2 50.7583 4.67813   5
   1  11  -2 29.7902 3.75768   5
  12 -11  -2 47.1564 4.58598   5
  11 -12  -2 49.5507 4.84308   5
   1 -12  -2 43.4084 5.49739   5
   1 -12  -2 52.8693 4.84394   2
   1 -12  -2 39.5299 4.51542   3
  -1 -11  -2 46.2290 4.91165   5
  -1 -11  -2 49.3348 4.91615   3
  -1 -11  -2 29.7076 4.08997   2
  11 -12  -2 48.4288 2.21594   3
  12  -1  -2 54.4295 3.45863   2
 -12  11  -2 34.1253 3.78508   4
  11   1  -2 44.5460 1.80639   4
 -12  11  -2 40.4345 3.03379   2
 -11  12  -2 53.0859 4.40960   4
 -11  12  -2 40.3906 3.44321   2
  11   1  -2 55.1226 2.00712   4
  12  -1  -2 42.8187 3.90257   1
  -1  12  -2 46.5071 4.76496   4
   1  11  -2 45.0189 4.65547   4
  -1  12  -2 49.7881 4.30802   1
  11   1  -2 50.5467 4.24911   1
   1  11  -2 45.4104 4.61077   1
  11 -12  -2 47.2731 3.77210   4
  12 -11  -2 45.1713 2.80822   4
   1 -12  -2 48.6239 5.02926   4
  -1 -11  -2 40.6354 4.66776   4
  -1  12  -2 50.2004 4.77322   2
  12  -1  -2 42.7326 2.93513   2
   1  11  -2 54.7790 4.96690   2
  11   1  -2 48.9440 3.74135   2
 -12  11  -2 43.5318 3.65628   3
  12  -1  -2 48.4763 2.05816   3
 -11  12  -2 41.0490 3.81061   3
   1  11  -1 0.71076 1.95308   2
 -11  12  -1 0.97036 1.40120   3
  12  -1  -1 0.17690 1.21962   2
  11   1  -1 0.55625 1.37244   2
  -1  12  -1 1.39379 2.27802   3
   1  11  -1 3.40050 2.39432   3
 -12  11  -1-0.15375 2.02351   5
 -11  12  -1 1.15440 1.91963   5
  12  -1  -1 0.01447 0.93261   3
  11   1  -1-0.04215 1.19550   3
  -1  12  -1-0.70065 2.14317   5
   1  11  -1-0.07021 1.77700   5
  12  -1  -1-0.74082 1.51311   1
  12 -11  -1-0.51882 1.80430   5
  11 -12  -1-0.12257 2.40052   5
  -1  12  -1 0.16225 1.62721   1
   1 -12  -1-0.18041 2.06912   5
  11 -12  -1 0.21985 0.98859   3
  -1 -11  -1 2.54667 2.41354   5
   1 -12  -1-0.60407 2.20069   3
   1 -12  -1-0.22009 1.91222   2
  -1 -11  -1-0.79620 1.95165   3
  -1 -11  -1 1.02536 1.97413   2
  11   1  -1 2.42082 1.75393   1
   1  11  -1-0.56075 1.92025   1
  11   1  -1 2.55294 1.35298   4
  11   1  -1-0.45203 1.65937   2
 -12  11  -1-0.29446 1.48978   4
 -11  12  -1-1.01024 1.76303   4
  12  -1  -1 0.96559 1.37479   2
  12  -1  -1-0.02787 0.48065   4
  11   1  -1-0.03430 1.85113   1
  12  -1  -1-0.69337 1.69715   1
 -11  12  -1 0.14018 1.02289   2
  -1  12  -1-0.16179 1.94888   4
   1  11  -1 3.27762 2.91477   4
  12  -1  -1 0.25228 0.50988   4
  11   1  -1 0.46305 0.93487   4
  12 -11  -1 0.22887 1.24414   4
  11 -12  -1 1.26677 1.47952   4
   1 -12  -1-0.48734 1.90068   4
  -1 -11  -1-0.70448 2.38095   4
  11   1  -1-0.83743 1.26774   3
 -12  11  -1-0.36284 1.17704   3
  12  -1  -1 0.25514 0.89731   3
  -1  12  -1 1.80696 1.87121   2
  -1  12   0-0.48951 1.94027   2
 -11  12   0-0.12186 1.17709   3
   1  11   0 0.19825 2.11088   2
  12  -1   0 2.20794 1.47271   2
  11   1   0 0.18352 1.40059   2
  -1  12   0 2.27230 1.92894   3
 -12  11   0 1.66424 2.09020   5
   1  11   0-0.84769 1.86845   3
 -11  12   0 0.71481 1.82011   5
  -1  12   0-0.08197 2.20169   5
  11   1   0-0.40273 1.32610   3
   1  11   0 2.01624 2.03311   5
  12  -1   0 0.14984 1.13292   3
  11   1   0 0.13729 0.64995   5
  12 -11   0-0.38144 1.92739   5
  11 -12   0 0.41199 2.30673   5
  12 -11   0-0.29627 0.93232   3
  11 -12   0-0.62620 1.24186   3
  12  -1   0-0.14425 0.70951   5
   1 -12   0 0.82892 2.41230   5
  -1 -11   0-0.81077 2.03830   5
   1 -12   0-0.47433 2.01129   3
   1 -12   0 1.77324 2.13661   2
  -1 -11   0 0.32211 2.10649   3
  -1 -11   0-1.03155 1.94546   2
  11 -12   0-0.02785 0.44670   2
  11   1   0 0.85486 1.10039   4
 -12  11   0 1.49917 1.47809   4
  11   1   0 0.47207 1.81654   2
  12  -1   0 0.04500 0.94474   4
 -11  12   0 0.72556 1.53177   4
  12  -1   0 0.73744 1.38101   2
 -11  12   0 0.03436 0.47363   2
  12  -1   0 1.14598 1.57702   1
  -1  12   0 0.06430 1.57587   1
   1  11   0-0.85792 1.94475   1
  -1  12   0 0.93148 1.67358   1
  -1  12   0 0.04126 2.31934   4
   1  11   0-0.85282 2.18244   4
  11   1   0-0.16536 1.71167   1
  11   1   0-0.59358 1.62151   1
  12  -1   0-0.41149 1.58693   1
  11   1   0 0.02024 1.16225   4
   1  11   0 0.13883 1.66346   1
  12  -1   0 0.53579 1.06229   4
  12 -11   0-0.45575 1.28031   4
  11 -12   0 1.73507 1.53022   4
   1 -12   0-0.43824 2.28020   4
  -1 -11   0 1.17778 2.39145   4
  11   1   0 0.80656 1.43620   3
 -12  11   0 0.04261 0.93074   3
  12  -1   0-0.33686 1.06595   3
 -11  12   1-0.28296 1.04772   3
   1  11   1-0.81798 1.91042   1
  -1  12   1 0.07571 1.73366   2
  11   1   1 0.09058 1.48393   1
   1  11   1-0.97969 1.87588   2
  11   1   1-0.89291 1.58212   2
  12  -1   1-0.48789 1.42796   2
  11   1   1-0.53757 1.17494   5
  -1  12   1 1.39920 1.92178   3
 -12  11   1 1.60900 1.96768   5
 -11  12   1 0.03976 2.12113   5
   1  11   1 1.07581 2.16822   3
  12  -1   1-0.24244 1.14026   5
  11 -12   1 1.16382 0.95925   2
  12 -11   1-0.34637 1.17042   3
  -1  12   1-0.47742 2.38249   5
   1  11   1 3.66020 2.48428   5
  11 -12   1 0.32397 1.29018   3
  11   1   1 0.80632 1.55047   3
  12 -11   1 1.43468 1.96733   5
  11 -12   1 0.59788 2.28767   5
  12  -1   1 0.35541 1.36797   3
  11   1   1-0.15525 1.33638   5
   1 -12   1-0.55549 2.04348   2
   1 -12   1 0.46793 2.12128   5
   1 -12   1-0.24160 2.25461   3
  -1 -11   1-0.99789 1.77918   2
  -1 -11   1-0.03895 1.98714   5
  12  -1   1-0.28608 1.38438   5
  -1 -11   1 1.29766 2.22084   3
  11   1   1 0.28343 1.30604   4
 -12  11   1-0.31045 1.15455   4
  12  -1   1 0.02028 1.17999   4
 -11  12   1 1.06522 1.51608   4
  11   1   1-0.57342 1.81705   2
  12  -1   1 0.19423 1.54357   2
  -1  12   1 0.50034 2.14998   4
   1  11   1 3.88458 3.00945   4
  12 -11   1 0.05256 1.44590   4
   1  11   1 0.74841 2.01111   1
  11 -12   1-0.95333 1.65632   4
  -1  12   1 1.23265 1.59924   1
  11   1   1-0.37721 1.45947   4
  11   1   1-0.46368 1.70809   1
  12  -1   1 3.03481 1.53997   4
   1 -12   1-0.71094 1.94472   4
  -1 -11   1 0.56739 2.02440   4
  12  -1   1 0.82067 1.59457   1
  -1 -11   1 0.48162 1.67817   1
 -12  11   1 0.05247 0.35001   3
  -1  12   1-0.55940 1.61428   1
  11   1   1 1.18280 1.71756   3
  12  -1   1-0.37287 1.50497   1
  12  -1   1-0.35015 1.27486   3
  11 -12   2 44.3411 3.11268   2
  -1 -11   2 47.9814 4.54502   1
  11   1   2 45.6480 4.22040   2
  12  -1   2 55.8095 4.11864   2
   1 -12   2 45.1201 4.21755   1
  -1  12   2 46.1978 4.88221   3
   1 -12   2 43.1894 4.43799   2
  12 -11   2 47.0212 3.58546   3
  11   1   2 35.4457 3.40663   5
  -1 -11   2 48.9208 4.70075   2
   1  11   2 40.0328 4.65565   3
  11 -12   2 45.9173 3.83305   3
  12  -1   2 49.9676 3.68123   5
 -12  11   2 47.8184 4.38956   5
 -11  12   2 36.0156 4.32237   5
  -1  12   2 48.8678 5.33895   5
  11   1   2 44.5049 4.10162   3
  12 -11   2 50.6062 4.86751   5
   1  11   2 48.8783 5.05393   5
   1 -12   2 54.1049 5.00582   3
  11 -12   2 45.5742 4.85488   5
  12  -1   2 54.7806 4.22627   3
  -1 -11   2 53.8050 5.02531   3
   1 -12   2 45.0823 4.70626   5
  -1 -11   2 49.3484 4.63414   5
  11   1   2 56.5476 4.30376   5
  12  -1   2 44.1207 3.82095   5
  -1  12   2 47.8775 4.30333   1
 -11  -1   2 46.7437 3.76767   2
 -11  -1   2 34.9817 3.92621   1
  12  -1   2 46.3567 3.86775   1
   1  11   2 50.8197 4.62852   1
  11   1   2 45.3350 4.00726   1
  11   1   2 40.8543 3.71211   4
 -12  11   2 56.8327 2.96313   4
  12  -1   2 48.5555 3.72405   4
  11   1   2 42.8828 4.34790   2
 -11  12   2 53.6348 3.59554   4
  12  -1   2 44.6696 4.22241   2
   1  11   2 39.4667 4.06508   1
  -1  12   2 50.5292 4.20960   1
  11   1   2 47.9439 4.31612   1
  -1  12   2 38.9620 4.74703   4
  12 -11   2 54.3540 4.26902   4
   1  11   2 42.2891 4.47641   4
  11 -12   2 46.6684 4.25190   4
  12  -1   2 38.4942 3.85468   1
 -12   1   2 36.9032 3.87074   1
   1 -12   2 53.0927 5.13462   4
  11   1   2 42.6006 4.13844   4
  -1 -11   2 42.2999 5.10805   4
  12  -1   2 49.6777 4.23277   4
  11   1   2 49.8916 4.21830   3
  12  -1   2 55.7043 4.26143   3
 -11  12   2 47.8421 2.24699   3
  -1  12   2 50.5727 4.60665   2
   1  11   2 49.6212 4.94371   2
  12 -11   2 46.6933 2.84742   2
  11   1   3-1.24505 1.97996   1
  12  -1   3-0.30137 1.94570   3
  12 -11   3 0.38711 1.48605   2
  11 -12   3-0.93101 1.65751   2
  -1  12   3 1.37773 2.12508   2
   1  11   3 1.17468 2.33094   2
  11   1   3-0.15484 1.88541   5
 -12   1   3-0.15952 1.82845   1
  12 -11   3 0.33177 1.80509   3
  12  -1   3 0.27759 1.83902   5
 -12  11   3-0.94250 2.19376   5
  11 -12   3 0.46246 2.04972   3
 -11  12   3 0.70227 2.17287   5
  -1  12   3 2.24130 2.32521   3
   1  11   3 0.39160 2.18518   3
   1 -12   3-1.23630 2.54722   2
  11   1   3-0.87705 2.02375   2
  12 -11   3-0.50956 2.34275   5
  11 -12   3-0.83419 2.67945   5
  -1  12   3 2.87418 3.00612   5
  -1 -11   3-0.45798 2.29671   2
   1  11   3 0.09757 2.79014   5
  12  -1   3-0.69171 1.95957   2
   1 -12   3 0.04328 2.47531   3
   1 -12   3-0.46543 2.46927   5
  -1 -11   3-1.72396 2.55744   3
  11   1   3-0.30676 2.26688   3
  -1 -11   3-0.94345 2.20225   5
  12  -1   3-0.35567 2.07632   3
  11   1   3 8.61617 2.65527   5
  12  -1   3-0.77921 2.15079   5
 -11  -1   3 3.75257 2.08444   2
 -11  -1   3 0.10314 1.23527   3
   1  11   3 4.82401 2.93645   2
  11   1   3-0.40981 1.88183   4
  -1 -11   3 2.48857 2.41321   1
 -12  11   3 0.71009 0.69353   4
  12  -1   3-1.11426 1.89462   4
   1 -12   3-0.84746 2.01309   1
 -11  12   3 0.16379 1.33293   4
  11   1   3 3.65979 2.66626   2
  12  -1   3 0.39595 1.97253   2
  12 -11   3-2.25806 2.31999   4
  11 -12   3-0.98175 2.08867   4
  -1  12   3-1.05204 2.20368   4
   1  11   3-1.24831 2.42777   4
  -1  12   3-1.08283 2.23338   1
   1 -12   3-0.27203 2.70694   4
  -1 -11   3 1.78179 2.75448   4
  11   1   3-0.61296 2.20970   4
  12  -1   3-0.22952 2.25033   4
   1  11   3-0.54854 2.25024   1
   1  11   3 0.15100 2.21237   1
 -11  -1   3-0.21480 1.99773   1
  -1  12   3-0.91535 2.01749   1
  12  -1   3-0.70495 1.70361   1
  11   1   3-1.04751 1.99370   1
  11   1   3-0.59579 2.16853   3
  12  -1   3 0.66116 1.89575   1
  12   0  -2 11.4948 1.58568   3
  12   0  -2 6.30894 2.28501   1
   0  12  -2 9.72879 2.83729   3
   0  12  -2 7.20950 2.48194   1
 -12  12  -2 6.30036 2.67067   5
   0  12  -2 6.71478 2.73339   5
  12 -12  -2 9.44383 2.91407   5
   0 -12  -2 12.2516 3.65150   5
   0 -12  -2 9.45311 3.58382   3
   0 -12  -2 3.65020 2.69704   2
  12   0  -2 8.42400 2.24667   2
 -12  12  -2 12.5552 2.74440   4
 -12  12  -2 9.54343 1.80444   2
   0  12  -2 7.76252 3.09408   4
  12 -12  -2 8.03150 1.93756   4
   0 -12  -2 3.07307 2.91286   4
   0  12  -2 13.4786 3.77689   2
  12   0  -2 8.81984 1.92898   2
  12   0  -2 9.40657 1.47508   3
 -12  12  -2 11.2108 2.34552   3
  12   0  -1 20.2186 2.23008   3
   0  12  -1 16.5535 3.59972   3
 -12  12  -1 24.5253 3.77992   5
   0  12  -1 22.3203 3.66168   5
   0 -12  -1 24.9761 3.62583   2
  12 -12  -1 22.4862 1.65628   3
  12 -12  -1 11.5886 2.97677   5
   0 -12  -1 28.1301 4.18421   5
   0  12  -1 17.4856 3.12218   1
   0 -12  -1 17.8976 3.47654   3
   0  12  -1 23.7137 3.48314   1
  12   0  -1 20.1327 2.78011   2
 -12  12  -1 20.5414 1.58278   2
  12   0  -1 22.2460 3.21286   1
 -12  12  -1 23.6995 3.02834   4
  12   0  -1 26.6176 1.69295   4
  12   0  -1 21.8693 1.71933   4
   0  12  -1 22.9367 3.82766   4
  12 -12  -1 18.8634 2.47587   4
  12   0  -1 20.5269 2.89252   1
   0 -12  -1 21.0264 3.92297   4
  12   0  -1 33.9226 3.14277   2
  12   0  -1 18.9761 2.16195   3
 -12  12  -1 19.9295 2.51669   3
   0  12  -1 21.3734 3.62996   2
   0  12   0 0.74940 2.85676   2
  12   0   0 0.95292 1.55826   2
   0  12   0-0.21399 2.21064   3
 -12  12   0 0.41193 2.11599   5
  12   0   0-0.31198 1.43811   3
   0  12   0 1.25511 2.44965   5
  12   0   0 0.87085 0.49290   5
  12 -12   0 2.19249 2.18942   5
  12 -12   0-0.27515 1.17934   3
   0 -12   0 2.04949 2.73847   5
   0 -12   0 3.69846 2.47148   3
   0 -12   0 0.87710 1.93783   2
  12   0   0-0.11890 1.07976   4
 -12  12   0 0.26561 1.56546   4
  12   0   0 0.44044 1.71434   2
  12   0   0 0.41569 1.62486   1
   0  12   0-0.07168 2.01454   1
   0  12   0 4.72717 2.29637   1
   0  12   0 1.53181 2.21753   4
  12   0   0 1.10552 1.90114   1
  12   0   0 0.18118 1.16899   4
  12 -12   0 0.34807 1.56285   4
   0 -12   0 1.11909 2.45493   4
  12   0   0 0.57287 1.39705   3
 -12  12   0 2.31157 1.38641   3
  12   0   1 24.2772 2.91061   2
   0  12   1 21.8736 3.70918   2
  12 -12   1 19.6319 1.56916   2
 -12  12   1 27.1360 3.91188   5
  12   0   1 23.5908 2.33967   5
  12   0   1 10.1383 2.84690   1
   0 -12   1 25.5804 3.94994   2
  12 -12   1 20.7909 2.43879   3
   0  12   1 17.1615 3.52202   3
  12   0   1 22.3506 2.82646   3
   0  12   1 30.6072 4.19998   5
   0 -12   1 31.6023 4.11376   3
  12 -12   1 22.8099 3.74643   5
  12   0   1 28.3995 2.77099   5
   0 -12   1 22.3123 3.76698   5
  12   0   1 25.3454 2.65950   4
 -12  12   1 24.5296 2.64213   4
  12   0   1 19.4750 3.17497   2
   0  12   1 20.0075 3.28350   1
  12   0   1 24.0295 3.25663   1
   0  12   1 20.5484 3.58969   4
  12 -12   1 24.7894 3.08633   4
  12   0   1 18.5842 2.61584   4
   0 -12   1 23.2764 3.89916   4
 -12  12   1 24.3722 1.66113   3
  12   0   1 23.3242 2.76962   3
   0  12   1 12.6564 3.17660   1
   0  12   2 7.30598 2.59418   2
  12 -12   2 12.6189 1.82114   2
  12   0   2 9.00259 2.05837   5
 -12  12   2 13.2997 3.15153   5
  12   0   2 12.1195 2.61685   2
   0  12   2 6.72904 2.82179   3
  12 -12   2 7.45867 2.22761   3
   0  12   2 13.4415 3.04535   1
   0  12   2 9.17316 3.03837   5
  12 -12   2 5.67082 3.15375   5
  12   0   2 3.90270 2.33586   1
  12   0   2 11.6488 2.50833   3
   0 -12   2 11.4619 3.28603   2
   0 -12   2 7.65886 3.29290   3
   0 -12   2 7.67062 2.97806   5
  12   0   2 8.14877 2.32138   5
  12   0   2 11.0276 2.32155   4
 -12  12   2 13.7570 2.05476   4
  12   0   2 12.2327 3.02552   2
   0  12   2 10.3020 2.98640   4
  12 -12   2 13.8226 2.78787   4
  12   0   2 13.5058 2.73735   4
   0 -12   2 5.67800 2.90613   4
   0 -12   2 3.52411 2.49028   1
   0  12   2 2.57567 2.21465   1
  12   0   2 13.1545 3.05320   1
  12   0   2 8.50112 2.29780   3
  -7  13  -3 1.67435 2.47459   3
  -6  13  -3 3.56229 2.64880   3
   7   6  -3 0.15498 2.17021   1
   6   7  -3 1.56735 1.92836   1
   7   6  -3 3.32188 2.10195   3
   6   7  -3-0.82352 2.07279   3
  -7  13  -3 0.85304 2.52157   5
  -6  13  -3-0.30671 2.47830   5
  13  -6  -3 1.25793 0.94439   1
   7 -13  -3-0.14681 2.60879   5
   6 -13  -3-1.63557 2.97792   5
  -7  13  -3 2.31281 1.47676   1
  13  -7  -3 2.65672 1.06922   5
   6 -13  -3 2.57314 1.98268   3
   7 -13  -3 2.56224 1.81198   3
  -6  -7  -3 3.02915 2.45340   5
  -7  -6  -3 0.64185 2.20783   5
  13  -7  -3 2.23325 0.98448   5
  -6  -7  -3 0.04480 2.59905   3
  -6  13  -3 0.75329 1.43840   1
  -7  13  -3-0.93540 2.05510   4
  -6  13  -3 3.19996 2.21279   4
  13  -6  -3 1.22787 1.05713   1
   7   6  -3 1.56597 1.73117   4
   6   7  -3-0.08653 1.64548   4
  -7  13  -3 2.59290 2.08794   2
  -6  13  -3 0.21849 2.11286   2
   7 -13  -3 0.44086 2.10883   4
   6 -13  -3 4.94091 2.38010   4
  -6  -7  -3-0.13714 2.32181   4
  -7  -6  -3 1.20550 2.37491   4
  13  -7  -3 1.00605 0.32011   1
   6   7  -3-0.03817 1.87779   2
   7   6  -3 4.89162 2.59530   2
  13  -6  -2 85.6999 2.69624   1
  -7  13  -2 84.5513 5.66844   3
  -6  13  -2 68.8136 5.26519   3
   6   7  -2 86.6574 5.50828   3
   7   6  -2 78.9137 5.05990   3
  -7  13  -2 80.2351 3.70681   1
   7   6  -2 77.9182 2.08504   5
  -7  13  -2 83.7206 6.20524   5
   6   7  -2 80.8179 3.30037   5
  -6  13  -2 85.4893 6.17810   5
  -6  13  -2 86.8062 4.27101   1
  13  -7  -2 74.9698 3.80924   5
   7 -13  -2 83.6914 6.38499   5
  13  -6  -2 84.3917 3.15266   5
   6 -13  -2 89.0771 6.85236   5
   7 -13  -2 77.0512 4.95938   3
   6 -13  -2 73.8309 5.08208   3
   6 -13  -2 86.1841 4.88429   2
   7 -13  -2 80.7810 4.40821   2
  -6  -7  -2 57.8116 5.25714   5
  -6  -7  -2 91.7819 6.26069   3
  13  -6  -2 64.0771 2.82903   5
  -7  -6  -2 92.7564 5.58474   5
  -7  -6  -2 69.4805 5.77234   3
  13  -7  -2 71.9202 3.55476   5
  -7  13  -2 83.5051 5.78655   4
  -6  13  -2 73.1337 5.70264   4
   6   7  -2 71.0856 4.85532   4
   7   6  -2 82.3699 4.83344   4
  -7  13  -2 82.6497 5.19980   2
  -6  13  -2 68.2864 4.95942   2
   7 -13  -2 82.3598 5.62393   4
   6 -13  -2 64.7892 5.44332   4
   7   6  -2 74.8826 5.43602   1
   6   7  -2 79.0185 5.60302   1
  -6  -7  -2 68.3831 5.70129   4
  -7  -6  -2 62.0011 5.28582   4
   6   7  -2 76.1845 5.31218   2
   7   6  -2 77.3407 5.41720   2
   6   7  -1 13.1247 2.92269   2
  13  -6  -1 20.4800 1.11726   1
  -7  13  -1 11.6205 2.61673   3
  -6  13  -1 16.1742 3.02221   3
   7   6  -1 18.8809 2.91695   3
   6   7  -1 16.6308 2.87648   3
   7   6  -1 18.0793 1.74597   5
   6   7  -1 19.3042 2.12129   5
  -7  13  -1 17.0999 3.18640   5
  -6  13  -1 15.2765 3.27320   5
  -7  13  -1 21.7856 1.86044   1
   6 -13  -1 17.1594 2.43393   2
  13  -7  -1 16.2062 2.23125   5
  13  -6  -1 21.3457 2.21669   5
   7 -13  -1 18.3327 2.49679   2
   7 -13  -1 19.7680 2.77740   3
   6 -13  -1 20.6502 3.06075   3
   7 -13  -1 13.3551 3.21918   5
   6 -13  -1 10.4341 3.19724   5
  -6  -7  -1 19.7308 2.85018   5
  -7  -6  -1 20.0726 2.65794   5
  13  -6  -1 19.2153 2.11065   5
  -6  13  -1 18.3012 2.12078   1
  13  -7  -1 17.0130 2.20579   5
  -6  -7  -1 18.5638 3.25532   2
  -6  -7  -1 16.0835 3.12955   3
  -7  -6  -1 16.3868 3.13866   3
  -7  -6  -1 16.2945 3.00856   2
  -6  13  -1 18.1553 2.06222   1
  -7  13  -1 18.1028 1.77983   1
  -7  13  -1 18.1134 2.91681   4
  -6  13  -1 22.3191 3.24840   4
   6   7  -1 16.8696 2.95638   1
   6   7  -1 24.2939 3.03086   4
   7   6  -1 19.3105 2.77268   4
   7 -13  -1 22.6411 3.33356   4
  -7  13  -1 18.0661 2.55703   2
  -6  13  -1 18.0992 2.66590   2
   6 -13  -1 16.3165 2.93737   4
  -6  -7  -1 11.2118 3.06459   4
  -7  -6  -1 21.0516 3.32384   4
   7   6  -1 21.5101 2.98553   2
   7   6  -1 23.9720 3.27461   1
  -7  13   0 25.3308 3.11378   3
  -6  13   0 20.5605 3.13481   3
   6   7   0 20.3091 3.31499   3
   6   7   0 16.8669 2.89587   1
   7   6   0 15.4284 2.81668   1
   7   6   0 23.8544 3.24759   3
   7 -13   0 21.8222 2.59182   2
   6 -13   0 21.3575 2.68362   2
  -7  13   0 25.2193 3.86571   5
  -6  13   0 24.2256 3.55786   5
  13  -6   0 20.5100 0.99369   3
   6   7   0 23.1906 2.60089   5
   7   6   0 16.6920 2.29987   5
  13  -6   0 25.8544 2.62873   5
  13  -7   0 22.4045 2.79497   5
   7 -13   0 15.7482 2.88754   3
   6 -13   0 19.2736 3.07213   3
   6 -13   0 24.7363 3.89807   5
  -7  -6   0 30.8803 3.70246   2
  13  -6   0 22.9528 1.21903   1
   7 -13   0 13.1670 3.24910   5
  -7  -6   0 20.7665 3.27167   3
  -6  -7   0 16.5039 2.37796   5
  -7  -6   0 24.3693 2.62959   5
  13  -6   0 22.8913 2.56244   5
  -6  -7   0 15.4046 3.05003   2
  -7  13   0 23.8099 1.85929   1
  -6  -7   0 12.5896 2.98569   3
  13  -7   0 17.4247 2.32429   5
   6   7   0 25.5442 3.35805   1
   7   6   0 20.0680 3.13160   1
  -6  13   0 18.7927 1.99400   1
  -7  13   0 27.9939 3.60954   4
  -6  13   0 20.1397 3.14050   4
  -6  13   0 19.8163 2.08673   1
  13  -6   0 22.5197 1.61373   4
  -7  13   0 22.9122 1.79286   1
  13  -7   0 24.4500 1.83020   4
   6   7   0 18.9772 2.88821   4
   7   6   0 24.9642 3.02773   4
   7 -13   0 20.8516 3.31339   4
  13  -6   0 17.8887 1.69636   4
   6 -13   0 19.8091 3.27789   4
  -7  13   0 18.0554 2.47092   2
  13  -7   0 21.2797 1.91367   4
  -6  -7   0 20.4192 3.19366   4
  -7  -6   0 27.0822 3.38290   4
  -6  13   0 25.1570 2.94320   2
  13  -6   0 11.3242 1.15809   1
   6   7   0 19.9108 2.94712   2
   7   6   0 24.0007 3.11929   2
  13  -6   1 12.5194 1.60462   3
  -7  13   1 20.1010 2.80008   3
  13  -6   1 21.1300 1.66257   2
  13  -7   1 17.4497 1.68866   3
  -6  13   1 15.9958 2.97048   3
  13  -7   1 21.2306 1.38136   2
   7 -13   1 15.7103 2.30801   2
   6 -13   1 17.7032 2.60422   2
   7   6   1 14.4631 2.89950   2
  -7  -6   1 17.1703 2.90439   1
   7   6   1 22.4672 3.34304   3
   7   6   1 12.7663 2.54553   1
  13  -6   1 13.7364 2.30298   5
   7 -13   1 19.2753 2.83498   3
  13  -7   1 19.9730 2.70038   5
  -7  13   1 12.3260 3.05362   5
  -6  13   1 14.1224 3.08756   5
   6   7   1 17.5478 2.74066   5
  -6  -7   1 23.2875 3.30790   2
   6   7   1 16.7224 2.99559   3
   7   6   1 11.4384 2.48663   5
  -7  -6   1 22.6593 3.30673   2
  13  -6   1 19.5337 1.94079   3
   7 -13   1 14.3459 3.20263   5
   6 -13   1 16.1874 2.85156   3
   6 -13   1 17.2295 3.23682   5
  13  -7   1 20.4870 1.98716   3
   6   7   1 26.8690 3.35685   1
  -7  -6   1 19.9532 3.16818   3
  -6  -7   1 17.7350 2.18284   5
  -7  -6   1 17.4274 1.86735   5
  13  -6   1 16.5815 2.39705   5
  -6  -7   1 12.6026 2.91322   3
  13  -7   1 11.4588 2.47735   5
   7   6   1 13.4138 3.07676   1
  13  -6   1 17.0765 2.01401   4
  -6  13   1 20.9977 3.27677   4
  13  -7   1 16.2961 2.08909   4
  -7  13   1 13.1879 2.71119   4
  -6  -7   1 18.6077 3.06048   1
  -7  13   1 19.0815 1.67696   1
   6   7   1 26.5601 3.48048   4
  -6  13   1 17.4080 2.02831   1
  13  -6   1 19.7147 1.41685   1
   7 -13   1 19.0270 3.48879   4
   6   7   1 12.8691 2.91235   1
   7   6   1 13.7251 2.85104   4
  13  -6   1 20.1983 1.64063   2
   6 -13   1 18.1615 3.05247   4
  -7  13   1 20.1855 1.76684   1
  -7  -6   1 23.3380 3.11984   4
  13  -6   1 21.4737 2.41745   4
  -7  13   1 14.4636 2.18903   2
  13  -7   1 13.1040 2.07383   4
  13  -7   1 14.5864 1.23632   2
  -6  13   1 26.8361 2.88018   2
  -6  -7   1 14.6153 2.93592   4
  -6  13   1 14.5375 1.86490   1
  13  -6   1 24.6923 1.48205   1
   6   7   1 16.4400 3.06016   2
  13  -6   2 93.0828 3.37084   1
   6   7   2 82.5102 6.00828   2
  13  -6   2 72.6721 4.03841   3
   7   6   2 94.7324 6.15490   2
  13  -7   2 82.7970 4.30015   3
   7 -13   2 81.7692 5.06834   2
  -7  13   2 87.3493 5.13280   3
   6 -13   2 64.9871 4.98051   2
  -6  13   2 97.6968 5.51263   3
  13  -6   2 76.9085 3.00567   1
  -6  13   2 82.4637 4.02412   1
  13  -6   2 85.7302 3.92774   2
   6   7   2 63.8399 5.44020   3
   7   6   2 74.9549 6.02624   3
  -6  -7   2 88.8566 5.89286   2
  13  -7   2 81.3282 3.67121   2
  13  -6   2 82.3882 5.45426   5
   7 -13   2 88.4380 5.68261   3
  -7  13   2 96.9461 6.79270   5
  13  -7   2 86.0891 5.43928   5
   6 -13   2 80.8415 5.62371   3
  -6  13   2 79.9591 6.47824   5
  -7  -6   2 79.1222 5.56245   2
   7 -13   2 85.7311 6.44665   5
   6   7   2 82.8273 5.62000   5
   6 -13   2 79.4470 6.10483   5
   7   6   2 76.1811 5.32692   5
  -6  -7   2 83.9915 5.78518   3
  -7  -6   2 84.4433 5.78673   3
  13  -6   2 92.6152 4.78732   3
  13  -7   2 96.8614 4.83712   3
  -6  -7   2 91.0758 3.65842   5
  13  -6   2 66.9695 4.76186   5
  13  -7   2 88.9574 5.72620   5
   7   6   2 95.7027 6.49338   2
   6 -13   2 79.4274 4.02370   1
   6   7   2 90.2203 5.96528   1
   7   6   2 88.8281 5.84109   1
   6   7   2 85.5173 5.75806   1
   7   6   2 80.8989 5.63033   1
  13  -6   2 96.9763 4.79116   4
  13  -7   2 78.2140 4.44866   4
  -7  13   2 71.4086 5.23506   4
  -6  13   2 74.1088 5.41583   4
   6   7   2 89.9845 5.97645   4
   7 -13   2 68.8626 5.35678   4
   7   6   2 101.452 6.41027   4
   6 -13   2 87.9595 6.12932   4
  13  -6   2 74.9778 3.84027   2
  -6  -7   2 82.1706 5.54231   4
  -7  -6   2 72.5302 5.01700   4
  -6  13   2 80.1153 3.97310   1
  13  -6   2 61.1736 4.44687   4
  13  -7   2 69.5900 4.51745   4
  13  -7   2 81.1483 1.94923   1
  -7  13   2 81.2638 4.34728   2
  -6  13   2 92.6458 4.87592   2
  -7  13   2 87.1849 3.51308   1
  -6  -7   2 69.3371 5.47464   1
  -7  13   2 93.7522 3.65063   1
  -7  -6   2 79.9244 5.57912   1
  -7  13   3 0.61641 1.39125   2
  -6  13   3 5.13357 2.09735   2
  13  -6   3 3.33019 1.73690   3
   6   7   3 1.65970 2.45550   1
   7   6   3 1.43775 1.99759   1
  -7  13   3 2.23763 1.27722   1
  13  -7   3 1.85993 1.70207   3
  -6  13   3 2.81015 1.48654   1
  -7  13   3 4.34747 1.97056   3
   7 -13   3 1.53013 1.82260   2
  -6  13   3 1.21545 1.81573   3
   6 -13   3 1.49811 1.91239   2
   6   7   3 8.61089 2.93667   2
   7   6   3 0.42661 2.02516   2
  13  -6   3 0.83483 2.17603   5
  13  -7   3 1.14251 2.17504   5
  -7  13   3 2.63878 3.02023   5
  -6  13   3 1.46979 2.45995   5
   7 -13   3 3.33984 2.49871   3
   6 -13   3 3.15568 2.27731   3
  -7  13   3 1.70143 1.13608   1
   6   7   3 2.12345 2.60596   3
   7 -13   3 0.19370 2.78148   5
   7   6   3 4.69196 2.45425   3
   6 -13   3-0.76492 2.27202   5
  -6  13   3 0.12986 1.33361   1
   6   7   3 0.33407 2.24553   5
   7   6   3 2.87398 2.33897   5
  -6  -7   3 3.64221 2.12773   2
  -7  -6   3 0.95435 2.22384   2
  -6  -7   3 2.22248 2.25882   3
  -7  -6   3-1.09114 2.17499   3
  13  -7   3 1.09698 0.85529   1
  13  -6   3 1.71324 1.54950   2
  13  -7   3 0.97429 1.61853   2
  13  -6   3 1.25663 1.21583   1
  13  -6   3 1.08932 1.79325   3
  13  -6   3-0.89001 2.18819   5
  13  -7   3 0.20542 1.69611   3
  13  -7   3 0.85631 2.21101   5
  -7  -6   3 0.51367 2.16538   1
  -6  13   3 0.89819 1.68193   2
   6   7   3 1.27296 2.58811   2
  -7  13   3 3.34377 1.64844   2
   7   6   3 2.63785 2.32627   2
  13  -6   3 2.03977 1.15174   1
  13  -6   3 1.42604 1.75965   4
   6 -13   3 0.56393 1.42156   1
  13  -7   3 0.78416 1.81521   4
  -7  13   3 1.19277 1.90239   4
  -6  13   3 1.58157 1.99272   4
   7 -13   3-0.20797 2.00921   4
   6 -13   3 0.96935 2.70259   4
   7 -13   3 1.10639 1.37971   1
   6   7   3 5.40055 2.56977   4
   7   6   3 5.35312 2.66975   4
  -6  -7   3 0.17832 2.07852   4
  -7  -6   3 0.09298 1.87291   4
  13  -6   3 2.18604 1.59333   2
   6   7   3-0.27056 2.11081   1
   7   6   3 4.75007 2.65388   1
  13  -6   3 0.03320 1.87241   4
  13  -7   3-0.78118 1.88299   4
  13  -7   3 0.76608 1.39787   2
   7   6   3-1.22730 2.27314   3
  -8  13  -3 3.39891 2.26830   3
  -5  13  -3 4.72501 2.72458   3
   8   5  -3 1.31117 1.95965   1
   5   8  -3 2.74342 2.49401   1
   8   5  -3 4.42334 2.06078   3
   5   8  -3 1.78244 2.03302   3
   5   8  -3 3.87710 1.26269   5
  -8  13  -3 1.32622 2.68588   5
  -5  13  -3 1.86339 2.28940   5
  -8  13  -3 3.52693 1.37209   1
   8 -13  -3 5.90524 2.82508   5
  13  -8  -3 4.62239 1.71135   5
   5 -13  -3 4.52443 3.08679   5
  13  -5  -3 4.12384 1.38668   1
   5 -13  -3 3.16421 2.37551   3
  -5  -8  -3 6.00947 2.76955   5
   8 -13  -3 2.50308 1.73684   3
  -8  -5  -3 1.19552 2.14191   5
  -5  -8  -3 1.31736 2.48469   3
  -8  13  -3 0.60617 2.42378   4
  -5  13  -3 2.93041 2.38289   4
   8   5  -3 6.89098 1.77219   4
   5   8  -3 0.79885 2.02374   4
  -5  13  -3 1.37936 1.59092   1
  -8  13  -3 4.35036 2.37192   2
   8 -13  -3 3.56123 2.17093   4
   5 -13  -3 2.96489 2.28807   4
  -5  13  -3 1.17080 2.34237   2
  -5  -8  -3 1.94266 2.40721   4
  -8  -5  -3 3.32489 2.64567   4
   5   8  -3 2.79530 2.44833   2
   8   5  -3 2.51113 2.12586   2
   8   5  -2 1.99480 1.78852   2
  -8  13  -2 2.64616 2.11607   3
  -5  13  -2 2.04626 2.00668   3
   5   8  -2 4.12120 2.43727   3
   8   5  -2 1.85512 1.87928   3
  -8  13  -2 4.98714 2.78623   5
  -5  13  -2 14.1698 3.17473   5
   5   8  -2 2.39622 1.30823   5
  -8  13  -2 3.76944 1.00979   1
   8   5  -2 3.48122 1.83372   1
  13  -8  -2 3.22509 1.59655   5
   5   8  -2 5.08459 2.31700   1
   8 -13  -2 4.85657 2.98020   5
   5 -13  -2 1.55055 2.30401   5
   5 -13  -2 3.30578 1.92440   3
   8 -13  -2 0.98121 1.48308   3
  -5  -8  -2 3.12393 2.30943   5
   5 -13  -2 2.39030 1.66924   2
  -5  -8  -2 0.76326 2.22270   3
  -8  -5  -2 3.48115 1.96549   5
  -5  -8  -2 2.31434 2.58496   2
  -8  -5  -2 4.82383 2.52101   3
  13  -5  -2 3.05674 1.10453   1
  -8  13  -2 7.71198 2.46641   4
  -5  13  -2 3.36591 2.36010   4
  -8  13  -2 1.13169 0.94244   1
   5   8  -2 3.20755 1.91924   4
   8   5  -2 2.13970 1.54198   4
  13  -5  -2 2.20104 1.20416   1
  -5  13  -2 2.24657 1.52307   1
  -8  13  -2 4.62972 1.95158   2
   8 -13  -2-0.07040 1.84412   4
   5 -13  -2 2.67412 2.33651   4
  -5  -8  -2 2.40785 2.57666   4
  -8  -5  -2 2.82820 2.35755   4
  -5  13  -2 0.31315 1.68963   2
   5   8  -2 0.79675 2.10005   2
  -8  13  -1 18.0161 1.17301   1
  -8  13  -1 14.8925 2.65068   3
   5   8  -1 15.4989 2.99433   3
  -5  13  -1 17.5938 2.91124   3
   8   5  -1 16.8884 1.31045   5
   5   8  -1 16.5988 2.24022   5
   8   5  -1 11.6055 2.36620   3
  -8  13  -1 18.6020 3.35088   5
  -5  13  -1 12.1558 2.84109   5
  13  -5  -1 14.8885 1.56231   5
   8 -13  -1 16.8644 2.47545   3
   8 -13  -1 16.1970 2.19780   2
   5 -13  -1 23.0625 3.17517   3
  13  -8  -1 12.5220 2.25397   5
   8 -13  -1 11.2654 2.89581   5
   5 -13  -1 11.2507 3.11056   5
  13  -5  -1 19.1679 1.71807   1
  13  -5  -1 19.9590 1.84441   5
   5 -13  -1 8.13244 2.00851   2
  -5  -8  -1 17.4063 2.84030   5
  -5  -8  -1 13.5885 3.14275   2
  -5  -8  -1 13.5560 2.87646   3
  -8  -5  -1 13.7117 3.05182   3
  -8  -5  -1 10.2796 2.12174   5
  -8  -5  -1 10.5609 2.60231   2
  -5  13  -1 13.9386 2.10526   1
  -5  13  -1 15.1207 2.15352   1
  -8  13  -1 16.9589 2.92357   4
  13  -5  -1 17.1952 1.79387   1
  -8  13  -1 15.1872 1.11459   1
   8   5  -1 15.6151 2.37105   4
  -5  13  -1 3.60721 2.53353   4
   5   8  -1 13.7663 2.60436   4
  -8  13  -1 18.7229 2.60798   2
   8 -13  -1 14.0602 2.71939   4
   5 -13  -1 18.3837 3.16727   4
  -8  -5  -1 18.9465 3.02932   4
  -5  -8  -1 14.4845 3.25171   4
   5   8  -1 20.2220 3.19127   2
  -5  13  -1 12.5445 2.59406   2
   8   5  -1 19.4064 2.96850   2
   8   5  -1 19.7465 3.01567   1
   5   8  -1 18.5624 2.93491   1
  -8  13   0 18.8813 2.86268   3
  -5  13   0 34.1140 3.66903   3
  -8  13   0 26.4617 1.02160   1
 -13   8   0 23.5537 2.76325   5
   5   8   0 19.2415 3.28673   3
   5   8   0 27.1425 3.43500   1
   8   5   0 20.2637 3.04321   1
   8   5   0 23.3269 3.11829   3
  -8  13   0 27.4593 3.90161   5
   8 -13   0 27.3671 2.67383   2
  13  -5   0 25.3091 1.39005   3
   5 -13   0 26.8108 3.12133   2
  -5  13   0 24.6999 3.68372   5
   5   8   0 27.2006 2.98365   5
   8   5   0 28.6683 2.47899   5
  13  -5   0 19.7880 2.24648   5
   8 -13   0 28.8774 3.06111   3
  13  -8   0 26.3858 3.08662   5
   5 -13   0 20.3054 2.99178   3
   8 -13   0 23.1789 3.83396   5
   5 -13   0 18.4292 3.63572   5
  -5  -8   0 21.0576 2.94927   5
  -8  -5   0 26.0950 3.37537   3
  13  -5   0 22.3115 2.30355   5
  -5  -8   0 14.7987 2.98859   2
  -5  -8   0 21.4625 3.51955   3
  -8  -5   0 26.8947 2.40939   5
  -8  -5   0 19.4152 3.22792   2
   5   8   0 27.2729 3.48160   1
   8   5   0 18.6147 3.14367   1
  -5  13   0 21.9143 2.43394   1
  -8  13   0 24.3298 3.46316   4
  13  -5   0 31.8422 2.07552   1
  -5  13   0 29.2846 3.67546   4
  13  -5   0 25.8691 1.68460   4
   5   8   0 26.2546 3.37249   4
  13  -8   0 23.0756 1.94776   4
   8   5   0 29.9564 3.22643   4
  13  -5   0 29.0928 2.21141   1
   8 -13   0 21.7753 3.26882   4
  13  -5   0 22.0765 1.35534   2
   5 -13   0 28.0923 3.73544   4
  13  -5   0 27.1428 1.83482   4
  -5  13   0 24.6897 2.48193   1
  -8  13   0 27.3466 2.76972   2
  -5  -8   0 28.7944 3.74513   4
  -8  -5   0 30.8645 3.54604   4
  13  -8   0 29.7758 2.33314   4
  -5  13   0 26.5478 3.08462   2
  13  -5   0 28.3219 1.41772   2
   5   8   0 19.3792 3.31277   2
   8   5   0 27.3450 3.29075   2
  13  -5   1 12.9248 1.53410   2
  13  -8   1 11.8633 0.87115   2
  13  -8   1 14.9112 1.70514   3
  -8  13   1 10.7727 2.28773   3
   8 -13   1 16.7226 2.25435   2
   5   8   1 8.75083 2.60177   2
 -13   8   1 15.7889 2.27455   5
   8   5   1 13.6406 2.72221   2
  -5  13   1 12.7143 2.51495   3
   5   8   1 14.4579 2.77210   1
   8   5   1 11.1515 2.60501   1
  -8  13   1 14.3918 3.28625   5
   5   8   1 16.8621 3.13335   3
  -5  13   1 18.6787 3.44503   5
  13  -5   1 10.3546 2.03074   5
   8   5   1 17.2516 2.65363   5
   8   5   1 13.5822 2.62091   3
  13  -5   1 16.5900 1.94944   3
  13  -8   1 16.3949 2.65233   5
  -8  13   1 14.9346 0.78942   1
   5   8   1 13.6524 2.67250   5
   8 -13   1 16.1912 2.55193   3
   5 -13   1 8.56218 2.29631   2
   8 -13   1 15.1573 3.13311   5
   5 -13   1 12.1792 2.61081   3
   5 -13   1 7.66387 2.63543   5
  13  -8   1 10.1883 1.58804   3
  -8  -5   1 15.9367 3.01802   3
  -5  -8   1 16.4971 2.97825   2
  -5  -8   1 10.0669 2.72319   3
  -5  -8   1 13.5336 2.28466   5
  -8  -5   1 14.1564 2.80591   2
  13  -5   1 9.98357 2.23862   5
  13  -8   1 13.9486 2.45716   5
  13  -5   1 16.2177 1.90600   4
  -8  13   1 11.6644 2.85089   4
  -5  13   1 15.9028 2.17112   1
  13  -8   1 13.5374 1.94800   4
  -5  13   1 13.2879 3.04079   4
  13  -5   1 15.0378 1.69099   2
   8 -13   1 24.7967 3.46143   4
   5   8   1 10.7153 2.84696   1
   8   5   1 11.1174 2.71974   1
   5   8   1 10.2985 2.71908   4
   8   5   1 19.4707 2.84971   4
   5 -13   1 14.6463 3.13601   4
  -8  13   1 16.7446 2.16717   2
  13  -5   1 13.0607 1.97197   4
  13  -5   1 15.9142 1.81731   1
  -5  -8   1 14.1576 3.09805   4
  13  -8   1 14.4787 2.09644   4
  -8  -5   1 15.4350 2.72403   4
  -5  -8   1 14.6018 2.76923   1
  13  -5   1 12.9071 1.59018   1
  -5  13   1 13.0167 1.96691   1
  -8  -5   1 12.5292 2.69596   1
  -5  13   1 12.7216 2.38772   2
  13  -5   2 2.60391 1.16232   1
  -5  13   2 5.37120 1.89276   2
  13  -5   2 4.03219 1.59144   3
  -8  13   2 6.48980 1.90901   3
  13  -8   2 2.27643 1.35667   3
   5   8   2 0.52736 1.93702   2
  -5  -8   2 0.37993 2.10890   1
  -8  13   2 3.28437 0.66212   1
 -13   8   2 2.82810 1.44215   5
  13  -5   2 4.52111 1.55796   1
  -5  13   2 3.44819 2.12633   3
   8   5   2 2.35813 2.00902   2
   5 -13   2 2.39579 1.45910   1
   8 -13   2 0.92228 1.57492   2
  13  -5   2 1.37401 1.71541   5
  -8  13   2 2.59956 2.35270   5
  13  -8   2 8.05998 1.55963   2
   5 -13   2 2.72674 2.03292   2
  -5  13   2 0.41947 2.49596   5
  13  -8   2 2.97908 2.16272   5
   5   8   2 2.35183 1.99224   3
   8 -13   2 2.56978 1.87287   3
   8   5   2 6.21500 2.74130   3
   5   8   2 1.00815 2.16833   5
   8 -13   2 0.98353 2.45853   5
   5 -13   2 3.65413 2.37224   3
  13  -5   2 6.03832 1.61039   2
   5 -13   2 1.31960 2.28509   5
   8   5   2 0.83427 1.87582   5
  -5  -8   2 2.24132 2.13298   2
  -8  -5   2 0.22499 2.08296   1
  -5  -8   2 2.17859 2.15544   3
  13  -5   2 3.42886 1.58116   3
  -8  -5   2 0.03643 1.80803   2
  -5  -8   2 2.92718 1.56397   5
  -8  -5   2 1.29161 2.04157   3
  13  -5   2 5.43661 1.99964   5
  -8  13   2 4.23334 0.68016   1
  13  -8   2 3.04326 1.54609   3
  13  -8   2 0.60493 1.93028   5
   8   5   2 5.27167 2.44778   2
   5   8   2 2.61123 2.26469   1
   8   5   2 2.19148 1.79833   1
  13  -5   2 6.59927 1.84496   4
  -8  13   2 1.07847 1.64331   4
  13  -8   2 0.67026 1.41921   4
  -5  13   2 1.42285 2.14532   4
   5   8   2 1.50241 2.35814   4
   8 -13   2 1.55686 2.18582   4
   8   5   2 1.10138 2.12819   4
   5 -13   2 6.59797 2.59395   4
   5   8   2 3.61383 1.98975   1
   8   5   2-0.51016 2.10557   1
  13  -5   2 2.27039 1.45039   2
  -5  -8   2 9.99697 2.89791   4
  13  -5   2 3.49260 1.91385   4
  -8  -5   2 0.34222 1.60245   4
  13  -8   2 0.52282 1.61301   4
  -8  13   2 1.48636 1.25901   2
  13  -8   2 4.10834 1.21280   2
  -5  13   2 3.61804 1.56181   1
  -5  13   2 4.14189 1.60775   1
  -5  13   3 2.06021 1.88839   2
  -5  13   3 3.54674 1.68667   1
  13  -5   3 2.28556 1.81511   3
   5   8   3 3.86837 2.25721   1
   8   5   3 3.71146 2.53653   1
  13  -8   3 1.11260 1.65938   3
  -8  13   3 2.18790 1.71751   3
   8 -13   3 3.49863 1.98501   2
 -13   8   3 2.80549 1.41531   5
   5   8   3 4.13232 2.62052   2
  -5  13   3 3.97501 2.22336   3
   5 -13   3 3.89972 2.65117   2
   8   5   3 1.16757 2.32763   2
  13  -5   3 2.51359 2.00795   5
  13  -8   3 1.52066 2.09266   5
  -8  13   3 0.13899 2.61285   5
   8 -13   3 2.75597 2.31468   3
  -5  13   3 5.01994 2.94078   5
  13  -5   3 3.81075 1.58151   1
   5   8   3 7.18021 2.67567   3
   5 -13   3 0.73929 2.43528   3
   8 -13   3-0.34430 2.64007   5
   8   5   3 5.30311 2.71373   3
   5 -13   3 3.48582 2.69680   5
   5   8   3 5.55285 2.92026   5
  -5  -8   3 1.08018 2.17621   2
   8   5   3 1.04459 2.36485   5
  -5  -8   3 0.60275 2.22419   3
  13  -5   3 2.16129 1.65831   2
  -8  -5   3-0.33473 2.27346   2
  -5  -8   3 3.75253 1.41553   5
  -8  -5   3 5.15275 2.33713   3
  13  -5   3 3.00977 1.98399   3
  13  -8   3 2.27636 1.63974   2
  13  -5   3 3.62705 2.33097   5
  -5  13   3 2.94159 1.72236   1
  13  -8   3 2.08345 1.89638   3
  13  -8   3 0.75484 2.36847   5
  -5  -8   3-0.72346 2.00864   1
  -8  13   3 2.65976 0.94925   1
  -5  13   3 3.59401 1.94197   2
   5   8   3-0.21247 2.56374   2
   8   5   3 0.65043 2.45900   2
  -8  13   3 2.50455 1.23374   2
  -8  -5   3 5.99338 2.35301   1
   5 -13   3 3.58563 1.76324   1
  13  -8   3 2.09845 1.93818   4
  -8  13   3 3.48637 2.16150   4
  -5  13   3 2.87504 2.23837   4
   8 -13   3 1.92787 2.49829   4
   5 -13   3 2.74817 2.63328   4
   5   8   3 1.04498 2.15941   4
   8   5   3 0.77770 2.55962   4
  13  -5   3 2.52891 1.39301   1
  -8  13   3 4.72242 1.02078   1
  13  -8   3 1.97367 0.37483   1
  13  -5   3 1.67031 1.62951   2
  -5  -8   3 2.45936 2.25627   4
   5   8   3 3.50077 2.54107   1
  -8  -5   3 2.90009 1.77820   4
  13  -5   3 3.36350 2.19486   4
   8   5   3 1.69918 2.10024   1
  13  -8   3 2.80233 2.07183   4
  13  -8   3 2.49937 1.45129   2
   8   5   3 3.61727 2.73036   3
  -8  13   3 2.18369 1.25638   2
  -9  13  -3 9.52399 2.80499   3
   9   4  -3 5.40040 2.43211   1
  -4  13  -3 7.35612 3.29742   3
   4   9  -3 2.13701 2.17040   1
   9   4  -3 2.34447 1.88613   3
   4   9  -3 4.41100 2.46112   3
  -9  13  -3 4.14319 2.68889   5
   4   9  -3 6.44781 1.77105   5
  -4  13  -3 1.50275 2.39801   5
   9 -13  -3 2.37596 2.52817   5
  13  -9  -3 5.01205 1.93001   5
   4 -13  -3 0.30785 2.74841   5
  -4  -9  -3 8.47780 3.03165   5
   4 -13  -3 4.36111 2.44145   3
   9 -13  -3 5.32189 1.73495   3
  -4  -9  -3 5.91311 3.18665   3
  -9  -4  -3 0.67990 2.15375   5
  13  -4  -3 9.74238 1.93421   1
  -9  13  -3 7.09260 2.97901   4
  -4  13  -3 4.64712 2.45146   4
   9   4  -3 9.18024 1.76656   4
   4   9  -3 6.32256 2.56672   4
  -4  13  -3 5.41989 2.08583   1
  -9  13  -3 6.01317 2.41839   2
   9 -13  -3 3.51542 2.07338   4
   4 -13  -3 7.32143 3.13393   4
  -4  -9  -3 3.77107 2.60880   4
  -4  13  -3 7.78262 2.74790   2
   4   9  -3 4.14051 2.93403   2
   9   4  -3 2.35320 2.12169   2
  -9  13  -3 7.08063 1.07525   1
   9   4  -2 3.15796 1.96750   2
  -9  13  -2 4.35031 2.08498   3
  -4  13  -2 5.43087 2.53117   3
   4   9  -2 0.03806 2.18445   3
   9   4  -2 2.26742 1.71037   3
  -9  13  -2 2.92264 2.32683   5
  -4  13  -2 4.61163 2.43108   5
   4   9  -2 3.13684 1.54515   5
   9   4  -2 8.83540 2.44728   1
   4   9  -2 5.92728 2.61447   1
  13  -9  -2 7.11387 2.37633   5
   9 -13  -2 4.55492 2.61132   5
   4 -13  -2 0.83359 2.68636   5
  -4  -9  -2 3.91447 2.60298   5
   4 -13  -2 4.02063 2.13658   3
   9 -13  -2 7.46731 1.92376   3
   4 -13  -2 3.34536 2.12461   2
  -4  -9  -2 9.28831 2.72832   3
  -4  -9  -2 4.13700 2.19243   2
  -4  13  -2 15.7539 3.66641   4
  -9  13  -2 2.78403 1.99691   4
  13  -4  -2 5.19152 1.67479   1
   4   9  -2 1.33449 2.07439   4
   9   4  -2 2.81560 1.40592   4
  13  -4  -2 4.90359 1.46333   1
  -9  13  -2 1.19367 1.61657   2
   9 -13  -2 2.87367 2.11146   4
   4 -13  -2 0.60738 2.54691   4
  -4  -9  -2 2.60882 2.41649   4
  -4  13  -2 4.39061 1.73994   1
  -4  13  -2 3.42025 2.31732   2
   4   9  -2 3.77601 2.26166   2
  -9  13  -1 99.6279 5.78542   3
  -4  13  -1 98.0683 6.29080   3
   4   9  -1 104.583 6.38176   3
   9   4  -1 93.6286 5.43661   3
 -13   9  -1 118.495 6.44739   5
  -9  13  -1 102.481 6.70391   5
  -4  13  -1 96.6773 6.67660   5
   4   9  -1 113.525 5.55085   5
  13  -9  -1 98.5185 5.57955   5
   4 -13  -1 96.4362 5.70160   2
   9 -13  -1 72.9957 6.04457   5
   9 -13  -1 110.249 5.29663   3
   4 -13  -1 110.054 6.33217   3
   9 -13  -1 97.6647 4.03476   2
   4 -13  -1 76.0909 6.58960   5
  -4  -9  -1 106.399 6.74663   2
  13  -4  -1 84.1126 2.48214   5
  -4  -9  -1 59.7522 6.10168   3
  -4  -9  -1 102.250 6.20184   5
  -9  -4  -1 99.5009 6.20138   3
  -4  13  -1 113.068 5.40243   1
  13  -4  -1 108.258 4.48546   1
  -9  13  -1 105.883 6.11072   4
  13  -4  -1 108.151 4.61387   1
  -4  13  -1 112.620 6.84570   4
   4   9  -1 87.1461 6.00432   4
   9   4  -1 96.7129 4.94873   4
  -4  13  -1 117.440 5.65326   1
  -9  13  -1 107.482 5.21158   2
  13  -9  -1 71.9104 2.75151   4
   9 -13  -1 59.4840 5.61197   4
   4 -13  -1 95.1098 6.69087   4
  -4  -9  -1 107.496 6.87016   4
  13  -4  -1 93.6726 2.16576   2
  -4  13  -1 107.349 6.29668   2
  13  -9  -1 104.376 3.08358   4
  -9  -4  -1 87.7899 5.73400   4
   4   9  -1 91.8308 6.43905   2
   9   4  -1 109.662 5.94773   2
   9   4  -1 106.526 6.19569   1
   4   9  -1 106.431 6.41720   1
  -9  13   0 21.0795 2.79100   3
  13  -4   0 28.9369 1.83529   3
  -4  13   0 24.7678 3.48951   3
   4   9   0 24.1100 3.46632   3
   9   4   0 23.7609 1.93483   5
 -13   9   0 33.6555 3.41510   5
   9   4   0 33.2203 3.40408   3
  -9  13   0 25.8672 4.00826   5
  13  -4   0 31.5687 1.86435   3
   9 -13   0 29.2539 2.60867   2
   4 -13   0 30.1271 3.46532   2
   4   9   0 24.9627 3.08846   5
  13  -4   0 31.5543 2.41169   5
   9   4   0 28.0389 2.20022   5
  -4  13   0 18.3214 3.59087   5
   9 -13   0 28.4367 3.02323   3
  13  -9   0 28.1053 3.35184   5
  -4  -9   0 24.4363 3.36226   2
   4 -13   0 22.9804 3.27174   3
  13  -9   0 23.5203 1.00961   3
   9 -13   0 18.5870 3.64045   5
  -4  -9   0 32.8643 3.95112   3
   4 -13   0 22.4139 3.93444   5
  -4  -9   0 26.7237 3.45656   5
  13  -4   0 25.1432 2.25880   5
  -9  -4   0 33.1898 3.89399   2
  -9  -4   0 29.9444 3.54110   3
   4   9   0 30.2944 3.62978   1
   9   4   0 29.6349 3.67494   1
  -4  13   0 25.9075 2.74894   1
  -9  13   0 27.9131 3.41677   4
  13  -4   0 26.3804 1.75947   4
  -4  13   0 21.9658 3.46407   4
  13  -4   0 28.0720 2.60928   1
  13  -4   0 32.8067 2.12294   2
   4   9   0 27.1366 3.64615   4
   9   4   0 30.5485 3.09756   4
  13  -9   0 32.1567 2.45127   4
  -9  13   0 33.5860 2.93742   2
   9 -13   0 26.8323 3.36046   4
  13  -4   0 29.3669 1.86606   4
  13  -4   0 30.0461 2.41183   1
  -4  -9   0 27.2588 3.87479   4
   4 -13   0 22.0079 3.64191   4
  -4  13   0 28.7033 2.94584   1
  -9  -4   0 34.4226 3.46644   4
  -4  13   0 26.6207 3.41480   2
  13  -9   0 26.3012 2.33568   4
   9   4   0 18.2998 2.96115   1
   4   9   0 18.4652 3.18699   1
   4   9   0 23.9419 3.56515   2
  13  -4   0 27.8240 1.87552   2
   9   4   0 29.0577 3.30428   2
  -4  13   1 107.297 5.19846   1
   9   4   1 104.838 6.02261   2
  -9  13   1 113.797 5.49036   3
  13  -4   1 115.871 4.53760   2
  -4  13   1 102.044 6.22631   3
   9 -13   1 108.020 4.92226   2
  13  -9   1 93.3212 3.79425   3
 -13   9   1 99.0258 5.42136   5
   4 -13   1 114.291 6.15797   2
   4   9   1 107.065 6.82858   3
   9   4   1 92.7679 5.76046   3
  -9  13   1 91.1452 6.54281   5
  13  -4   1 93.5687 4.69303   5
  -4  13   1 96.2990 6.90715   5
   9 -13   1 104.928 5.56871   3
  -4  -9   1 104.328 6.50270   2
  13  -9   1 119.732 6.54148   5
   4   9   1 93.8618 6.14878   5
  13  -4   1 118.400 4.57627   3
   4 -13   1 102.850 6.41467   3
   9 -13   1 93.2842 6.85327   5
   9   4   1 94.9988 4.91815   5
   4   9   1 98.5033 6.11027   1
   4 -13   1 86.4909 6.66837   5
   9   4   1 111.972 6.19233   1
  -4  -9   1 116.912 6.97777   3
  -9  -4   1 109.349 6.33736   2
  -4  -9   1 114.222 5.94192   5
  13  -4   1 77.4718 4.58837   5
  -9  -4   1 97.4663 5.74735   3
  13  -9   1 111.917 4.31296   3
   9   4   1 109.062 6.72361   2
   4   9   1 89.9154 6.02087   1
   9   4   1 121.789 6.76100   1
  13  -4   1 103.676 4.30355   4
  -9  13   1 93.7621 5.54306   4
  -4  13   1 105.827 5.16866   1
  -4  13   1 103.014 6.66106   4
  13  -4   1 107.023 4.45670   2
  13  -9   1 100.243 4.78873   4
   4   9   1 99.2656 6.39566   4
  -4  -9   1 109.430 6.41973   1
   9   4   1 105.875 5.81597   4
   9 -13   1 102.070 6.11198   4
  -9  13   1 109.068 4.28576   2
   4 -13   1 95.1886 6.45972   4
  13  -4   1 96.5112 4.69956   1
  13  -4   1 80.4377 4.48422   4
  -4  -9   1 99.4359 6.50588   4
  -9  -4   1 99.4330 5.37164   4
  -4  13   1 112.152 6.14670   2
   4   9   1 77.5460 6.02527   2
  13  -4   1 102.048 4.30283   1
  13  -4   1 79.0664 3.84121   3
  13  -9   2 4.26716 1.18476   2
  -4  13   2 7.96203 2.46634   2
  -4  13   2 3.18415 1.72383   1
  13  -4   2 3.67470 1.66780   3
   4 -13   2 4.40058 1.86554   1
  13  -4   2 5.86890 1.90092   1
  -9  13   2 6.10740 1.75095   3
  13  -4   2 4.70105 1.46878   1
   4   9   2 12.3273 2.99020   2
  13  -9   2 3.49935 1.56725   3
 -13   9   2 5.09606 1.83507   5
  -4  13   2 5.07819 2.43362   3
   9   4   2 3.62121 2.34294   2
   9 -13   2 5.38633 1.94308   2
  13  -4   2 6.31679 2.02159   5
  -9  13   2 5.53907 2.95416   5
   4   9   2 3.93925 2.57918   3
  -4  13   2 3.55060 2.75657   5
  13  -9   2 4.66642 2.18433   5
   4 -13   2 7.45661 2.63004   2
   9 -13   2 5.03179 2.07279   3
  -4  -9   2 7.35628 2.41219   1
  13  -4   2 5.31233 1.67890   2
   9   4   2 6.02659 2.27822   3
   4   9   2 2.26300 2.39657   5
   9 -13   2 7.59721 2.80557   5
   4 -13   2 2.70445 2.30793   3
   4 -13   2 6.34477 2.90491   5
   9   4   2 6.00834 2.25590   5
  -4  -9   2 9.13111 2.70893   2
  -4  -9   2 3.08669 2.35411   3
  13  -4   2 4.91269 1.76646   3
  -4  -9   2 3.77126 1.98010   5
  -9  -4   2 4.62036 2.45555   2
  13  -9   2 4.93131 1.25148   2
  13  -4   2 8.26970 2.27200   5
  -9  -4   2 3.73474 2.14334   3
  13  -9   2 7.25712 1.86632   3
  13  -9   2 3.92825 2.33276   5
   4   9   2 3.26106 2.39100   1
  -9  13   2 5.28282 1.16561   2
   9   4   2 5.04350 2.53082   2
   9   4   2 5.59966 2.32834   1
  13  -4   2 6.48164 1.81787   4
  -9  -4   2 5.26147 2.12931   1
  -9  13   2 5.15319 2.14449   4
  13  -9   2 12.3128 2.41424   4
  -4  13   2 5.49719 2.29313   4
   4   9   2 4.91021 2.46704   4
   9 -13   2 5.36521 2.54269   4
   9   4   2 2.88493 2.31470   4
  13  -4   2 2.97092 1.75304   2
   4 -13   2 5.92530 2.50629   4
   4   9   2 2.52250 2.14536   1
   9   4   2 8.72251 2.58330   1
  -4  -9   2 2.90411 2.22017   4
  13  -4   2 3.73155 1.83161   4
  -9  13   2 9.83366 1.45082   2
  -9  -4   2 3.97630 1.70874   4
  -4  13   2 5.68521 2.05855   1
   9   4   2 5.60101 2.38652   3
  -4  13   3 5.30259 2.02045   1
   9   4   3 3.51888 2.15244   1
  13  -4   3 4.22133 2.05582   3
  -4  13   3 7.61602 2.42603   2
  -9  13   3 5.85354 1.84674   3
  13  -9   3 7.91111 2.09972   3
   9 -13   3 5.79506 2.16114   2
  13  -4   3 5.89016 2.08435   1
   4   9   3 8.04694 3.05460   2
 -13   9   3 2.86633 1.82197   5
  -4  13   3 8.75885 2.75141   3
  13  -4   3 7.08878 2.51737   5
   4 -13   3 7.38885 2.50657   2
   9   4   3 3.05474 2.37673   2
  -9  13   3 4.77809 2.73295   5
   9 -13   3 5.19004 2.48738   3
  13  -9   3 2.00431 2.47282   5
  -4  13   3 4.28697 2.68323   5
   4   9   3 4.78551 2.57618   3
   9 -13   3 0.96451 2.98730   5
   4 -13   3 3.07664 2.62335   3
   4   9   3 0.64240 2.41023   5
   9   4   3 4.71369 2.84305   3
   4 -13   3 4.05514 2.62422   5
  -4  -9   3 6.58963 2.41035   2
   9   4   3 2.03437 2.36960   5
  13  -4   3 8.81426 2.14987   2
  -4  -9   3 6.05898 2.51778   3
  -9  -4   3 6.54726 2.48102   2
  13  -4   3 3.09479 2.03228   3
  13  -4   3 4.33635 2.29746   5
  -9  -4   3 7.13569 2.45122   3
  13  -9   3 2.98598 1.68104   2
  13  -9   3 4.44806 2.59852   5
  13  -9   3 5.14299 2.19977   3
  -4  13   3 1.61457 1.81127   1
   9   4   3 9.41308 2.95225   4
  -4  13   3 10.3861 2.54223   2
   4   9   3 5.25236 2.67113   2
  -4  -9   3 1.26363 2.40919   1
 -13   4   3 7.57289 1.88681   1
  13  -4   3 4.08786 1.95847   4
  -9  13   3 3.30369 1.95303   4
  13  -9   3 7.45940 2.36958   4
   4 -13   3 9.41922 2.24625   1
  -4  13   3 4.98873 2.91273   4
  -9  -4   3 7.46646 2.55742   1
   9 -13   3 8.54021 2.84618   4
   4   9   3 6.85890 2.75955   4
   4 -13   3 3.60446 2.82183   4
  13  -4   3 9.25375 2.26073   2
  13  -4   3 7.64328 1.84851   1
   9   4   3 4.53809 2.78322   4
  -4  -9   3 8.03977 3.07199   4
  13  -4   3 5.16495 2.37126   4
   4   9   3 1.49443 1.96285   1
  -9  -4   3 5.61646 1.76030   4
  -9  13   3 7.38592 1.11498   2
   9   4   3 13.3234 3.23513   1
   4   9   3 3.52386 2.22817   1
   9   4   3 5.40394 2.91480   3
  13  -9   3 5.44780 1.63305   2
 -10  13  -2 17.9324 2.90067   3
  -3  13  -2 11.3691 3.05304   3
   3  10  -2 16.3165 3.33628   3
 -13  10  -2 12.1002 3.04432   5
  10   3  -2 14.6826 2.30350   3
 -10  13  -2 21.2331 3.81722   5
  -3  13  -2 2.70725 2.66611   5
   3  10  -2 13.8873 2.47373   5
   3  10  -2 19.9138 3.61266   1
  13 -10  -2 14.7943 2.75151   5
   3 -13  -2 27.7119 3.57444   2
  10 -13  -2 15.0785 3.53255   5
   3 -13  -2 15.4083 3.84543   5
  -3 -10  -2 10.5967 3.04074   5
  13  -3  -2 18.6395 2.37120   1
   3 -13  -2 11.3614 3.05985   3
  10 -13  -2 13.9520 2.06080   3
  -3 -10  -2 20.2906 3.58258   3
  -3 -10  -2 13.3011 3.31745   2
 -13  10  -2 18.1538 2.68382   4
  -3  13  -2 17.5875 2.89341   1
 -10  13  -2 17.3690 3.12607   4
  10   3  -2 12.3924 1.92721   4
  13  -3  -2 15.8800 2.49593   1
  -3  13  -2 20.5262 3.68592   4
   3  10  -2 15.9922 2.97456   4
  13  -3  -2 15.0966 1.06684   2
 -10  13  -2 16.4580 2.55032   2
  10   3  -2 23.0899 3.55054   1
  10 -13  -2 11.7263 2.65435   4
   3 -13  -2 12.3212 3.39594   4
  -3 -10  -2 12.1928 3.62408   4
  10   3  -2 20.1756 2.95808   2
 -13  10  -2 18.0631 2.52484   3
  -3  13  -2 14.8428 2.94264   2
   3  10  -2 12.6367 3.33989   2
   3  10  -1-1.38712 2.46061   2
  10   3  -1 2.41863 1.80126   2
 -10  13  -1 1.85699 1.71228   3
  13  -3  -1 1.48477 1.42716   1
  -3  13  -1 8.92695 2.92554   3
 -13  10  -1 7.20430 2.51447   5
   3  10  -1 3.34408 2.10574   3
  10   3  -1 1.97408 1.63437   3
 -10  13  -1 2.81504 2.29704   5
  -3  13  -1 4.60824 1.92015   1
  -3  13  -1 2.02555 2.57494   5
   3  10  -1 1.17274 1.76163   5
  13 -10  -1 3.74380 2.12213   5
  10 -13  -1 0.55089 2.61676   5
   3 -13  -1 2.18415 2.25488   5
  10 -13  -1 0.33975 1.33998   3
   3 -13  -1 2.97338 2.64360   3
  -3 -10  -1 1.98041 2.45828   5
   3 -13  -1 1.60977 1.79029   2
  -3 -10  -1 3.62498 2.50210   2
  -3 -10  -1 0.04386 2.42511   3
  10 -13  -1 3.93440 0.94118   2
 -13  10  -1 1.02276 1.61614   4
  10   3  -1 1.65765 1.89695   1
   3  10  -1 0.63709 1.91122   1
 -10  13  -1 1.57205 1.85350   4
  10   3  -1 4.27190 2.21655   1
  -3  13  -1 6.71094 2.10519   1
  -3  13  -1 4.04674 2.54396   4
   3  10  -1 1.25980 1.86882   4
  13  -3  -1 2.95187 1.06631   2
  10   3  -1 1.57493 1.37676   4
  13  -3  -1 3.96220 1.73690   1
 -10  13  -1 2.62001 1.49299   2
  13 -10  -1 3.34847 1.11681   4
  10 -13  -1 0.03207 1.81097   4
   3 -13  -1 2.29642 2.80523   4
  -3 -10  -1 3.27302 2.76329   4
  -3  13  -1 2.32296 2.44121   2
  13  -3  -1 3.50222 1.04018   2
   3  10   0 11.9902 3.21848   2
   3  10   0 16.3136 3.20823   1
  10   3   0 17.1254 2.64960   2
  10   3   0 12.9269 1.43017   5
  -3  13   0 7.34729 2.68681   3
  13  -3   0 18.0317 1.71796   3
 -13  10   0 14.2737 2.80109   5
   3  10   0 17.8132 3.17961   3
 -10  13   0 13.8934 2.97589   5
  10 -13   0 13.5758 1.81019   2
  13  -3   0 21.3681 1.82626   5
  13 -10   0 15.8250 1.13538   3
  10   3   0 12.3266 1.50897   5
  10 -13   0 17.6251 2.39394   3
  10   3   0 15.5058 2.66430   3
  -3  13   0 11.6671 3.15161   5
   3  10   0 19.4193 3.03312   5
  13 -10   0 11.5893 2.93105   5
   3 -13   0 20.0411 3.96153   5
  10 -13   0 10.8406 3.14272   5
  13  -3   0 17.4677 1.80300   5
  13 -10   0 11.0540 1.15545   3
   3 -13   0 17.0660 3.28453   3
   3 -13   0 13.9688 2.83066   2
  -3 -10   0 11.0394 2.74842   5
  -3 -10   0 13.3635 2.96913   2
  -3 -10   0 17.6052 3.34836   3
 -10  -3   0 20.8928 3.08869   3
 -13  10   0 18.3603 2.19105   4
  13  -3   0 16.2065 1.54743   4
  13  -3   0 18.5836 2.00473   2
  13  -3   0 15.7061 2.31509   1
 -10  13   0 13.4537 2.59085   4
 -10  13   0 16.7097 1.92759   2
   3  10   0 17.4331 3.06506   1
  -3  13   0 20.0464 3.55106   4
  10   3   0 11.9284 2.85258   1
  13 -10   0 16.4502 2.02782   4
   3  10   0 15.5496 3.10213   4
  13  -3   0 17.4976 1.58641   4
  -3  13   0 10.8141 2.37361   1
  10   3   0 13.6160 2.25626   4
  10 -13   0 13.3543 2.59765   4
  10   3   0 14.3719 2.63001   1
   3 -13   0 15.5461 3.43656   4
  13  -3   0 14.6236 2.16317   1
  -3 -10   0 9.87739 3.01572   4
  -3  13   0 16.2704 2.58956   1
  13  -3   0 17.3320 1.87400   2
  13  -3   0 17.6962 1.72210   3
  -3  13   0 14.1901 2.83532   2
 -10  13   0 17.7948 2.53608   3
  -3  13   1 2.75053 2.28946   2
  13  -3   1 4.37377 1.53822   3
   3  10   1 2.94798 2.04004   1
 -10  13   1 5.66110 1.79227   3
   3  10   1 3.78420 2.61756   2
  10   3   1 1.05431 1.98743   1
  10   3   1 0.93568 1.77855   2
  10   3   1 1.59307 1.24695   5
  13  -3   1 3.26179 1.34999   2
  -3  13   1 7.43504 2.61282   3
 -13  10   1 3.63856 2.10330   5
 -10  13   1 2.86044 2.71332   5
   3  10   1 1.84724 2.02745   3
  13 -10   1 3.42403 1.35198   3
  13  -3   1 4.74639 1.58628   5
  -3  13   1 2.53420 2.44391   5
  10   3   1 2.84934 1.82883   3
   3  10   1 2.71969 2.18710   5
  10 -13   1 2.05426 1.28401   2
  13 -10   1 15.0336 3.16669   5
  -3 -10   1 0.30174 2.10866   1
  10 -13   1 2.20552 1.72803   3
  10 -13   1 2.63137 2.29175   5
  13  -3   1 2.43889 1.33931   3
  10   3   1 7.36408 1.94244   5
   3 -13   1 3.75304 2.32280   2
   3 -13   1 0.27899 2.61733   5
   3 -13   1 0.08085 1.92369   3
  -3 -10   1 2.20558 2.19486   5
  -3 -10   1 0.68426 2.21888   2
  -3 -10   1 5.17895 2.56208   3
  13  -3   1 1.99670 1.54358   5
 -10  -3   1 0.07041 2.03678   2
 -10  -3   1 3.28254 1.84677   3
 -13  10   1 3.74376 1.11311   4
  10   3   1 3.66159 2.12379   4
  10   3   1 0.15624 1.97139   2
  13  -3   1 1.81951 1.24219   4
 -10  13   1 7.35275 2.21861   4
  -3  13   1 4.20161 2.25454   4
   3  10   1 3.38701 2.75752   4
  13 -10   1 3.86797 1.58542   4
  13  -3   1 0.82315 1.33961   2
   3  10   1-0.11221 2.08505   1
  13  -3   1 2.63081 1.41990   1
  10   3   1 2.41340 2.01462   1
  10 -13   1 0.98375 1.97696   4
  10   3   1 1.53899 1.73562   4
 -10  13   1 2.50578 0.90660   2
  -3  13   1 1.50936 1.66252   1
   3 -13   1 1.07297 2.48494   4
  -3  13   1 3.54034 1.74656   1
  13  -3   1 2.41168 1.53706   4
  -3 -10   1 1.75387 2.42888   4
 -10  -3   1 2.75970 1.55407   4
  13  -3   1 1.22714 1.52862   1
  10   3   1 1.49222 2.00225   3
  13  -3   2 16.1373 2.59969   1
 -10  13   2 20.3148 2.38263   3
  13  -3   2 9.47184 2.21877   3
  -3  13   2 12.7105 2.77909   2
  -3  13   2 10.7560 2.67097   1
  13 -10   2 21.0430 2.42705   3
   3 -13   2 14.9657 2.63163   1
   3 -13   2 20.2342 3.59987   2
   3  10   2 20.6223 3.58285   2
  10   3   2 16.5404 2.43257   5
 -10  -3   2 10.6310 2.87694   1
  13  -3   2 14.3049 2.22719   1
 -13  10   2 14.0396 2.61415   5
  10   3   2 10.1001 2.88760   2
  -3  13   2 22.6999 3.65594   3
  10 -13   2 10.9498 2.29506   2
  13  -3   2 13.2940 2.44999   5
 -10  13   2 6.99157 3.08338   5
   3  10   2 11.6976 3.45139   3
  13  -3   2 11.1647 2.11405   2
  -3  13   2 10.1998 3.40608   5
  10 -13   2 15.9970 2.83152   3
  13 -10   2 10.6662 3.05425   5
   3  10   2 14.2318 3.15920   5
  10 -13   2 18.2799 3.82139   5
  10   3   2 14.0013 2.95477   3
 -10  -3   2 19.0393 3.35139   2
   3 -13   2 13.6354 3.18529   3
   3 -13   2 13.8046 3.67899   5
  13 -10   2 16.3443 1.77238   2
  10   3   2 16.9308 2.86792   5
  -3 -10   2 12.2830 2.97997   2
  13  -3   2 15.2431 2.50048   3
  13  -3   2 17.6728 2.87542   5
  -3 -10   2 12.2868 2.91757   3
  -3 -10   2 16.3121 3.09207   5
  -3 -10   2 10.2690 2.66949   1
   3  10   2 16.6336 3.24768   1
 -10  -3   2 16.5614 2.60154   3
  10   3   2 16.8210 2.98328   1
  10   3   2 19.5490 3.25727   4
  10   3   2 18.4814 3.69938   2
  13  -3   2 7.63794 2.09816   4
  13  -3   2 20.6944 2.78087   2
 -10  13   2 13.1787 0.68605   2
 -10  13   2 10.5968 2.30438   4
  10 -13   2 19.6182 3.22497   4
  -3  13   2 15.6147 3.19133   4
  13 -10   2 14.3314 2.55028   4
   3  10   2 15.2061 3.16514   4
  10   3   2 9.42926 2.72358   4
   3 -13   2 13.7831 3.37709   4
   3  10   2 9.48102 2.84798   1
  -3 -10   2 13.6620 3.59316   4
  13  -3   2 13.7364 2.67359   4
  10   3   2 17.8874 3.14416   1
 -10  -3   2 14.1645 2.06388   4
  -3  13   2 11.5882 2.46891   1
  13 -10   2 17.1692 1.72206   2
  10   3   2 18.9496 3.39869   3
 -11  13  -2 1.89130 2.06779   3
  -2  13  -2 1.42277 2.28454   1
  -2  13  -2 2.50337 2.33821   3
   2  11  -2 2.17672 2.69970   3
  11   2  -2 5.83276 1.88821   3
 -13  11  -2 4.59325 2.59847   5
 -11  13  -2 2.13796 2.99811   5
  11   2  -2 4.14360 2.28878   1
  -2  13  -2 1.35401 2.44267   5
   2  11  -2 5.72435 2.33063   5
   2  11  -2 1.98135 2.39109   1
  13 -11  -2 1.81180 2.42280   5
  11 -13  -2 3.48921 2.99811   5
   2 -13  -2 9.03310 3.86233   5
  -2 -11  -2 3.76396 3.24138   5
   2 -13  -2 4.52984 2.66102   3
  -2 -11  -2 0.79425 2.87786   3
  11 -13  -2 4.41475 1.31984   3
   2 -13  -2 2.97986 2.55636   2
  -2 -11  -2 3.65399 2.76700   2
  13  -2  -2 7.79186 1.62387   2
 -13  11  -2 3.80283 2.07283   4
 -11  13  -2 2.97254 2.36633   4
  13  -2  -2 5.73944 2.32439   1
  -2  13  -2 0.17829 2.66207   4
  11   2  -2 2.21662 1.05694   4
   2  11  -2 1.23545 2.40042   4
 -11  13  -2 3.46857 1.77912   2
  11 -13  -2 4.35166 2.18659   4
   2 -13  -2 5.28331 2.74847   4
  -2 -11  -2 6.01107 3.39276   4
  13  -2  -2 2.21511 1.04927   2
  -2  13  -2 4.51629 2.60312   2
  13  -2  -2 5.80514 2.10017   1
 -13  11  -2 5.23949 1.96169   3
   2  11  -2 3.75490 2.78345   2
  11   2  -2 3.21042 1.99983   2
  -2  13  -1 40.6804 4.57730   3
  13  -2  -1 49.2566 2.16511   3
   2  11  -1 48.1298 4.92337   3
  11   2  -1 38.8499 3.36308   3
 -13  11  -1 32.3717 4.33479   5
 -11  13  -1 36.6845 4.73770   5
  -2  13  -1 41.9668 4.69097   5
   2  11  -1 34.4895 3.87521   5
  13 -11  -1 36.4173 4.20776   5
  11 -13  -1 32.0471 4.63009   5
   2 -13  -1 40.0745 4.36519   2
  11 -13  -1 38.2625 2.96203   3
  -2 -11  -1 37.3091 4.43764   2
   2 -13  -1 27.3400 4.02466   3
   2 -13  -1 34.4198 4.79045   5
  -2 -11  -1 59.6765 5.41239   3
  -2 -11  -1 32.8685 4.51518   5
  11   2  -1 34.2670 2.61712   4
  -2  13  -1 29.3013 3.55967   1
 -13  11  -1 36.5561 3.49468   4
  11   2  -1 43.6270 4.46675   1
 -11  13  -1 34.4318 3.86441   4
  13  -2  -1 36.8335 3.84399   1
 -11  13  -1 31.7424 2.88925   2
  -2  13  -1 45.7466 4.95613   4
   2  11  -1 45.2591 4.78784   4
  11   2  -1 45.1739 3.04401   4
  13  -2  -1 50.0464 3.80184   1
  13 -11  -1 38.4315 2.78724   4
  11 -13  -1 24.9875 3.48303   4
  -2  13  -1 41.3163 4.00995   1
   2 -13  -1 34.2324 4.59590   4
  -2 -11  -1 35.0538 4.62676   4
  -2  13  -1 39.3681 4.36587   2
  11   2  -1 44.7302 4.11729   1
  13  -2  -1 35.8159 2.58081   2
   2  11  -1 32.6973 4.28109   2
   2  11  -1 39.8745 4.25649   1
  11   2  -1 40.4612 3.63996   3
 -13  11  -1 32.5616 2.71731   3
  11   2  -1 48.5047 4.12346   2
 -11  13  -1 40.3918 3.61811   3
  13  -2  -1 19.2358 1.70899   3
  13  -2   0 11.2326 1.66160   3
 -11  13   0 4.45124 1.71951   3
   2  11   0 8.46703 2.86915   2
  13  -2   0 7.99392 1.66762   2
  11   2   0 6.23975 2.31691   2
  -2  13   0 7.33050 2.74489   3
 -13  11   0 10.6563 2.89500   5
   2  11   0 10.3692 3.10188   3
 -11  13   0 13.1637 3.00553   5
  11   2   0 7.03056 0.97645   5
  11   2   0 6.83716 1.99394   3
  13 -11   0 12.3024 1.25221   3
  -2  13   0 10.2730 3.30591   5
  13  -2   0 9.93619 1.65567   3
   2  11   0 15.3692 3.13563   5
  11 -13   0 10.2095 1.27102   2
  13 -11   0 7.93359 2.60389   5
  11 -13   0 2.73460 2.85132   5
  13  -2   0 6.17676 1.09697   5
   2 -13   0 6.53610 2.83252   5
   2 -13   0 1.51517 2.42406   3
  -2 -11   0 8.65508 2.78797   5
   2 -13   0 7.38459 2.93329   2
  -2 -11   0 10.2968 3.25331   2
  -2 -11   0 7.04420 3.05085   3
  13  -2   0 5.22225 1.74986   1
  -2  13   0 8.99322 2.46425   1
  11   2   0 11.6347 1.91124   4
 -13  11   0 9.45481 1.94922   4
  11   2   0 8.83338 2.56535   2
 -11  13   0 10.8745 1.25191   2
 -11  13   0 6.57185 2.24723   4
  13  -2   0 8.98768 1.36677   4
   2  11   0 6.42093 2.71540   1
  13  -2   0 10.3787 2.05403   2
  -2  13   0 9.56293 2.94678   4
   2  11   0 3.80827 2.83178   4
  11   2   0 7.45720 2.22134   1
  -2  13   0 8.79079 2.61443   1
  11   2   0 8.76843 2.84355   1
  11   2   0 9.57016 1.98614   4
   2  11   0 8.19761 2.61553   1
  13  -2   0 8.72262 1.34924   4
  13 -11   0 9.49658 1.97462   4
  11 -13   0 10.5224 2.51534   4
  13  -2   0 9.81597 2.25824   1
   2 -13   0 7.30134 3.35754   4
  -2 -11   0 4.53289 3.04950   4
  11   2   0 11.3700 2.52641   3
  -2  13   0 7.12531 2.39775   2
  11   2   1 39.4697 3.95520   2
  13  -2   1 27.2519 2.76488   2
  13  -2   1 47.6563 3.66910   1
  -2  13   1 56.7223 4.59411   1
  -2  13   1 44.8530 4.68572   3
  11 -13   1 36.3541 2.74065   2
   2  11   1 44.8971 4.89426   3
 -13  11   1 40.3131 4.14456   5
  11   2   1 45.0189 3.13730   5
 -11  13   1 34.9836 4.66541   5
  13 -11   1 30.9225 2.66205   3
   2 -13   1 30.7207 4.23676   2
  11   2   1 28.8401 3.59913   3
  13  -2   1 39.3560 2.92196   5
   2  11   1 37.4655 4.15042   1
  11   2   1 37.5797 3.94205   1
  -2 -11   1 49.3093 4.94255   2
  11 -13   1 38.5250 3.43687   3
  -2  13   1 41.8495 4.95602   5
  13  -2   1 39.4592 3.17473   3
   2  11   1 35.0228 4.33603   5
  13 -11   1 36.3837 4.44058   5
  11 -13   1 43.4705 5.12252   5
   2 -13   1 46.7798 4.89076   3
  11   2   1 35.3372 3.10296   5
  -2 -11   1 40.5364 4.52724   3
   2 -13   1 39.4984 4.77647   5
  13  -2   1 31.2619 2.93508   5
  -2 -11   1 25.1776 3.97976   5
  11   2   1 44.7372 3.86851   4
 -13  11   1 37.2043 2.79241   4
  11   2   1 27.1655 3.78346   2
  13  -2   1 43.9140 3.08742   4
   2  11   1 46.0853 4.54553   1
 -11  13   1 35.4800 3.60515   4
  13  -2   1 43.4275 3.63529   2
  11   2   1 38.8763 4.27281   1
  -2  13   1 37.3561 3.70824   1
  -2  13   1 36.0879 4.68345   4
   2  11   1 27.5793 4.45169   4
  13  -2   1 45.8341 3.98952   1
  13 -11   1 35.0432 3.40120   4
  11 -13   1 30.4324 3.66592   4
  11   2   1 44.5679 3.91203   4
  13  -2   1 36.2335 3.17950   4
   2 -13   1 33.0419 5.00773   4
  -2 -11   1 47.5474 5.44188   4
  11   2   1 37.3818 3.92160   3
  -2  13   1 37.5896 4.24285   2
   2  11   1 43.2875 4.61217   2
  13  -2   1 45.3046 3.29642   3
 -11  13   1 43.6956 3.10017   3
  13  -2   2 3.95445 1.91977   3
 -11  13   2 3.78030 1.26884   3
  -2  13   2 2.48844 2.68797   2
  -2  13   2 1.30128 2.18612   1
   2  11   2 0.74914 2.76607   2
  13 -11   2 3.61251 1.16435   2
  13  -2   2 3.37547 1.90009   1
  11   2   2 2.32986 1.72131   5
  11   2   2 4.18183 2.24619   2
 -13  11   2 2.30133 2.28958   5
  -2  13   2 2.63494 2.28186   3
  11 -13   2 2.84171 1.65453   2
  13 -11   2 0.75268 1.56617   3
  13  -2   2 3.81644 1.86285   5
 -11  13   2 3.46807 2.83136   5
  13  -2   2 3.05780 1.83971   2
   2  11   2 6.64574 3.08434   3
  11 -13   2 3.15928 2.11799   3
  -2  13   2 3.19978 3.23327   5
  13 -11   2 2.59988 2.68205   5
   2  11   2-0.09454 2.75002   5
  11 -13   2 2.53250 2.95384   5
  11   2   2 5.91491 2.42886   3
   2 -13   2 3.85561 2.63961   2
   2  11   2 4.40201 2.62556   1
  13  -2   2 2.51078 1.92941   3
   2 -13   2 1.37103 2.72011   3
   2 -13   2 4.97413 2.88196   5
  11   2   2 1.86080 2.00036   5
  -2 -11   2 2.15433 2.54317   2
  -2 -11   2 1.56964 2.38987   3
  -2 -11   2 3.15601 2.53626   5
  13  -2   2 1.68835 1.96310   5
  11   2   2 0.07270 2.04281   1
 -11  -2   2 2.60667 2.08637   2
  13 -11   2 3.39278 1.29964   2
 -11  -2   2 5.14813 1.97080   3
   2 -13   2 3.28661 2.13816   1
 -13  11   2 1.36933 0.78599   4
  11   2   2 4.29056 2.37875   4
 -11  13   2 5.44229 2.03827   4
  11   2   2 2.60431 2.38729   2
  -2  13   2 5.68224 2.89246   4
  13  -2   2 4.14964 2.08057   2
  13 -11   2 4.45870 2.09878   4
   2  11   2 4.92430 3.07444   4
  11 -13   2 2.54204 2.16225   4
  11   2   2 2.65935 2.34786   4
  -2 -11   2-0.16005 2.45245   1
   2 -13   2 0.14385 2.61856   4
   2  11   2 2.62985 2.56527   1
  13  -2   2 2.61334 2.14394   4
  -2 -11   2 8.24923 3.33571   4
  11   2   2 1.25701 2.20087   1
  -2  13   2 3.41130 2.27596   1
 -11  -2   2 3.28675 2.23050   1
  11   2   2 2.31467 2.23093   3
  13  -2   2 1.33975 2.00423   1
  -7  14  -2 18.0872 3.62763   3
  -7  14  -2 16.6161 2.10369   1
   7   7  -2 10.9155 1.11354   5
   7   7  -2 14.4271 2.97790   3
  -7  14  -2 6.57818 3.08725   5
  14  -7  -2 15.4589 1.80114   5
   7   7  -2 11.0567 3.23651   1
   7 -14  -2 7.65691 3.56714   5
  14  -7  -2 16.4523 1.75577   5
   7 -14  -2 11.0658 2.77104   3
  -7  -7  -2 10.8378 3.09140   5
   7 -14  -2 11.9846 2.37640   2
  -7  -7  -2 17.9105 3.83175   3
  -7  14  -2 13.0182 2.03916   1
   7   7  -2 19.4351 3.00714   4
  -7  14  -2 10.5050 3.12488   4
   7 -14  -2 17.2346 3.30449   4
  -7  14  -2 12.8951 2.88812   2
  -7  -7  -2 14.9114 3.42131   4
   7   7  -2 10.6268 3.06435   2
   7   7  -1 0.23714 1.98234   2
  -7  14  -1-0.19056 2.14193   3
   7   7  -1-0.33273 1.95702   3
  -7  14  -1 0.23685 2.65789   5
   7   7  -1-0.01673 1.17805   5
  14  -7  -1-0.46400 1.43479   5
   7 -14  -1 0.62064 2.54891   5
   7 -14  -1-0.50857 2.03351   3
   7 -14  -1 2.67426 1.85793   2
  -7  -7  -1-0.96113 1.91391   5
  -7  -7  -1-1.08979 2.64641   3
  -7  -7  -1 0.39592 2.62167   2
  14  -7  -1 0.26870 1.44200   5
   7   7  -1-0.15488 2.23405   1
  -7  14  -1 0.52755 2.03709   4
  -7  14  -1 2.25496 1.22559   1
   7   7  -1 3.37108 2.32843   4
  -7  14  -1-0.57939 1.22207   1
   7 -14  -1-0.89053 2.24749   4
  -7  -7  -1-0.78552 2.36956   4
  -7  14  -1 1.34521 2.08882   2
  -7  14   0 72.1843 5.31932   3
   7   7   0 75.1146 5.82491   1
   7   7   0 87.8612 6.06475   3
  -7  14   0 67.5399 6.18044   5
   7 -14   0 83.8147 5.04697   2
   7   7   0 82.0539 4.44880   5
  14  -7   0 76.4353 4.67510   5
   7 -14   0 75.6935 5.43951   3
   7 -14   0 69.7708 6.22424   5
  -7  -7   0 68.8851 5.59797   2
  -7  -7   0 75.9887 5.86092   3
  -7  -7   0 89.0450 4.78769   5
  14  -7   0 88.1004 4.85015   5
  -7  14   0 80.3998 3.55457   1
   7   7   0 66.2946 5.65909   1
  -7  14   0 86.6039 6.02832   4
   7   7   0 85.2092 5.63841   4
  -7  14   0 86.6194 3.65465   1
  14  -7   0 81.1036 2.80004   4
   7 -14   0 82.6626 5.99778   4
  14  -7   0 73.6193 2.80884   4
  -7  14   0 71.3451 5.02897   2
  -7  -7   0 78.7072 5.91589   4
   7   7   0 71.6807 5.61786   2
  -7  14   1 0.51910 1.16876   1
  -7  14   1-0.12082 1.06848   1
   7   7   1 1.14621 2.13965   1
   7   7   1-1.15754 2.11570   2
  -7  14   1-0.51769 1.95127   3
  14  -7   1 0.01186 0.43186   2
  14  -7   1-0.39703 0.96998   3
  -7  14   1 4.83250 2.89149   5
   7   7   1-1.85532 2.51873   3
  14  -7   1-0.48120 1.83427   5
   7   7   1 1.76693 2.04869   5
   7 -14   1 0.05970 1.68374   2
   7 -14   1-1.46206 3.02853   5
   7 -14   1-1.50214 2.38652   3
  14  -7   1-0.56695 0.98592   3
  -7  -7   1 2.37279 2.20856   2
  -7  -7   1 0.25342 2.51453   3
  -7  -7   1 0.07292 1.30526   5
  14  -7   1-0.12151 1.76172   5
  -7  14   1 0.39273 2.25732   4
  14  -7   1-0.89644 1.33797   4
   7   7   1 2.08341 2.21073   4
   7   7   1 0.85960 2.31115   1
   7 -14   1-0.38369 2.45653   4
  14  -7   1 0.21729 1.50694   4
  -7  -7   1 0.66360 2.26625   4
  -7  14   1-0.77991 1.73119   2
  14  -7   2 14.9551 2.32256   3
  -7  14   2 21.1856 3.29623   3
  14  -7   2 20.6677 2.07902   2
   7   7   2 13.9721 3.34813   2
  -7  14   2 14.2322 3.72608   5
  14  -7   2 12.1703 2.81097   5
   7 -14   2 8.63663 2.58855   2
   7   7   2 15.0976 3.59544   3
   7 -14   2 9.01072 2.88534   3
   7   7   2 15.5296 3.18613   5
   7 -14   2 13.4377 3.80808   5
  -7  -7   2 15.5059 3.60224   2
  14  -7   2 13.7730 2.31188   3
  -7  -7   2 15.2190 3.50239   3
   7   7   2 16.2538 3.24608   1
  14  -7   2 13.3001 2.84514   5
   7   7   2 11.6771 3.05233   2
  14  -7   2 5.92637 0.59221   1
  14  -7   2 14.9221 2.40371   4
  -7  14   2 14.6512 3.20690   4
   7   7   2 11.8377 3.30138   4
  14  -7   2 18.4493 2.00540   2
   7   7   2 8.92936 3.17564   1
  -7  -7   2 13.6750 3.06815   4
  14  -7   2 12.7229 2.54258   4
  -7  14   2 14.2301 1.87786   1
  -7  14   2 12.9110 1.77725   1
  -7  -7   2 6.74415 2.90626   1
  -7  14   2 14.9397 2.47896   2
   6   8  -1 6.92203 2.61208   2
   8   6  -1 11.5785 3.03242   2
  -8  14  -1 11.3505 1.20187   1
  -8  14  -1 12.8552 2.88126   3
  14  -6  -1 10.6070 0.94572   1
  -6  14  -1 12.5979 2.87516   3
   8   6  -1 13.4079 1.37782   5
   6   8  -1 9.88642 2.62651   3
   8   6  -1 7.92001 2.48306   3
  -8  14  -1 10.3033 3.01866   5
  -6  14  -1 10.5833 3.24192   5
   6   8  -1 7.15794 1.86159   5
  14  -8  -1 8.06490 2.10494   5
  14  -6  -1 8.16565 1.71185   5
   8 -14  -1 7.62168 3.08657   5
   6 -14  -1 5.12616 3.37454   5
   8 -14  -1 13.1081 2.68512   3
   6 -14  -1 15.2056 3.20897   3
   6 -14  -1 9.38962 2.44157   2
   8 -14  -1 7.53559 1.92460   2
  14  -6  -1 10.9934 1.63996   5
  -6  -8  -1 11.4209 2.78590   5
  -6  -8  -1 6.54902 2.99469   3
  -6  -8  -1 20.5351 3.95892   2
  -8  -6  -1 4.85018 2.65531   3
  -8  -6  -1 9.83723 2.36324   5
  14  -8  -1 3.95673 1.75169   5
  -8  -6  -1 9.64793 2.86024   2
   8   6  -1 10.2103 2.90264   1
   6   8  -1 0.31502 2.35420   1
   8   6  -1 8.50623 2.90442   1
  -8  14  -1 6.87249 2.71870   4
  -6  14  -1 7.44719 2.56472   4
   6   8  -1 15.3857 3.08895   4
   8   6  -1 13.3355 2.57348   4
  -6  14  -1 6.74676 1.85653   1
   8 -14  -1 13.4112 3.44460   4
   6 -14  -1 8.37834 3.04064   4
  -8  14  -1 14.6306 2.64073   2
  -6  14  -1 6.39444 1.79460   1
  -6  -8  -1 7.35234 2.96125   4
  -8  -6  -1 4.49091 2.51622   4
  -6  14  -1 7.42450 2.45812   2
  -6  14   0 11.2080 1.95160   1
   6   8   0 6.04050 2.49956   2
   8   6   0 5.78613 2.61061   2
  -8  14   0 12.8039 2.74207   3
  -6  14   0 9.49637 2.94210   3
  -8  14   0 5.41022 0.81687   1
   6   8   0 6.19001 2.66494   3
   8   6   0 6.97602 2.37443   3
  -8  14   0 10.9104 3.12336   5
  -6  14   0 5.86637 3.18601   5
   6   8   0 8.69711 2.22534   5
   8   6   0 10.1269 2.03545   5
  14  -6   0 6.88513 0.90111   1
  14  -6   0 5.68766 1.71455   5
  14  -8   0 4.26576 2.02500   5
   8 -14   0 12.2518 3.40430   5
   6 -14   0 9.56526 3.62678   5
   8 -14   0 8.20051 2.35353   3
   6 -14   0 11.2367 2.97610   3
   8 -14   0 7.79201 1.99693   2
   6 -14   0 8.34955 2.46755   2
  -6  -8   0 8.43993 2.67182   2
  14  -8   0 18.9515 2.86394   5
  -6  -8   0 1.37177 2.64863   3
  -6  -8   0 6.57535 2.13742   5
  -8  -6   0 8.43558 2.77793   2
  14  -6   0 4.97691 1.70454   5
  -8  -6   0 5.64952 2.70338   3
  -8  -6   0 5.33089 1.80785   5
  -8  14   0 5.77064 2.40796   4
  -6  14   0 9.46033 2.89156   4
   8   6   0 8.42350 2.79213   1
   6   8   0 8.77096 2.63682   4
   8   6   0 5.91282 2.29829   4
  14  -6   0 8.87939 1.09131   4
   8 -14   0 9.12020 2.72233   4
   6 -14   0 2.70405 2.70143   4
  -8  14   0 6.27332 0.86075   1
  -6  14   0 5.81753 1.59689   1
   8   6   0 4.96499 2.69564   1
   6   8   0 11.4113 3.05595   1
  14  -8   0 9.77652 1.39303   4
  -6  -8   0 25.0848 3.76488   4
  -8  14   0 7.86604 2.10572   2
  -8  -6   0 7.07622 2.71439   4
  -6  14   0 6.39883 2.32693   2
  14  -6   1 13.6954 1.34944   2
  14  -6   1 12.3373 1.63969   3
   6   8   1 5.64146 2.44651   1
   8   6   1 12.2671 2.89275   1
   6   8   1 6.21470 3.08785   2
  14  -8   1 10.8384 1.43423   3
  -8  14   1 13.6667 2.77756   3
   8   6   1 4.12496 2.26429   2
  -6  14   1 7.63131 2.45066   3
  -8  14   1 12.8476 3.59138   5
   6   8   1 10.2133 2.90028   3
  -6  14   1 6.04864 3.19760   5
   8   6   1 13.1476 2.94656   3
  14  -6   1 11.7409 1.61988   3
  14  -6   1 8.01759 2.11313   5
  14  -8   1 10.1942 2.58612   5
   6   8   1 7.48991 2.46919   5
   8   6   1 7.92494 2.25288   5
  -8  -6   1 20.1854 3.59044   2
  14  -8   1 14.9249 1.62184   3
   8 -14   1 9.92636 2.25939   2
  -6  14   1 8.09926 1.77206   1
   8 -14   1 7.67374 2.38345   3
   8 -14   1 12.7591 3.35255   5
   6 -14   1 13.8682 2.65328   2
   6 -14   1 12.4647 3.35733   5
  -8  14   1 9.55650 0.96494   1
   6 -14   1 7.78817 2.80776   3
  -6  -8   1 11.8497 3.23350   2
  -6  -8   1 11.2592 3.10109   3
  -6  -8   1 9.31060 2.07468   5
  -8  -6   1 9.77160 3.03524   3
  -8  -6   1 10.4737 1.31398   5
  14  -6   1 7.16955 2.21635   5
  14  -8   1 9.46865 2.60812   5
  14  -6   1 12.6617 1.25057   1
  -8  14   1 4.64837 2.66078   4
  -6  14   1 8.67624 2.58378   4
  14  -6   1 9.70465 1.69186   4
  14  -8   1 12.2554 1.96220   4
   6   8   1 14.3893 3.07950   4
   6   8   1 8.01349 2.64571   1
   8   6   1 16.5385 3.19322   1
   8   6   1 9.41294 2.57922   4
  14  -6   1 10.2712 1.27652   2
   8 -14   1 10.4027 3.13318   4
   6 -14   1 9.02634 3.27752   4
  14  -6   1 10.6850 1.96734   4
  -6  -8   1 14.0653 3.36856   4
  -8  -6   1 9.81843 2.96067   4
  14  -8   1 11.5422 2.26174   4
  -8  14   1 12.4619 2.16941   2
  -6  14   1 10.4756 1.92692   1
  -8  14   1 13.0160 1.00879   1
  -6  14   1 7.33422 2.32854   2
   5   9  -1 13.7792 3.16092   2
   9   5  -1 11.6140 2.85769   2
  -9  14  -1 13.2629 3.07039   3
  -5  14  -1 8.73779 3.11768   3
   5   9  -1 6.49701 2.89685   3
   9   5  -1 15.2715 2.80248   3
  -9  14  -1 17.6030 4.05376   5
  -5  14  -1 15.2870 3.87483   5
   5   9  -1 9.34659 2.28089   5
   5 -14  -1 20.2172 3.27887   2
  14  -5  -1 12.6622 1.17456   5
  14  -5  -1 14.7314 1.76781   1
  14  -9  -1 12.9289 2.65868   5
   9 -14  -1 10.7003 3.58294   5
  14  -5  -1 5.08195 1.05945   5
   5 -14  -1 11.2541 3.69049   5
   9 -14  -1 10.6394 2.38664   3
   5 -14  -1 11.5402 2.89215   3
  -5  -9  -1 18.4273 3.49134   5
   9 -14  -1 13.8182 2.11141   2
  -5  -9  -1 4.85754 2.92926   2
  -5  -9  -1 16.1233 3.56949   3
  -9  -5  -1 8.20333 3.02292   3
   9   5  -1 16.3952 3.19940   1
   5   9  -1 9.43005 2.75427   1
  -5  14  -1 14.9404 2.59219   1
  -9  14  -1 7.94554 2.75250   4
   9   5  -1 13.5024 3.22130   1
  14  -5  -1 18.3311 2.04479   1
  -5  14  -1 11.9474 3.15019   4
  -5  14  -1 13.0639 2.33191   1
   5   9  -1 15.2196 3.29271   4
   9   5  -1 12.8564 2.46040   4
   9 -14  -1 8.71188 2.72038   4
  -9  14  -1 10.7842 2.34435   2
   5 -14  -1 5.17939 3.07068   4
  -5  -9  -1 7.33671 3.25071   4
  -9  -5  -1 15.8997 3.18751   4
  -5  14  -1 13.1936 2.95076   2
   5   9   0 2.53420 2.71764   2
   9   5   0 1.82330 2.34670   2
  -9  14   0 1.64026 2.10805   3
  -5  14   0-1.07287 2.26879   3
   9   5   0 0.18126 1.06525   5
  -5  14   0 0.46860 1.54115   1
   5   9   0 5.26452 2.93102   3
  14  -5   0 0.32541 0.29866   3
  -9  14   0-0.28983 2.97938   5
   9   5   0 1.06021 1.96630   3
  -5  14   0 4.49299 3.21404   5
   5   9   0-0.71439 1.93021   5
   9   5   0 0.03266 1.14135   5
  14  -5   0-0.44154 1.37931   5
  14  -9   0-0.88852 2.02728   5
   9 -14   0-0.65221 2.45981   5
   5 -14   0-0.41544 3.04796   5
   9 -14   0-0.74326 1.89164   3
   5 -14   0-0.31676 2.14384   3
   5 -14   0-0.77391 1.97972   2
   9 -14   0 2.09320 1.61973   2
  14  -5   0 0.75480 1.41287   5
  -5  -9   0-0.04429 2.41898   2
  -5  -9   0 1.11910 2.22794   5
  -5  -9   0 2.45571 2.52134   3
  -9  -5   0 2.17787 2.41246   2
  -9  -5   0-0.54966 2.31256   3
  -9  14   0-1.04648 2.21070   4
  -5  14   0-1.59201 2.63800   4
   5   9   0 0.88383 2.21099   1
   9   5   0 0.20509 2.07104   1
   5   9   0 2.22819 2.40768   4
   9   5   0-0.06173 1.88352   4
  14  -9   0 0.88736 1.08066   4
  14  -5   0-0.05977 0.52903   4
  -5  14   0 1.54137 1.64374   1
   9 -14   0 0.31114 2.26388   4
   9   5   0 5.83893 2.57569   1
   5   9   0-0.52994 2.23186   1
   5 -14   0-0.65806 2.40161   4
  -9  14   0-0.09614 1.59888   2
  -5  -9   0-0.85451 2.39941   4
  14  -9   0 1.10287 1.20606   4
  -9  -5   0 0.45303 2.09670   4
  -5  14   0-0.46166 2.17476   2
  14  -5   0 0.22896 1.17465   1
  14  -5   0 2.26778 1.15449   1
  14  -5   0 0.32084 0.43345   2
  14  -5   1 11.6033 1.64593   2
  14  -5   1 13.6381 1.78212   3
   5   9   1 14.3732 3.33673   1
   9   5   1 6.93976 2.80304   1
   5   9   1 13.7997 3.35840   2
  -9  14   1 9.05541 2.61623   3
   9   5   1 17.6448 3.28369   2
  14  -9   1 12.7679 1.57546   3
  -5  14   1 10.3059 2.78880   3
 -14   9   1 13.3382 2.55023   5
  -9  14   1 16.0102 3.72597   5
   5   9   1 12.8041 3.44280   3
  -5  14   1 17.5666 3.59462   5
   9   5   1 19.1604 3.41032   3
  14  -5   1 10.9480 2.16867   5
   5   9   1 17.2948 3.27722   5
  14  -9   1 12.3986 2.91463   5
   9   5   1 15.5311 2.63251   5
   9 -14   1 6.64083 1.97842   2
   9 -14   1 11.0632 2.55629   3
   9 -14   1 10.6785 3.29275   5
  14  -5   1 10.2177 1.63328   3
   5 -14   1 15.3619 3.56878   5
   5 -14   1 12.1026 2.81425   2
  14  -9   1 14.7088 1.70287   3
   5 -14   1 7.02784 2.89847   3
  -5  -9   1 13.2738 3.39642   2
  -5  -9   1 14.5512 3.59782   3
  -5  -9   1 14.7897 2.69687   5
  14  -5   1 9.43090 2.29290   5
  -9  -5   1 17.4717 3.55337   2
  -9  -5   1 10.7439 2.79511   3
  -5  14   1 12.7133 2.24289   1
  14  -9   1 15.9203 2.99196   5
   9   5   1 13.9990 3.47281   2
  -9  14   1 12.0900 2.87316   4
  14  -5   1 12.3207 1.82450   4
  -5  14   1 20.0493 2.77469   1
  14  -9   1 14.1605 2.18386   4
  -5  14   1 13.5545 3.35609   4
   9   5   1 21.3113 3.34850   4
  14  -5   1 11.8478 1.68554   2
   5   9   1 16.0224 3.62190   4
   5   9   1 11.3500 2.91013   1
   9   5   1 15.4679 3.14423   1
   9 -14   1 14.5396 3.27720   4
   5 -14   1 15.9369 3.51234   4
  14  -5   1 16.9989 1.85422   1
  14  -5   1 12.4138 2.07453   4
  14  -5   1 14.3931 1.90436   1
  -5  -9   1 13.4176 3.27591   4
  -9  14   1 15.1663 2.08499   2
  -9  -5   1 9.34723 2.53039   4
  14  -9   1 8.09870 2.08479   4
  -5  14   1 16.2578 3.10218   2
   0   0   0    0.00    0.00   0
 
TITL E5335_Na2Ca4 in P6(3)mc
REM P6(3)mc (#186 in standard setting)
CELL 0.71073  10.374022  10.374022   6.259352  90.0000  90.0000 120.0000
ZERR    2.00   0.000136   0.000136   0.000091   0.0000   0.0000   0.0000
LATT -1
SYMM -y, x-y, z
SYMM -x+y,-x, z
SYMM -x,-y, z+1/2
SYMM  y,-x+y, z+1/2
SYMM  x-y, x, z+1/2
SYMM -y,-x, z
SYMM -x+y, y, z
SYMM  x, x-y, z
SYMM  y, x, z+1/2
SYMM  x-y,-y, z+1/2
SYMM -x,-x+y, z+1/2
SFAC C O Na Ca
UNIT 10.00 30.00 4.00 8.00
TREF
HKLF 4
END
;
_shelx_hkl_checksum              96100
loop_
_space_group_symop_operation_xyz
'x, y, z'
'-y, x-y, z'
'-x+y, -x, z'
'-x, -y, z+1/2'
'y, -x+y, z+1/2'
'x-y, x, z+1/2'
'-y, -x, z'
'-x+y, y, z'
'x, x-y, z'
'y, x, z+1/2'
'x-y, -y, z+1/2'
'-x, -x+y, z+1/2'
loop_
_atom_site_label
_atom_site_type_symbol
_atom_site_fract_x
_atom_site_fract_y
_atom_site_fract_z
_atom_site_U_iso_or_equiv
_atom_site_adp_type
_atom_site_occupancy
_atom_site_site_symmetry_order
_atom_site_calc_flag
_atom_site_refinement_flags_posn
_atom_site_refinement_flags_adp
_atom_site_refinement_flags_occupancy
_atom_site_disorder_assembly
_atom_site_disorder_group
Na1 Na 0.47699(5) 0.52301(5) 0.84198(18) 0.0142(2) Uani 0.6667 2 d S T P . .
Ca1 Ca 0.47699(5) 0.52301(5) 0.84198(18) 0.0142(2) Uani 0.3333 2 d S T P . .
Ca2 Ca 0.69199(7) 0.84599(4) 0.53142(13) 0.01567(16) Uani 1 2 d S T P . .
C1 C 1.000000 1.000000 0.3623(9) 0.0110(9) Uani 1 6 d S T P . .
O1 O 0.8579(3) 0.92895(13) 0.8661(4) 0.0209(5) Uani 1 2 d S T P . .
C2 C 0.6045(3) 0.80223(17) 0.0674(5) 0.0099(6) Uani 1 2 d S T P . .
O2 O 0.5511(3) 0.77555(14) 0.8792(4) 0.0163(5) Uani 1 2 d S T P . .
O3 O 0.7085(2) 1.07707(19) 0.6632(3) 0.0185(4) Uani 1 1 d . . . . .
C3 C 0.333333 0.666667 0.5079(9) 0.0117(10) Uani 1 6 d S T P . .
O4 O 0.40441(15) 0.59559(15) 0.5101(5) 0.0298(7) Uani 1 2 d S T P . .
loop_
_atom_site_aniso_label
_atom_site_aniso_U_11
_atom_site_aniso_U_22
_atom_site_aniso_U_33
_atom_site_aniso_U_23
_atom_site_aniso_U_13
_atom_site_aniso_U_12
Na1 0.0111(3) 0.0111(3) 0.0186(4) 0.0007(2) -0.0007(2) 0.0041(4)
Ca1 0.0111(3) 0.0111(3) 0.0186(4) 0.0007(2) -0.0007(2) 0.0041(4)
Ca2 0.0178(3) 0.0145(2) 0.0158(3) 0.00065(17) 0.0013(3) 0.00888(15)
C1 0.0139(14) 0.0139(14) 0.005(2) 0.000 0.000 0.0069(7)
O1 0.0113(11) 0.0224(10) 0.0254(13) 0.0014(5) 0.0028(10) 0.0056(6)
C2 0.0066(12) 0.0095(9) 0.0127(17) 0.0017(5) 0.0034(10) 0.0033(6)
O2 0.0154(11) 0.0177(8) 0.0151(11) -0.0018(5) -0.0035(9) 0.0077(5)
O3 0.0204(9) 0.0150(8) 0.0200(9) 0.0039(7) 0.0070(7) 0.0088(7)
C3 0.0134(13) 0.0134(13) 0.008(3) 0.000 0.000 0.0067(7)
O4 0.0461(14) 0.0461(14) 0.0179(13) -0.0018(6) 0.0018(6) 0.0387(15)
loop_
_atom_type_symbol
_atom_type_description
_atom_type_scat_dispersion_real
_atom_type_scat_dispersion_imag
_atom_type_scat_source
C C 0.0033 0.0016 'International Tables Vol C Tables 4.2.6.8 and 6.1.1.4'
O O 0.0106 0.0060 'International Tables Vol C Tables 4.2.6.8 and 6.1.1.4'
Na Na 0.0362 0.0249 'International Tables Vol C Tables 4.2.6.8 and 6.1.1.4'
Ca Ca 0.2262 0.3064 'International Tables Vol C Tables 4.2.6.8 and 6.1.1.4'
loop_
_geom_angle_atom_site_label_1
_geom_angle_atom_site_label_2
_geom_angle_atom_site_label_3
_geom_angle
_geom_angle_site_symmetry_1
_geom_angle_site_symmetry_3
O2 Ca1 O2 92.58(12) . 3_565
O2 Ca1 O3 155.01(9) . 3_565
O2 Ca1 O3 80.08(8) 3_565 3_565
O2 Ca1 O3 80.08(8) . 9_565
O2 Ca1 O3 155.01(9) 3_565 9_565
O3 Ca1 O3 96.52(10) 3_565 9_565
O2 Ca1 O4 124.69(7) . 4_665
O2 Ca1 O4 124.69(7) 3_565 4_665
O3 Ca1 O4 77.88(7) 3_565 4_665
O3 Ca1 O4 77.88(7) 9_565 4_665
O2 Ca1 O4 73.77(8) . .
O2 Ca1 O4 73.77(8) 3_565 .
O3 Ca1 O4 81.24(7) 3_565 .
O3 Ca1 O4 81.24(7) 9_565 .
O4 Ca1 O4 148.39(12) 4_665 .
O2 Ca1 O3 51.73(7) . 6_655
O2 Ca1 O3 109.20(9) 3_565 6_655
O3 Ca1 O3 153.13(7) 3_565 6_655
O3 Ca1 O3 85.02(6) 9_565 6_655
O4 Ca1 O3 76.23(7) 4_665 6_655
O4 Ca1 O3 125.32(6) . 6_655
O2 Ca1 O3 109.20(9) . 12_655
O2 Ca1 O3 51.73(7) 3_565 12_655
O3 Ca1 O3 85.02(6) 3_565 12_655
O3 Ca1 O3 153.13(7) 9_565 12_655
O4 Ca1 O3 76.23(7) 4_665 12_655
O4 Ca1 O3 125.32(6) . 12_655
O3 Ca1 O3 81.97(8) 6_655 12_655
O2 Ca1 C2 25.64(8) . 1_556
O2 Ca1 C2 99.04(9) 3_565 1_556
O3 Ca1 C2 178.73(9) 3_565 1_556
O3 Ca1 C2 84.66(7) 9_565 1_556
O4 Ca1 C2 101.97(7) 4_665 1_556
O4 Ca1 C2 99.40(7) . 1_556
O3 Ca1 C2 26.41(6) 6_655 1_556
O3 Ca1 C2 93.72(8) 12_655 1_556
O2 Ca1 C2 99.04(9) . 3_566
O2 Ca1 C2 25.64(8) 3_565 3_566
O3 Ca1 C2 84.66(7) 3_565 3_566
O3 Ca1 C2 178.73(9) 9_565 3_566
O4 Ca1 C2 101.97(7) 4_665 3_566
O4 Ca1 C2 99.40(7) . 3_566
O3 Ca1 C2 93.72(8) 6_655 3_566
O3 Ca1 C2 26.41(6) 12_655 3_566
C2 Ca1 C2 94.15(12) 1_556 3_566
O2 Ca1 Na1 94.51(7) . 4_665
O2 Ca1 Na1 94.51(7) 3_565 4_665
O3 Ca1 Na1 109.77(6) 3_565 4_665
O3 Ca1 Na1 109.77(6) 9_565 4_665
O4 Ca1 Na1 48.92(8) 4_665 4_665
O4 Ca1 Na1 162.68(9) . 4_665
O3 Ca1 Na1 45.86(4) 6_655 4_665
O3 Ca1 Na1 45.86(4) 12_655 4_665
C2 Ca1 Na1 69.35(5) 1_556 4_665
C2 Ca1 Na1 69.35(5) 3_566 4_665
O2 Ca1 Na1 105.71(7) . 4_664
O2 Ca1 Na1 105.71(7) 3_565 4_664
O3 Ca1 Na1 54.74(6) 3_565 4_664
O3 Ca1 Na1 54.74(6) 9_565 4_664
O4 Ca1 Na1 101.48(9) 4_665 4_664
O4 Ca1 Na1 46.92(7) . 4_664
O3 Ca1 Na1 138.54(4) 6_655 4_664
O3 Ca1 Na1 138.54(4) 12_655 4_664
C2 Ca1 Na1 126.47(6) 1_556 4_664
C2 Ca1 Na1 126.47(6) 3_566 4_664
Na1 Ca1 Na1 150.40(7) 4_665 4_664
O3 Ca2 O3 140.14(9) . 9_565
O3 Ca2 O2 74.95(5) . .
O3 Ca2 O2 74.95(5) 9_565 .
O3 Ca2 O1 72.04(5) . .
O3 Ca2 O1 72.04(5) 9_565 .
O2 Ca2 O1 65.61(8) . .
O3 Ca2 O1 71.68(7) . 5_564
O3 Ca2 O1 118.78(7) 9_565 5_564
O2 Ca2 O1 138.77(7) . 5_564
O1 Ca2 O1 81.39(6) . 5_564
O3 Ca2 O1 118.78(7) . 6_654
O3 Ca2 O1 71.68(7) 9_565 6_654
O2 Ca2 O1 138.77(7) . 6_654
O1 Ca2 O1 81.39(6) . 6_654
O1 Ca2 O1 50.07(10) 5_564 6_654
O3 Ca2 O3 135.05(7) . 6_654
O3 Ca2 O3 84.75(5) 9_565 6_654
O2 Ca2 O3 131.08(6) . 6_654
O1 Ca2 O3 146.96(5) . 6_654
O1 Ca2 O3 90.01(7) 5_564 6_654
O1 Ca2 O3 68.93(7) 6_654 6_654
O3 Ca2 O3 84.75(5) . 11_674
O3 Ca2 O3 135.05(7) 9_565 11_674
O2 Ca2 O3 131.08(6) . 11_674
O1 Ca2 O3 146.96(5) . 11_674
O1 Ca2 O3 68.93(7) 5_564 11_674
O1 Ca2 O3 90.01(7) 6_654 11_674
O3 Ca2 O3 50.31(8) 6_654 11_674
O3 Ca2 O4 116.17(8) . .
O3 Ca2 O4 72.66(7) 9_565 .
O2 Ca2 O4 65.13(8) . .
O1 Ca2 O4 124.82(9) . .
O1 Ca2 O4 153.61(9) 5_564 .
O1 Ca2 O4 124.27(8) 6_654 .
O3 Ca2 O4 66.44(8) 6_654 .
O3 Ca2 O4 86.24(7) 11_674 .
O3 Ca2 O4 72.66(7) . 2_665
O3 Ca2 O4 116.17(8) 9_565 2_665
O2 Ca2 O4 65.13(8) . 2_665
O1 Ca2 O4 124.82(9) . 2_665
O1 Ca2 O4 124.27(8) 5_564 2_665
O1 Ca2 O4 153.61(9) 6_654 2_665
O3 Ca2 O4 86.24(7) 6_654 2_665
O3 Ca2 O4 66.44(8) 11_674 2_665
O4 Ca2 O4 46.30(11) . 2_665
O3 Ca2 C1 93.63(6) . .
O3 Ca2 C1 93.63(6) 9_565 .
O2 Ca2 C1 141.11(12) . .
O1 Ca2 C1 75.50(12) . .
O1 Ca2 C1 25.50(6) 5_564 .
O1 Ca2 C1 25.50(6) 6_654 .
O3 Ca2 C1 83.07(10) 6_654 .
O3 Ca2 C1 83.07(10) 11_674 .
O4 Ca2 C1 147.21(9) . .
O4 Ca2 C1 147.21(9) 2_665 .
O3 Ca2 C2 109.85(5) . .
O3 Ca2 C2 109.85(5) 9_565 .
O2 Ca2 C2 134.67(8) . .
O1 Ca2 C2 159.71(8) . .
O1 Ca2 C2 80.25(8) 5_564 .
O1 Ca2 C2 80.25(8) 6_654 .
O3 Ca2 C2 25.22(4) 6_654 .
O3 Ca2 C2 25.22(4) 11_674 .
O4 Ca2 C2 73.39(8) . .
O4 Ca2 C2 73.39(8) 2_665 .
C1 Ca2 C2 84.21(11) . .
O1 C1 O1 119.966(19) 4_774 6_654
O1 C1 O1 119.97(2) 4_774 5_564
O1 C1 O1 119.97(2) 6_654 5_564
O1 C1 Ca2 158.0(4) 4_774 .
O1 C1 Ca2 61.73(10) 6_654 .
O1 C1 Ca2 61.73(10) 5_564 .
O1 C1 Ca2 61.73(10) 4_774 3_675
O1 C1 Ca2 158.0(4) 6_654 3_675
O1 C1 Ca2 61.73(10) 5_564 3_675
Ca2 C1 Ca2 107.97(10) . 3_675
O1 C1 Ca2 61.73(10) 4_774 2_765
O1 C1 Ca2 61.74(10) 6_654 2_765
O1 C1 Ca2 158.0(4) 5_564 2_765
Ca2 C1 Ca2 107.97(10) . 2_765
Ca2 C1 Ca2 107.97(10) 3_675 2_765
C1 O1 Ca2 124.4(3) 4_775 .
C1 O1 Ca2 92.77(12) 4_775 6_655
Ca2 O1 Ca2 107.40(6) . 6_655
C1 O1 Ca2 92.77(12) 4_775 5_565
Ca2 O1 Ca2 107.40(6) . 5_565
Ca2 O1 Ca2 133.06(12) 6_655 5_565
O2 C2 O3 120.18(15) 1_554 6_654
O2 C2 O3 120.18(15) 1_554 11_674
O3 C2 O3 119.6(3) 6_654 11_674
O2 C2 Na1 52.88(6) 1_554 2_664
O3 C2 Na1 166.9(2) 6_654 2_664
O3 C2 Na1 68.43(12) 11_674 2_664
O2 C2 Na1 52.88(6) 1_554 1_554
O3 C2 Na1 68.44(12) 6_654 1_554
O3 C2 Na1 166.9(2) 11_674 1_554
Na1 C2 Na1 101.78(10) 2_664 1_554
O2 C2 Ca2 173.0(2) 1_554 .
O3 C2 Ca2 60.06(15) 6_654 .
O3 C2 Ca2 60.06(15) 11_674 .
Na1 C2 Ca2 125.22(6) 2_664 .
Na1 C2 Ca2 125.22(6) 1_554 .
C2 O2 Na1 101.48(8) 1_556 2_665
C2 O2 Ca1 101.48(8) 1_556 .
Na1 O2 Ca1 144.97(12) 2_665 .
C2 O2 Ca2 127.7(2) 1_556 .
Na1 O2 Ca2 93.26(7) 2_665 .
Ca1 O2 Ca2 93.26(7) . .
C2 O3 Na1 144.66(18) 5_565 2_665
C2 O3 Ca2 116.31(17) 5_565 .
Na1 O3 Ca2 94.32(7) 2_665 .
C2 O3 Ca2 94.72(15) 5_565 5_565
Na1 O3 Ca2 89.96(7) 2_665 5_565
Ca2 O3 Ca2 110.78(7) . 5_565
C2 O3 Na1 85.15(15) 5_565 5_564
Na1 O3 Na1 79.40(6) 2_665 5_564
Ca2 O3 Na1 86.30(6) . 5_564
Ca2 O3 Na1 160.66(8) 5_565 5_564
O4 C3 O4 119.989(12) 3_565 2_665
O4 C3 O4 119.989(13) 3_565 .
O4 C3 O4 119.989(14) 2_665 .
O4 C3 Ca2 60.004(14) 3_565 2_665
O4 C3 Ca2 60.004(14) 2_665 2_665
O4 C3 Ca2 176.8(4) . 2_665
O4 C3 Ca2 60.004(14) 3_565 3_565
O4 C3 Ca2 176.8(4) 2_665 3_565
O4 C3 Ca2 60.004(14) . 3_565
Ca2 C3 Ca2 119.794(17) 2_665 3_565
O4 C3 Ca2 176.8(4) 3_565 .
O4 C3 Ca2 60.004(14) 2_665 .
O4 C3 Ca2 60.004(14) . .
Ca2 C3 Ca2 119.794(17) 2_665 .
Ca2 C3 Ca2 119.794(17) 3_565 .
C3 O4 Na1 153.1(4) . 4_664
C3 O4 Ca1 122.7(3) . .
Na1 O4 Ca1 84.16(9) 4_664 .
C3 O4 Ca2 96.84(6) . 3_565
Na1 O4 Ca2 85.10(6) 4_664 3_565
Ca1 O4 Ca2 84.07(6) . 3_565
C3 O4 Ca2 96.85(6) . .
Na1 O4 Ca2 85.10(6) 4_664 .
Ca1 O4 Ca2 84.07(6) . .
Ca2 O4 Ca2 165.31(11) 3_565 .
loop_
_geom_bond_atom_site_label_1
_geom_bond_atom_site_label_2
_geom_bond_distance
_geom_bond_site_symmetry_2
Ca1 O2 2.3440(10) .
Ca1 O2 2.3440(10) 3_565
Ca1 O3 2.3635(19) 3_565
Ca1 O3 2.3635(19) 9_565
Ca1 O4 2.377(3) 4_665
Ca1 O4 2.453(3) .
Ca1 O3 2.689(2) 6_655
Ca1 O3 2.689(2) 12_655
Ca1 C2 2.881(2) 1_556
Ca1 C2 2.881(2) 3_566
Ca2 O3 2.4586(18) .
Ca2 O3 2.4586(18) 9_565
Ca2 O2 2.518(3) .
Ca2 O1 2.571(3) .
Ca2 O1 2.6126(13) 5_564
Ca2 O1 2.6126(13) 6_654
Ca2 O3 2.616(2) 6_654
Ca2 O3 2.616(2) 11_674
Ca2 O4 2.8136(7) .
Ca2 O4 2.8136(7) 2_665
Ca2 C1 2.963(2) .
Ca2 C2 3.009(3) .
C1 O1 1.277(2) 4_774
C1 O1 1.277(2) 6_654
C1 O1 1.277(2) 5_564
C2 O2 1.272(4) 1_554
C2 O3 1.286(2) 6_654
C2 O3 1.286(2) 11_674
C3 O4 1.277(3) 3_565
C3 O4 1.277(3) 2_665
C3 O4 1.277(3) .
