#------------------------------------------------------------------------------
#$Date: 2020-09-22 13:29:47 +0300 (Tue, 22 Sep 2020) $
#$Revision: 256620 $
#$URL: file:///home/coder/svn-repositories/cod/cif/4/51/46/4514616.cif $
#------------------------------------------------------------------------------
#
# This file is available in the Crystallography Open Database (COD),
# http://www.crystallography.net/
#
# All data on this site have been placed in the public domain by the
# contributors.
#
data_4514616
loop_
_publ_author_name
'Agasti, Soumitra'
'Mondal, Bhaskar'
'Achar, Tapas Kumar'
'Sinha, Soumya Kumar'
'Sarala Suseelan, Anjana'
'Szabo, Kalman J.'
'Schoenebeck, Franziska'
'Maiti, Debabrata'
_publ_section_title
;
 Orthogonal Selectivity in C--H Olefination: Synthesis of Branched
 Vinylarene with Unactivated Aliphatic Substitution
;
_journal_issue                   10
_journal_name_full               'ACS Catalysis'
_journal_page_first              9606
_journal_paper_doi               10.1021/acscatal.9b03019
_journal_volume                  9
_journal_year                    2019
_chemical_formula_moiety         'C23 N3 O Pd'
_chemical_formula_sum            'C23 N3 O Pd'
_chemical_formula_weight         440.65
_space_group_crystal_system      triclinic
_space_group_IT_number           2
_space_group_name_Hall           '-P 1'
_space_group_name_H-M_alt        'P -1'
_symmetry_space_group_name_Hall  '-P 1'
_symmetry_space_group_name_H-M   'P -1'
_audit_creation_date             2018-12-05
_audit_creation_method
;
Olex2 1.2
(compiled 2015.01.26 svn.r3150 for OlexSys, GUI svn.r4998)
;
_cell_angle_alpha                105.639(2)
_cell_angle_beta                 103.125(2)
_cell_angle_gamma                104.695(3)
_cell_formula_units_Z            2
_cell_length_a                   9.6348(3)
_cell_length_b                   10.7198(3)
_cell_length_c                   11.5837(3)
_cell_measurement_reflns_used    8947
_cell_measurement_temperature    150
_cell_measurement_theta_max      31.2560
_cell_measurement_theta_min      2.2880
_cell_volume                     1056.88(6)
_computing_cell_refinement
;
CrystalClear-SM Expert 2.0 r7 (Rigaku, 2011)
;
_computing_data_collection
;
CrystalClear-SM Expert 2.0 r7 (Rigaku, 2011)
;
_computing_data_reduction
;
CrystalClear-SM Expert 2.0 r7 (Rigaku, 2011)
;
_computing_molecular_graphics    'Olex2 (Dolomanov et al., 2009)'
_computing_publication_material  'Olex2 (Dolomanov et al., 2009)'
_computing_structure_refinement  'ShelXL (Sheldrick, 2008)'
_diffrn_ambient_temperature      150
_diffrn_detector                 CCD
_diffrn_detector_area_resol_mean 28.5714
_diffrn_detector_type            'Rigaku Saturn724+'
_diffrn_measured_fraction_theta_full 0.994
_diffrn_measured_fraction_theta_max 0.994
_diffrn_measurement_details
;
List of Runs (angles in degrees, time in seconds):

  # Type    Start    End  Width  t~exp~   \w     \q     \k     \f   Frames
--------------------------------------------------------------------------
  1  \w   -110.00  70.00   0.50    8.00    --  -20.00   0.00-180.00  360
  2  \w    -99.00  19.00   0.50    8.00    --  -20.00 -72.00-108.00  236
  3  \w   -106.50  19.00   0.50    8.00    --  -20.00 -72.00  36.00  251
  4  \w    -41.50 -33.50   0.50    8.00    --  -20.00  72.00-180.00   16
;
_diffrn_measurement_device       'AFC12 (Right): Kappa 3 circle'
_diffrn_measurement_device_type  'Rigaku Saturn724+ (2x2 bin mode)'
_diffrn_measurement_method       'profile data from \w-scans'
_diffrn_measurement_specimen_support 'Mitegen 50um'
_diffrn_orient_matrix_type
'CrysAlisPro convention (1999,Acta A55,543-557)'
_diffrn_orient_matrix_UB_11      -0.0496934000
_diffrn_orient_matrix_UB_12      0.0305551000
_diffrn_orient_matrix_UB_13      0.0237634000
_diffrn_orient_matrix_UB_21      -0.0503803000
_diffrn_orient_matrix_UB_22      -0.0222889000
_diffrn_orient_matrix_UB_23      -0.0623395000
_diffrn_orient_matrix_UB_31      -0.0378530000
_diffrn_orient_matrix_UB_32      -0.0623756000
_diffrn_orient_matrix_UB_33      0.0066829000
_diffrn_radiation_collimation    0.3
_diffrn_radiation_monochromator  Confocal
_diffrn_radiation_probe          x-ray
_diffrn_radiation_type           MoK\a
_diffrn_radiation_wavelength     0.71073
_diffrn_reflns_av_R_equivalents  0.0630
_diffrn_reflns_av_unetI/netI     0.0496
_diffrn_reflns_Laue_measured_fraction_full 0.994
_diffrn_reflns_Laue_measured_fraction_max 0.994
_diffrn_reflns_limit_h_max       11
_diffrn_reflns_limit_h_min       -11
_diffrn_reflns_limit_k_max       12
_diffrn_reflns_limit_k_min       -12
_diffrn_reflns_limit_l_max       11
_diffrn_reflns_limit_l_min       -13
_diffrn_reflns_number            8831
_diffrn_reflns_point_group_measured_fraction_full 0.994
_diffrn_reflns_point_group_measured_fraction_max 0.994
_diffrn_reflns_theta_full        25.000
_diffrn_reflns_theta_max         25.000
_diffrn_reflns_theta_min         1.925
_diffrn_source                   'Rotating Anode'
_diffrn_source_current           24.0
_diffrn_source_power             1.2
_diffrn_source_target            Mo
_diffrn_source_type              'Rotating Anode'
_diffrn_source_voltage           50.0
_exptl_absorpt_coefficient_mu    0.892
_exptl_absorpt_correction_T_max  1.00000
_exptl_absorpt_correction_T_min  0.75479
_exptl_absorpt_correction_type   multi-scan
_exptl_absorpt_process_details
;
CrysAlisPro 1.171.39.46 (Rigaku Oxford Diffraction, 2018)
Empirical absorption correction using spherical harmonics,
 implemented in SCALE3 ABSPACK scaling algorithm.
;
_exptl_crystal_colour            'clear light yellow'
_exptl_crystal_colour_lustre     clear
_exptl_crystal_colour_modifier   light
_exptl_crystal_colour_primary    yellow
_exptl_crystal_density_diffrn    1.385
_exptl_crystal_description       block
_exptl_crystal_F_000             426
_exptl_crystal_size_max          0.118
_exptl_crystal_size_mid          0.094
_exptl_crystal_size_min          0.09
_refine_diff_density_max         1.136
_refine_diff_density_min         -1.134
_refine_diff_density_rms         0.257
_refine_ls_extinction_method     none
_refine_ls_goodness_of_fit_ref   1.224
_refine_ls_hydrogen_treatment    undef
_refine_ls_matrix_type           full
_refine_ls_number_parameters     253
_refine_ls_number_reflns         3701
_refine_ls_number_restraints     0
_refine_ls_restrained_S_all      1.224
_refine_ls_R_factor_all          0.0505
_refine_ls_R_factor_gt           0.0426
_refine_ls_shift/su_max          0.001
_refine_ls_shift/su_mean         0.000
_refine_ls_structure_factor_coef Fsqd
_refine_ls_weighting_details
'w=1/[\s^2^(Fo^2^)+(0.0735P)^2^+2.4003P] where P=(Fo^2^+2Fc^2^)/3'
_refine_ls_weighting_scheme      calc
_refine_ls_wR_factor_gt          0.1244
_refine_ls_wR_factor_ref         0.1391
_reflns_Friedel_coverage         0.000
_reflns_number_gt                3443
_reflns_number_total             3701
_reflns_threshold_expression     'I > 2\s(I)'
_cod_data_source_file            cs9b03019_si_004.cif
_cod_data_source_block           dm-aj-53_mo_sq
_cod_depositor_comments
;

2020-09-22
Z value and formula fixed to values more according to usual
chemical conventions.                 miguel
;
_cod_original_formula_weight         176.26
_cod_original_formula_moiety         '0.4(C23 N3 O Pd)'
_cod_original_formula_units_Z            5
_cod_original_cell_volume        1056.87(6)
_cod_original_formula_sum        'C9.20 N1.20 O0.40 Pd0.40'
_cod_database_code               4514616
_shelx_space_group_comment
;
The symmetry employed for this shelxl refinement is uniquely defined
by the following loop, which should always be used as a source of
symmetry information in preference to the above space-group names.
They are only intended as comments.
;
_reflns_odcompleteness_completeness 87.98
_reflns_odcompleteness_iscentric 1
_reflns_odcompleteness_theta     31.03
_olex2_refinement_description
;
;
_shelx_res_file
;
    dm-aj-53_mo_sq.res created by SHELXL-2014/7

TITL dm-aj-53_mo_a.res in P-1
REM Old TITL DM-AJ-53_Mo in P1
REM SHELXT solution in P-1
REM R1 0.248, Rweak 0.054, Alpha 0.099, Orientation as input
REM Formula found by SHELXT: C26 N8 O2 I
CELL 0.71073 9.634821 10.719789 11.583733 105.6389 103.1255 104.6952
ZERR 5 0.000284 0.000339 0.00027 0.0024 0.0022 0.0026
LATT 1
SFAC C N O Pd
UNIT 46 6 2 2

L.S. 5 0 34
PLAN  20
BOND $H
list 4
ABIN
MORE -1
CONF
fmap 2
acta
OMIT -3 50
REM <olex2.extras>
REM <HklSrc "%.\\dm-aj-53_mo_sq.hkl">
REM </olex2.extras>

WGHT    0.073500    2.400300
FVAR       3.42012
PD00  4    0.391004    0.662470    0.446909    11.00000    0.01841    0.02072 =
         0.01216    0.00662    0.00401    0.00569
C002  1    0.242861    0.364464    0.398763    11.00000    0.01668    0.02877 =
         0.02883    0.01666    0.00923    0.01055
O003  3    0.404567    0.666509    0.092491    11.00000    0.05050    0.06419 =
         0.01805    0.01827    0.00608   -0.01502
C004  1    0.262993    0.467206    0.344400    11.00000    0.01507    0.02319 =
         0.01936    0.01049    0.00611    0.00834
C006  1    0.212707    0.539169    0.152857    11.00000    0.02703    0.02183 =
         0.01675    0.00825   -0.00085    0.00045
C008  1    0.163033    0.228527    0.324369    11.00000    0.02047    0.02752 =
         0.04126    0.01989    0.00930    0.00865
N009  2    0.549494    0.862310    0.538939    11.00000    0.02426    0.02248 =
         0.01692    0.00627    0.00076    0.01080
C00A  1    0.427961    0.639025    0.701366    11.00000    0.02954    0.06053 =
         0.01928    0.01820    0.00858    0.02107
C00B  1    0.200110    0.428453    0.212729    11.00000    0.01703    0.02243 =
         0.01820    0.00688    0.00628    0.00587
C00C  1    0.853345    1.044623    0.435815    11.00000    0.02953    0.03310 =
         0.04593    0.02152    0.00471    0.00213
N00D  2    0.461010    0.691421    0.301912    11.00000    0.01917    0.02315 =
         0.01685    0.00884    0.00406    0.00249
C00E  1    0.372499    0.635704    0.179478    11.00000    0.03204    0.02238 =
         0.01729    0.00839    0.00607    0.00376
C00F  1    0.388871    0.622367    0.804790    11.00000    0.03879    0.09006 =
         0.02365    0.02915    0.01325    0.03146
C00G  1    0.583725    0.948078    0.656060    11.00000    0.03010    0.02552 =
         0.02152    0.00181   -0.00061    0.01314
C00H  1    0.142192    0.617810    0.704050    11.00000    0.02979    0.08547 =
         0.03309    0.02800    0.01874    0.02498
N00I  2    0.328490    0.643199    0.600565    11.00000    0.02037    0.03159 =
         0.01653    0.00876    0.00635    0.01250
C00J  1    0.798254    1.105156    0.641181    11.00000    0.03380    0.01886 =
         0.03624    0.00540   -0.00272    0.00876
C00K  1    0.765331    1.016779    0.513748    11.00000    0.02437    0.02354 =
         0.03191    0.01183   -0.00277    0.00557
C00L  1    0.685428    0.831365    0.266775    11.00000    0.03033    0.04132 =
         0.03139    0.01797    0.01143    0.00433
C00M  1    0.101081    0.191777    0.193724    11.00000    0.03312    0.02265 =
         0.03539    0.01230    0.00907    0.00889
C00N  1    0.707198    1.070151    0.710212    11.00000    0.03822    0.02671 =
         0.03026    0.00124   -0.00499    0.01597
C00O  1    0.813522    0.952937    0.314955    11.00000    0.03570    0.04324 =
         0.03791    0.02145    0.01090    0.00344
C00P  1    0.120200    0.291540    0.137227    11.00000    0.02711    0.02237 =
         0.02054    0.00495    0.00512    0.00831
C00Q  1    0.243997    0.611409    0.807450    11.00000    0.03798    0.10102 =
         0.03011    0.03367    0.02034    0.02612
C00R  1    0.187528    0.633093    0.603259    11.00000    0.02318    0.04655 =
         0.02391    0.01277    0.00939    0.01523
C00S  1    0.048951    0.246310   -0.006260    11.00000    0.06168    0.02417 =
         0.02201    0.00085   -0.00280    0.00214
C00U  1    0.637539    0.895350    0.467171    11.00000    0.02265    0.02212 =
         0.02347    0.01044    0.00277    0.00874
C00V  1    0.594739    0.801855    0.340057    11.00000    0.03045    0.02150 =
         0.02133    0.01087    0.00480    0.00738
HKLF 4

REM  dm-aj-53_mo_a.res in P-1
REM R1 =  0.0426 for    3443 Fo > 4sig(Fo)  and  0.0505 for all    3701 data
REM    253 parameters refined using      0 restraints

END

WGHT      0.0735      2.4001

REM Highest difference peak  1.136,  deepest hole -1.134,  1-sigma level  0.257
Q1    1   0.1663  0.5045  0.0613  11.00000  0.05    1.14
Q2    1   0.0444  0.0950  0.1435  11.00000  0.05    1.00
Q3    1   0.1468  0.1576  0.3634  11.00000  0.05    0.97
Q4    1   0.2175  0.5959  0.8865  11.00000  0.05    0.94
Q5    1   0.1209  0.6412  0.5327  11.00000  0.05    0.89
Q6    1   0.6636  0.7724  0.1792  11.00000  0.05    0.89
Q7    1   0.0384  0.6093  0.7000  11.00000  0.05    0.87
Q8    1   0.0097  0.1540 -0.0444  11.00000  0.05    0.85
Q9    1  -0.0102  0.2979 -0.0194  11.00000  0.05    0.83
Q10   1   0.4528  0.6080  0.8734  11.00000  0.05    0.83
Q11   1   0.2895  0.3802  0.4950  11.00000  0.05    0.79
Q12   1   0.1473  0.5968  0.1765  11.00000  0.05    0.78
Q13   1   0.7194  1.1297  0.7913  11.00000  0.05    0.76
Q14   1   0.1273  0.2637 -0.0410  11.00000  0.05    0.76
Q15   1   0.8844  0.9642  0.2553  11.00000  0.05    0.76
Q16   1   0.2951  0.6735  0.0825  11.00000  0.05    0.69
Q17   1   0.3635  0.6829  0.0797  11.00000  0.05    0.69
Q18   1   0.2898  0.6155 -0.0171  11.00000  0.05    0.67
Q19   1   0.1295  0.1876  0.2398  11.00000  0.05    0.67
Q20   1   0.9491  1.1238  0.4650  11.00000  0.05    0.66
;
_shelx_res_checksum              41998
_shelx_hkl_file
;
 -13   0   1 1885.05 396.942   1
 -13   0   2 840.240 314.080   1
 -13   0   3-91.6470 132.368   1
 -13   0   4 70.0680 129.614   1
 -13   0   5 1099.44 299.330   1
 -13   0   6 3174.94 466.278   1
 -13   1   1 4074.56 557.845   1
 -13   1   2 2958.32 486.930   1
 -13   1   3 4883.55 604.288   1
 -13   1   4 2444.44 420.989   1
 -13   1   5 388.867 184.131   1
 -13   1   6 51.1403 90.7538   1
 -13   2   1 286.176 178.825   1
 -13   2   2 2939.14 475.344   1
 -13   2   3 3184.46 485.971   1
 -13   2   4 3510.30 504.616   1
 -13   2   5 1220.06 299.463   1
 -13   2   6 2536.67 435.698   1
 -13   3   0 3148.83 513.898   1
 -13   3   1 950.558 298.437   1
 -13   3   2 50.2473 149.204   1
 -13   3   3 138.394 127.578   1
 -13   3   4 390.331 209.473   1
 -13   3   5 2182.74 388.347   1
 -13   3   6 2274.32 406.019   1
 -13   4   1 4244.56 591.020   1
 -13   4   2 3120.51 506.904   1
 -13   4   3 4320.21 569.033   1
 -13   4   4 1019.57 297.186   1
 -13   4   5-21.6252 138.674   1
 -13   4   6-25.0742 111.834   1
 -13   5   1 1763.19 386.543   1
 -13   5   2 2176.74 431.009   1
 -13   5   3 2743.06 476.398   1
 -13   5   4 2839.35 468.631   1
 -13   5   5 4457.81 601.100   1
 -13   6   3 157.506 163.298   1
 -12  -1  -1 451.242 206.673   1
 -12  -1   0 1379.36 313.609   1
 -12  -1   1 4244.75 531.478   1
 -12  -1   2 7937.82 717.513   1
 -12  -1   3 7686.73 689.949   1
 -12  -1   4 3254.65 441.962   1
 -12  -1   5 1783.08 331.379   1
 -12  -1   6 223.872 137.511   1
 -12   0  -2 1905.36 387.941   1
 -12   0  -1 361.670 191.086   1
 -12   0   0 655.238 220.366   1
 -12   0   1-55.6184 87.3336   1
 -12   0   2 472.296 180.516   1
 -12   0   3 1236.50 295.932   1
 -12   0   4 1042.19 262.701   1
 -12   0   5 4533.34 521.191   1
 -12   0   6 4687.32 535.718   1
 -12   1  -2 1588.04 358.117   1
 -12   1  -1 1128.20 288.329   1
 -12   1   0 3801.25 487.671   1
 -12   1   1 4137.15 522.333   1
 -12   1   2 2623.03 416.387   1
 -12   1   3 2300.77 399.654   1
 -12   1   4-10.1526 94.4017   1
 -12   1   5 652.511 197.188   1
 -12   1   6 934.552 241.946   1
 -12   2  -2 901.097 264.161   1
 -12   2  -1 241.361 157.915   1
 -12   2   0 2366.38 394.558   1
 -12   2   1 2860.40 437.637   1
 -12   2   2 3883.65 513.292   1
 -12   2   3 5089.73 580.219   1
 -12   2   4 5891.06 611.681   1
 -12   2   5 2498.96 405.890   1
 -12   2   6 656.090 216.921   1
 -12   3  -2 4671.36 597.585   1
 -12   3  -1 1399.67 316.083   1
 -12   3   0 88.7105 126.050   1
 -12   3   1 2074.81 389.496   1
 -12   3   2 3538.91 500.785   1
 -12   3   3 5777.18 627.028   1
 -12   3   4 2927.00 438.580   1
 -12   3   5 3047.10 440.711   1
 -12   3   6 4394.31 538.401   1
 -12   4  -3 4658.32 626.316   1
 -12   4  -2 3496.16 528.915   1
 -12   4  -1 5082.03 596.187   1
 -12   4   0 5142.31 617.975   1
 -12   4   1 8067.57 767.284   1
 -12   4   2 2967.84 473.447   1
 -12   4   3 35.6251 81.7847   1
 -12   4   4-103.435 127.588   1
 -12   4   5-10.8969 79.1263   1
 -12   4   6 1245.60 289.582   1
 -12   5  -3 259.003 232.544   1
 -12   5  -2 672.547 249.146   1
 -12   5  -1 122.711 151.054   1
 -12   5   0-29.2942 99.7878   1
 -12   5   1 3482.93 509.218   1
 -12   5   2 5315.45 613.227   1
 -12   5   3 4647.13 571.959   1
 -12   5   4 8054.95 745.545   1
 -12   5   5 1969.33 377.145   1
 -12   6  -2 3687.33 537.525   1
 -12   6  -1 1944.36 398.522   1
 -12   6   0-56.2897 95.9447   1
 -12   6   1 381.221 182.278   1
 -12   6   2 748.550 260.041   1
 -12   6   3 4342.86 552.343   1
 -12   6   4 5968.43 651.357   1
 -12   6   5 4305.45 568.358   1
 -12   7  -2 4412.52 598.056   1
 -12   7  -1 4023.10 567.170   1
 -12   7   0 1836.19 401.154   1
 -12   7   1 2017.68 413.676   1
 -12   7   2 1432.67 328.006   1
 -12   7   3 433.053 187.572   1
 -12   7   4 341.238 189.109   1
 -12   8  -2 580.942 211.787   1
 -12   8  -1 561.854 225.805   1
 -12   8   0 1156.36 312.650   1
 -12   8   1 4273.70 579.053   1
 -12   8   2 5784.20 667.576   1
 -12   8   3 3607.75 533.372   1
 -12   8   4 2031.80 407.538   1
 -12   9   0 182.248 126.169   1
 -12   9   1 587.216 220.528   1
 -12   9   2 1475.40 358.636   1
 -11  -2  -2 4331.70 539.712   1
 -11  -2  -1 1588.53 318.066   1
 -11  -2   0 1372.36 289.767   1
 -11  -2   1 1411.24 282.100   1
 -11  -2   2 679.849 210.288   1
 -11  -2   3 52.9464 88.0172   1
 -11  -2   4 590.294 178.731   1
 -11  -2   5 4566.67 479.967   1
 -11  -2   6 3660.79 429.939   1
 -11  -1  -3 693.115 240.710   1
 -11  -1  -2 2361.31 407.186   1
 -11  -1  -1 2318.40 393.559   1
 -11  -1   0 4427.37 512.902   1
 -11  -1   1 7906.76 648.741   1
 -11  -1   2 3960.64 472.740   1
 -11  -1   3 2909.28 401.718   1
 -11  -1   4 978.119 223.415   1
 -11  -1   5 177.404 153.738   1
 -11  -1   6 64.3748 80.9984   1
 -11   0  -4 4176.37 567.154   1
 -11   0  -3 1502.89 331.413   1
 -11   0  -2 108.522 124.657   1
 -11   0  -1 791.153 245.879   1
 -11   0   0 938.267 242.081   1
 -11   0   1 2848.14 405.594   1
 -11   0   2 3027.82 405.365   1
 -11   0   3 3525.00 446.330   1
 -11   0   4 9883.18 726.983   1
 -11   0   5 5533.33 546.869   1
 -11   0   6 3864.57 454.752   1
 -11   1  -4 2757.98 460.898   1
 -11   1  -3 1981.10 366.271   1
 -11   1  -2 2903.92 443.690   1
 -11   1  -1 5432.80 589.850   1
 -11   1   0 2838.50 407.866   1
 -11   1   1 1224.21 265.838   1
 -11   1   2 777.123 211.725   1
 -11   1   3 2459.74 398.632   1
 -11   1   4 3425.46 439.405   1
 -11   1   5 6492.62 591.183   1
 -11   1   6 5204.52 536.071   1
 -11   2  -4-113.162 137.497   1
 -11   2  -3 1200.94 298.623   1
 -11   2  -2 2133.11 389.540   1
 -11   2  -1 2865.03 438.538   1
 -11   2   0 4657.63 531.146   1
 -11   2   1 7482.04 662.562   1
 -11   2   2 6041.87 598.019   1
 -11   2   3 1859.73 348.590   1
 -11   2   4 414.018 163.642   1
 -11   2   5 0.65471 60.5664   1
 -11   2   6 364.916 148.531   1
 -11   3  -5 4247.49 584.278   1
 -11   3  -4 2846.45 468.022   1
 -11   3  -3 266.574 177.695   1
 -11   3  -2 86.8939 119.300   1
 -11   3  -1-74.1420 109.050   1
 -11   3   0 2945.84 417.514   1
 -11   3   1 10110.7 784.204   1
 -11   3   2 15656.2 969.642   1
 -11   3   3 9470.22 745.685   1
 -11   3   4 2482.60 384.619   1
 -11   3   5 4639.79 523.297   1
 -11   3   6 7879.45 690.495   1
 -11   4  -5 1631.25 373.268   1
 -11   4  -5 1466.29 339.965   2
 -11   4  -4 6069.05 652.245   2
 -11   4  -4 5125.51 615.554   1
 -11   4  -3 6574.32 676.160   1
 -11   4  -2 7535.43 718.499   1
 -11   4  -1 2929.07 438.729   1
 -11   4   0 3121.74 431.870   1
 -11   4   1 2594.09 395.892   1
 -11   4   2 124.414 69.7505   1
 -11   4   3 46.9966 61.0166   1
 -11   4   4 1002.28 257.478   1
 -11   4   5 7805.93 681.225   1
 -11   4   6 6459.33 634.825   1
 -11   5  -5 1148.82 335.050   1
 -11   5  -5 424.896 173.832   2
 -11   5  -4 167.820 135.519   2
 -11   5  -4 188.429 167.799   1
 -11   5  -3 3355.74 471.012   2
 -11   5  -3 3130.57 470.170   1
 -11   5  -2 5236.15 597.092   1
 -11   5  -1 2013.18 363.859   1
 -11   5   0 3145.42 466.540   1
 -11   5   1 6478.96 642.795   1
 -11   5   2 8746.85 740.246   1
 -11   5   3 7667.92 691.321   1
 -11   5   4 192.020 129.159   1
 -11   5   5 3098.97 437.115   1
 -11   6  -5 3036.67 487.195   2
 -11   6  -5 2980.73 491.635   1
 -11   6  -4 3006.38 464.142   2
 -11   6  -4 2705.13 461.075   1
 -11   6  -3 1140.66 313.399   1
 -11   6  -3 966.847 252.395   2
 -11   6  -2 446.866 176.064   2
 -11   6  -2 269.761 151.421   1
 -11   6  -1-68.9500 70.8913   1
 -11   6   0 1474.70 330.039   1
 -11   6   1 5129.94 589.872   1
 -11   6   2 6577.82 640.290   1
 -11   6   3 9821.88 791.681   1
 -11   6   4 4668.95 542.333   1
 -11   6   5 3313.20 483.563   1
 -11   7  -5 5642.12 670.631   2
 -11   7  -5 5676.20 674.106   1
 -11   7  -4 3644.24 521.811   2
 -11   7  -4 4640.54 596.498   1
 -11   7  -3 5590.43 622.145   2
 -11   7  -3 5813.73 647.847   1
 -11   7  -2 3459.54 481.032   2
 -11   7  -2 3958.63 530.119   1
 -11   7  -1 2291.04 409.515   1
 -11   7   0 542.858 201.693   1
 -11   7   1 94.3332 78.9295   1
 -11   7   2 282.372 124.721   1
 -11   7   3 325.488 142.884   1
 -11   7   4 1837.72 355.690   1
 -11   8  -5 1266.89 328.109   2
 -11   8  -5 352.254 147.079   1
 -11   8  -4 204.484 144.224   1
 -11   8  -4 505.259 232.384   2
 -11   8  -3 1940.57 385.901   1
 -11   8  -3 1503.83 338.350   2
 -11   8  -2 4842.76 602.239   1
 -11   8  -2 3966.14 510.084   2
 -11   8  -1 6488.60 688.338   1
 -11   8   0 8744.99 781.253   1
 -11   8   1 5676.70 633.135   1
 -11   8   2 3020.98 461.114   1
 -11   8   3 2629.18 428.412   1
 -11   8   4 465.357 180.334   1
 -11   9  -4 3495.85 514.566   1
 -11   9  -4 3602.68 521.414   2
 -11   9  -3 85.4790 79.3838   2
 -11   9  -3 148.923 134.238   1
 -11   9  -2-21.0047 84.1901   2
 -11   9  -2 142.146 149.418   1
 -11   9  -1-62.8006 128.671   2
 -11   9  -1 63.7866 158.553   1
 -11   9   0 1794.60 379.833   1
 -11   9   1 1856.43 377.935   1
 -11   9   2 3689.94 508.257   1
 -11   9   3 5451.32 632.969   1
 -11  10  -4 4685.02 615.321   2
 -11  10  -3 2830.26 488.609   1
 -11  10  -3 3273.23 486.062   2
 -11  10  -2 2763.92 482.166   1
 -11  10  -2 2504.10 430.050   2
 -11  10  -1 869.366 242.733   2
 -11  10  -1 990.933 279.843   1
 -11  10   0 455.119 206.040   1
 -11  10   1 265.227 158.820   1
 -11  10   2-7.88278 96.6872   1
 -11  11  -3 1302.40 334.965   2
 -11  11  -2 1764.31 360.037   1
 -11  11  -2 1130.17 289.718   2
 -11  11  -1 3081.79 517.673   1
 -11  11   0 2913.87 483.631   1
 -11  11   1 2087.81 404.089   1
 -11  11   2 2686.16 472.895   1
 -11  12  -2 86.6447 128.489   2
 -10  -3  -3-90.2842 132.557   1
 -10  -3  -2 430.473 165.817   1
 -10  -3  -1 951.057 242.415   1
 -10  -3   0 3309.01 422.391   1
 -10  -3   1 5991.62 535.223   1
 -10  -3   2 7589.29 587.085   1
 -10  -3   3 6351.38 528.751   1
 -10  -3   4 4827.26 452.138   1
 -10  -3   5 4736.63 442.556   1
 -10  -3   6 1676.96 271.438   1
 -10  -2  -4 3154.18 471.589   1
 -10  -2  -3 4265.36 525.474   1
 -10  -2  -2 1478.55 293.598   1
 -10  -2  -1 605.713 187.282   1
 -10  -2   0-60.0786 100.546   1
 -10  -2   1 425.942 148.777   1
 -10  -2   2 2334.24 332.090   1
 -10  -2   3 4889.54 473.359   1
 -10  -2   4 5032.09 479.769   1
 -10  -2   5 9362.23 642.739   1
 -10  -2   6 4799.07 459.021   1
 -10  -1  -5 183.924 160.324   1
 -10  -1  -4 2159.47 397.437   1
 -10  -1  -3 10596.4 817.718   1
 -10  -1  -2 7784.05 672.439   1
 -10  -1  -1 4531.43 511.624   1
 -10  -1   0 6281.82 570.207   1
 -10  -1   1 3055.29 386.983   1
 -10  -1   2 1866.79 306.224   1
 -10  -1   3 2276.48 332.512   1
 -10  -1   4 157.867 106.133   1
 -10  -1   5 4143.91 432.340   1
 -10  -1   6 9463.37 651.785   1
 -10   0  -5 2145.90 395.812   1
 -10   0  -4 506.282 195.661   1
 -10   0  -3 130.789 100.056   1
 -10   0  -2 88.8841 106.278   1
 -10   0  -1 259.387 119.866   1
 -10   0   0 5867.14 560.670   1
 -10   0   1 5057.09 503.081   1
 -10   0   2 8028.99 622.293   1
 -10   0   3 3582.85 415.466   1
 -10   0   4 1650.89 283.477   1
 -10   0   5 710.421 204.133   1
 -10   0   6 390.499 139.131   1
 -10   1  -6 4861.10 593.582   1
 -10   1  -5 3690.10 542.370   1
 -10   1  -4 1131.08 289.588   1
 -10   1  -3 2303.14 382.408   1
 -10   1  -2 2680.89 392.713   1
 -10   1  -1 1338.37 275.374   1
 -10   1   0 123.989 107.179   1
 -10   1   1 4606.74 476.028   1
 -10   1   2 16382.3 898.133   1
 -10   1   3 18118.5 948.858   1
 -10   1   4 5402.07 506.945   1
 -10   1   5 10599.1 713.317   1
 -10   1   6 7170.77 593.474   1
 -10   2  -7 83.4604 136.428   2
 -10   2  -6-59.4146 89.9974   1
 -10   2  -6 162.036 133.753   2
 -10   2  -5 497.873 199.022   2
 -10   2  -5 314.049 182.056   1
 -10   2  -4 2457.62 393.886   1
 -10   2  -3 11537.9 852.152   1
 -10   2  -2 8326.97 697.314   1
 -10   2  -1 6615.87 610.440   1
 -10   2   0 4618.98 498.790   1
 -10   2   1 10489.0 719.608   1
 -10   2   2 4245.03 471.321   1
 -10   2   3 1205.29 248.633   1
 -10   2   4 2681.92 361.167   1
 -10   2   5 2978.10 392.400   1
 -10   2   6 6410.77 571.707   1
 -10   3  -7 3848.45 544.113   2
 -10   3  -6 3364.93 521.025   1
 -10   3  -6 2814.45 461.405   2
 -10   3  -5 3048.44 466.957   2
 -10   3  -5 3418.51 494.356   1
 -10   3  -4 914.652 248.402   1
 -10   3  -4 611.756 207.333   2
 -10   3  -3 172.412 137.891   1
 -10   3  -3-16.7102 73.4850   2
 -10   3  -2 3960.86 484.782   1
 -10   3  -1 3896.35 475.969   1
 -10   3   0 4561.24 492.168   1
 -10   3   1 4286.08 471.722   1
 -10   3   2 12051.4 798.587   1
 -10   3   3 4276.28 467.900   1
 -10   3   4 4862.76 489.183   1
 -10   3   5 723.157 206.499   1
 -10   3   6 4.39402 78.8566   1
 -10   4  -7 547.767 206.542   1
 -10   4  -7 473.521 193.853   2
 -10   4  -6 6148.85 688.134   1
 -10   4  -6 7150.28 724.572   2
 -10   4  -5 9011.91 776.130   2
 -10   4  -5 9032.14 805.940   1
 -10   4  -4 7264.59 685.036   1
 -10   4  -4 7546.93 691.904   2
 -10   4  -3 3850.08 500.217   1
 -10   4  -3 3070.17 429.916   2
 -10   4  -2 1044.32 254.428   1
 -10   4  -2 1203.71 261.140   2
 -10   4  -1 639.945 217.798   1
 -10   4   0 310.395 148.993   1
 -10   4   1 3094.51 422.051   1
 -10   4   2 1531.57 293.836   1
 -10   4   3 5115.29 520.810   1
 -10   4   4 14203.4 861.627   1
 -10   4   5 10265.6 732.775   1
 -10   5  -7 0.94370 107.555   1
 -10   5  -7 205.283 169.801   2
 -10   5  -6 719.977 235.602   1
 -10   5  -6 951.975 294.169   2
 -10   5  -5 2352.84 398.541   2
 -10   5  -5 2974.52 453.414   1
 -10   5  -4 3318.41 471.683   1
 -10   5  -4 3369.06 470.219   2
 -10   5  -3 9646.08 787.267   1
 -10   5  -3 7603.66 673.480   2
 -10   5  -2 6023.69 608.249   1
 -10   5  -2 6633.79 605.988   2
 -10   5  -1 10287.6 763.395   1
 -10   5  -1 7958.93 643.646   2
 -10   5   0 5273.53 540.073   1
 -10   5   1 2358.02 360.421   1
 -10   5   2 699.844 199.206   1
 -10   5   3 26.7401 83.1604   1
 -10   5   4 3114.52 410.959   1
 -10   5   5 4822.73 527.407   1
 -10   6  -7 3310.05 512.731   1
 -10   6  -7 4092.63 578.717   2
 -10   6  -6 1152.39 298.945   1
 -10   6  -6 769.495 251.311   2
 -10   6  -5 3514.56 493.518   1
 -10   6  -5 3033.72 465.959   2
 -10   6  -4 1107.05 282.575   1
 -10   6  -4 898.973 263.121   2
 -10   6  -3 60.8462 92.1106   1
 -10   6  -3 15.0679 65.2549   2
 -10   6  -2 3174.40 438.576   1
 -10   6  -2 3818.01 468.294   2
 -10   6  -1 1818.61 330.285   1
 -10   6  -1 2132.62 332.847   2
 -10   6   0 8228.83 690.761   1
 -10   6   1 5120.76 553.192   1
 -10   6   2 9296.59 721.626   1
 -10   6   3 7920.75 675.487   1
 -10   6   4 2483.94 380.156   1
 -10   6   5 30.1385 68.1496   1
 -10   7  -7 4002.01 596.158   2
 -10   7  -7 3178.35 499.063   1
 -10   7  -6 5979.66 672.213   2
 -10   7  -6 7498.36 793.895   1
 -10   7  -5 5792.71 625.967   2
 -10   7  -5 5961.81 654.517   1
 -10   7  -4 6604.26 660.826   2
 -10   7  -4 7384.34 706.168   1
 -10   7  -3 3738.32 491.984   2
 -10   7  -3 3667.21 487.664   1
 -10   7  -2 901.746 229.322   1
 -10   7  -2 1081.58 269.910   2
 -10   7  -1 65.7494 61.9585   2
 -10   7  -1 315.094 154.025   1
 -10   7   0 295.142 143.529   1
 -10   7   1 3452.89 457.787   1
 -10   7   2 5254.94 554.148   1
 -10   7   3 8869.70 727.630   1
 -10   7   4 8118.96 697.362   1
 -10   8  -7 54.2461 115.655   1
 -10   8  -6 246.833 123.993   1
 -10   8  -6 336.527 192.205   2
 -10   8  -5 120.780 129.375   1
 -10   8  -5 216.316 171.269   2
 -10   8  -4 3980.55 521.180   1
 -10   8  -4 2971.43 456.998   2
 -10   8  -3 8293.04 746.835   2
 -10   8  -3 8030.69 701.141   1
 -10   8  -2 7035.99 683.329   1
 -10   8  -2 6867.43 647.373   2
 -10   8  -1 10986.3 840.105   1
 -10   8  -1 11999.8 817.116   2
 -10   8   0 6724.88 647.020   1
 -10   8   1 440.984 176.942   1
 -10   8   2 225.341 112.054   1
 -10   8   3 79.4913 142.988   1
 -10   9  -6 1834.87 387.407   2
 -10   9  -6 2784.61 476.052   1
 -10   9  -5 1657.18 353.621   1
 -10   9  -5 2161.12 428.520   2
 -10   9  -4 87.5519 114.185   1
 -10   9  -4 172.754 146.801   2
 -10   9  -3 614.964 212.535   2
 -10   9  -3 1301.29 297.102   1
 -10   9  -2 1948.49 362.834   1
 -10   9  -2 2205.91 365.546   2
 -10   9  -1 3197.19 467.787   1
 -10   9  -1 2685.88 394.897   2
 -10   9   0 2526.19 399.998   1
 -10   9   1 2733.40 416.079   1
 -10   9   2 5683.92 604.783   1
 -10   9   3 6591.35 660.354   1
 -10  10  -6 4330.68 570.309   1
 -10  10  -6 4161.83 583.212   2
 -10  10  -5 3863.70 524.159   1
 -10  10  -5 4532.53 616.199   2
 -10  10  -4 3816.64 538.344   1
 -10  10  -4 5122.79 610.371   2
 -10  10  -3 2238.99 410.645   2
 -10  10  -3 2646.33 440.167   1
 -10  10  -2 603.489 211.622   2
 -10  10  -2 1638.27 339.577   1
 -10  10  -1 115.164 129.326   1
 -10  10  -1 81.7608 81.2372   2
 -10  10   0 281.165 160.586   1
 -10  10   1 948.046 264.299   1
 -10  10   2 1644.10 334.693   1
 -10  11  -6 1128.36 285.798   1
 -10  11  -5 2746.12 478.680   2
 -10  11  -5 2589.50 446.433   1
 -10  11  -4 3197.65 493.318   1
 -10  11  -4 2753.10 440.195   2
 -10  11  -3 3585.72 521.215   2
 -10  11  -3 4242.52 575.765   1
 -10  11  -2 4481.97 540.053   2
 -10  11  -2 6109.25 662.702   1
 -10  11  -1 4920.45 543.521   2
 -10  11  -1 3605.43 497.252   1
 -10  11   0 2310.75 413.479   1
 -10  11   1 1133.17 288.239   1
 -10  12  -5 1041.16 314.380   1
 -10  12  -4 203.494 162.036   1
 -10  12  -4 85.4549 140.533   2
 -10  12  -3 94.5314 105.741   2
 -10  12  -3 192.668 128.158   1
 -10  12  -2 1649.66 348.185   2
 -10  12  -2 1457.71 333.196   1
 -10  12  -1 1590.39 346.880   1
 -10  12  -1 847.828 227.272   2
 -10  12   0 3357.39 496.038   1
 -10  13  -3 436.855 213.956   1
 -10  13  -2 52.0345 135.795   1
 -10  13  -1 225.049 161.316   1
  -9  -4  -2 3392.35 432.984   1
  -9  -4  -1 2326.10 339.791   1
  -9  -4   0 343.072 143.575   1
  -9  -4   1 18.2570 59.4341   1
  -9  -4   2 48.9494 68.3084   1
  -9  -4   3 630.469 156.446   1
  -9  -3  -5 458.174 217.695   1
  -9  -3  -4 10.2049 103.189   1
  -9  -3  -3 3749.19 459.850   1
  -9  -3  -2 2509.44 366.953   1
  -9  -3  -1 5308.76 510.358   1
  -9  -3   0 6818.45 552.085   1
  -9  -3   1 8673.61 606.200   1
  -9  -3   2 5954.49 468.685   1
  -9  -3   3 3825.21 381.506   1
  -9  -3   4 384.000 121.216   1
  -9  -3   5 62.2171 73.2680   1
  -9  -3   6 3304.56 353.603   1
  -9  -2  -6 3289.52 491.119   1
  -9  -2  -5 3169.86 459.892   1
  -9  -2  -4 3294.30 454.211   1
  -9  -2  -3 2241.40 352.429   1
  -9  -2  -2 89.2762 89.7694   1
  -9  -2  -1 66.8641 88.7569   1
  -9  -2   0 3665.37 404.626   1
  -9  -2   1 9601.10 637.014   1
  -9  -2   2 14375.0 731.658   1
  -9  -2   3 8238.35 567.841   1
  -9  -2   4 7348.38 530.050   1
  -9  -2   5 5110.65 440.207   1
  -9  -2   6 1777.04 268.842   1
  -9  -1  -6 3937.17 540.739   1
  -9  -1  -5 4280.42 546.453   1
  -9  -1  -4 13456.5 903.557   1
  -9  -1  -3 6649.44 610.644   1
  -9  -1  -2 1224.86 263.907   1
  -9  -1  -1 3428.78 411.430   1
  -9  -1   0 1327.45 242.283   1
  -9  -1   1 47.2783 77.4849   1
  -9  -1   2 10.8505 45.1094   1
  -9  -1   3 2189.44 295.091   1
  -9  -1   4 5005.26 442.829   1
  -9  -1   5 11723.1 673.784   1
  -9  -1   6 6763.21 524.151   1
  -9   0  -7 636.155 243.306   1
  -9   0  -6 949.203 264.184   1
  -9   0  -5 244.513 124.374   1
  -9   0  -4 1428.28 290.717   1
  -9   0  -3 750.685 220.078   1
  -9   0  -2 2524.65 362.072   1
  -9   0  -1 7580.18 609.002   1
  -9   0   0 6953.39 565.533   1
  -9   0   1 9703.93 649.359   1
  -9   0   2 9988.11 631.796   1
  -9   0   3 696.053 175.764   1
  -9   0   4-2.85323 55.6622   1
  -9   0   5 1290.61 233.332   1
  -9   0   6 1203.28 223.551   1
  -9   1  -8 1357.19 323.932   2
  -9   1  -7 3222.41 462.694   2
  -9   1  -7 2811.61 470.223   1
  -9   1  -6 4951.98 549.438   2
  -9   1  -6 5852.02 639.794   1
  -9   1  -5 4742.82 552.494   1
  -9   1  -5 5008.60 536.342   2
  -9   1  -4 4733.06 498.214   2
  -9   1  -4 4970.53 536.102   1
  -9   1  -3 3176.93 420.458   1
  -9   1  -2 128.653 98.5890   1
  -9   1  -1 1089.97 235.918   1
  -9   1   0 4651.50 462.895   1
  -9   1   1 16484.3 842.285   1
  -9   1   2 31881.7 1160.23   1
  -9   1   3 28322.8 1097.53   1
  -9   1   4 12694.7 727.986   1
  -9   1   5 4786.24 450.410   1
  -9   1   6 746.352 188.587   1
  -9   2  -8-108.067 149.885   2
  -9   2  -7 224.162 116.699   2
  -9   2  -7 399.607 182.407   1
  -9   2  -6 5352.08 600.394   1
  -9   2  -6 5435.34 589.944   2
  -9   2  -5 6995.35 655.208   1
  -9   2  -5 6222.52 609.303   2
  -9   2  -4 14276.3 923.268   1
  -9   2  -4 13845.6 869.242   2
  -9   2  -3 17673.5 989.746   1
  -9   2  -3 15484.1 888.167   2
  -9   2  -2 6559.67 575.139   1
  -9   2  -1 1550.79 278.078   1
  -9   2   0 673.047 180.904   1
  -9   2   1 455.149 155.498   1
  -9   2   2 978.263 219.164   1
  -9   2   3 2981.93 364.352   1
  -9   2   4 4415.65 437.239   1
  -9   2   5 8451.96 608.982   1
  -9   2   6 4393.14 448.547   1
  -9   3  -9 5754.05 677.567   2
  -9   3  -8 3979.36 564.350   1
  -9   3  -8 3884.79 545.315   2
  -9   3  -7 725.423 254.049   2
  -9   3  -7 1397.87 326.192   1
  -9   3  -6 73.0981 110.074   2
  -9   3  -6 181.448 135.863   1
  -9   3  -5-33.0383 122.683   1
  -9   3  -5 91.3973 112.149   2
  -9   3  -4 1227.36 268.696   2
  -9   3  -4 1041.99 255.003   1
  -9   3  -3 8821.33 681.842   2
  -9   3  -3 8320.63 682.722   1
  -9   3  -2 9928.12 710.326   1
  -9   3  -2 9645.00 682.782   2
  -9   3  -1 3297.82 401.211   1
  -9   3   0 12152.0 754.375   1
  -9   3   1 3084.44 368.318   1
  -9   3   2 2932.08 366.578   1
  -9   3   3 7800.81 589.250   1
  -9   3   4 3683.86 400.907   1
  -9   3   5 5807.62 511.592   1
  -9   4  -9 700.116 267.823   2
  -9   4  -8 915.332 284.472   1
  -9   4  -8 670.508 265.693   2
  -9   4  -7 2502.09 426.986   2
  -9   4  -7 2446.16 424.698   1
  -9   4  -6 8619.79 750.735   1
  -9   4  -6 9160.32 773.117   2
  -9   4  -5 5500.01 589.179   1
  -9   4  -5 4614.24 533.242   2
  -9   4  -4 2747.30 413.226   2
  -9   4  -4 2247.10 364.932   1
  -9   4  -3 60.1929 72.2643   1
  -9   4  -3 33.3171 107.180   2
  -9   4  -2 109.078 122.802   1
  -9   4  -2 104.450 84.2143   2
  -9   4  -1 434.166 151.252   2
  -9   4  -1 154.030 112.592   1
  -9   4   0 3918.82 421.269   1
  -9   4   1 7299.74 583.509   1
  -9   4   2 8086.48 625.052   1
  -9   4   3 30192.6 1182.27   1
  -9   4   4 11947.1 747.036   1
  -9   4   5 3166.90 390.744   1
  -9   5  -9 264.377 176.565   2
  -9   5  -8 766.083 254.877   1
  -9   5  -8 599.416 239.035   2
  -9   5  -7 3058.31 467.412   1
  -9   5  -7 2063.83 416.522   2
  -9   5  -6 5742.81 620.703   1
  -9   5  -6 6767.61 693.658   2
  -9   5  -5 10148.8 798.726   1
  -9   5  -5 11316.3 838.188   2
  -9   5  -4 15965.1 958.644   1
  -9   5  -4 16243.6 961.452   2
  -9   5  -3 19001.7 1026.47   1
  -9   5  -3 27873.9 1275.98   2
  -9   5  -2 9883.32 720.396   1
  -9   5  -2 10186.2 714.541   2
  -9   5  -1 4017.45 446.235   1
  -9   5  -1 3588.02 411.869   2
  -9   5   0 2.06275 45.9303   2
  -9   5   0 252.180 116.208   1
  -9   5   1 899.225 215.319   1
  -9   5   2 9792.33 680.718   1
  -9   5   3 8911.47 648.347   1
  -9   5   4 7566.91 605.981   1
  -9   5   5 7472.11 615.143   1
  -9   6  -8 5436.74 637.432   2
  -9   6  -8 5765.44 666.936   1
  -9   6  -7 341.847 181.576   2
  -9   6  -7 406.807 194.126   1
  -9   6  -6 103.986 94.8584   1
  -9   6  -6 78.5576 79.1338   2
  -9   6  -5 217.430 111.100   1
  -9   6  -5 1.62745 72.5130   2
  -9   6  -4 863.235 223.996   2
  -9   6  -4 943.425 245.923   1
  -9   6  -3 5955.27 582.141   1
  -9   6  -3 6024.15 573.745   2
  -9   6  -2 7340.94 620.300   2
  -9   6  -2 7639.83 633.105   1
  -9   6  -1 3625.41 419.040   1
  -9   6  -1 4365.88 461.894   2
  -9   6   0 16450.8 905.746   1
  -9   6   0 13160.8 767.481   2
  -9   6   1 9841.36 719.986   1
  -9   6   2 5361.83 519.113   1
  -9   6   3 1561.56 285.583   1
  -9   6   4 139.137 103.946   1
  -9   7  -8 6103.26 681.753   1
  -9   7  -8 6898.56 718.885   2
  -9   7  -7 5002.48 594.999   1
  -9   7  -7 4293.95 544.274   2
  -9   7  -6 2024.37 355.694   2
  -9   7  -6 1186.22 284.055   1
  -9   7  -5 899.913 247.953   2
  -9   7  -5 1009.43 250.304   1
  -9   7  -4 3679.99 467.121   1
  -9   7  -4 4229.72 525.387   2
  -9   7  -3 62.4519 71.5142   1
  -9   7  -3 181.771 122.708   2
  -9   7  -2 83.1682 99.7471   2
  -9   7  -2 212.554 114.152   1
  -9   7  -1 658.506 193.950   1
  -9   7  -1 399.031 141.955   2
  -9   7   0 4170.32 468.462   1
  -9   7   0 3906.41 423.099   2
  -9   7   1 6537.34 587.952   1
  -9   7   2 7655.92 628.813   1
  -9   7   3 13018.1 821.052   1
  -9   7   4 8936.22 697.787   1
  -9   8  -8 174.910 150.716   1
  -9   8  -8 85.5737 121.813   2
  -9   8  -7 624.872 219.274   2
  -9   8  -7 809.642 241.526   1
  -9   8  -6 1168.52 267.970   1
  -9   8  -6 1139.44 284.798   2
  -9   8  -5 14700.1 957.626   1
  -9   8  -5 15496.3 966.797   2
  -9   8  -4 10921.4 828.303   2
  -9   8  -4 11160.5 820.610   1
  -9   8  -3 11850.6 807.124   1
  -9   8  -3 12527.9 852.680   2
  -9   8  -2 8675.92 696.924   1
  -9   8  -2 9067.24 701.643   2
  -9   8  -1 4056.26 480.088   1
  -9   8  -1 3293.40 406.107   2
  -9   8   0 959.129 219.871   2
  -9   8   0 1100.72 253.376   1
  -9   8   1 200.652 111.977   1
  -9   8   2 686.076 197.748   1
  -9   8   3 5232.68 540.516   1
  -9   9  -8 2041.66 388.408   2
  -9   9  -8 1828.63 378.760   1
  -9   9  -7 2180.61 397.131   2
  -9   9  -7 2660.58 450.950   1
  -9   9  -6 98.4092 114.709   2
  -9   9  -6 171.788 112.652   1
  -9   9  -5 2802.37 415.578   2
  -9   9  -5 3116.59 447.897   1
  -9   9  -4 6650.34 649.499   2
  -9   9  -4 4959.36 534.321   1
  -9   9  -3 6458.60 625.720   1
  -9   9  -3 7429.36 676.846   2
  -9   9  -2 11588.9 835.342   1
  -9   9  -2 12691.3 844.828   2
  -9   9  -1 3600.99 431.387   2
  -9   9  -1 3802.35 475.445   1
  -9   9   0 2863.73 372.384   2
  -9   9   0 3683.47 468.942   1
  -9   9   1 3668.59 463.754   1
  -9   9   2 1789.43 327.048   1
  -9  10  -8 5344.62 649.083   1
  -9  10  -7 3295.96 494.741   1
  -9  10  -7 4092.83 540.993   2
  -9  10  -6 2299.94 413.556   2
  -9  10  -6 2023.10 375.531   1
  -9  10  -5 2109.41 371.432   1
  -9  10  -5 1880.17 342.280   2
  -9  10  -4 2989.34 450.116   2
  -9  10  -4 2083.17 375.992   1
  -9  10  -3 14.9350 78.2323   1
  -9  10  -3 38.8543 110.861   2
  -9  10  -2-4.68286 68.9866   2
  -9  10  -2 158.921 100.236   1
  -9  10  -1 780.434 217.175   2
  -9  10  -1 925.793 257.307   1
  -9  10   0 2081.57 323.585   2
  -9  10   0 2604.55 398.834   1
  -9  10   1 3593.24 466.447   1
  -9  10   2 6751.12 664.944   1
  -9  11  -8 604.989 227.133   1
  -9  11  -7 1396.23 329.237   1
  -9  11  -7 1710.07 358.822   2
  -9  11  -6 1502.90 344.519   2
  -9  11  -6 1573.39 337.195   1
  -9  11  -5 2777.00 432.654   2
  -9  11  -5 4887.84 586.651   1
  -9  11  -4 2151.83 397.435   2
  -9  11  -4 3046.72 458.342   1
  -9  11  -3 5444.60 589.649   2
  -9  11  -3 6426.59 650.063   1
  -9  11  -2 4435.24 538.370   1
  -9  11  -2 5264.48 584.046   2
  -9  11  -1 3208.14 460.717   1
  -9  11  -1 2928.96 405.377   2
  -9  11   0 258.310 138.207   1
  -9  11   0 384.308 159.853   2
  -9  11   1 562.900 225.431   1
  -9  12  -7 395.759 184.960   1
  -9  12  -6 187.147 208.088   2
  -9  12  -6 54.4701 109.930   1
  -9  12  -5 134.906 130.732   1
  -9  12  -5 109.131 154.186   2
  -9  12  -4 2467.42 429.229   1
  -9  12  -4 1922.29 392.671   2
  -9  12  -3 4203.28 517.625   2
  -9  12  -3 5370.61 613.028   1
  -9  12  -2 6265.16 644.377   1
  -9  12  -2 6117.90 614.311   2
  -9  12  -1 4901.90 582.882   1
  -9  12   0 3921.99 521.071   1
  -9  13  -6 1507.10 355.829   1
  -9  13  -5 106.157 147.437   1
  -9  13  -5 508.482 220.720   2
  -9  13  -4 19.8505 103.479   1
  -9  13  -4 226.218 157.983   2
  -9  13  -3 404.846 200.077   1
  -9  13  -2 1278.39 309.540   1
  -9  13  -1 2524.32 432.273   1
  -8  -4  -6 3736.06 514.068   1
  -8  -4  -5 2817.81 432.778   1
  -8  -4  -4 7219.76 656.252   1
  -8  -4  -3 5247.41 521.629   1
  -8  -4  -2 108.332 85.1439   1
  -8  -4  -1 35.7555 92.0789   1
  -8  -4   0 1046.98 204.534   1
  -8  -4   1 1843.23 255.840   1
  -8  -4   2 6415.52 451.611   1
  -8  -4   3 7738.45 493.150   1
  -8  -4   4 10590.6 558.904   1
  -8  -4   5 18829.1 736.752   1
  -8  -3  -7 195.231 147.900   1
  -8  -3  -6 16.0087 111.681   1
  -8  -3  -5 999.709 255.200   1
  -8  -3  -4 6217.81 601.724   1
  -8  -3  -3 9614.59 700.874   1
  -8  -3  -2 9461.35 656.495   1
  -8  -3  -1 9102.53 622.884   1
  -8  -3   0 11446.7 660.783   1
  -8  -3   1 2340.91 295.509   1
  -8  -3   2 596.792 141.892   1
  -8  -3   3 16.4590 58.9877   1
  -8  -3   4 162.221 80.3854   1
  -8  -3   5 2720.37 295.354   1
  -8  -2  -7 1087.79 281.801   1
  -8  -2  -6 1922.43 362.122   1
  -8  -2  -5 281.278 139.013   1
  -8  -2  -4 0.65899 66.8793   1
  -8  -2  -3 1700.03 299.444   1
  -8  -2  -2 390.307 150.465   1
  -8  -2  -1 1917.06 285.857   1
  -8  -2   0 10569.1 633.587   1
  -8  -2   1 9880.14 590.398   1
  -8  -2   2 10652.9 590.079   1
  -8  -2   3 2013.82 254.487   1
  -8  -2   4-24.0051 63.7369   1
  -8  -2   5-24.1164 45.0104   1
  -8  -2   6 566.837 145.183   1
  -8  -1  -8 3330.43 510.077   1
  -8  -1  -7 3793.13 522.193   1
  -8  -1  -6 10234.3 816.848   1
  -8  -1  -5 12214.4 853.909   1
  -8  -1  -4 5187.55 536.617   1
  -8  -1  -3 2349.58 343.892   1
  -8  -1  -2 1271.48 242.875   1
  -8  -1  -1 172.657 119.252   1
  -8  -1   0 190.001 95.8025   1
  -8  -1   1 979.235 193.189   1
  -8  -1   2 19808.1 809.515   1
  -8  -1   3 60270.8 1423.08   1
  -8  -1   4 29538.0 992.234   1
  -8  -1   5 21937.2 860.263   1
  -8  -1   6 687.392 161.773   1
  -8   0  -8 71.5291 93.2703   2
  -8   0  -8 407.870 208.633   1
  -8   0  -7-15.2408 100.480   2
  -8   0  -7-4.08904 90.3438   1
  -8   0  -6 1255.58 262.455   2
  -8   0  -6 740.340 224.401   1
  -8   0  -5 2345.74 346.670   2
  -8   0  -5 2582.21 390.685   1
  -8   0  -4 3059.90 391.969   2
  -8   0  -4 3798.05 454.520   1
  -8   0  -3 25994.1 1117.34   1
  -8   0  -2 16121.5 855.299   1
  -8   0  -1 5755.40 492.744   1
  -8   0   0 4740.38 431.424   1
  -8   0   1 5507.20 453.902   1
  -8   0   2 203.924 94.5998   1
  -8   0   3 225.165 105.127   1
  -8   0   4 4669.30 404.639   1
  -8   0   5 9402.27 574.299   1
  -8   0   6 9301.28 593.870   1
  -8   1  -9 3546.19 496.143   2
  -8   1  -8 5704.48 601.624   2
  -8   1  -8 5606.13 657.012   1
  -8   1  -7 7386.28 666.246   2
  -8   1  -7 6476.84 664.047   1
  -8   1  -6 4737.16 516.744   2
  -8   1  -6 3995.72 504.160   1
  -8   1  -5 1177.78 272.314   1
  -8   1  -5 1083.06 246.072   2
  -8   1  -4 18.0732 48.7345   2
  -8   1  -4 35.2768 107.574   1
  -8   1  -3 4793.18 479.771   1
  -8   1  -3 4090.35 425.613   2
  -8   1  -2 3352.34 378.480   2
  -8   1  -2 3650.52 411.180   1
  -8   1  -1 6965.06 539.583   1
  -8   1   0 21972.7 940.461   1
  -8   1   1 10159.9 621.701   1
  -8   1   2 13153.5 687.989   1
  -8   1   3 7490.49 523.499   1
  -8   1   4 5289.88 439.937   1
  -8   1   5 74.9279 36.4912   1
  -8   2 -10 48.0993 130.545   2
  -8   2  -9 1029.04 278.630   2
  -8   2  -9 1057.48 306.329   1
  -8   2  -8 946.754 281.596   1
  -8   2  -8 1358.94 313.188   2
  -8   2  -7 1254.73 280.215   2
  -8   2  -7 1278.24 295.434   1
  -8   2  -6 6392.91 639.141   1
  -8   2  -6 7533.10 653.759   2
  -8   2  -5 7307.72 631.724   2
  -8   2  -5 7884.84 669.612   1
  -8   2  -4 8861.79 683.904   1
  -8   2  -4 9495.96 694.838   2
  -8   2  -3 9080.63 664.040   1
  -8   2  -3 8174.29 615.739   2
  -8   2  -2 1182.60 225.022   2
  -8   2  -2 1425.36 259.449   1
  -8   2  -1 142.103 117.647   1
  -8   2  -1 24.0964 43.8500   2
  -8   2   0 2145.51 299.741   1
  -8   2   1 10340.8 617.865   1
  -8   2   2 9263.79 586.648   1
  -8   2   3 10560.6 638.647   1
  -8   2   4 16603.3 782.144   1
  -8   2   5 23263.0 936.298   1
  -8   3 -10 5525.57 675.139   2
  -8   3  -9 188.894 184.660   1
  -8   3  -9 126.191 164.435   2
  -8   3  -8 179.614 151.547   1
  -8   3  -8 88.2306 109.579   2
  -8   3  -7 431.728 194.610   2
  -8   3  -7 248.514 151.217   1
  -8   3  -6 1527.70 304.766   1
  -8   3  -6 977.508 253.996   2
  -8   3  -5 4060.41 464.525   2
  -8   3  -5 3598.53 446.623   1
  -8   3  -4 14514.9 844.867   2
  -8   3  -4 12927.1 813.070   1
  -8   3  -3 40653.7 1403.83   1
  -8   3  -3 37375.8 1357.25   2
  -8   3  -2 11051.0 689.402   2
  -8   3  -2 11795.1 728.626   1
  -8   3  -1 6280.92 502.365   2
  -8   3  -1 6312.27 519.048   1
  -8   3   0 4536.24 428.316   1
  -8   3   1 999.964 192.664   1
  -8   3   2 1278.73 231.783   1
  -8   3   3 180.115 114.996   1
  -8   3   4 18231.2 844.142   1
  -8   3   5 14751.1 774.415   1
  -8   4 -10 5273.93 636.617   2
  -8   4  -9 6907.16 685.808   2
  -8   4  -9 9561.22 857.799   1
  -8   4  -8 9645.25 788.098   2
  -8   4  -8 11497.3 915.698   1
  -8   4  -7 8558.04 737.590   1
  -8   4  -7 9238.76 742.410   2
  -8   4  -6 785.387 216.253   1
  -8   4  -6 664.319 207.705   2
  -8   4  -5 220.269 103.108   2
  -8   4  -5 363.243 158.133   1
  -8   4  -4 382.460 133.721   1
  -8   4  -4 372.895 148.231   2
  -8   4  -3 5175.36 491.457   2
  -8   4  -3 3912.03 424.000   1
  -8   4  -2 3715.94 410.804   1
  -8   4  -2 3890.63 428.466   2
  -8   4  -1 4118.46 413.632   2
  -8   4  -1 4553.97 449.021   1
  -8   4   0 15506.1 791.073   1
  -8   4   0 16176.7 788.170   2
  -8   4   1 11864.1 696.403   1
  -8   4   2 19686.0 908.815   1
  -8   4   3 4521.18 427.734   1
  -8   4   4 723.112 178.204   1
  -8   4   5 86.4333 67.6989   1
  -8   5 -10 342.359 179.608   2
  -8   5  -9 1070.71 292.988   1
  -8   5  -9 622.666 242.265   2
  -8   5  -8 7023.01 695.712   1
  -8   5  -8 6973.60 668.375   2
  -8   5  -7 8171.92 697.089   2
  -8   5  -7 8952.87 745.888   1
  -8   5  -6 5328.97 544.166   2
  -8   5  -6 5772.64 566.803   1
  -8   5  -5 8918.87 679.045   2
  -8   5  -5 10547.0 761.757   1
  -8   5  -4 5661.34 540.378   2
  -8   5  -4 6736.76 583.814   1
  -8   5  -3 7294.85 591.820   1
  -8   5  -3 7799.21 625.505   2
  -8   5  -2 3051.85 373.385   1
  -8   5  -2 2444.34 328.861   2
  -8   5  -1 97.7893 65.1707   1
  -8   5  -1 220.807 110.052   2
  -8   5   0 7555.48 561.626   1
  -8   5   0 6489.87 505.202   2
  -8   5   1 14139.0 779.880   1
  -8   5   2 12526.4 722.271   1
  -8   5   3 16869.8 842.581   1
  -8   5   4 13456.0 767.777   1
  -8   6 -10 5513.82 673.614   1
  -8   6 -10 4669.13 587.503   2
  -8   6  -9 1969.93 383.373   1
  -8   6  -9 2364.88 416.528   2
  -8   6  -8 120.403 97.8175   1
  -8   6  -8-44.2459 64.8339   2
  -8   6  -7 209.807 115.227   2
  -8   6  -7 499.891 177.972   1
  -8   6  -6 2187.27 353.588   2
  -8   6  -6 2304.96 370.148   1
  -8   6  -5 1885.71 319.075   1
  -8   6  -5 1489.74 285.319   2
  -8   6  -4 7585.94 604.777   2
  -8   6  -4 7950.81 636.113   1
  -8   6  -3 14544.9 840.267   1
  -8   6  -3 15923.3 884.405   2
  -8   6  -2 20574.3 965.489   2
  -8   6  -2 19035.7 939.030   1
  -8   6  -1 8121.30 608.737   2
  -8   6  -1 8087.39 586.288   1
  -8   6   0 4948.53 473.418   1
  -8   6   0 4567.49 429.886   2
  -8   6   1 2092.98 316.025   1
  -8   6   2 111.787 75.0709   1
  -8   6   3 3079.15 375.152   1
  -8   6   4 4364.13 453.474   1
  -8   7 -10 5183.63 623.172   2
  -8   7 -10 4500.53 602.438   1
  -8   7  -9 5470.88 616.813   2
  -8   7  -9 6333.54 672.580   1
  -8   7  -8 9100.28 789.983   1
  -8   7  -8 7885.45 727.716   2
  -8   7  -7 827.493 225.147   2
  -8   7  -7 1330.03 297.358   1
  -8   7  -6 1425.40 293.073   1
  -8   7  -6 1484.70 288.270   2
  -8   7  -5 1282.89 268.552   1
  -8   7  -5 1452.76 281.568   2
  -8   7  -4 470.723 162.479   1
  -8   7  -4 333.094 140.863   2
  -8   7  -3 10260.4 715.411   1
  -8   7  -3 8576.54 651.777   2
  -8   7  -2 11456.3 742.329   2
  -8   7  -2 9055.04 646.983   1
  -8   7  -1 12923.0 783.115   1
  -8   7  -1 13030.4 772.194   2
  -8   7   0 7968.44 612.384   1
  -8   7   0 8698.76 596.543   2
  -8   7   1 3946.61 385.627   2
  -8   7   1 4027.45 428.618   1
  -8   7   2 5333.56 504.662   1
  -8   7   3 6912.80 571.617   1
  -8   8 -10 37.7888 113.942   1
  -8   8  -9 829.414 256.789   2
  -8   8  -9 474.179 227.402   1
  -8   8  -8 2960.78 454.458   1
  -8   8  -8 3063.12 449.589   2
  -8   8  -7 6605.63 646.744   1
  -8   8  -7 5575.15 586.150   2
  -8   8  -6 8654.97 700.032   2
  -8   8  -6 9342.67 737.035   1
  -8   8  -5 8911.30 688.924   2
  -8   8  -5 9718.56 736.798   1
  -8   8  -4 696.121 198.883   1
  -8   8  -4 523.258 174.017   2
  -8   8  -3 1344.85 258.549   2
  -8   8  -3 1398.34 263.291   1
  -8   8  -2 387.501 140.948   1
  -8   8  -2 662.224 187.189   2
  -8   8  -1 256.451 121.534   2
  -8   8  -1 47.5209 67.0419   1
  -8   8   0 2159.50 325.507   1
  -8   8   0 1859.94 279.229   2
  -8   8   1 5739.54 526.552   1
  -8   8   1 4172.59 394.558   2
  -8   8   2 5870.30 540.669   1
  -8   8   3 12004.2 790.297   1
  -8   9 -10 1614.05 376.496   1
  -8   9  -9 1416.63 327.836   1
  -8   9  -9 1345.39 316.821   2
  -8   9  -8 17.7861 85.0523   2
  -8   9  -8 89.0925 112.387   1
  -8   9  -7 1159.54 268.379   1
  -8   9  -7 840.924 253.304   2
  -8   9  -6 6572.11 621.740   2
  -8   9  -6 7576.07 676.141   1
  -8   9  -5 6692.26 612.840   1
  -8   9  -5 6442.38 588.413   2
  -8   9  -4 14392.9 869.310   1
  -8   9  -4 12597.2 811.949   2
  -8   9  -3 9631.32 690.771   2
  -8   9  -3 10292.6 728.903   1
  -8   9  -2 14019.6 860.779   1
  -8   9  -2 12017.2 799.787   2
  -8   9  -1 6415.23 577.245   1
  -8   9  -1 6718.59 560.224   2
  -8   9   0 2876.17 392.500   1
  -8   9   0 3271.36 371.725   2
  -8   9   1 185.781 128.464   1
  -8   9   2 201.128 94.4285   1
  -8  10 -10 12502.1 1041.83   1
  -8  10  -9 5971.00 689.015   2
  -8  10  -9 6245.01 670.948   1
  -8  10  -8 4165.25 555.016   2
  -8  10  -8 4562.20 563.319   1
  -8  10  -7 1971.07 366.723   1
  -8  10  -7 1307.96 295.452   2
  -8  10  -6 5098.75 558.215   1
  -8  10  -6 5072.88 557.126   2
  -8  10  -5 1898.09 329.303   2
  -8  10  -5 1780.06 318.874   1
  -8  10  -4 726.254 210.403   1
  -8  10  -4 1086.07 254.856   2
  -8  10  -3 3388.22 440.705   1
  -8  10  -3 3055.91 400.122   2
  -8  10  -2 7772.82 650.002   2
  -8  10  -2 7851.56 666.347   1
  -8  10  -1 5583.92 550.933   1
  -8  10  -1 6083.03 546.091   2
  -8  10   0 2451.60 328.552   2
  -8  10   0 2817.53 386.468   1
  -8  10   1 5575.51 566.857   1
  -8  11  -9 1750.17 361.849   1
  -8  11  -8 4434.71 576.727   2
  -8  11  -8 4223.07 540.440   1
  -8  11  -7 4312.44 553.945   2
  -8  11  -7 4973.57 575.372   1
  -8  11  -6 117.950 93.2297   1
  -8  11  -6 397.603 156.114   2
  -8  11  -5 361.881 151.101   2
  -8  11  -5 807.341 244.783   1
  -8  11  -4 1304.31 284.400   1
  -8  11  -4 1177.45 281.749   2
  -8  11  -3 809.755 219.835   1
  -8  11  -3 1067.60 248.285   2
  -8  11  -2 14.1915 69.7967   1
  -8  11  -2-24.8443 69.8432   2
  -8  11  -1 14.8876 89.2914   1
  -8  11  -1 45.6485 65.0939   2
  -8  11   0 4063.90 425.653   2
  -8  11   0 5260.84 555.162   1
  -8  12  -9 712.793 249.619   1
  -8  12  -8 53.8649 112.587   1
  -8  12  -7 1216.50 319.796   2
  -8  12  -7 690.590 229.605   1
  -8  12  -6 2764.98 445.712   1
  -8  12  -6 2487.03 410.762   2
  -8  12  -5 4301.45 521.168   2
  -8  12  -5 4071.28 513.511   1
  -8  12  -4 7649.46 688.947   1
  -8  12  -4 6413.00 612.372   2
  -8  12  -3 4445.32 526.957   1
  -8  12  -3 4117.44 494.768   2
  -8  12  -2 7240.80 630.155   2
  -8  12  -2 7462.50 669.963   1
  -8  12  -1 6280.71 623.598   1
  -8  13  -7 1252.54 315.820   2
  -8  13  -6 149.032 128.427   2
  -8  13  -5-91.9113 130.372   1
  -8  13  -5 185.984 138.491   2
  -8  13  -4 448.698 185.173   1
  -8  13  -4 197.378 134.250   2
  -8  13  -3 1706.21 330.379   1
  -8  13  -2 2868.65 436.747   1
  -7  -5  -6-62.5567 109.630   1
  -7  -5  -5-18.2990 81.0957   1
  -7  -5  -4 377.831 172.429   1
  -7  -5  -3 7508.65 598.294   1
  -7  -5  -2 4075.42 417.677   1
  -7  -5  -1 9739.55 604.047   1
  -7  -5   0 4763.41 400.194   1
  -7  -5   1 6798.66 441.851   1
  -7  -5   2 2052.50 233.675   1
  -7  -5   3 234.392 74.1397   1
  -7  -5   4 0.76661 39.8543   1
  -7  -4  -7 2134.54 405.447   1
  -7  -4  -6 837.130 232.359   1
  -7  -4  -5 1996.45 346.015   1
  -7  -4  -4 1042.21 235.264   1
  -7  -4  -3 310.985 121.754   1
  -7  -4  -2 285.810 116.503   1
  -7  -4  -1 16.9199 41.1653   1
  -7  -4   0 5774.30 435.608   1
  -7  -4   1 6635.23 437.788   1
  -7  -4   2 25388.4 824.524   1
  -7  -4   3 13769.9 590.534   1
  -7  -4   4 18168.3 663.878   1
  -7  -4   5 10818.0 506.844   1
  -7  -3  -8 113.002 122.103   1
  -7  -3  -7 596.833 206.185   1
  -7  -3  -6 4033.35 506.342   1
  -7  -3  -5 5672.74 568.241   1
  -7  -3  -4 16425.8 923.011   1
  -7  -3  -3 17361.3 892.267   1
  -7  -3  -2 4830.52 448.692   1
  -7  -3  -1 1185.82 205.751   1
  -7  -3   0 722.981 154.777   1
  -7  -3   1 952.589 173.350   1
  -7  -3   2 3688.86 319.540   1
  -7  -3   3 12271.9 563.951   1
  -7  -3   4 11131.4 539.505   1
  -7  -3   5 21106.8 736.865   1
  -7  -2  -8 2827.33 465.229   1
  -7  -2  -7 627.920 221.294   1
  -7  -2  -6 689.575 210.059   1
  -7  -2  -5 2330.18 363.993   1
  -7  -2  -4 10943.8 737.396   1
  -7  -2  -3 18007.4 891.250   1
  -7  -2  -2 4328.55 420.508   1
  -7  -2  -1 8623.13 553.427   1
  -7  -2   0 5894.56 443.165   1
  -7  -2   1 6239.21 433.641   1
  -7  -2   2 6379.79 423.575   1
  -7  -2   3 21.1808 53.5700   1
  -7  -2   4 6377.81 416.285   1
  -7  -2   5 17249.4 690.633   1
  -7  -1  -9 9116.79 851.311   1
  -7  -1  -8 4316.90 564.158   1
  -7  -1  -8 3893.21 460.094   2
  -7  -1  -7 5512.01 521.500   2
  -7  -1  -7 8356.90 746.421   1
  -7  -1  -6 6082.32 532.558   2
  -7  -1  -6 5665.72 587.334   1
  -7  -1  -5 917.313 223.990   1
  -7  -1  -5 851.528 197.827   2
  -7  -1  -4 254.932 108.871   1
  -7  -1  -3 2391.68 324.720   1
  -7  -1  -2 860.017 183.631   1
  -7  -1  -1 1685.15 247.043   1
  -7  -1   0 7694.64 506.044   1
  -7  -1   1 14596.2 668.708   1
  -7  -1   2 35107.6 991.100   1
  -7  -1   3 37175.6 1024.74   1
  -7  -1   4 23474.2 815.300   1
  -7  -1   5 14493.6 651.866   1
  -7   0  -9 459.900 228.984   1
  -7   0  -9 69.0864 108.050   2
  -7   0  -8 1412.70 323.750   1
  -7   0  -8 799.972 231.627   2
  -7   0  -7 1780.18 318.169   2
  -7   0  -7 1772.31 341.986   1
  -7   0  -6 7882.73 625.398   2
  -7   0  -6 7485.47 656.861   1
  -7   0  -5 1712.63 281.399   2
  -7   0  -5 2364.38 364.375   1
  -7   0  -4 16557.2 881.040   1
  -7   0  -4 15188.6 802.600   2
  -7   0  -3 32341.0 1111.65   2
  -7   0  -3 35279.9 1239.64   1
  -7   0  -2 15086.3 762.884   1
  -7   0  -1 2919.14 328.559   1
  -7   0   0 44.2891 65.3145   1
  -7   0   1 4701.18 380.817   1
  -7   0   2 5482.45 387.621   1
  -7   0   3 9289.32 527.054   1
  -7   0   4 24604.4 857.941   1
  -7   0   5 35409.1 1041.97   1
  -7   1 -10 7451.17 707.710   2
  -7   1  -9 5619.17 599.819   2
  -7   1  -9 6041.63 681.087   1
  -7   1  -8 6949.47 693.749   1
  -7   1  -8 7866.89 687.376   2
  -7   1  -7 4553.17 504.733   2
  -7   1  -7 5026.11 560.780   1
  -7   1  -6 455.034 171.904   1
  -7   1  -6 836.010 211.469   2
  -7   1  -5 716.333 192.968   2
  -7   1  -5 498.228 152.381   1
  -7   1  -4 9229.23 651.011   1
  -7   1  -4 9873.89 667.478   2
  -7   1  -3 35224.2 1183.49   2
  -7   1  -3 35240.8 1227.00   1
  -7   1  -2 18235.8 824.043   2
  -7   1  -2 17472.9 810.595   1
  -7   1  -1 7729.34 514.879   2
  -7   1  -1 7529.57 523.702   1
  -7   1   0 20500.8 826.721   1
  -7   1   1 5823.49 428.845   1
  -7   1   2 2231.50 256.427   1
  -7   1   3-23.5467 52.7511   1
  -7   1   4 22.5978 59.8610   1
  -7   1   5 14676.5 689.359   1
  -7   2 -11 1817.90 362.518   2
  -7   2 -10 3427.77 524.024   1
  -7   2 -10 4413.63 545.795   2
  -7   2  -9 6291.46 609.083   2
  -7   2  -9 5313.03 634.082   1
  -7   2  -8 2714.61 390.935   2
  -7   2  -8 2592.86 420.901   1
  -7   2  -7 1614.64 316.887   1
  -7   2  -7 2601.34 363.125   2
  -7   2  -6 3465.31 432.773   1
  -7   2  -6 3712.37 439.765   2
  -7   2  -5 5043.45 500.604   1
  -7   2  -5 6077.13 566.669   2
  -7   2  -4 627.457 183.922   2
  -7   2  -4 959.735 213.109   1
  -7   2  -3 10443.1 655.447   2
  -7   2  -3 9334.97 623.407   1
  -7   2  -2 7629.79 547.847   1
  -7   2  -2 7065.27 518.765   2
  -7   2  -1 2392.38 297.317   1
  -7   2  -1 2524.14 296.188   2
  -7   2   0 11590.7 629.403   1
  -7   2   1 10454.5 578.834   1
  -7   2   2 311.006 105.126   1
  -7   2   3 28158.9 959.620   1
  -7   2   4 10647.9 594.249   1
  -7   2   5 7923.75 523.032   1
  -7   3 -11 1979.13 376.709   2
  -7   3 -10 145.794 161.054   2
  -7   3 -10-89.1025 102.561   1
  -7   3  -9 1246.65 281.519   2
  -7   3  -9 1862.23 372.030   1
  -7   3  -8 7790.08 660.007   2
  -7   3  -8 7862.83 717.313   1
  -7   3  -7 7617.03 629.984   2
  -7   3  -7 9639.88 757.142   1
  -7   3  -6 12316.3 770.168   2
  -7   3  -6 12087.2 798.204   1
  -7   3  -5 7358.90 603.333   1
  -7   3  -5 6487.68 543.425   2
  -7   3  -4 15413.3 827.704   1
  -7   3  -4 13685.4 774.174   2
  -7   3  -3 25531.7 1046.78   2
  -7   3  -3 25763.1 1026.13   1
  -7   3  -2 29643.2 1067.42   1
  -7   3  -2 31807.4 1097.58   2
  -7   3  -1 15226.8 744.695   1
  -7   3  -1 14189.0 718.150   2
  -7   3   0 1072.03 190.135   2
  -7   3   0 771.743 169.750   1
  -7   3   1 37.1037 47.5694   1
  -7   3   2 17853.0 776.816   1
  -7   3   3 57510.1 1399.65   1
  -7   3   4 36578.3 1124.44   1
  -7   3   5 20051.2 859.595   1
  -7   4 -11 6396.60 669.261   2
  -7   4 -10 7181.39 685.176   2
  -7   4 -10 9083.29 837.140   1
  -7   4  -9 11335.3 890.766   1
  -7   4  -9 9970.04 774.125   2
  -7   4  -8 13442.8 857.336   2
  -7   4  -8 12892.7 907.813   1
  -7   4  -7 572.449 181.641   2
  -7   4  -7 379.375 157.908   1
  -7   4  -6 547.545 166.651   2
  -7   4  -6 863.137 225.904   1
  -7   4  -5 267.037 120.189   1
  -7   4  -5 272.222 119.746   2
  -7   4  -4 807.613 183.530   2
  -7   4  -4 1124.60 219.207   1
  -7   4  -3 16061.4 801.608   2
  -7   4  -3 18907.3 892.889   1
  -7   4  -2 32546.9 1133.04   2
  -7   4  -2 29886.5 1081.61   1
  -7   4  -1 9013.41 573.795   1
  -7   4  -1 13657.8 739.226   2
  -7   4   0 16708.5 765.714   1
  -7   4   0 17704.6 775.996   2
  -7   4   1 7539.30 514.651   1
  -7   4   2 4493.01 400.796   1
  -7   4   3 876.869 175.200   1
  -7   4   4 875.939 177.664   1
  -7   5 -11 4510.69 565.724   2
  -7   5 -11 5612.41 671.340   1
  -7   5 -10 5117.77 592.034   2
  -7   5 -10 6013.07 664.302   1
  -7   5  -9 6796.67 677.569   1
  -7   5  -9 7172.23 668.974   2
  -7   5  -8 15786.0 949.375   2
  -7   5  -8 14257.0 947.175   1
  -7   5  -7 10607.4 779.600   1
  -7   5  -7 9997.34 731.970   2
  -7   5  -6 7441.76 602.139   2
  -7   5  -6 8190.42 648.070   1
  -7   5  -5 3219.23 386.383   1
  -7   5  -5 3489.74 389.985   2
  -7   5  -4 112.699 96.9850   1
  -7   5  -4 152.107 81.7232   2
  -7   5  -3 10120.2 649.491   1
  -7   5  -3 10170.1 631.721   2
  -7   5  -2 5876.62 485.810   2
  -7   5  -2 5258.76 458.105   1
  -7   5  -1 7401.73 522.868   2
  -7   5  -1 7120.45 523.656   1
  -7   5   0 8428.85 552.501   1
  -7   5   0 10448.1 601.627   2
  -7   5   1 12727.2 697.413   1
  -7   5   1 12680.2 640.122   2
  -7   5   2 4324.34 402.216   1
  -7   5   3 20450.6 876.316   1
  -7   5   4 6074.96 497.574   1
  -7   6 -11 184.410 143.242   1
  -7   6 -11-12.1038 111.375   2
  -7   6 -10 51.2338 92.9286   1
  -7   6 -10 111.474 139.196   2
  -7   6  -9 106.061 107.549   1
  -7   6  -9 218.280 144.637   2
  -7   6  -8 4514.97 527.083   2
  -7   6  -8 3693.06 479.748   1
  -7   6  -7 3662.68 455.342   1
  -7   6  -7 4785.94 511.405   2
  -7   6  -6 2224.58 335.437   2
  -7   6  -6 3671.11 435.439   1
  -7   6  -5 10713.1 700.130   2
  -7   6  -5 10267.1 708.544   1
  -7   6  -4 6941.13 536.154   2
  -7   6  -4 7797.62 591.731   1
  -7   6  -3 5933.62 486.695   2
  -7   6  -3 6283.60 518.087   1
  -7   6  -2 8317.41 565.440   2
  -7   6  -2 8989.91 607.336   1
  -7   6  -1 10543.9 623.696   1
  -7   6  -1 10074.3 622.337   2
  -7   6   0 1397.08 233.451   1
  -7   6   0 1430.53 230.698   2
  -7   6   1 1544.21 248.331   1
  -7   6   1 1939.30 250.651   2
  -7   6   2 7376.24 537.777   1
  -7   6   3 5900.98 483.854   1
  -7   7 -11 1725.96 373.550   2
  -7   7 -11 2637.91 460.943   1
  -7   7 -10 4503.11 577.411   2
  -7   7 -10 3587.86 520.662   1
  -7   7  -9 2619.73 411.096   2
  -7   7  -9 3455.83 477.320   1
  -7   7  -8 239.174 157.823   2
  -7   7  -8 585.357 266.083   1
  -7   7  -7 476.169 148.312   1
  -7   7  -7 443.076 158.564   2
  -7   7  -6 867.602 216.438   1
  -7   7  -6 1208.60 250.410   2
  -7   7  -5 4370.29 453.078   2
  -7   7  -5 3830.26 442.559   1
  -7   7  -4 6747.70 542.593   2
  -7   7  -4 7478.03 581.737   1
  -7   7  -3 23361.1 1007.93   1
  -7   7  -3 22897.3 966.503   2
  -7   7  -2 43313.0 1318.52   1
  -7   7  -2 43108.6 1295.27   2
  -7   7  -1 16911.3 823.498   2
  -7   7  -1 18120.9 860.994   1
  -7   7   0 5600.77 459.750   2
  -7   7   0 4939.97 462.879   1
  -7   7   1 1698.97 237.491   2
  -7   7   1 2349.74 310.986   1
  -7   7   2 2917.82 348.391   1
  -7   7   3 75.7213 83.6718   1
  -7   8 -11 1292.52 313.543   1
  -7   8 -10 6326.39 665.414   1
  -7   8 -10 6302.03 671.745   2
  -7   8  -9 11473.9 859.147   1
  -7   8  -9 7431.66 704.582   2
  -7   8  -8 11132.0 821.974   1
  -7   8  -8 12524.3 881.027   2
  -7   8  -7 19985.4 1067.54   2
  -7   8  -7 18679.4 1027.07   1
  -7   8  -6 3938.61 460.528   2
  -7   8  -6 3389.31 415.255   1
  -7   8  -5 785.542 210.239   2
  -7   8  -5 1283.34 255.074   1
  -7   8  -4 823.338 192.768   2
  -7   8  -4 974.445 215.353   1
  -7   8  -3 1330.45 243.347   1
  -7   8  -3 1162.38 230.737   2
  -7   8  -2 7161.25 563.546   1
  -7   8  -2 8372.07 579.681   2
  -7   8  -1 3588.48 406.682   1
  -7   8  -1 4022.13 415.146   2
  -7   8   0 8734.01 581.035   2
  -7   8   0 7401.45 567.702   1
  -7   8   1 11478.5 609.357   2
  -7   8   1 11618.4 716.080   1
  -7   8   2 5360.85 497.411   1
  -7   9 -11 29.9213 94.1376   1
  -7   9 -10 82.2474 129.333   1
  -7   9 -10 3.41941 123.699   2
  -7   9  -9 447.579 195.315   1
  -7   9  -9 195.359 145.138   2
  -7   9  -8 6995.98 647.960   1
  -7   9  -8 7476.70 683.606   2
  -7   9  -7 8237.54 705.620   2
  -7   9  -7 9736.13 734.741   1
  -7   9  -6 5931.52 565.409   1
  -7   9  -6 6356.36 593.665   2
  -7   9  -5 5375.50 514.315   1
  -7   9  -5 5730.00 539.262   2
  -7   9  -4 6725.08 557.050   1
  -7   9  -4 6508.90 553.734   2
  -7   9  -3 2514.17 330.747   2
  -7   9  -3 2903.00 379.229   1
  -7   9  -2 1912.99 314.291   1
  -7   9  -2 1992.86 289.881   2
  -7   9  -1 3366.28 385.207   2
  -7   9  -1 3023.03 372.385   1
  -7   9   0 136.866 90.0618   2
  -7   9   0 29.1041 55.9054   1
  -7   9   1 805.653 166.136   2
  -7   9   1 618.088 177.276   1
  -7  10 -11 1933.39 399.254   1
  -7  10 -10 3264.85 505.631   2
  -7  10 -10 3486.07 503.233   1
  -7  10  -9 2490.27 419.026   2
  -7  10  -9 2762.67 425.169   1
  -7  10  -8 1002.55 265.609   2
  -7  10  -8 1026.20 256.894   1
  -7  10  -7 45.8471 81.2046   2
  -7  10  -7-55.9811 82.3638   1
  -7  10  -6-112.538 115.322   2
  -7  10  -6 53.4262 78.8539   1
  -7  10  -5 191.964 127.306   1
  -7  10  -5 82.3389 120.151   2
  -7  10  -4 1481.07 276.049   1
  -7  10  -4 1232.29 247.611   2
  -7  10  -3 8521.71 657.328   1
  -7  10  -3 8191.62 603.385   2
  -7  10  -2 11385.5 694.711   2
  -7  10  -2 12124.4 768.213   1
  -7  10  -1 10184.8 660.507   2
  -7  10  -1 12014.8 765.779   1
  -7  10   0 8641.53 567.164   2
  -7  10   0 9092.99 667.199   1
  -7  11 -11 256.166 164.044   1
  -7  11 -10 3705.71 519.512   1
  -7  11  -9 8230.96 777.643   2
  -7  11  -9 7066.78 686.927   1
  -7  11  -8 6094.10 644.903   2
  -7  11  -8 5857.09 608.756   1
  -7  11  -7 5241.71 550.980   1
  -7  11  -7 5281.31 585.022   2
  -7  11  -6 702.926 212.442   1
  -7  11  -6 672.082 222.531   2
  -7  11  -5 1436.52 276.206   1
  -7  11  -5 1584.81 301.370   2
  -7  11  -4 44.1203 86.6402   1
  -7  11  -4-45.6816 95.9300   2
  -7  11  -3 1039.90 223.455   2
  -7  11  -3 866.778 206.582   1
  -7  11  -2 3428.74 396.312   2
  -7  11  -2 4460.47 480.863   1
  -7  11  -1 13073.9 738.517   2
  -7  11  -1 14737.7 875.443   1
  -7  11   0 14188.1 718.280   2
  -7  12  -9 79.9220 104.771   2
  -7  12  -9 140.622 126.831   1
  -7  12  -8 1932.61 384.403   2
  -7  12  -8 1642.31 314.383   1
  -7  12  -7 4497.87 557.171   2
  -7  12  -7 4746.54 526.425   1
  -7  12  -6 8845.59 740.819   2
  -7  12  -6 8517.71 699.447   1
  -7  12  -5 5939.57 582.114   2
  -7  12  -5 6170.26 598.712   1
  -7  12  -4 3228.32 412.956   2
  -7  12  -4 2125.91 342.085   1
  -7  12  -3 889.001 229.704   1
  -7  12  -3 769.322 210.123   2
  -7  12  -2 1086.11 245.555   2
  -7  12  -2 616.413 195.905   1
  -7  13  -8 901.311 283.513   2
  -7  13  -7 207.805 165.703   2
  -7  13  -6 476.524 213.332   2
  -7  13  -5 1469.56 291.049   2
  -7  13  -4 2518.44 371.231   2
  -7  13  -3 1831.71 319.832   1
  -7  14  -7 3137.18 479.306   2
  -7  14  -6 2188.56 393.621   2
  -6  -6  -5 2872.87 403.316   1
  -6  -6  -4 4106.93 460.048   1
  -6  -6  -3 3926.74 427.134   1
  -6  -6  -2 383.647 134.433   1
  -6  -6  -1 330.304 120.124   1
  -6  -6   0 4591.08 360.822   1
  -6  -6   1 6739.31 399.306   1
  -6  -6   2 12965.6 507.335   1
  -6  -5  -7-89.0793 129.749   1
  -6  -5  -6 111.186 113.112   1
  -6  -5  -5 86.8003 86.8928   1
  -6  -5  -4 7452.05 658.163   1
  -6  -5  -3 13835.5 779.336   1
  -6  -5  -2 10361.1 628.947   1
  -6  -5  -1 5954.79 443.897   1
  -6  -5   0 8026.17 486.069   1
  -6  -5   1 2643.99 252.687   1
  -6  -5   2 75.2361 49.9384   1
  -6  -5   3 2458.21 215.489   1
  -6  -5   4 1438.84 157.871   1
  -6  -4  -8 3366.14 503.313   1
  -6  -4  -7 1790.48 350.130   1
  -6  -4  -6 955.555 246.668   1
  -6  -4  -5 180.027 113.001   1
  -6  -4  -4 2101.03 310.441   1
  -6  -4  -3 6645.13 532.493   1
  -6  -4  -2 5451.27 448.822   1
  -6  -4  -1 2592.49 291.447   1
  -6  -4   0 9958.81 526.947   1
  -6  -4   1 9485.35 479.621   1
  -6  -4   2 18285.8 624.503   1
  -6  -4   3 3079.54 249.892   1
  -6  -4   4 1450.04 170.497   1
  -6  -3  -9 669.055 239.436   1
  -6  -3  -8 3549.29 503.265   1
  -6  -3  -7 6518.23 641.334   1
  -6  -3  -6 12213.8 834.730   1
  -6  -3  -5 7240.01 603.421   1
  -6  -3  -4 8095.08 604.713   1
  -6  -3  -3 1857.91 274.498   1
  -6  -3  -2 440.764 134.494   1
  -6  -3  -1 2492.70 281.032   1
  -6  -3   0 3916.51 326.094   1
  -6  -3   1 4799.52 343.724   1
  -6  -3   2 8868.14 443.614   1
  -6  -3   3 46030.3 984.708   1
  -6  -3   4 46744.9 982.649   1
  -6  -3   5 58150.7 1127.68   1
  -6  -2  -9 208.939 133.490   1
  -6  -2  -8 87.6759 125.228   1
  -6  -2  -7 96.8895 74.2320   2
  -6  -2  -7 99.7254 130.454   1
  -6  -2  -6 5444.67 459.505   2
  -6  -2  -6 5645.43 564.158   1
  -6  -2  -5 12507.9 670.051   2
  -6  -2  -5 12396.2 776.388   1
  -6  -2  -4 4919.39 463.750   1
  -6  -2  -3 22529.2 941.213   1
  -6  -2  -2 14819.5 722.613   1
  -6  -2  -1 10061.3 568.301   1
  -6  -2   0 3841.90 322.112   1
  -6  -2   1 2954.78 269.680   1
  -6  -2   2 2249.00 227.646   1
  -6  -2   3 3094.56 263.639   1
  -6  -2   4 15270.4 585.685   1
  -6  -2   5 28326.8 817.343   1
  -6  -1 -10 9405.08 894.674   1
  -6  -1  -9 5295.61 617.563   1
  -6  -1  -8 4043.14 524.740   1
  -6  -1  -8 4450.69 475.148   2
  -6  -1  -7 8903.90 634.944   2
  -6  -1  -7 8742.43 718.160   1
  -6  -1  -6 2916.47 395.302   1
  -6  -1  -6 2701.01 340.379   2
  -6  -1  -5 1409.45 235.066   2
  -6  -1  -5 1308.06 248.597   1
  -6  -1  -4 118.502 95.6842   2
  -6  -1  -4 29.5492 45.4708   1
  -6  -1  -3 19651.9 866.973   1
  -6  -1  -3 16835.4 744.473   2
  -6  -1  -2 22134.9 867.873   1
  -6  -1  -1 6746.59 460.142   1
  -6  -1   0 41586.7 1081.96   1
  -6  -1   1 21274.7 730.798   1
  -6  -1   2 6189.00 381.682   1
  -6  -1   3 5419.35 358.784   1
  -6  -1   4 1933.12 216.686   1
  -6  -1   5 897.930 155.151   1
  -6   0 -10 2259.18 424.069   1
  -6   0 -10 1549.01 313.210   2
  -6   0  -9 4662.53 518.339   2
  -6   0  -9 4166.16 540.970   1
  -6   0  -8 7288.13 681.362   1
  -6   0  -8 7152.89 614.581   2
  -6   0  -7 2387.88 369.489   1
  -6   0  -7 1710.36 290.423   2
  -6   0  -6 6610.51 536.202   2
  -6   0  -6 5115.50 507.740   1
  -6   0  -5 7387.55 539.743   2
  -6   0  -5 7025.60 569.415   1
  -6   0  -4 16395.6 811.371   2
  -6   0  -4 16425.0 827.920   1
  -6   0  -3 630.269 158.990   1
  -6   0  -3 675.705 159.488   2
  -6   0  -2 4.83832 46.8674   1
  -6   0  -2 30.6927 36.2610   2
  -6   0  -1 2550.91 277.566   1
  -6   0   0 13756.7 616.986   1
  -6   0   1 10267.8 515.675   1
  -6   0   2 13955.6 568.189   1
  -6   0   3 41656.0 1022.38   1
  -6   0   4 21825.6 741.736   1
  -6   0   5 19753.4 737.173   1
  -6   1 -11 3040.64 434.424   2
  -6   1 -10 4783.12 515.924   2
  -6   1 -10 4800.17 611.308   1
  -6   1  -9 407.050 185.484   1
  -6   1  -9 222.381 110.493   2
  -6   1  -8 190.421 117.497   2
  -6   1  -8 605.674 211.170   1
  -6   1  -7 7105.02 559.891   2
  -6   1  -7 8206.60 670.372   1
  -6   1  -6 7689.89 564.525   2
  -6   1  -6 8147.08 642.847   1
  -6   1  -5 11363.5 678.094   2
  -6   1  -5 10252.6 685.623   1
  -6   1  -4 8617.64 587.486   2
  -6   1  -4 7630.12 560.408   1
  -6   1  -3 52720.9 1348.10   2
  -6   1  -3 54105.7 1402.41   1
  -6   1  -2 22362.3 860.618   2
  -6   1  -2 23237.9 882.454   1
  -6   1  -1 17515.8 736.127   1
  -6   1  -1 16951.2 714.394   2
  -6   1   0 3845.50 328.459   1
  -6   1   1 48.8677 43.8377   1
  -6   1   2 473.909 110.221   1
  -6   1   3 2749.01 271.408   1
  -6   1   4 16652.8 673.836   1
  -6   1   5 36413.6 1043.26   1
  -6   2 -12 941.109 255.019   2
  -6   2 -11 5946.99 609.160   2
  -6   2 -11 7607.03 775.309   1
  -6   2 -10 5149.09 605.694   1
  -6   2 -10 5099.89 533.104   2
  -6   2  -9 7131.40 603.166   2
  -6   2  -9 7260.15 692.516   1
  -6   2  -8 8149.53 693.934   1
  -6   2  -8 8568.69 639.039   2
  -6   2  -7 10771.6 684.634   2
  -6   2  -7 11005.9 768.982   1
  -6   2  -6 489.060 167.670   1
  -6   2  -6 480.886 145.674   2
  -6   2  -5 681.430 171.325   1
  -6   2  -5 364.698 116.351   2
  -6   2  -4 4811.21 438.881   1
  -6   2  -4 3782.27 369.541   2
  -6   2  -3 26496.7 972.567   2
  -6   2  -3 25336.5 974.372   1
  -6   2  -2 20574.5 815.264   1
  -6   2  -2 21167.5 829.572   2
  -6   2  -1 22079.8 831.972   2
  -6   2  -1 24495.0 864.958   1
  -6   2   0 25972.7 861.500   1
  -6   2   0 28988.7 902.422   2
  -6   2   1 5892.44 398.946   1
  -6   2   2 16252.9 670.938   1
  -6   2   3 10119.1 528.014   1
  -6   2   4 1438.58 205.687   1
  -6   3 -12 1835.33 350.115   2
  -6   3 -11 130.851 140.149   2
  -6   3 -11 177.543 140.398   1
  -6   3 -10 3579.51 510.907   1
  -6   3 -10 2789.74 407.227   2
  -6   3  -9 3556.79 475.185   1
  -6   3  -9 2756.24 386.516   2
  -6   3  -8 22924.4 1079.44   2
  -6   3  -8 19768.6 1071.45   1
  -6   3  -7 17923.8 979.475   1
  -6   3  -7 17994.3 909.066   2
  -6   3  -6 14955.0 849.991   1
  -6   3  -6 14535.8 784.329   2
  -6   3  -5 7292.02 558.491   1
  -6   3  -5 7470.65 532.643   2
  -6   3  -4 6773.55 487.289   2
  -6   3  -4 6729.46 520.572   1
  -6   3  -3 3638.96 349.500   2
  -6   3  -3 4218.27 389.246   1
  -6   3  -2 368.065 105.700   2
  -6   3  -2 467.763 131.535   1
  -6   3  -1 9.00809 44.1135   1
  -6   3  -1 180.291 73.5592   2
  -6   3   0 16334.5 686.437   2
  -6   3   0 16438.6 692.460   1
  -6   3   1 14541.1 621.612   2
  -6   3   1 14772.3 639.268   1
  -6   3   2 61472.0 1355.95   1
  -6   3   3 30918.4 954.068   1
  -6   3   4 24131.4 858.915   1
  -6   4 -12 6963.14 699.837   2
  -6   4 -11 2499.98 410.518   2
  -6   4 -11 3232.58 502.511   1
  -6   4 -10 4827.87 579.157   1
  -6   4 -10 4546.20 535.029   2
  -6   4  -9 821.283 224.538   2
  -6   4  -9 1129.80 280.209   1
  -6   4  -8 999.820 231.295   2
  -6   4  -8 1427.24 283.363   1
  -6   4  -7 5255.12 524.824   1
  -6   4  -7 4881.90 483.713   2
  -6   4  -6 4070.03 437.054   1
  -6   4  -6 4647.18 449.248   2
  -6   4  -5 9468.21 611.865   2
  -6   4  -5 9253.61 627.892   1
  -6   4  -4 12504.6 669.875   2
  -6   4  -4 12366.7 696.936   1
  -6   4  -3 20611.2 827.119   2
  -6   4  -3 20790.3 868.653   1
  -6   4  -2 25604.8 921.859   1
  -6   4  -2 25301.0 893.776   2
  -6   4  -1 8850.21 545.641   2
  -6   4  -1 8127.83 504.489   1
  -6   4   0 2621.98 276.802   1
  -6   4   0 3272.76 313.225   2
  -6   4   1 1865.03 239.446   1
  -6   4   1 1800.97 220.951   2
  -6   4   2 804.590 162.822   1
  -6   4   3 11960.5 612.266   1
  -6   4   4 15757.5 735.569   1
  -6   5 -12 1842.07 406.778   1
  -6   5 -12 2061.52 385.854   2
  -6   5 -11 8853.60 767.039   2
  -6   5 -11 9394.52 844.682   1
  -6   5 -10 6704.89 678.822   1
  -6   5 -10 6207.26 611.621   2
  -6   5  -9 12812.9 889.237   1
  -6   5  -9 11081.4 788.717   2
  -6   5  -8 6683.64 588.893   2
  -6   5  -8 7338.07 638.610   1
  -6   5  -7 6460.12 553.591   2
  -6   5  -7 6703.08 580.050   1
  -6   5  -6 327.379 125.024   2
  -6   5  -6 134.805 88.5493   1
  -6   5  -5-30.4698 49.6303   2
  -6   5  -5 35.1492 65.8543   1
  -6   5  -4 1168.88 216.616   1
  -6   5  -4 1368.04 229.674   2
  -6   5  -3 12521.9 675.161   1
  -6   5  -3 12020.9 637.742   2
  -6   5  -2 18339.8 770.965   2
  -6   5  -2 20693.6 838.481   1
  -6   5  -1 35886.8 1067.83   2
  -6   5  -1 35430.5 1079.25   1
  -6   5   0 26268.4 885.865   2
  -6   5   0 23707.4 875.481   1
  -6   5   1 19016.8 722.306   2
  -6   5   1 18824.7 798.186   1
  -6   5   2 1714.28 234.045   1
  -6   5   3 2824.98 309.730   1
  -6   6 -12 161.871 167.837   1
  -6   6 -12 80.9979 131.261   2
  -6   6 -11 1142.79 307.404   1
  -6   6 -11 1115.00 281.499   2
  -6   6 -10 1963.69 354.806   2
  -6   6 -10 2205.53 389.324   1
  -6   6  -9 3143.74 438.930   1
  -6   6  -9 2477.96 381.691   2
  -6   6  -8 13172.6 851.649   1
  -6   6  -8 12191.8 806.667   2
  -6   6  -7 4375.83 462.153   2
  -6   6  -7 4412.32 477.534   1
  -6   6  -6 12561.8 751.791   1
  -6   6  -6 12244.4 737.366   2
  -6   6  -5 12271.4 722.252   1
  -6   6  -5 13185.5 738.143   2
  -6   6  -4 1648.19 251.488   2
  -6   6  -4 1830.90 268.439   1
  -6   6  -3 98.8557 71.7462   1
  -6   6  -3 230.130 87.7565   2
  -6   6  -2 4854.68 413.541   1
  -6   6  -2 4131.05 364.532   2
  -6   6  -1 1411.60 213.516   1
  -6   6  -1 1432.62 215.527   2
  -6   6   0 17644.5 730.188   2
  -6   6   0 17921.1 787.923   1
  -6   6   1 11476.8 560.467   2
  -6   6   1 9427.96 570.885   1
  -6   6   2 10809.4 622.301   1
  -6   6   3 11399.9 654.500   1
  -6   7 -12 3361.53 505.758   2
  -6   7 -12 2881.16 471.168   1
  -6   7 -11 2367.26 420.463   1
  -6   7 -11 994.062 276.515   2
  -6   7 -10 1224.15 279.711   1
  -6   7 -10 1064.14 260.876   2
  -6   7  -9 236.542 132.284   1
  -6   7  -9 9.70249 70.4631   2
  -6   7  -8 1234.15 261.102   1
  -6   7  -8 559.174 174.313   2
  -6   7  -7 2350.86 341.177   1
  -6   7  -7 2244.58 332.550   2
  -6   7  -6 14444.2 812.865   1
  -6   7  -6 14857.0 823.330   2
  -6   7  -5 18287.7 876.883   2
  -6   7  -5 18374.3 890.079   1
  -6   7  -4 35936.2 1197.88   1
  -6   7  -4 37770.6 1226.21   2
  -6   7  -3 37908.9 1174.90   2
  -6   7  -3 36390.5 1169.66   1
  -6   7  -2 20357.3 813.774   2
  -6   7  -2 19000.4 809.077   1
  -6   7  -1 1243.95 203.875   2
  -6   7  -1 1132.17 200.815   1
  -6   7   0 3915.53 375.894   1
  -6   7   0 4242.04 361.609   2
  -6   7   1 265.626 104.337   2
  -6   7   1 189.016 89.9450   1
  -6   7   2 481.751 136.557   1
  -6   8 -12 1672.47 364.869   1
  -6   8 -11 7208.60 726.471   1
  -6   8 -11 6441.84 687.177   2
  -6   8 -10 11376.3 861.194   1
  -6   8 -10 10240.6 834.679   2
  -6   8  -9 13863.4 901.209   1
  -6   8  -9 14289.7 928.602   2
  -6   8  -8 10129.7 727.916   1
  -6   8  -8 9670.98 734.037   2
  -6   8  -7 1027.35 233.051   2
  -6   8  -7 813.276 208.527   1
  -6   8  -6 221.305 131.660   2
  -6   8  -6 209.047 113.292   1
  -6   8  -5 962.060 206.370   1
  -6   8  -5 846.656 197.508   2
  -6   8  -4 2130.91 296.512   1
  -6   8  -4 1946.75 283.900   2
  -6   8  -3 2900.05 330.922   2
  -6   8  -3 3108.89 340.600   1
  -6   8  -2 6480.79 465.872   2
  -6   8  -2 5939.81 478.328   1
  -6   8  -1 28872.1 966.424   2
  -6   8  -1 27053.4 1027.86   1
  -6   8   0 11967.8 681.362   1
  -6   8   0 11317.1 595.953   2
  -6   8   1 6073.39 489.146   1
  -6   8   1 6186.23 411.706   2
  -6   9 -12 313.526 226.970   1
  -6   9 -11 338.665 170.965   1
  -6   9 -11 393.877 178.416   2
  -6   9 -10 2079.41 363.534   1
  -6   9 -10 2050.97 377.429   2
  -6   9  -9 3720.92 494.257   2
  -6   9  -9 3326.20 447.069   1
  -6   9  -8 14669.8 926.774   2
  -6   9  -8 12458.5 821.395   1
  -6   9  -7 11019.7 737.030   1
  -6   9  -7 10214.6 742.992   2
  -6   9  -6 6699.30 556.282   1
  -6   9  -6 5784.84 533.281   2
  -6   9  -5 1100.91 228.331   1
  -6   9  -5 468.531 151.101   2
  -6   9  -4 26.4324 59.6312   1
  -6   9  -4-14.5437 46.2422   2
  -6   9  -3-0.48803 67.6034   1
  -6   9  -3 27.1725 45.1646   2
  -6   9  -2 787.592 166.504   2
  -6   9  -2 967.699 206.822   1
  -6   9  -1 1105.84 189.728   2
  -6   9  -1 954.125 198.948   1
  -6   9   0 16288.6 710.990   2
  -6   9   0 14248.2 770.676   1
  -6   9   1 16467.9 847.874   1
  -6   9   1 16041.4 655.379   2
  -6  10 -12 3824.97 544.400   1
  -6  10 -11 1319.32 321.684   1
  -6  10 -11 1153.79 316.268   2
  -6  10 -10 909.007 261.713   1
  -6  10 -10 661.950 230.115   2
  -6  10  -9 16.9848 81.4142   2
  -6  10  -9 151.204 123.187   1
  -6  10  -8 96.8081 88.3986   1
  -6  10  -8 314.209 153.646   2
  -6  10  -7 6381.43 567.129   1
  -6  10  -7 5554.13 553.974   2
  -6  10  -6 5618.46 537.152   2
  -6  10  -6 4861.56 480.908   1
  -6  10  -5 8067.27 582.279   1
  -6  10  -5 9398.49 667.032   2
  -6  10  -4 14398.1 797.459   1
  -6  10  -4 14774.5 812.911   2
  -6  10  -3 4598.92 436.061   2
  -6  10  -3 5477.46 501.206   1
  -6  10  -2 8318.28 598.446   1
  -6  10  -2 6763.18 496.910   2
  -6  10  -1 9967.70 590.100   2
  -6  10  -1 9202.99 629.962   1
  -6  10   0 250.874 117.240   1
  -6  10   0 258.784 89.3445   2
  -6  10   1 1681.79 217.725   2
  -6  11 -11 5992.80 645.704   1
  -6  11 -10 3791.45 479.514   1
  -6  11 -10 4341.28 581.106   2
  -6  11  -9 4204.13 498.910   1
  -6  11  -9 4474.32 563.717   2
  -6  11  -8 2054.00 358.609   2
  -6  11  -8 3054.96 408.781   1
  -6  11  -7 702.245 200.335   1
  -6  11  -7 837.882 225.874   2
  -6  11  -6 587.464 188.768   2
  -6  11  -6 630.357 176.413   1
  -6  11  -5 607.445 171.980   1
  -6  11  -5 747.813 180.489   2
  -6  11  -4 4634.60 465.320   1
  -6  11  -4 3531.61 407.742   2
  -6  11  -3 6481.27 545.378   1
  -6  11  -3 4472.25 442.227   2
  -6  11  -2 9535.94 654.465   1
  -6  11  -2 9619.07 610.670   2
  -6  11  -1 14762.4 836.781   1
  -6  11  -1 15260.6 770.678   2
  -6  12 -10 719.434 253.030   2
  -6  12  -9 805.299 255.909   2
  -6  12  -8 7566.31 707.404   2
  -6  12  -7 7414.38 624.131   1
  -6  12  -7 8864.51 746.110   2
  -6  12  -6 6880.70 620.290   2
  -6  12  -6 6654.87 591.976   1
  -6  12  -5 3636.64 421.113   1
  -6  12  -5 2552.49 371.386   2
  -6  12  -4 669.779 193.603   1
  -6  12  -4 606.050 177.879   2
  -6  12  -3 11.9803 70.3478   2
  -6  12  -3 12.8838 88.8601   1
  -6  12  -2 632.987 189.654   1
  -6  12  -2 639.935 170.197   2
  -6  13  -9 74.5423 153.596   2
  -6  13  -8 1006.73 279.230   2
  -6  13  -7 3479.23 476.032   2
  -6  13  -6 1839.42 336.735   2
  -6  13  -5 4258.14 480.015   2
  -6  13  -4 3176.28 402.199   2
  -6  14  -8 1049.13 290.491   2
  -6  14  -7 538.305 220.785   2
  -6  14  -6 24.5365 104.164   2
  -5  -6  -8 3571.79 509.234   1
  -5  -6  -7 3414.28 492.418   1
  -5  -6  -6 1908.90 353.872   1
  -5  -6  -5 631.428 192.989   1
  -5  -6  -4-2.15827 67.2275   1
  -5  -6  -3 412.747 139.905   1
  -5  -6  -2 6317.64 463.221   1
  -5  -6  -1 4982.82 380.580   1
  -5  -6   0 5665.95 371.259   1
  -5  -6   1 5223.50 319.078   1
  -5  -6   2 16173.9 493.152   1
  -5  -6   3 4689.60 231.965   1
  -5  -5  -8 1558.57 341.154   1
  -5  -5  -7 1219.14 273.892   1
  -5  -5  -6 4206.45 493.135   1
  -5  -5  -5 9004.44 677.038   1
  -5  -5  -4 8769.71 622.957   1
  -5  -5  -3 8788.10 578.309   1
  -5  -5  -2 1721.79 234.721   1
  -5  -5  -1 867.747 160.329   1
  -5  -5   0 485.854 102.187   1
  -5  -5   1 922.154 136.941   1
  -5  -5   2 5821.93 306.043   1
  -5  -5   3 19746.6 520.089   1
  -5  -5   4 27929.7 567.630   1
  -5  -4  -9 1532.33 346.540   1
  -5  -4  -8 749.419 233.504   1
  -5  -4  -7 452.475 169.876   1
  -5  -4  -6 169.576 123.477   1
  -5  -4  -5 3174.83 396.482   1
  -5  -4  -4 4049.48 409.542   1
  -5  -4  -3 25190.0 964.763   1
  -5  -4  -2 15288.3 696.121   1
  -5  -4  -1 17789.2 699.309   1
  -5  -4   0 11488.0 517.541   1
  -5  -4   1 4527.82 300.631   1
  -5  -4   2 168.303 56.6867   1
  -5  -4   3 309.427 71.2856   1
  -5  -4   4 12394.6 426.393   1
  -5  -3  -9 9872.82 861.240   1
  -5  -3  -8 6690.65 677.964   1
  -5  -3  -7 9142.17 738.450   1
  -5  -3  -6 6191.65 569.484   1
  -5  -3  -5 1486.61 266.808   1
  -5  -3  -4 487.015 142.358   1
  -5  -3  -3 1069.60 196.092   1
  -5  -3  -2 12110.3 611.251   1
  -5  -3  -1 9258.88 499.343   1
  -5  -3   0 23485.0 742.720   1
  -5  -3   1 6654.18 363.555   1
  -5  -3   2 19508.7 579.202   1
  -5  -3   3 25929.2 657.590   1
  -5  -3   4 23278.1 617.599   1
  -5  -2 -10 219.997 201.256   1
  -5  -2  -9 3705.12 513.446   1
  -5  -2  -8 4596.42 439.190   2
  -5  -2  -8 4588.63 550.880   1
  -5  -2  -7 7062.93 642.865   1
  -5  -2  -7 7061.23 515.239   2
  -5  -2  -6 21527.3 858.989   2
  -5  -2  -6 23269.3 1084.37   1
  -5  -2  -5 4385.33 437.826   1
  -5  -2  -5 4994.30 404.048   2
  -5  -2  -4 8840.60 507.852   2
  -5  -2  -4 9173.07 596.925   1
  -5  -2  -3 18707.3 798.600   1
  -5  -2  -2 2576.81 282.383   1
  -5  -2  -1 2794.92 274.301   1
  -5  -2   0 1398.18 182.915   1
  -5  -2   1 7160.46 377.176   1
  -5  -2   2 21152.7 616.445   1
  -5  -2   3 31850.2 754.199   1
  -5  -2   4 27225.6 702.539   1
  -5  -1 -10 4680.72 617.216   1
  -5  -1  -9 2398.50 411.479   1
  -5  -1  -9 1872.17 308.644   2
  -5  -1  -8 1649.38 325.155   1
  -5  -1  -8 2157.37 322.809   2
  -5  -1  -7 1856.68 288.034   2
  -5  -1  -7 1370.55 279.668   1
  -5  -1  -6 549.372 174.079   1
  -5  -1  -6 499.880 143.083   2
  -5  -1  -5 919.162 177.317   2
  -5  -1  -5 861.636 190.255   1
  -5  -1  -4 10916.4 598.263   2
  -5  -1  -4 10357.2 625.925   1
  -5  -1  -3 53434.6 1232.58   2
  -5  -1  -3 55154.3 1350.41   1
  -5  -1  -2 21545.9 749.135   2
  -5  -1  -2 25218.0 863.077   1
  -5  -1  -1 17571.3 671.084   1
  -5  -1   0 23169.4 718.965   1
  -5  -1   1 1961.73 199.180   1
  -5  -1   2 3753.76 263.237   1
  -5  -1   3 1240.86 154.456   1
  -5  -1   4 492.094 100.570   1
  -5   0 -11 2321.55 447.943   1
  -5   0 -10 3999.60 445.678   2
  -5   0 -10 4212.16 549.142   1
  -5   0  -9 10895.2 702.674   2
  -5   0  -9 11917.3 883.134   1
  -5   0  -8 10791.3 672.797   2
  -5   0  -8 11964.9 832.999   1
  -5   0  -7 2932.67 334.211   2
  -5   0  -7 3178.28 408.404   1
  -5   0  -6 1061.63 236.503   1
  -5   0  -6 1005.19 187.548   2
  -5   0  -5 934.687 181.374   2
  -5   0  -5 977.121 206.178   1
  -5   0  -4 1431.44 223.134   2
  -5   0  -4 804.858 173.139   1
  -5   0  -3 8531.35 527.411   1
  -5   0  -3 8860.43 506.885   2
  -5   0  -2 39238.2 1038.79   2
  -5   0  -2 38003.8 1057.35   1
  -5   0  -1 48586.2 1117.60   1
  -5   0  -1 46636.0 1080.96   2
  -5   0   0 75689.8 1310.82   1
  -5   0   1 20526.6 652.017   1
  -5   0   2 2494.13 219.841   1
  -5   0   3 8725.10 423.045   1
  -5   0   4 45.9497 21.6565   1
  -5   1 -11 815.187 215.330   2
  -5   1 -11 1090.74 312.934   1
  -5   1 -10 133.249 159.897   1
  -5   1 -10-93.3079 80.1398   2
  -5   1  -9 2725.86 354.850   2
  -5   1  -9 1770.40 324.353   1
  -5   1  -8 18155.1 880.166   2
  -5   1  -8 19527.4 1045.59   1
  -5   1  -7 28347.2 1048.75   2
  -5   1  -7 29605.1 1219.03   1
  -5   1  -6 28005.5 1115.43   1
  -5   1  -6 27587.2 985.310   2
  -5   1  -5 15842.0 712.524   2
  -5   1  -5 14024.8 745.047   1
  -5   1  -4 22047.3 885.262   1
  -5   1  -4 21019.3 796.816   2
  -5   1  -3 13677.8 657.966   1
  -5   1  -3 11823.8 580.017   2
  -5   1  -2 13518.2 615.873   2
  -5   1  -2 14330.3 638.550   1
  -5   1  -1 10707.8 519.017   1
  -5   1  -1 11365.2 538.909   2
  -5   1   0 6204.84 374.831   1
  -5   1   0 6258.84 384.558   2
  -5   1   1 863.912 137.286   1
  -5   1   2 102.176 55.0623   1
  -5   1   3 86767.1 1378.79   1
  -5   1   4 88826.4 1447.96   1
  -5   2 -12 3858.93 486.023   2
  -5   2 -12 4456.85 598.432   1
  -5   2 -11 9488.01 836.703   1
  -5   2 -11 7737.69 663.663   2
  -5   2 -10 1106.41 280.861   1
  -5   2 -10 1836.17 313.277   2
  -5   2  -9 3166.32 394.587   2
  -5   2  -9 3964.27 486.393   1
  -5   2  -8 2465.98 330.233   2
  -5   2  -8 2959.96 395.071   1
  -5   2  -7 995.565 207.994   2
  -5   2  -7 1331.38 253.156   1
  -5   2  -6 3544.57 386.880   1
  -5   2  -6 3319.14 353.637   2
  -5   2  -5 11987.3 682.405   1
  -5   2  -5 11146.7 610.192   2
  -5   2  -4 12120.5 604.031   2
  -5   2  -4 13800.5 691.387   1
  -5   2  -3 12417.8 621.381   1
  -5   2  -3 11480.1 567.285   2
  -5   2  -2 19046.6 698.502   2
  -5   2  -2 19277.6 731.778   1
  -5   2  -1 25312.2 811.620   2
  -5   2  -1 23389.8 771.649   1
  -5   2   0 13305.3 556.533   1
  -5   2   0 13407.4 563.947   2
  -5   2   1 33771.1 855.593   1
  -5   2   2 12466.3 540.436   1
  -5   2   3 13754.8 571.642   1
  -5   2   4 6613.01 416.106   1
  -5   3 -13 407.730 192.448   2
  -5   3 -12 291.532 184.858   1
  -5   3 -12 94.2279 105.245   2
  -5   3 -11 5706.60 634.778   1
  -5   3 -11 4756.31 530.350   2
  -5   3 -10 8434.05 737.060   1
  -5   3 -10 6736.34 605.288   2
  -5   3  -9 11748.7 757.254   2
  -5   3  -9 12375.1 842.135   1
  -5   3  -8 31240.0 1265.42   1
  -5   3  -8 29839.5 1155.86   2
  -5   3  -7 8112.39 577.071   2
  -5   3  -7 8903.68 646.161   1
  -5   3  -6 10561.5 624.574   2
  -5   3  -6 11726.6 707.301   1
  -5   3  -5 1288.29 208.724   2
  -5   3  -5 1892.17 271.708   1
  -5   3  -4 3132.90 314.055   2
  -5   3  -4 3114.43 326.191   1
  -5   3  -3 9198.27 510.309   2
  -5   3  -3 8971.15 526.538   1
  -5   3  -2 26098.9 817.579   2
  -5   3  -2 27722.6 868.781   1
  -5   3  -1 32122.9 909.978   2
  -5   3  -1 30634.6 878.301   1
  -5   3   0 83905.7 1438.89   1
  -5   3   0 93518.0 1540.74   2
  -5   3   1 61353.1 1171.13   2
  -5   3   1 38077.6 960.134   1
  -5   3   2 1563.47 196.653   1
  -5   3   3 4742.44 352.928   1
  -5   4 -13 2589.98 440.553   2
  -5   4 -12 1436.20 350.118   1
  -5   4 -12 764.868 241.655   2
  -5   4 -11 33.2522 71.9518   1
  -5   4 -11 65.4223 140.303   2
  -5   4 -10 279.138 151.850   1
  -5   4 -10 72.8209 94.1216   2
  -5   4  -9 3884.32 441.288   2
  -5   4  -9 4077.88 474.871   1
  -5   4  -8 10549.6 698.099   2
  -5   4  -8 9466.43 692.734   1
  -5   4  -7 12304.5 753.789   1
  -5   4  -7 12220.8 714.802   2
  -5   4  -6 10560.7 630.999   2
  -5   4  -6 11240.9 684.836   1
  -5   4  -5 21030.5 856.849   2
  -5   4  -5 20041.4 864.348   1
  -5   4  -4 20335.6 832.201   1
  -5   4  -4 18872.7 776.300   2
  -5   4  -3 5696.29 412.412   2
  -5   4  -3 4895.98 378.179   1
  -5   4  -2 1.85017 31.2468   2
  -5   4  -2 0.66345 36.7077   1
  -5   4  -1 554.548 111.757   2
  -5   4  -1 694.604 136.491   1
  -5   4   0 9464.67 476.829   1
  -5   4   0 11231.2 527.248   2
  -5   4   1 10826.5 536.051   1
  -5   4   1 9993.16 473.081   2
  -5   4   2 3056.89 280.498   1
  -5   4   3 19251.2 728.203   1
  -5   5 -13 9278.19 866.454   1
  -5   5 -13 8784.37 796.922   2
  -5   5 -12 8247.91 762.261   2
  -5   5 -12 9377.95 836.146   1
  -5   5 -11 9221.65 754.943   2
  -5   5 -11 10747.5 850.575   1
  -5   5 -10 3869.39 467.182   2
  -5   5 -10 5055.72 557.699   1
  -5   5  -9 1930.86 315.156   2
  -5   5  -9 2072.78 345.821   1
  -5   5  -8 2129.82 325.599   2
  -5   5  -8 1809.05 305.333   1
  -5   5  -7 2344.96 320.040   2
  -5   5  -7 1932.35 298.738   1
  -5   5  -6 2079.92 286.566   2
  -5   5  -6 2189.42 293.306   1
  -5   5  -5 7330.63 513.252   2
  -5   5  -5 7443.53 523.211   1
  -5   5  -4 12209.0 627.741   1
  -5   5  -4 11904.0 628.056   2
  -5   5  -3 42373.7 1139.28   1
  -5   5  -3 42643.9 1134.22   2
  -5   5  -2 36499.6 996.001   2
  -5   5  -2 37127.9 1039.20   1
  -5   5  -1 49275.1 1161.86   1
  -5   5  -1 48686.1 1100.77   2
  -5   5   0 8809.79 491.973   1
  -5   5   0 9356.53 507.417   2
  -5   5   1 4093.60 338.314   1
  -5   5   1 4482.40 316.851   2
  -5   5   2 180.141 69.3838   1
  -5   6 -13 306.951 190.465   1
  -5   6 -13 52.6439 160.069   2
  -5   6 -12 1348.05 331.437   1
  -5   6 -12 2211.51 397.490   2
  -5   6 -11 2379.23 393.010   2
  -5   6 -11 1951.62 364.431   1
  -5   6 -10 9187.92 747.242   1
  -5   6 -10 9582.65 742.383   2
  -5   6  -9 7366.75 629.141   1
  -5   6  -9 7382.53 626.316   2
  -5   6  -8 13947.1 822.225   2
  -5   6  -8 12262.4 775.812   1
  -5   6  -7 14738.9 806.565   2
  -5   6  -7 15976.6 841.719   1
  -5   6  -6 11596.8 687.296   1
  -5   6  -6 12830.8 722.627   2
  -5   6  -5 223.543 109.941   2
  -5   6  -5 254.360 105.308   1
  -5   6  -4 14.2824 38.1369   2
  -5   6  -4 43.9459 50.2614   1
  -5   6  -3 1783.06 239.510   1
  -5   6  -3 2352.49 268.271   2
  -5   6  -2 29036.7 904.640   2
  -5   6  -2 28879.2 926.942   1
  -5   6  -1 12563.4 560.259   2
  -5   6  -1 12508.7 604.574   1
  -5   6   0 40150.9 1006.11   2
  -5   6   0 41377.1 1135.12   1
  -5   6   1 17789.7 640.822   2
  -5   6   1 16586.1 705.225   1
  -5   6   2 22866.5 851.020   1
  -5   7 -13 838.984 259.432   2
  -5   7 -13 1333.07 341.817   1
  -5   7 -12 2646.44 441.065   2
  -5   7 -12 2103.05 396.175   1
  -5   7 -11-77.8079 82.6551   2
  -5   7 -11 28.4680 85.0241   1
  -5   7 -10 97.7825 95.1083   2
  -5   7 -10 31.8521 107.308   1
  -5   7  -9 756.094 198.337   1
  -5   7  -9 1190.81 252.381   2
  -5   7  -8 8678.60 660.460   2
  -5   7  -8 9118.42 665.781   1
  -5   7  -7 38676.6 1325.19   2
  -5   7  -7 44980.6 1403.82   1
  -5   7  -6 15825.8 783.910   1
  -5   7  -6 18043.0 871.286   2
  -5   7  -5 10045.7 608.043   1
  -5   7  -5 9924.58 615.228   2
  -5   7  -4 18278.7 802.190   2
  -5   7  -4 19608.3 810.548   1
  -5   7  -3 3704.82 344.221   2
  -5   7  -3 4392.81 376.416   1
  -5   7  -2 554.335 138.015   2
  -5   7  -2 660.004 142.421   1
  -5   7  -1 21.9245 41.7728   2
  -5   7  -1 16.6346 52.9535   1
  -5   7   0 4189.15 326.530   2
  -5   7   0 4729.27 386.243   1
  -5   7   1 13384.5 558.383   2
  -5   7   1 13874.5 673.538   1
  -5   8 -13 4058.15 568.967   1
  -5   8 -12 5907.82 669.390   2
  -5   8 -12 7124.21 706.252   1
  -5   8 -11 8844.78 777.077   2
  -5   8 -11 7820.38 711.967   1
  -5   8 -10 4471.80 507.410   1
  -5   8 -10 3224.46 450.400   2
  -5   8  -9 4752.54 525.975   2
  -5   8  -9 6183.70 570.564   1
  -5   8  -8 986.206 227.914   1
  -5   8  -8 1132.04 249.498   2
  -5   8  -7 4955.83 466.903   1
  -5   8  -7 4653.32 468.542   2
  -5   8  -6 1438.53 249.102   1
  -5   8  -6 1580.88 261.121   2
  -5   8  -5 3908.67 378.195   1
  -5   8  -5 3873.45 398.593   2
  -5   8  -4 3315.50 346.241   2
  -5   8  -4 3197.60 339.598   1
  -5   8  -3 10425.0 587.618   2
  -5   8  -3 9922.84 567.457   1
  -5   8  -2 12609.5 622.591   2
  -5   8  -2 12666.9 659.674   1
  -5   8  -1 23294.2 784.972   2
  -5   8  -1 22925.6 875.806   1
  -5   8   0 1675.27 237.347   1
  -5   8   0 1587.33 202.265   2
  -5   8   1 71.3676 71.8326   1
  -5   8   1 19.3038 40.2501   2
  -5   9 -13 642.908 228.036   1
  -5   9 -12 2816.44 461.243   1
  -5   9 -12 3249.91 510.129   2
  -5   9 -11 4634.25 579.458   2
  -5   9 -11 4473.78 534.371   1
  -5   9 -10 4783.39 535.293   1
  -5   9 -10 6331.23 641.146   2
  -5   9  -9 5642.74 539.536   1
  -5   9  -9 6314.93 613.095   2
  -5   9  -8 7401.80 598.113   1
  -5   9  -8 8821.27 694.068   2
  -5   9  -7 7749.26 581.350   1
  -5   9  -7 8668.29 659.301   2
  -5   9  -6 1760.50 280.567   2
  -5   9  -6 1850.54 274.199   1
  -5   9  -5 372.242 125.814   1
  -5   9  -5 428.579 142.074   2
  -5   9  -4 2846.23 329.165   2
  -5   9  -4 2490.62 294.139   1
  -5   9  -3 2465.37 301.905   1
  -5   9  -3 1682.07 248.199   2
  -5   9  -2 6632.54 460.693   2
  -5   9  -2 7879.47 528.920   1
  -5   9  -1 10948.4 631.071   1
  -5   9  -1 11280.7 552.675   2
  -5   9   0 45245.7 1311.69   1
  -5   9   0 49564.9 1172.65   2
  -5   9   1 14261.3 553.448   2
  -5  10 -13 748.673 261.034   1
  -5  10 -12 998.542 268.406   1
  -5  10 -11-49.0355 102.420   2
  -5  10 -11 230.492 166.871   1
  -5  10 -10 355.397 168.902   2
  -5  10 -10 287.703 152.752   1
  -5  10  -9 1446.16 306.197   2
  -5  10  -9 1253.68 260.893   1
  -5  10  -8 7957.36 672.414   2
  -5  10  -8 7712.55 600.146   1
  -5  10  -7 10015.9 717.596   2
  -5  10  -7 9586.48 643.253   1
  -5  10  -6 11196.6 728.397   2
  -5  10  -6 10568.2 657.032   1
  -5  10  -5 10501.3 678.669   2
  -5  10  -5 10969.8 646.443   1
  -5  10  -4 5330.80 459.643   2
  -5  10  -4 6617.06 513.629   1
  -5  10  -3 463.054 136.678   2
  -5  10  -3 188.525 104.303   1
  -5  10  -2 3295.00 330.142   2
  -5  10  -2 3463.34 365.997   1
  -5  10  -1 2008.20 286.796   1
  -5  10  -1 1676.13 220.230   2
  -5  10   0 4583.61 350.419   2
  -5  10   1 4411.72 304.131   2
  -5  11 -11 3633.19 542.128   2
  -5  11 -10 2046.74 339.133   1
  -5  11 -10 990.460 276.875   2
  -5  11  -9 4149.66 520.624   2
  -5  11  -9 3211.31 418.641   1
  -5  11  -8-1.67573 59.2413   1
  -5  11  -8 28.1079 69.3284   2
  -5  11  -7 1199.78 241.321   1
  -5  11  -7 1139.93 259.294   2
  -5  11  -6 4645.39 444.426   1
  -5  11  -6 4953.28 499.847   2
  -5  11  -5 12924.6 741.567   1
  -5  11  -5 11623.6 732.958   2
  -5  11  -4 11160.7 683.297   2
  -5  11  -4 11084.3 666.383   1
  -5  11  -3 11860.3 684.508   1
  -5  11  -3 12768.8 695.170   2
  -5  11  -2 4936.66 411.660   2
  -5  11  -2 5023.33 450.617   1
  -5  11  -1 1971.57 246.086   2
  -5  12 -10 1990.93 390.306   2
  -5  12  -9 3627.42 505.774   2
  -5  12  -8 4056.61 502.852   2
  -5  12  -7 845.286 225.655   2
  -5  12  -6 1992.64 331.044   2
  -5  12  -5 1471.74 275.444   2
  -5  12  -5 1725.74 268.420   1
  -5  12  -4 51.8818 93.4516   1
  -5  12  -4 96.1517 67.3657   2
  -5  12  -3 503.653 140.816   2
  -5  12  -3 924.535 199.905   1
  -5  13 -10 642.123 268.954   2
  -5  13  -9 1467.41 321.800   2
  -5  13  -8 3610.62 493.688   2
  -5  13  -7 2994.88 427.155   2
  -5  13  -6 5341.28 545.885   2
  -5  13  -5 2150.37 337.635   2
  -5  14  -9 598.440 245.225   2
  -5  14  -8 323.888 188.904   2
  -5  14  -7 1050.00 263.953   2
  -4  -7  -7 524.206 180.804   1
  -4  -7  -6 2508.04 391.223   1
  -4  -7  -5 1154.07 252.267   1
  -4  -7  -4 3264.33 388.324   1
  -4  -7  -3 5973.37 482.266   1
  -4  -7  -2 7384.76 493.188   1
  -4  -7  -1 2505.32 262.508   1
  -4  -7   0 2559.23 235.188   1
  -4  -7   1 1830.19 164.247   1
  -4  -7   2 2832.18 154.089   1
  -4  -6  -8 2892.87 463.687   1
  -4  -6  -7 1078.59 284.214   1
  -4  -6  -6 36.6486 122.430   1
  -4  -6  -5 754.936 201.980   1
  -4  -6  -4 3267.07 372.398   1
  -4  -6  -3 12314.3 673.053   1
  -4  -6  -2 16108.9 706.051   1
  -4  -6  -1 6745.49 410.120   1
  -4  -6   0 14286.5 539.146   1
  -4  -6   1 4060.26 253.840   1
  -4  -6   2 7251.30 272.665   1
  -4  -6   3 4858.50 145.378   1
  -4  -5  -9 2151.82 393.668   1
  -4  -5  -8 2625.06 418.512   1
  -4  -5  -7 4507.72 525.516   1
  -4  -5  -6 12956.2 827.456   1
  -4  -5  -5 2963.45 377.101   1
  -4  -5  -4 5524.04 474.819   1
  -4  -5  -3 361.212 117.521   1
  -4  -5  -2 354.094 111.777   1
  -4  -5  -1 5836.07 374.507   1
  -4  -5   0 7863.42 397.770   1
  -4  -5   1 21701.8 582.732   1
  -4  -5   2 7728.17 291.859   1
  -4  -5   3 41441.4 585.462   1
  -4  -4 -10 76.0858 131.712   1
  -4  -4  -9 360.314 174.009   1
  -4  -4  -8 971.119 268.198   1
  -4  -4  -7 1580.03 296.166   1
  -4  -4  -6 6684.42 586.576   1
  -4  -4  -5 19251.6 920.438   1
  -4  -4  -4 23219.3 941.233   1
  -4  -4  -3 26537.1 943.294   1
  -4  -4  -2 3871.17 330.497   1
  -4  -4  -1 5561.20 358.321   1
  -4  -4   0 716.941 117.963   1
  -4  -4   1 371.344 75.7569   1
  -4  -4   2 7795.51 305.841   1
  -4  -4   3 13968.0 386.581   1
  -4  -4   8 14256.2 525.492   3
  -4  -4   9 51.5030 34.0309   3
  -4  -3 -10 10873.7 920.235   1
  -4  -3  -9 8385.19 757.251   1
  -4  -3  -8 2751.94 416.559   1
  -4  -3  -7 4565.72 374.252   2
  -4  -3  -7 4702.34 503.461   1
  -4  -3  -6 523.651 122.068   2
  -4  -3  -6 616.976 176.635   1
  -4  -3  -5 15.0267 33.1847   2
  -4  -3  -5 69.8035 69.3764   1
  -4  -3  -4 91.1484 81.1630   1
  -4  -3  -3 13825.0 662.244   1
  -4  -3  -2 36670.6 989.172   1
  -4  -3  -1 7514.21 406.633   1
  -4  -3   0 47194.5 937.735   1
  -4  -3   1 15670.5 481.587   1
  -4  -3   2 15164.2 434.194   1
  -4  -3   3 702.268 92.6656   1
  -4  -3   6 7571.66 398.169   3
  -4  -3   7 15725.5 557.466   3
  -4  -3   8 24084.9 664.302   3
  -4  -3   9 13803.8 487.797   3
  -4  -2 -11 69.0203 94.0136   1
  -4  -2 -10 4368.46 568.992   1
  -4  -2  -9 5359.97 585.721   1
  -4  -2  -8 21447.0 903.423   2
  -4  -2  -8 18962.1 1044.20   1
  -4  -2  -7 9072.34 552.907   2
  -4  -2  -7 9083.16 688.878   1
  -4  -2  -6 749.435 155.580   2
  -4  -2  -6 565.531 172.675   1
  -4  -2  -5 202.479 95.9809   1
  -4  -2  -5 301.697 98.8205   2
  -4  -2  -4 23892.4 773.424   2
  -4  -2  -4 25052.1 930.399   1
  -4  -2  -3 176.863 82.0042   1
  -4  -2  -3 28.4310 31.5253   2
  -4  -2  -2 187.401 66.3967   1
  -4  -2  -1 16317.5 597.426   1
  -4  -2   0 63579.1 1068.07   1
  -4  -2   1 50736.5 888.145   1
  -4  -2   2 4010.76 231.457   1
  -4  -2   3 57609.2 875.395   1
  -4  -2   4 30209.4 678.585   1
  -4  -2   4 28566.2 793.170   3
  -4  -2   5 32489.6 818.550   3
  -4  -2   6 302.829 79.7524   3
  -4  -2   7 560.568 105.287   3
  -4  -2   8 3324.32 252.136   3
  -4  -2   9 13548.6 499.233   3
  -4  -1 -11 1679.74 361.093   1
  -4  -1 -10 1374.59 242.908   2
  -4  -1 -10 1078.55 288.089   1
  -4  -1  -9 73.3035 66.7358   2
  -4  -1  -9 32.8661 117.037   1
  -4  -1  -8 333.347 117.340   2
  -4  -1  -8 326.101 138.038   1
  -4  -1  -7 10344.4 709.822   1
  -4  -1  -7 8400.45 520.686   2
  -4  -1  -6 7437.85 468.743   2
  -4  -1  -6 7311.26 563.126   1
  -4  -1  -5 37776.6 1003.47   2
  -4  -1  -5 36137.2 1179.15   1
  -4  -1  -4 27934.7 895.070   2
  -4  -1  -4 25012.9 918.591   1
  -4  -1  -3 52597.8 1112.73   2
  -4  -1  -3 53194.3 1236.28   1
  -4  -1  -2 5222.63 335.643   2
  -4  -1  -2 5702.27 375.841   1
  -4  -1  -1 23282.9 703.784   1
  -4  -1  -1 20215.2 636.265   2
  -4  -1   0 4855.45 297.642   1
  -4  -1   1 311.733 72.9568   1
  -4  -1   2 9.10971 31.3345   3
  -4  -1   2 1338.13 133.521   1
  -4  -1   3 24934.4 610.118   1
  -4  -1   3 24780.6 724.095   3
  -4  -1   4 42785.3 860.230   1
  -4  -1   4 42159.7 913.289   3
  -4  -1   5 41546.7 907.472   3
  -4  -1   6 20228.8 634.384   3
  -4  -1   7 12781.4 508.522   3
  -4  -1   8 9459.25 441.886   3
  -4  -1   9 180.991 65.7192   3
  -4   0 -12 3036.16 514.514   1
  -4   0 -11 10435.4 705.707   2
  -4   0 -11 10682.4 890.273   1
  -4   0 -10 7246.46 686.245   1
  -4   0 -10 7627.27 577.118   2
  -4   0  -9 7599.02 676.502   1
  -4   0  -9 7771.45 558.702   2
  -4   0  -8 4675.03 417.991   2
  -4   0  -8 4502.42 492.637   1
  -4   0  -7 3968.54 364.645   2
  -4   0  -7 4381.25 459.045   1
  -4   0  -6-33.9996 78.7621   1
  -4   0  -6 108.458 68.0147   2
  -4   0  -5 1783.64 217.974   2
  -4   0  -5 1899.46 269.554   1
  -4   0  -4 14379.3 593.311   2
  -4   0  -4 15295.5 702.601   1
  -4   0  -3 34057.9 884.183   2
  -4   0  -3 33150.9 950.369   1
  -4   0  -2 47196.9 1028.25   2
  -4   0  -2 44637.2 1042.72   1
  -4   0  -1 37222.9 878.776   1
  -4   0  -1 36696.7 867.568   2
  -4   0   0 88447.9 1245.30   1
  -4   0   0 86045.4 1386.45   3
  -4   0   1 6772.41 376.732   3
  -4   0   1 7060.91 335.130   1
  -4   0   2 7175.22 336.017   1
  -4   0   2-4.48866 30.7835   3
  -4   0   3 849.584 115.987   1
  -4   0   3 968.843 137.090   3
  -4   0   4 9112.56 435.022   3
  -4   0   5 8040.04 402.294   3
  -4   0   6 28327.2 774.964   3
  -4   0   7 16444.5 607.309   3
  -4   1 -12 10.1852 78.4083   2
  -4   1 -12 50.2433 156.322   1
  -4   1 -11 1703.41 300.548   2
  -4   1 -11 2391.18 419.173   1
  -4   1 -10 3878.41 421.817   2
  -4   1 -10 4537.87 541.518   1
  -4   1  -9 7966.69 576.962   2
  -4   1  -9 8724.20 709.820   1
  -4   1  -8 26679.2 1001.58   2
  -4   1  -8 29764.3 1233.03   1
  -4   1  -7 23147.0 1023.06   1
  -4   1  -7 21000.5 849.093   2
  -4   1  -6 21082.3 817.565   2
  -4   1  -6 23529.9 970.477   1
  -4   1  -5 4029.89 342.984   2
  -4   1  -5 4314.72 388.788   1
  -4   1  -4 4405.63 338.722   2
  -4   1  -4 3995.25 358.257   1
  -4   1  -3 138.737 64.8353   2
  -4   1  -3 179.962 76.9366   1
  -4   1  -2 1007.16 154.849   1
  -4   1  -2 937.150 142.472   2
  -4   1  -1 11768.3 490.405   1
  -4   1  -1 12346.6 507.966   3
  -4   1  -1 12420.7 512.287   2
  -4   1   0 37327.2 876.725   3
  -4   1   0 36760.2 817.344   1
  -4   1   0 38453.4 854.141   2
  -4   1   1 6064.12 322.624   1
  -4   1   1 6871.01 379.020   3
  -4   1   2 71088.0 1117.08   1
  -4   1   2 7.46350 27.0747   3
  -4   1   3 66397.6 1187.45   3
  -4   1   3 68171.7 1121.93   1
  -4   1   4 68054.5 1199.14   3
  -4   1   5 17194.7 619.410   3
  -4   2 -13 626.859 220.465   2
  -4   2 -12 6788.99 613.363   2
  -4   2 -12 7459.68 758.737   1
  -4   2 -11 1804.89 308.385   2
  -4   2 -11 2167.68 384.884   1
  -4   2 -10 2468.18 394.582   1
  -4   2 -10 2006.22 311.991   2
  -4   2  -9 156.002 89.5126   1
  -4   2  -9 324.171 146.261   2
  -4   2  -8 4725.75 436.113   2
  -4   2  -8 4506.08 467.045   1
  -4   2  -7 17473.1 790.512   2
  -4   2  -7 17754.5 884.613   1
  -4   2  -6 14073.9 671.453   2
  -4   2  -6 14090.5 733.231   1
  -4   2  -5 20442.8 835.667   1
  -4   2  -5 17839.8 716.834   2
  -4   2  -4 10645.6 530.951   2
  -4   2  -4 10224.4 555.317   1
  -4   2  -3 69970.6 1283.31   2
  -4   2  -3 68439.5 1225.02   3
  -4   2  -2 14283.4 547.780   3
  -4   2  -2 14148.3 568.721   1
  -4   2  -2 13614.4 533.851   2
  -4   2  -1 18735.7 620.758   1
  -4   2  -1 17686.4 585.617   2
  -4   2  -1 17219.2 600.031   3
  -4   2   0 60.8406 28.1356   1
  -4   2   0-0.49143 40.8174   3
  -4   2   1 18762.9 635.186   3
  -4   2   1 19679.3 585.073   2
  -4   2   1 19146.1 579.554   1
  -4   2   2 21640.9 692.117   3
  -4   2   2 21267.8 637.605   1
  -4   2   3 19845.1 641.261   1
  -4   2   3 3.44130 39.1510   3
  -4   3 -14 164.312 162.652   2
  -4   3 -13 1368.25 297.941   2
  -4   3 -13 2040.01 409.936   1
  -4   3 -12 5974.30 592.055   2
  -4   3 -12 8076.13 771.403   1
  -4   3 -11 10602.3 750.597   2
  -4   3 -11 13495.6 945.682   1
  -4   3 -10 12025.2 771.556   2
  -4   3 -10 12546.8 856.799   1
  -4   3  -9 17238.7 951.625   1
  -4   3  -9 17621.3 886.334   2
  -4   3  -8 3085.65 384.932   1
  -4   3  -8 3500.79 380.066   2
  -4   3  -7 4465.87 405.423   2
  -4   3  -7 5091.15 464.429   1
  -4   3  -6 710.686 159.767   2
  -4   3  -6 1224.58 212.570   1
  -4   3  -5 71.4700 55.0521   1
  -4   3  -5 117.200 62.9142   3
  -4   3  -5 124.184 70.1390   2
  -4   3  -4 22633.2 696.441   3
  -4   3  -4 23602.6 793.575   2
  -4   3  -4 24129.6 843.488   1
  -4   3  -3 35248.1 948.638   1
  -4   3  -3 34060.1 849.320   3
  -4   3  -3 33752.6 896.790   2
  -4   3  -2 27343.3 774.431   2
  -4   3  -2 28536.3 796.087   1
  -4   3  -2 28127.9 782.518   3
  -4   3  -1 14038.2 516.987   2
  -4   3  -1 14815.8 560.125   3
  -4   3   0 61785.3 1177.98   3
  -4   3   0 59647.9 1085.61   1
  -4   3   1 11252.7 479.597   1
  -4   3   1 11341.1 446.514   2
  -4   3   2 5393.24 336.815   1
  -4   3   3 473.427 106.502   1
  -4   4 -14 1693.57 351.126   2
  -4   4 -13 275.486 180.844   1
  -4   4 -13 146.457 145.374   2
  -4   4 -12 1104.88 270.162   2
  -4   4 -12 1339.78 325.956   1
  -4   4 -11 5350.36 549.435   2
  -4   4 -11 5372.41 579.714   1
  -4   4 -10 4607.48 509.744   1
  -4   4 -10 5005.71 513.666   2
  -4   4  -9 10184.3 687.576   2
  -4   4  -9 10220.0 719.823   1
  -4   4  -8 12100.0 717.169   2
  -4   4  -8 12887.8 761.910   1
  -4   4  -7 12395.8 686.914   2
  -4   4  -7 13877.1 748.757   1
  -4   4  -7 12008.4 509.669   3
  -4   4  -6 11783.9 637.779   2
  -4   4  -6 12275.1 669.545   1
  -4   4  -6 11091.6 494.025   3
  -4   4  -5 2817.87 294.166   2
  -4   4  -5 3292.02 262.974   3
  -4   4  -5 3255.71 327.403   1
  -4   4  -4 963.240 167.729   2
  -4   4  -4 1031.57 172.855   1
  -4   4  -4 926.892 141.827   3
  -4   4  -3 10235.0 502.830   2
  -4   4  -3 9073.99 450.981   3
  -4   4  -3 9225.72 484.565   1
  -4   4  -2 30527.3 823.817   2
  -4   4  -2 31073.0 846.123   1
  -4   4  -2 29811.4 828.347   3
  -4   4  -1 36296.5 850.579   2
  -4   4  -1 37231.4 895.491   1
  -4   4   0 45139.0 909.821   2
  -4   4   0 40407.9 919.453   1
  -4   4   1 32697.7 845.531   1
  -4   4   1 32240.5 760.238   2
  -4   4   2 23918.1 750.583   1
  -4   5 -14 8695.06 800.705   2
  -4   5 -13 6837.58 684.353   2
  -4   5 -13 8151.45 784.306   1
  -4   5 -12 3737.92 485.656   2
  -4   5 -12 4003.81 519.667   1
  -4   5 -11 2929.31 424.501   1
  -4   5 -11 2449.09 371.638   2
  -4   5 -10 885.435 221.073   1
  -4   5 -10 735.578 209.219   2
  -4   5  -9 340.528 211.651   2
  -4   5  -9 265.284 131.277   1
  -4   5  -8 16570.4 853.593   2
  -4   5  -8 17337.0 874.268   1
  -4   5  -7 14111.8 758.739   1
  -4   5  -7 13074.9 718.901   2
  -4   5  -7 12775.5 508.512   3
  -4   5  -6 20959.8 862.582   1
  -4   5  -6 21549.1 873.502   2
  -4   5  -5 10951.3 598.495   2
  -4   5  -5 11592.8 603.474   1
  -4   5  -5 11412.8 503.578   3
  -4   5  -4 33732.0 982.423   2
  -4   5  -4 33237.3 956.989   1
  -4   5  -3 125741. 1806.74   1
  -4   5  -3 124839. 1792.72   2
  -4   5  -2 91207.8 1454.85   2
  -4   5  -2 88970.0 1458.05   1
  -4   5  -1 14458.9 545.647   2
  -4   5  -1 13904.6 553.954   1
  -4   5   0 4953.92 305.746   2
  -4   5   0 5124.15 348.148   1
  -4   5   1 16397.6 551.187   2
  -4   5   1 15423.4 609.158   1
  -4   5   2 2304.68 250.498   1
  -4   6 -14 2120.79 424.353   1
  -4   6 -13 1448.37 328.799   1
  -4   6 -13 1172.33 295.309   2
  -4   6 -12 3578.01 481.858   2
  -4   6 -12 2723.37 423.078   1
  -4   6 -11 8923.93 731.081   1
  -4   6 -11 8719.20 721.942   2
  -4   6 -10 11171.4 775.349   1
  -4   6 -10 10911.2 769.811   2
  -4   6  -9 6566.53 573.047   2
  -4   6  -9 8243.02 645.398   1
  -4   6  -8 19806.6 946.259   2
  -4   6  -8 18229.1 893.996   1
  -4   6  -7 4258.52 419.970   2
  -4   6  -7 3733.20 381.018   1
  -4   6  -6 3906.35 372.487   1
  -4   6  -6 5004.60 432.954   2
  -4   6  -6 4453.98 317.296   3
  -4   6  -5 3417.50 319.303   1
  -4   6  -5 3624.12 351.890   2
  -4   6  -4 3168.84 301.229   1
  -4   6  -4 3474.94 323.286   2
  -4   6  -3 7053.09 440.108   2
  -4   6  -3 6822.58 423.302   1
  -4   6  -2 4935.52 351.666   1
  -4   6  -2 4521.46 330.364   2
  -4   6  -1 16998.7 608.194   2
  -4   6  -1 17070.8 658.669   1
  -4   6   0 30431.9 760.266   2
  -4   6   0 30706.5 886.205   1
  -4   6   1 5711.40 386.766   1
  -4   6   1 6347.85 336.766   2
  -4   7 -14 893.597 289.078   1
  -4   7 -13 368.142 205.301   1
  -4   7 -13 534.782 216.735   2
  -4   7 -12-12.4290 90.7310   1
  -4   7 -12 49.7859 78.6233   2
  -4   7 -11 7423.63 679.744   2
  -4   7 -11 7476.77 665.816   1
  -4   7 -10 4403.80 487.569   1
  -4   7 -10 4239.71 491.980   2
  -4   7  -9 10260.5 728.418   2
  -4   7  -9 10297.2 697.859   1
  -4   7  -8 29644.3 1181.82   2
  -4   7  -8 30431.4 1132.38   1
  -4   7  -7 15172.6 802.172   2
  -4   7  -7 17582.6 824.875   1
  -4   7  -6 12268.7 693.192   2
  -4   7  -6 11806.0 629.403   1
  -4   7  -5 2295.71 267.581   1
  -4   7  -5 2534.64 298.974   2
  -4   7  -4 1408.03 218.153   2
  -4   7  -4 1743.51 223.268   1
  -4   7  -3 14744.8 634.162   1
  -4   7  -3 14207.5 633.656   2
  -4   7  -2 118.688 59.3316   2
  -4   7  -2 138.279 63.9980   1
  -4   7  -1 8483.12 440.538   2
  -4   7  -1 8400.67 476.000   1
  -4   7   0 32615.9 797.013   2
  -4   7   0 30355.1 919.719   1
  -4   7   1 39034.8 835.784   2
  -4   8 -14 3823.89 551.247   1
  -4   8 -13 3142.53 475.497   1
  -4   8 -13 3175.10 506.849   2
  -4   8 -12 5541.57 610.166   2
  -4   8 -12 895.439 256.005   1
  -4   8 -11 673.216 227.697   2
  -4   8 -11 954.506 246.837   1
  -4   8 -10 14.5357 69.5515   1
  -4   8 -10 153.944 136.537   2
  -4   8  -9 79.0176 75.7480   1
  -4   8  -9 218.427 111.153   2
  -4   8  -8 9435.84 675.160   2
  -4   8  -8 9516.42 629.467   1
  -4   8  -7 8454.30 612.389   2
  -4   8  -7 8552.53 564.788   1
  -4   8  -6 9863.93 634.524   2
  -4   8  -6 10051.3 587.066   1
  -4   8  -5 15942.4 770.515   2
  -4   8  -5 14844.9 682.721   1
  -4   8  -4 11580.7 584.778   1
  -4   8  -4 11084.0 610.016   2
  -4   8  -3 14539.3 656.053   2
  -4   8  -3 14186.7 643.539   1
  -4   8  -2 5959.96 396.585   2
  -4   8  -2 6617.28 441.970   1
  -4   8  -1 6421.36 391.808   2
  -4   8  -1 6971.51 451.558   1
  -4   8   0 278.027 81.4542   2
  -4   8   0 567.417 142.577   1
  -4   8   1 3679.68 259.581   2
  -4   9 -14 6958.23 727.161   1
  -4   9 -13 5343.76 667.841   2
  -4   9 -13 5085.25 600.571   1
  -4   9 -12 6431.45 685.854   2
  -4   9 -12 7765.90 704.249   1
  -4   9 -11 5613.41 609.831   2
  -4   9 -11 5897.02 588.813   1
  -4   9 -10 7262.39 612.393   1
  -4   9 -10 8844.36 740.858   2
  -4   9  -9 7950.46 667.112   2
  -4   9  -9 8225.19 604.747   1
  -4   9  -8 5050.85 455.690   1
  -4   9  -8 5033.32 507.013   2
  -4   9  -7 53.0152 62.6454   1
  -4   9  -7-42.7318 55.2778   2
  -4   9  -6 126.056 86.9966   2
  -4   9  -6-15.4525 43.2279   1
  -4   9  -5 2669.59 327.304   2
  -4   9  -5 2244.83 271.591   1
  -4   9  -4 13739.5 650.893   1
  -4   9  -4 12685.8 667.629   2
  -4   9  -3 11220.8 592.574   2
  -4   9  -3 14376.5 666.731   1
  -4   9  -2 24137.4 858.292   1
  -4   9  -2 26687.1 856.438   2
  -4   9  -1 32124.8 994.479   1
  -4   9  -1 31616.0 873.241   2
  -4   9   0 6897.61 372.839   2
  -4   9   1 1237.57 143.545   2
  -4  10 -12 232.999 153.926   1
  -4  10 -12 335.529 114.140   2
  -4  10 -11 6619.95 682.464   2
  -4  10 -11 6207.02 584.423   1
  -4  10 -10 3110.54 440.385   2
  -4  10 -10 3925.06 449.153   1
  -4  10  -9 4984.94 548.649   2
  -4  10  -9 5049.70 475.186   1
  -4  10  -8 8671.20 590.511   1
  -4  10  -8 8399.98 674.856   2
  -4  10  -7 8459.07 647.217   2
  -4  10  -7 7557.24 531.875   1
  -4  10  -6 13898.6 793.116   2
  -4  10  -6 14857.6 712.460   1
  -4  10  -5 2473.82 322.880   2
  -4  10  -5 2100.98 271.953   1
  -4  10  -4 29.0700 40.9416   2
  -4  10  -4 116.932 79.9359   1
  -4  10  -3 601.847 139.164   2
  -4  10  -3 649.254 148.122   1
  -4  10  -2 4097.48 342.921   2
  -4  10  -2 4294.95 370.956   1
  -4  10  -1 9874.54 491.086   2
  -4  10   0 3328.99 268.660   2
  -4  11 -12 1388.79 337.019   2
  -4  11 -11 269.269 161.134   2
  -4  11 -10 20.6550 77.0547   2
  -4  11  -9 223.093 141.847   2
  -4  11  -8 3839.99 472.080   2
  -4  11  -8 4406.32 423.632   1
  -4  11  -7 11139.7 759.728   2
  -4  11  -7 10472.4 610.257   1
  -4  11  -6 9676.10 592.561   1
  -4  11  -6 8619.35 638.843   2
  -4  11  -5 11171.1 624.985   1
  -4  11  -5 11061.6 688.626   2
  -4  11  -4 3987.57 367.696   1
  -4  11  -4 2552.99 311.742   2
  -4  11  -3 3474.13 344.505   1
  -4  11  -3 3467.40 344.951   2
  -4  11  -2 408.070 118.810   2
  -4  11  -1 3581.32 296.291   2
  -4  12 -11 2164.45 426.485   2
  -4  12 -10 5029.03 603.627   2
  -4  12  -9 3620.47 492.258   2
  -4  12  -8 301.601 148.311   2
  -4  12  -7 91.6135 111.592   2
  -4  12  -6-86.4856 97.9999   2
  -4  12  -5 920.685 204.652   2
  -4  12  -4 4051.23 405.638   2
  -4  12  -3 4167.85 388.159   2
  -4  13 -10 2860.95 468.997   2
  -4  13  -9 5045.67 591.943   2
  -4  13  -8 5853.20 607.087   2
  -4  13  -7 4240.94 495.198   2
  -4  13  -6 3534.55 429.968   2
  -4  13  -5 144.717 103.942   2
  -4  14  -9 1210.61 309.754   2
  -4  14  -8 921.984 264.904   2
  -4  14  -7 3317.50 453.874   2
  -3  -8  -6 2203.97 356.442   1
  -3  -8  -5 83.0448 85.1044   1
  -3  -8  -4 26.1674 73.2494   1
  -3  -8  -3 812.142 172.166   1
  -3  -8  -2 5544.25 416.913   1
  -3  -8  -1 11908.9 554.922   1
  -3  -8   0 9398.73 426.709   1
  -3  -7  -8 3062.02 470.758   1
  -3  -7  -7 2151.39 364.224   1
  -3  -7  -6 3056.35 413.189   1
  -3  -7  -5 4682.29 484.213   1
  -3  -7  -4 9041.59 620.127   1
  -3  -7  -3 8699.70 563.779   1
  -3  -7  -2 59.1007 80.5613   1
  -3  -7  -1 825.206 141.240   1
  -3  -7   0 961.069 135.136   1
  -3  -7   1 5015.98 246.932   1
  -3  -7   2 7477.61 170.938   1
  -3  -7   2 7612.62 183.533   1
  -3  -6  -9 571.418 238.833   1
  -3  -6  -8-15.8344 82.0680   1
  -3  -6  -7 23.3141 90.9477   1
  -3  -6  -6 547.962 185.488   1
  -3  -6  -5 6137.62 541.414   1
  -3  -6  -4 6547.27 510.454   1
  -3  -6  -3 21225.1 855.625   1
  -3  -6  -2 6905.06 440.629   1
  -3  -6  -1 10647.8 488.802   1
  -3  -6   0 9357.91 404.948   1
  -3  -6   1 2517.78 173.714   1
  -3  -6   2 588.637 58.1726   1
  -3  -5 -10 4023.03 571.333   1
  -3  -5  -9 6361.05 678.467   1
  -3  -5  -8 5419.70 597.901   1
  -3  -5  -7 8848.57 706.093   1
  -3  -5  -6 1165.25 246.944   1
  -3  -5  -5-17.3870 53.4392   1
  -3  -5  -4 332.003 116.233   1
  -3  -5  -3 4451.08 379.211   1
  -3  -5  -2 13785.9 601.924   1
  -3  -5  -1 16369.6 587.749   1
  -3  -5   0 43668.6 844.267   1
  -3  -5   1 24486.2 525.848   1
  -3  -5   2 12755.3 287.214   1
  -3  -4 -10 322.990 175.305   1
  -3  -4  -9 5329.14 603.894   1
  -3  -4  -8 7054.47 650.277   1
  -3  -4  -7 12000.3 804.088   1
  -3  -4  -6 19213.3 956.222   1
  -3  -4  -5 17071.4 836.305   1
  -3  -4  -4 19197.5 824.923   1
  -3  -4  -3 19876.1 771.323   1
  -3  -4  -2 1216.20 174.598   1
  -3  -4  -1 261.948 75.3572   1
  -3  -4   0 5807.63 297.256   1
  -3  -4   1 1933.38 145.034   1
  -3  -4   2 16464.7 344.496   1
  -3  -4   3 55651.9 544.240   1
  -3  -4   4 67632.2 1185.77   3
  -3  -4   5 21880.8 645.281   3
  -3  -4   6 17770.9 554.532   3
  -3  -4   7 1544.81 153.420   3
  -3  -3 -11 10054.4 906.932   1
  -3  -3 -10 4174.61 562.413   1
  -3  -3  -9 748.690 222.777   1
  -3  -3  -8 53.6357 63.3676   2
  -3  -3  -8 227.057 124.402   1
  -3  -3  -7 1270.44 179.558   2
  -3  -3  -7 1252.88 254.806   1
  -3  -3  -6 2928.30 273.431   2
  -3  -3  -6 2515.38 327.337   1
  -3  -3  -5 1683.83 254.812   1
  -3  -3  -5 1559.67 183.076   2
  -3  -3  -4 6187.21 339.639   2
  -3  -3  -4 7050.36 480.964   1
  -3  -3  -3 40248.3 1065.82   1
  -3  -3  -2 26387.5 778.269   1
  -3  -3  -1 11180.6 457.632   1
  -3  -3   0 16393.6 483.066   1
  -3  -3   1 7921.63 292.474   1
  -3  -3   2 2367.49 137.667   1
  -3  -3   2 2461.46 233.409   3
  -3  -3   3 14973.9 538.225   3
  -3  -3   3 15166.8 345.541   1
  -3  -3   4 3778.01 261.731   3
  -3  -3   5 16831.1 528.008   3
  -3  -3   6 12865.2 438.468   3
  -3  -3   7 21738.7 545.997   3
  -3  -3   7 20471.6 743.275   1
  -3  -3   8 28076.3 574.270   3
  -3  -3   9 20328.9 446.804   3
  -3  -2 -11 7410.70 762.094   1
  -3  -2 -10 3527.09 495.801   1
  -3  -2  -9 11822.1 611.853   2
  -3  -2  -9 11958.9 857.716   1
  -3  -2  -8 15358.8 672.198   2
  -3  -2  -8 15986.7 932.439   1
  -3  -2  -7 1911.24 228.648   2
  -3  -2  -7 2336.77 342.796   1
  -3  -2  -6 109.222 65.8793   2
  -3  -2  -6 104.845 93.6615   1
  -3  -2  -5 867.976 142.697   2
  -3  -2  -5 1284.93 218.979   1
  -3  -2  -4 3802.36 280.066   2
  -3  -2  -4 3528.72 333.411   1
  -3  -2  -3 16306.4 550.490   2
  -3  -2  -3 16600.6 659.341   1
  -3  -2  -2 14212.2 553.820   1
  -3  -2  -2 13404.9 463.116   2
  -3  -2  -1 122525. 1472.33   1
  -3  -2   0 174758. 1563.81   1
  -3  -2   0 172667. 1958.67   3
  -3  -2   1 47190.3 697.966   1
  -3  -2   1 4.94144 21.1476   3
  -3  -2   2 20752.8 419.190   1
  -3  -2   2 23463.9 653.849   3
  -3  -2   3 14946.2 385.092   1
  -3  -2   3 15276.4 505.370   3
  -3  -2   4 92.2164 31.7838   3
  -3  -2   5 4566.30 262.201   3
  -3  -2   6 26790.9 607.272   3
  -3  -2   6 26697.6 803.576   1
  -3  -2   7 10435.7 376.762   3
  -3  -2   8 34989.8 676.578   3
  -3  -2   9 27472.7 588.861   3
  -3  -1 -12 320.201 170.043   1
  -3  -1 -11 12.0416 103.299   1
  -3  -1 -10 562.698 202.272   1
  -3  -1 -10 304.410 114.413   2
  -3  -1  -9 1843.48 254.944   2
  -3  -1  -9 2306.60 377.560   1
  -3  -1  -8 12417.1 628.028   2
  -3  -1  -8 12791.2 817.077   1
  -3  -1  -7 29232.7 1153.00   1
  -3  -1  -7 29448.1 909.318   2
  -3  -1  -6 43705.4 1045.82   2
  -3  -1  -6 43428.0 1320.07   1
  -3  -1  -5 28128.4 789.042   2
  -3  -1  -5 28940.0 1005.33   1
  -3  -1  -4 6975.01 369.606   2
  -3  -1  -4 7511.87 471.546   1
  -3  -1  -3 20960.5 609.889   2
  -3  -1  -3 21323.4 720.606   1
  -3  -1  -2 118.898 65.9096   1
  -3  -1  -2 105.104 49.4263   2
  -3  -1  -1 8194.48 408.713   3
  -3  -1  -1 7793.82 345.878   2
  -3  -1  -1 8213.18 370.711   1
  -3  -1   0 22773.0 646.291   3
  -3  -1   0 22724.0 550.481   1
  -3  -1   1 16303.9 522.780   3
  -3  -1   1 14645.1 399.474   1
  -3  -1   2 12167.7 357.244   1
  -3  -1   2 106.644 53.2874   3
  -3  -1   3 54177.7 797.710   1
  -3  -1   3 54672.9 904.556   3
  -3  -1   4 95196.3 1176.51   3
  -3  -1   5 103983. 1228.44   3
  -3  -1   6 11662.6 416.717   3
  -3  -1   7 109.937 36.2042   3
  -3  -1   8-4.28087 22.5850   3
  -3  -1   9 517.701 96.5286   3
  -3   0 -12 5867.18 674.255   1
  -3   0 -11 13252.1 756.519   2
  -3   0 -11 13382.1 960.448   1
  -3   0 -10 3113.55 458.900   1
  -3   0 -10 2950.61 347.843   2
  -3   0  -9 2033.86 276.027   2
  -3   0  -9 2700.93 389.528   1
  -3   0  -8 2007.50 258.720   2
  -3   0  -8 1661.57 292.355   1
  -3   0  -7 317.581 95.1375   2
  -3   0  -7 520.345 163.550   1
  -3   0  -6 12225.5 567.999   2
  -3   0  -6 11315.5 655.640   1
  -3   0  -5 6709.77 394.384   2
  -3   0  -5 6058.17 443.317   1
  -3   0  -4 67692.8 1187.22   2
  -3   0  -4 75274.4 1459.53   1
  -3   0  -3 37737.8 822.172   2
  -3   0  -3 38740.6 889.947   3
  -3   0  -3 36527.2 933.497   1
  -3   0  -2 45522.9 859.881   2
  -3   0  -2 45871.1 923.799   3
  -3   0  -2 45107.0 945.131   1
  -3   0  -1 2258.72 190.302   2
  -3   0  -1 1907.08 183.523   3
  -3   0  -1 1995.63 181.422   1
  -3   0   0 1980.18 181.176   3
  -3   0   0 1839.81 155.510   1
  -3   0   0 1946.18 165.750   2
  -3   0   1 2524.00 170.447   1
  -3   0   1 2657.84 201.724   3
  -3   0   2 26123.3 568.267   1
  -3   0   2-17.4035 27.9803   3
  -3   0   3 13064.4 447.133   3
  -3   0   3 14026.9 446.024   1
  -3   0   4 18319.8 525.368   3
  -3   0   5 68992.0 1057.43   3
  -3   0   6 58614.0 991.035   3
  -3   0   7 20566.8 616.451   3
  -3   0   8 12100.1 498.579   3
  -3   0   9 1743.68 194.467   3
  -3   1 -13 741.040 220.220   2
  -3   1 -13 35.0539 97.7324   1
  -3   1 -12 2080.31 322.854   2
  -3   1 -12 2448.25 435.981   1
  -3   1 -11 5950.18 523.198   2
  -3   1 -11 7324.19 696.944   1
  -3   1 -10 7202.65 551.215   2
  -3   1 -10 7431.86 668.066   1
  -3   1  -9 15441.5 907.463   1
  -3   1  -9 13122.8 706.455   2
  -3   1  -8 28506.0 989.536   2
  -3   1  -8 29013.7 1166.34   1
  -3   1  -7 8524.05 514.525   2
  -3   1  -7 8723.24 605.320   1
  -3   1  -6 19937.6 843.156   1
  -3   1  -6 21842.2 773.995   2
  -3   1  -5 4683.55 338.785   2
  -3   1  -5 5161.86 407.112   1
  -3   1  -5 4166.73 294.385   3
  -3   1  -4 502.998 119.295   1
  -3   1  -4 501.911 99.9152   2
  -3   1  -4 539.143 102.368   3
  -3   1  -3 33723.4 874.276   1
  -3   1  -3 32989.0 779.831   2
  -3   1  -3 34361.8 778.584   3
  -3   1  -2 12642.2 457.807   2
  -3   1  -2 13234.0 468.392   3
  -3   1  -2 14041.9 521.095   1
  -3   1  -1 41209.3 795.474   3
  -3   1  -1 40538.6 807.037   1
  -3   1  -1 42361.0 792.312   2
  -3   1   0 34119.8 674.835   1
  -3   1   0 34867.8 724.986   3
  -3   1   1 204747. 1731.93   3
  -3   1   1 213841. 1591.51   1
  -3   1   2 21.7595 27.4695   3
  -3   1   2 48564.6 821.230   1
  -3   1   3 1716.12 165.118   3
  -3   1   4 247.196 68.5731   3
  -3   1   5 1273.88 159.376   3
  -3   1   6 11464.7 488.645   3
  -3   1   7 6140.60 379.232   3
  -3   2 -14 3364.08 466.618   2
  -3   2 -13 2511.75 382.237   2
  -3   2 -13 2713.95 464.793   1
  -3   2 -12 17.1596 77.2783   2
  -3   2 -12 20.5827 70.8952   1
  -3   2 -11 1688.03 295.317   2
  -3   2 -11 2451.51 389.349   1
  -3   2 -10 514.602 160.576   2
  -3   2 -10 507.955 174.506   1
  -3   2  -9 11719.3 682.460   2
  -3   2  -9 11769.5 761.143   1
  -3   2  -8 20267.0 854.558   2
  -3   2  -8 19781.8 933.986   1
  -3   2  -7 20087.3 885.010   1
  -3   2  -7 23860.3 873.870   2
  -3   2  -6 8239.34 491.678   2
  -3   2  -6 8605.04 542.952   1
  -3   2  -6 8747.49 406.158   3
  -3   2  -5 8894.24 478.901   2
  -3   2  -5 10027.6 548.344   1
  -3   2  -5 9137.59 403.474   3
  -3   2  -4 9880.46 468.345   2
  -3   2  -4 9267.69 485.317   1
  -3   2  -4 9590.45 399.831   3
  -3   2  -3 36928.0 766.721   3
  -3   2  -3 38285.7 863.052   2
  -3   2  -3 39234.9 911.858   1
  -3   2  -2 4214.17 264.637   2
  -3   2  -2 4182.52 254.068   3
  -3   2  -2 4509.17 286.493   1
  -3   2  -1 1043.56 127.740   1
  -3   2  -1 1054.95 129.256   3
  -3   2  -1 1146.53 130.508   2
  -3   2   0 145889. 1465.88   2
  -3   2   0 141154. 1410.72   1
  -3   2   0 141752. 1497.81   3
  -3   2   1 136169. 1328.90   2
  -3   2   1 137841. 1494.90   3
  -3   2   2-22.2435 27.5040   3
  -3   2   2 4996.30 282.979   1
  -3   2   3 36019.4 839.617   3
  -3   2   4 29336.7 792.800   3
  -3   2   5 44235.0 1021.80   3
  -3   3 -14 7906.81 711.057   2
  -3   3 -13 8777.58 721.478   2
  -3   3 -13 11056.5 917.985   1
  -3   3 -12 8979.05 700.416   2
  -3   3 -12 8898.82 769.509   1
  -3   3 -11 15630.0 963.937   1
  -3   3 -11 16004.1 892.476   2
  -3   3 -10 5510.61 502.332   2
  -3   3 -10 5357.85 536.832   1
  -3   3  -9 1701.72 286.806   1
  -3   3  -9 1579.45 256.924   2
  -3   3  -8 2645.23 315.932   2
  -3   3  -8 2799.88 349.266   1
  -3   3  -7 5300.19 421.630   2
  -3   3  -7 4971.38 297.764   3
  -3   3  -7 4822.13 427.831   1
  -3   3  -6 29306.0 940.800   2
  -3   3  -6 29506.5 703.162   3
  -3   3  -6 29428.3 986.549   1
  -3   3  -5 8358.25 474.203   2
  -3   3  -5 8685.65 371.021   3
  -3   3  -5 9411.75 517.931   1
  -3   3  -4 36154.0 918.244   2
  -3   3  -4 36562.6 944.673   1
  -3   3  -4 36662.6 755.026   3
  -3   3  -3 63573.0 1136.77   2
  -3   3  -3 63598.8 1017.82   3
  -3   3  -3 63039.7 1165.61   1
  -3   3  -2 74463.2 1148.29   1
  -3   3  -2 72712.6 1124.09   2
  -3   3  -2 75153.3 1098.76   3
  -3   3  -1 35915.9 743.125   2
  -3   3  -1 35005.6 765.192   3
  -3   3  -1 37004.4 771.022   1
  -3   3   0 3096.57 205.939   2
  -3   3   0 2937.57 228.298   3
  -3   3   0 2763.02 199.576   1
  -3   3   1 513.724 91.9117   1
  -3   3   1 351.205 68.4365   2
  -3   3   1 465.478 96.0428   3
  -3   3   2 364.006 82.7180   1
  -3   3   2 492.687 104.302   3
  -3   3   3-8.33781 24.9949   3
  -3   4 -14 1579.15 342.274   2
  -3   4 -14 1586.68 363.234   1
  -3   4 -13 720.031 264.581   1
  -3   4 -13 889.008 240.594   2
  -3   4 -12 4959.31 536.223   2
  -3   4 -12 5649.49 611.176   1
  -3   4 -11 9415.80 745.315   1
  -3   4 -11 9956.80 713.778   2
  -3   4 -10 12148.4 800.337   1
  -3   4 -10 11083.5 727.078   2
  -3   4  -9 11613.2 736.409   1
  -3   4  -9 11680.0 709.267   2
  -3   4  -8 24777.3 971.118   2
  -3   4  -8 24973.3 1021.61   1
  -3   4  -7 3616.19 356.468   2
  -3   4  -7 4030.43 247.294   3
  -3   4  -6 10931.7 581.990   2
  -3   4  -6 11338.5 595.180   1
  -3   4  -6 10242.6 391.307   3
  -3   4  -5 2760.91 208.288   3
  -3   4  -5 2337.61 255.150   2
  -3   4  -4 130.337 62.2486   1
  -3   4  -4 320.860 104.706   2
  -3   4  -4 187.840 60.1469   3
  -3   4  -3 52051.9 1061.76   2
  -3   4  -3 52185.3 1040.64   1
  -3   4  -3 51223.9 944.677   3
  -3   4  -2 22415.5 643.426   2
  -3   4  -2 22074.7 631.655   1
  -3   4  -2 21373.5 629.392   3
  -3   4  -1 57571.6 958.367   2
  -3   4  -1 57545.8 990.169   1
  -3   4  -1 57687.7 1060.41   3
  -3   4   0 80671.2 1194.34   1
  -3   4   0 78324.1 1300.50   3
  -3   4   1 12974.4 489.914   1
  -3   4   1 13958.8 426.755   2
  -3   5 -14 5544.76 624.235   2
  -3   5 -14 5676.53 676.015   1
  -3   5 -13 959.226 266.334   1
  -3   5 -13 788.871 238.922   2
  -3   5 -12 329.930 131.890   2
  -3   5 -12 306.760 146.779   1
  -3   5 -11 1295.18 280.482   1
  -3   5 -11 951.990 236.889   2
  -3   5 -10 2569.11 352.760   2
  -3   5 -10 2104.79 325.463   1
  -3   5  -9 6368.44 534.271   1
  -3   5  -9 7306.51 566.710   2
  -3   5  -8 9457.69 615.711   1
  -3   5  -8 10167.0 353.137   3
  -3   5  -8 9852.73 629.415   2
  -3   5  -7 43355.7 785.554   3
  -3   5  -7 44627.0 1279.63   2
  -3   5  -6 30417.1 684.605   3
  -3   5  -6 31434.3 1010.80   2
  -3   5  -6 31455.8 987.163   1
  -3   5  -5 23027.4 633.418   3
  -3   5  -5 23184.1 820.227   2
  -3   5  -5 22941.3 782.002   1
  -3   5  -4 5578.28 362.793   1
  -3   5  -4 5593.52 376.259   2
  -3   5  -4 5210.05 313.048   3
  -3   5  -3 14791.5 579.855   2
  -3   5  -3 13220.2 526.625   1
  -3   5  -3 14090.7 531.465   3
  -3   5  -2 20.3249 30.5570   1
  -3   5  -2 27.2306 30.6788   3
  -3   5  -1 302.865 73.8729   2
  -3   5  -1 245.555 69.9647   1
  -3   5   0 35653.5 830.438   1
  -3   5   0 36410.3 720.620   2
  -3   5   1 24881.0 572.162   2
  -3   5   1 22373.4 682.687   1
  -3   6 -14 10574.9 886.517   2
  -3   6 -14 9136.12 819.976   1
  -3   6 -13 2778.03 448.976   2
  -3   6 -13 2709.80 435.696   1
  -3   6 -12 6341.30 617.275   2
  -3   6 -12 6254.64 619.765   1
  -3   6 -11 6177.41 578.231   1
  -3   6 -11 5485.79 562.396   2
  -3   6 -10 2151.96 330.709   2
  -3   6 -10 2163.86 326.881   1
  -3   6  -9 7210.47 577.925   2
  -3   6  -9 7983.00 586.515   1
  -3   6  -8 243.452 103.243   1
  -3   6  -8 370.388 142.594   2
  -3   6  -7 16456.9 803.562   2
  -3   6  -7 16445.0 749.817   1
  -3   6  -7 15277.1 476.067   3
  -3   6  -6 21030.3 794.286   1
  -3   6  -6 21407.9 620.757   3
  -3   6  -6 21891.5 872.173   2
  -3   6  -5 14029.8 601.764   1
  -3   6  -5 13288.9 509.796   3
  -3   6  -5 13567.5 641.846   2
  -3   6  -4 21834.9 767.568   2
  -3   6  -4 20119.0 683.140   1
  -3   6  -4 21230.9 682.800   3
  -3   6  -3 5180.02 353.234   2
  -3   6  -3 5312.96 334.971   1
  -3   6  -2 8933.22 430.340   2
  -3   6  -2 10097.3 443.487   1
  -3   6  -1 37358.6 877.274   1
  -3   6  -1 36728.7 802.302   2
  -3   6   0 2536.92 232.799   1
  -3   6   0 2563.01 197.218   2
  -3   6   1 2181.77 175.517   2
  -3   7 -14 439.133 198.177   2
  -3   7 -14 509.887 225.909   1
  -3   7 -13 1292.23 288.899   1
  -3   7 -13 1551.52 346.730   2
  -3   7 -12 5263.85 586.460   2
  -3   7 -12 5568.87 575.600   1
  -3   7 -11 13964.0 868.737   1
  -3   7 -11 15176.5 940.392   2
  -3   7 -10 10413.3 752.820   2
  -3   7 -10 10679.9 715.450   1
  -3   7  -9 18274.1 954.356   2
  -3   7  -9 20370.0 931.235   1
  -3   7  -8 6776.08 546.175   2
  -3   7  -8 7407.29 523.812   1
  -3   7  -7 1452.32 252.955   2
  -3   7  -7 1368.92 213.196   1
  -3   7  -7 1189.43 148.075   3
  -3   7  -6 3717.44 327.338   1
  -3   7  -6 4073.51 387.823   2
  -3   7  -6 3229.68 264.076   3
  -3   7  -5 16.7220 47.5818   1
  -3   7  -5 181.057 87.0908   2
  -3   7  -4 4511.58 328.188   1
  -3   7  -4 5027.27 379.583   2
  -3   7  -3 13032.3 577.020   2
  -3   7  -3 14077.1 547.654   1
  -3   7  -2 18947.5 646.276   2
  -3   7  -2 19131.4 665.219   1
  -3   7  -1 23680.7 663.395   2
  -3   7  -1 24237.3 741.211   1
  -3   7   0 43855.7 829.112   2
  -3   7   1 15431.4 448.128   2
  -3   8 -14 2441.74 427.343   1
  -3   8 -13 968.856 261.160   1
  -3   8 -13 311.927 171.665   2
  -3   8 -12 23.4073 83.6222   1
  -3   8 -12 215.046 184.641   2
  -3   8 -11 2707.17 367.082   1
  -3   8 -11 1837.97 341.430   2
  -3   8 -10 2084.82 352.472   2
  -3   8 -10 2419.33 332.305   1
  -3   8  -9 4882.12 450.031   1
  -3   8  -9 6280.26 567.525   2
  -3   8  -8 19221.5 951.800   2
  -3   8  -8 19713.3 850.243   1
  -3   8  -7 22271.9 821.501   1
  -3   8  -7 23389.7 1000.15   2
  -3   8  -6 14810.9 755.030   2
  -3   8  -6 14203.8 637.379   1
  -3   8  -5 14767.9 710.515   2
  -3   8  -5 16617.8 657.141   1
  -3   8  -4 1076.26 183.447   2
  -3   8  -4 1033.60 152.292   1
  -3   8  -3 800.926 149.023   1
  -3   8  -3 227.752 78.4518   2
  -3   8  -2 127.336 57.9934   1
  -3   8  -2 136.727 65.7989   2
  -3   8  -1 1927.85 196.995   2
  -3   8  -1 1983.28 222.319   1
  -3   8   0 14563.0 484.488   2
  -3   8   1 16998.7 457.866   2
  -3   9 -14 8745.43 790.327   1
  -3   9 -13 11738.3 940.019   2
  -3   9 -13 11840.8 862.316   1
  -3   9 -12 8473.46 695.079   1
  -3   9 -12 8937.11 789.757   2
  -3   9 -11 2150.76 336.919   1
  -3   9 -11 2300.88 395.339   2
  -3   9 -10 1498.00 305.985   2
  -3   9 -10 1838.91 292.064   1
  -3   9  -9 1969.26 331.980   2
  -3   9  -9 2133.24 289.267   1
  -3   9  -8 592.670 149.328   1
  -3   9  -8 567.647 172.382   2
  -3   9  -7 1062.60 223.430   2
  -3   9  -7 774.091 163.551   1
  -3   9  -6 10675.5 660.440   2
  -3   9  -6 9174.76 513.506   1
  -3   9  -5 21743.8 735.492   1
  -3   9  -5 21966.1 888.330   2
  -3   9  -4 20128.5 804.583   2
  -3   9  -4 21926.8 757.102   1
  -3   9  -3 23624.8 823.985   2
  -3   9  -3 25266.4 793.483   1
  -3   9  -2 31423.4 876.188   2
  -3   9  -2 30245.2 879.698   1
  -3   9  -1 2342.41 216.707   2
  -3   9   0 26.1202 29.9671   2
  -3   9   1 633.015 86.2645   2
  -3  10 -13 1634.09 374.162   2
  -3  10 -12 7248.91 726.383   2
  -3  10 -11 8138.04 746.739   2
  -3  10 -11 7586.15 607.505   1
  -3  10 -10 1939.68 299.058   1
  -3  10 -10 1567.49 321.621   2
  -3  10  -9 2983.80 422.790   2
  -3  10  -9 3579.12 372.781   1
  -3  10  -8 2799.90 390.785   2
  -3  10  -8 3053.21 321.959   1
  -3  10  -7 4085.02 447.891   2
  -3  10  -7 3460.67 329.294   1
  -3  10  -6 357.874 105.327   1
  -3  10  -6 630.624 159.549   2
  -3  10  -5 42.2893 37.9131   1
  -3  10  -5 191.451 89.5800   2
  -3  10  -4 485.694 120.342   1
  -3  10  -4 176.906 73.3634   2
  -3  10  -3 6172.97 430.537   2
  -3  10  -3 5995.23 401.700   1
  -3  10  -2 9389.72 488.053   2
  -3  10  -1 4305.05 302.529   2
  -3  10   0 10313.6 406.976   2
  -3  11 -12 40.1315 112.306   2
  -3  11 -11 447.696 181.678   2
  -3  11 -10 3595.02 493.886   2
  -3  11  -9 9499.37 748.098   2
  -3  11  -8 14925.9 898.755   2
  -3  11  -7 9680.33 692.386   2
  -3  11  -6 7915.83 598.914   2
  -3  11  -5 2674.51 329.140   2
  -3  11  -5 2573.15 269.688   1
  -3  11  -4 91.0426 65.4574   1
  -3  11  -4 55.2877 69.2933   2
  -3  11  -3 107.345 77.4928   2
  -3  11  -2 146.251 68.7245   2
  -3  12 -11 2276.52 426.099   2
  -3  12 -10 837.469 267.359   2
  -3  12  -9 74.2917 116.445   2
  -3  12  -8 539.997 185.977   2
  -3  12  -7 1578.63 300.202   2
  -3  12  -6 6323.83 549.461   2
  -3  12  -5 9428.45 636.885   2
  -3  12  -4 8208.56 556.322   2
  -3  13 -11 3971.06 575.637   2
  -3  13 -10 7266.86 715.024   2
  -3  13  -9 3802.47 504.272   2
  -3  13  -8 2370.80 379.627   2
  -3  13  -7 516.022 178.545   2
  -3  13  -6-70.5605 87.2179   2
  -3  14 -10 1036.76 276.967   2
  -3  14  -9 411.905 172.369   2
  -3  14  -8 2097.67 368.915   2
  -2  -8  -8 718.833 252.632   1
  -2  -8  -7 1100.73 289.959   1
  -2  -8  -6-16.0361 78.1932   1
  -2  -8  -5 1641.57 296.114   1
  -2  -8  -4 3376.43 385.779   1
  -2  -8  -3 9543.16 595.075   1
  -2  -8  -2 19985.9 795.354   1
  -2  -8  -1 7518.75 432.640   1
  -2  -8   0 11928.8 467.377   1
  -2  -8   1 3057.45 184.963   1
  -2  -7  -9 3338.86 521.815   1
  -2  -7  -8 2782.16 453.006   1
  -2  -7  -7 2564.64 405.755   1
  -2  -7  -6 4412.09 492.111   1
  -2  -7  -5 1613.44 284.608   1
  -2  -7  -4 1752.59 272.028   1
  -2  -7  -3 1816.70 254.054   1
  -2  -7  -2 6124.76 419.662   1
  -2  -7  -1 3379.84 274.389   1
  -2  -7   0 8608.71 378.464   1
  -2  -7   1 16788.6 431.870   1
  -2  -7   1 17588.3 431.320   1
  -2  -6 -10-2.78802 101.994   1
  -2  -6  -9 1277.75 314.828   1
  -2  -6  -8 2641.85 414.452   1
  -2  -6  -7 3476.35 447.660   1
  -2  -6  -6 9564.99 701.152   1
  -2  -6  -5 7938.82 593.739   1
  -2  -6  -4 27995.4 1033.78   1
  -2  -6  -3 33920.9 1051.26   1
  -2  -6  -2 6087.18 405.192   1
  -2  -6  -1 2284.83 221.064   1
  -2  -6   0 253.599 67.9578   1
  -2  -6   1 1783.02 131.017   1
  -2  -6   7 6071.97 301.774   1
  -2  -6   8 5304.93 345.509   1
  -2  -5 -10 8021.47 774.891   1
  -2  -5  -9 8788.96 779.036   1
  -2  -5  -8 4396.21 525.075   1
  -2  -5  -7 65.3609 97.7238   1
  -2  -5  -6 358.274 154.836   1
  -2  -5  -5 343.814 127.974   1
  -2  -5  -4 1261.97 219.994   1
  -2  -5  -3 15076.0 687.108   1
  -2  -5  -2 31842.7 883.420   1
  -2  -5  -1 28286.7 745.601   1
  -2  -5   0 20970.3 539.907   1
  -2  -5   1 113.638 34.5649   1
  -2  -5   6 11009.8 379.253   1
  -2  -5   7 18514.1 612.540   1
  -2  -5   8 22063.9 774.507   1
  -2  -4 -11 660.294 257.917   1
  -2  -4 -10 5565.65 648.280   1
  -2  -4  -9 4907.06 576.702   1
  -2  -4  -8 20730.3 1109.15   1
  -2  -4  -7 20473.0 1034.18   1
  -2  -4  -7 17154.8 558.796   2
  -2  -4  -6 8021.35 602.397   1
  -2  -4  -6 6836.02 335.888   2
  -2  -4  -5 3638.44 381.117   1
  -2  -4  -4 262.971 98.0052   1
  -2  -4  -3 2987.81 291.986   1
  -2  -4  -2 3930.91 300.402   1
  -2  -4  -1 9919.45 419.100   1
  -2  -4   0 42318.3 722.526   1
  -2  -4   1 60420.4 670.819   1
  -2  -4   5 49390.8 749.514   1
  -2  -4   6 581.985 100.101   1
  -2  -4   7 2047.54 225.953   1
  -2  -3 -12 5025.30 655.625   1
  -2  -3 -11 824.594 250.817   1
  -2  -3 -10 414.529 199.956   1
  -2  -3  -9 669.949 216.954   1
  -2  -3  -8 4365.44 320.714   2
  -2  -3  -8 4585.06 502.774   1
  -2  -3  -7 14236.5 827.593   1
  -2  -3  -7 12328.7 506.073   2
  -2  -3  -6 3153.30 246.519   2
  -2  -3  -6 3313.06 377.989   1
  -2  -3  -5 14430.3 739.381   1
  -2  -3  -5 14302.9 497.743   2
  -2  -3  -4 33708.9 1049.31   1
  -2  -3  -4 33937.5 705.709   2
  -2  -3  -3 37943.1 989.080   1
  -2  -3  -3 37630.0 677.130   2
  -2  -3  -2 9352.02 438.618   1
  -2  -3  -1 23960.4 611.728   1
  -2  -3   0 14543.5 393.932   1
  -2  -3   1 17257.5 336.283   1
  -2  -3   2 19705.9 269.379   1
  -2  -3   3 14517.4 458.884   3
  -2  -3   4 60059.4 857.297   3
  -2  -3   5 101707. 1049.40   3
  -2  -3   5 104497. 1264.60   1
  -2  -3   6 22440.6 438.988   3
  -2  -3   6 23730.8 723.429   1
  -2  -3   7 3283.26 149.647   3
  -2  -2 -12 4131.47 573.167   1
  -2  -2 -11 5526.43 634.807   1
  -2  -2 -10 5174.78 593.621   1
  -2  -2  -9 8876.95 508.222   2
  -2  -2  -9 8844.11 717.750   1
  -2  -2  -8 1945.79 224.624   2
  -2  -2  -8 1924.96 318.156   1
  -2  -2  -7 98.1535 69.7387   1
  -2  -2  -7 324.128 84.8072   2
  -2  -2  -6 141.286 76.6190   1
  -2  -2  -6 164.620 56.8084   2
  -2  -2  -5 14604.3 706.355   1
  -2  -2  -5 13443.5 479.657   2
  -2  -2  -4 19783.6 541.835   2
  -2  -2  -4 19488.6 751.476   1
  -2  -2  -3 80486.2 1083.61   2
  -2  -2  -3 72551.0 1309.46   1
  -2  -2  -2 67438.8 897.132   2
  -2  -2  -2 66687.8 1113.18   1
  -2  -2  -1 93502.4 1149.04   1
  -2  -2   0 50200.9 915.232   3
  -2  -2   0 50287.5 710.029   1
  -2  -2   1 7688.08 217.517   1
  -2  -2   1-1.21255 20.5422   3
  -2  -2   2 8902.31 216.402   1
  -2  -2   2 10124.4 360.108   3
  -2  -2   3 1760.14 141.805   3
  -2  -2   4 44576.0 779.744   1
  -2  -2   4 44170.8 660.596   3
  -2  -2   5 74431.5 813.117   3
  -2  -2   5 82325.2 1261.29   1
  -2  -2   6 55289.8 676.605   3
  -2  -2   6 58813.6 1216.90   1
  -2  -2   7 13156.7 322.558   3
  -2  -2   8 43299.3 575.416   3
  -2  -2   9 10899.9 279.524   3
  -2  -2  10 28579.1 413.899   3
  -2  -1 -13 132.828 187.208   1
  -2  -1 -12 990.733 259.503   1
  -2  -1 -11 2656.71 311.763   2
  -2  -1 -11 2424.82 403.321   1
  -2  -1 -10 6172.42 460.313   2
  -2  -1 -10 7197.78 668.076   1
  -2  -1  -9 16334.3 707.838   2
  -2  -1  -9 17288.3 973.946   1
  -2  -1  -8 29074.0 1192.36   1
  -2  -1  -8 28496.2 889.197   2
  -2  -1  -7 27494.6 819.804   2
  -2  -1  -7 29704.3 1126.48   1
  -2  -1  -6 19217.7 639.642   2
  -2  -1  -6 19482.8 847.745   1
  -2  -1  -5 1201.06 149.038   2
  -2  -1  -5 2086.47 262.996   1
  -2  -1  -4 560.247 92.7728   2
  -2  -1  -4 651.751 139.973   1
  -2  -1  -3 3062.74 258.502   1
  -2  -1  -3 2895.40 196.866   2
  -2  -1  -2 15929.9 430.656   2
  -2  -1  -2 16642.1 531.148   3
  -2  -1  -2 15402.3 511.149   1
  -2  -1  -1 18243.2 479.874   1
  -2  -1  -1 18969.2 458.382   2
  -2  -1  -1 18017.6 517.354   3
  -2  -1   0 94392.3 1111.79   3
  -2  -1   0 94400.0 926.479   1
  -2  -1   1-24.4515 27.0085   3
  -2  -1   1 8261.61 231.208   1
  -2  -1   2 15846.5 335.562   1
  -2  -1   2 15739.1 399.947   3
  -2  -1   3 22476.8 462.264   3
  -2  -1   4 21321.7 449.141   3
  -2  -1   4 23294.4 623.743   1
  -2  -1   5 26149.5 495.091   3
  -2  -1   5 33179.2 913.956   1
  -2  -1   6 3457.14 189.260   3
  -2  -1   7 12533.9 376.379   3
  -2  -1   8 10461.1 358.102   3
  -2  -1   9 11006.0 389.582   3
  -2   0 -13 1417.13 332.999   1
  -2   0 -12 5233.91 480.956   2
  -2   0 -12 6633.85 689.470   1
  -2   0 -11 147.616 76.5428   2
  -2   0 -11 441.169 195.668   1
  -2   0 -10 52.5895 84.7385   1
  -2   0 -10 6.92182 72.6177   2
  -2   0  -9 2794.40 308.531   2
  -2   0  -9 3191.97 411.169   1
  -2   0  -8 12297.5 603.790   2
  -2   0  -8 11909.3 741.605   1
  -2   0  -7 22912.7 955.126   1
  -2   0  -7 22360.0 766.196   2
  -2   0  -6 50103.7 1075.30   2
  -2   0  -6 50805.0 1321.28   1
  -2   0  -5 27159.6 891.277   1
  -2   0  -5 27145.1 739.071   2
  -2   0  -4 11037.1 428.418   2
  -2   0  -4 11281.5 530.144   1
  -2   0  -3 44121.3 790.413   2
  -2   0  -3 46101.9 961.388   1
  -2   0  -3 47101.7 844.239   3
  -2   0  -2 10306.1 398.074   1
  -2   0  -2 10801.4 359.428   2
  -2   0  -2 10860.4 379.925   3
  -2   0  -1 5726.21 242.868   2
  -2   0  -1 6398.31 271.323   1
  -2   0  -1 5702.16 258.790   3
  -2   0   0 17448.4 430.326   3
  -2   0   0 18080.3 396.857   1
  -2   0   0 19024.7 427.797   2
  -2   0   1 2787.17 165.388   3
  -2   0   1 2912.04 143.943   1
  -2   0   2-5.82543 18.2037   3
  -2   0   2 126203. 1067.25   1
  -2   0   3 59756.8 774.982   3
  -2   0   4 53675.3 778.515   3
  -2   0   4 1058.04 149.598   1
  -2   0   5 127944. 1253.88   3
  -2   0   5 60221.5 1357.21   1
  -2   0   6 47426.2 827.888   3
  -2   0   7 6970.34 338.324   3
  -2   0   8 3.95124 25.9625   3
  -2   0   9 3355.90 263.996   3
  -2   1 -13 3542.28 423.871   2
  -2   1 -13 4831.64 615.475   1
  -2   1 -12 5666.32 521.661   2
  -2   1 -12 7632.53 720.969   1
  -2   1 -11 7518.41 568.899   2
  -2   1 -11 7375.70 670.733   1
  -2   1 -10 4307.75 406.588   2
  -2   1 -10 4811.50 520.753   1
  -2   1  -9 12304.6 658.715   2
  -2   1  -9 11995.1 766.480   1
  -2   1  -8 6857.48 465.294   2
  -2   1  -8 6635.43 539.386   1
  -2   1  -7 24.3127 53.8608   2
  -2   1  -7 36.2066 68.4236   1
  -2   1  -6 91.7911 65.6261   1
  -2   1  -6 109.230 80.9383   2
  -2   1  -5 301.523 95.3504   1
  -2   1  -5 357.793 85.9390   2
  -2   1  -4 68.1344 44.2522   2
  -2   1  -4 134.327 51.1388   3
  -2   1  -4 121.429 62.8819   1
  -2   1  -3 161304. 1559.30   2
  -2   1  -3 161609. 1378.28   3
  -2   1  -2 31736.0 627.659   2
  -2   1  -2 31636.3 590.466   3
  -2   1  -1 13122.0 367.735   2
  -2   1  -1 12507.1 354.812   3
  -2   1   0 134933. 1144.93   3
  -2   1   0 130205. 1073.86   1
  -2   1   1 1190.01 110.564   3
  -2   1   1 1381.52 115.907   1
  -2   1   2-6.71789 11.5600   3
  -2   1   3 421.580 95.8803   1
  -2   1   3 468.440 79.2806   3
  -2   1   4 36113.9 735.564   3
  -2   1   4 39299.2 960.038   1
  -2   1   5 74346.2 1138.18   3
  -2   1   6 18673.0 608.471   3
  -2   1   7 15059.7 576.797   3
  -2   2 -14 1897.82 397.212   1
  -2   2 -14 1940.43 342.248   2
  -2   2 -13-17.2000 124.572   1
  -2   2 -13 22.9096 85.9342   2
  -2   2 -12 2645.63 361.915   2
  -2   2 -12 3017.03 449.016   1
  -2   2 -11 8843.72 628.267   2
  -2   2 -11 9737.77 755.294   1
  -2   2 -10 11473.8 680.665   2
  -2   2 -10 12740.8 816.257   1
  -2   2  -9 33902.1 1117.76   2
  -2   2  -9 35182.9 1276.37   1
  -2   2  -8 21096.9 833.615   2
  -2   2  -8 23835.2 985.163   1
  -2   2  -7 19425.3 755.278   2
  -2   2  -7 19656.6 842.389   1
  -2   2  -6 1157.22 180.503   2
  -2   2  -6 1450.87 211.480   1
  -2   2  -5 14448.4 572.662   2
  -2   2  -5 15149.1 624.321   1
  -2   2  -5 15880.8 439.593   3
  -2   2  -4 3083.15 244.929   2
  -2   2  -4 2872.46 248.760   1
  -2   2  -4 2997.77 180.576   3
  -2   2  -3 8081.98 359.686   2
  -2   2  -3 8138.62 286.695   3
  -2   2  -3 7157.58 350.041   1
  -2   2  -2 182110. 1574.08   2
  -2   2  -2 180944. 1374.94   3
  -2   2  -2 183522. 1597.98   1
  -2   2  -1 268587. 1680.77   1
  -2   2  -1 267827. 1661.86   3
  -2   2   0 483732. 2037.95   2
  -2   2   0 476667. 2319.58   3
  -2   2   1 363.372 54.7855   2
  -2   2   1 312.651 66.0356   3
  -2   2   1 496.026 78.0272   1
  -2   2   2 24.1108 26.4422   3
  -2   2   3 44965.5 879.568   3
  -2   2   3 43080.0 982.506   1
  -2   2   4 11543.2 483.912   3
  -2   2   5 7155.00 405.072   3
  -2   3 -15 8427.16 753.709   2
  -2   3 -14 13263.2 912.753   2
  -2   3 -14 13688.3 1020.87   1
  -2   3 -13 7046.90 635.667   2
  -2   3 -13 5349.51 615.232   1
  -2   3 -12 5638.46 533.948   2
  -2   3 -12 4166.55 516.188   1
  -2   3 -11 2470.96 369.732   1
  -2   3 -11 1613.46 286.331   2
  -2   3 -10 662.323 161.666   2
  -2   3 -10 812.452 216.050   1
  -2   3  -9 1674.11 259.841   2
  -2   3  -9 1745.51 285.410   1
  -2   3  -8 28986.5 1004.52   2
  -2   3  -8 30682.4 1087.58   1
  -2   3  -7 32019.9 995.005   2
  -2   3  -7 30874.2 1016.65   1
  -2   3  -6 97779.5 1012.29   3
  -2   3  -6 96306.2 1613.16   2
  -2   3  -6 95095.1 1636.60   1
  -2   3  -5 9012.76 461.670   2
  -2   3  -5 8714.23 295.935   3
  -2   3  -5 8424.47 457.197   1
  -2   3  -4 10936.5 335.105   3
  -2   3  -4 11782.4 483.597   1
  -2   3  -4 10965.1 475.332   2
  -2   3  -3 18631.4 572.478   2
  -2   3  -3 17965.5 450.744   3
  -2   3  -3 18437.5 554.007   1
  -2   3  -2 153878. 1362.96   3
  -2   3  -2 156326. 1446.88   1
  -2   3  -1 104780. 1100.01   2
  -2   3  -1 105622. 1110.71   1
  -2   3  -1 108221. 1196.08   3
  -2   3   0 3350.90 178.054   2
  -2   3   0 3248.26 198.090   1
  -2   3   0 3496.33 230.753   3
  -2   3   1 36604.2 548.293   2
  -2   3   1 37112.5 791.414   3
  -2   3   2 1463.92 172.763   3
  -2   3   3 17661.2 665.661   1
  -2   3   3 6002.12 387.380   3
  -2   4 -15 3193.81 500.673   2
  -2   4 -14 9262.54 777.770   2
  -2   4 -14 8896.02 817.895   1
  -2   4 -13 6355.40 612.670   2
  -2   4 -13 6307.32 646.881   1
  -2   4 -12 6241.98 594.108   2
  -2   4 -12 7908.44 679.029   1
  -2   4 -11 13449.3 815.428   2
  -2   4 -11 14479.0 877.942   1
  -2   4 -10 3171.14 376.475   2
  -2   4 -10 3278.26 391.964   1
  -2   4  -9 1256.44 229.791   2
  -2   4  -9 1278.01 233.794   1
  -2   4  -8 6000.75 464.694   2
  -2   4  -8 6415.45 485.638   1
  -2   4  -7 232.591 82.0046   1
  -2   4  -7 349.446 123.342   2
  -2   4  -7 241.436 45.7231   3
  -2   4  -6 1519.91 116.616   3
  -2   4  -6 1655.55 215.024   2
  -2   4  -6 2046.72 240.096   1
  -2   4  -5 27254.1 826.307   2
  -2   4  -5 26157.5 768.822   1
  -2   4  -5 26504.7 526.095   3
  -2   4  -4 9617.39 460.629   2
  -2   4  -4 9847.17 343.992   3
  -2   4  -4 10662.2 454.235   1
  -2   4  -3 49721.4 961.162   2
  -2   4  -3 50268.9 902.142   1
  -2   4  -3 50477.6 820.318   3
  -2   4  -2 1628.61 150.565   1
  -2   4  -2 1665.65 160.699   3
  -2   4  -2 1534.90 156.128   2
  -2   4  -1 21110.5 515.374   2
  -2   4  -1 21068.1 608.532   3
  -2   4  -1 21590.6 522.710   1
  -2   4   0 52316.5 714.451   2
  -2   4   0 55091.6 1059.58   3
  -2   4   0 53321.3 853.701   1
  -2   4   1 3903.29 182.663   2
  -2   4   1 3286.47 282.913   3
  -2   5 -15 1626.87 373.502   1
  -2   5 -15 2523.99 427.401   2
  -2   5 -14-22.6612 90.5657   1
  -2   5 -14 201.415 148.334   2
  -2   5 -13 50.1758 104.505   1
  -2   5 -13 20.9030 91.8561   2
  -2   5 -12 114.302 125.297   2
  -2   5 -12 45.7503 99.3614   1
  -2   5 -11 8594.37 667.134   2
  -2   5 -11 7310.08 613.700   1
  -2   5 -10 2076.08 318.893   2
  -2   5 -10 2114.80 308.689   1
  -2   5  -9 15029.8 794.480   2
  -2   5  -9 13633.4 749.814   1
  -2   5  -8 48556.7 1322.40   1
  -2   5  -8 49134.0 1365.33   2
  -2   5  -7 39346.5 1154.09   2
  -2   5  -7 37849.5 1081.92   1
  -2   5  -7 37376.3 532.678   3
  -2   5  -6 4848.45 379.678   2
  -2   5  -6 4976.52 359.231   1
  -2   5  -6 4859.10 230.553   3
  -2   5  -5 21791.1 759.498   2
  -2   5  -5 22961.2 707.439   1
  -2   5  -5 22362.0 543.964   3
  -2   5  -4 1394.34 180.908   2
  -2   5  -4 1750.96 164.472   3
  -2   5  -4 1751.00 179.015   1
  -2   5  -3 46253.7 854.373   1
  -2   5  -3 43838.3 871.003   3
  -2   5  -3 45350.2 946.829   2
  -2   5  -2 28721.6 697.196   2
  -2   5  -2 27947.1 742.589   3
  -2   5  -2 28621.3 643.979   1
  -2   5  -1 25344.2 587.404   2
  -2   5  -1 26421.4 625.452   1
  -2   5  -1 25821.8 774.218   3
  -2   5   0 78133.4 912.894   2
  -2   5   0 78813.0 1111.64   1
  -2   5   1 59376.2 680.634   2
  -2   6 -15 5419.74 643.259   1
  -2   6 -15 5020.02 622.621   2
  -2   6 -14 4237.57 548.706   2
  -2   6 -14 4112.45 533.447   1
  -2   6 -13 3699.17 492.855   2
  -2   6 -13 4354.96 527.272   1
  -2   6 -12 669.608 207.491   2
  -2   6 -12 204.976 118.377   1
  -2   6 -11-16.9973 50.2501   2
  -2   6 -11 153.125 98.3563   1
  -2   6 -10 199.559 114.006   1
  -2   6 -10-14.3662 43.5603   2
  -2   6  -9 925.067 197.001   1
  -2   6  -9 1036.72 214.404   2
  -2   6  -8 65100.7 1485.12   1
  -2   6  -8 66369.6 1623.57   2
  -2   6  -7 17334.4 784.680   2
  -2   6  -7 17458.8 427.198   3
  -2   6  -6 38216.0 736.961   3
  -2   6  -6 39414.5 986.951   1
  -2   6  -5 18154.4 556.109   3
  -2   6  -5 19667.4 743.751   2
  -2   6  -5 18853.2 630.533   1
  -2   6  -4 8170.94 383.177   1
  -2   6  -4 7482.21 433.260   2
  -2   6  -4 8126.91 397.528   3
  -2   6  -3 122.041 46.8066   1
  -2   6  -3 163.976 69.9299   2
  -2   6  -3 156.074 73.4218   3
  -2   6  -2 10144.3 432.902   2
  -2   6  -2 10321.6 412.241   1
  -2   6  -1 77.3163 38.1340   2
  -2   6  -1 51.0465 35.8321   1
  -2   6   0 14306.2 404.193   2
  -2   6   1 10934.9 295.209   2
  -2   7 -15 983.610 298.023   1
  -2   7 -14 11142.1 866.180   1
  -2   7 -14 12787.0 974.922   2
  -2   7 -13 20119.2 1108.92   1
  -2   7 -13 21471.5 1213.57   2
  -2   7 -12 24516.6 1148.34   1
  -2   7 -12 21561.7 1159.72   2
  -2   7 -11 12021.9 817.714   2
  -2   7 -11 10150.7 698.281   1
  -2   7 -10 4162.28 455.696   2
  -2   7 -10 4525.23 434.404   1
  -2   7  -9 330.198 119.367   1
  -2   7  -9 229.495 124.541   2
  -2   7  -8 1565.39 253.680   2
  -2   7  -8 1529.45 231.258   1
  -2   7  -7 40.9619 55.7943   1
  -2   7  -7 112.465 92.3855   2
  -2   7  -7 9.51684 24.4008   3
  -2   7  -6 321.828 88.2283   1
  -2   7  -6 443.814 123.432   2
  -2   7  -6 189.641 60.3113   3
  -2   7  -5 19123.0 757.065   2
  -2   7  -5 19775.9 637.640   1
  -2   7  -5 18630.6 639.502   3
  -2   7  -4 8481.08 474.684   2
  -2   7  -4 9670.21 422.530   1
  -2   7  -3 33218.7 770.364   1
  -2   7  -3 31625.3 854.304   2
  -2   7  -2 30739.4 734.111   1
  -2   7  -2 31114.5 790.282   2
  -2   7  -1 34194.2 742.106   2
  -2   7   0 19777.7 493.515   2
  -2   7   1 4340.13 187.360   2
  -2   8 -15 585.338 236.432   1
  -2   8 -14 155.230 128.364   1
  -2   8 -14 127.951 143.776   2
  -2   8 -13 282.866 151.921   1
  -2   8 -13-8.29983 88.8857   2
  -2   8 -12 1244.63 274.652   1
  -2   8 -12 663.278 217.098   2
  -2   8 -11 7972.81 687.618   2
  -2   8 -11 9783.51 680.090   1
  -2   8 -10 3302.31 371.405   1
  -2   8 -10 3095.01 402.973   2
  -2   8  -9 7546.85 519.460   1
  -2   8  -9 7176.21 590.095   2
  -2   8  -8 13448.0 766.449   2
  -2   8  -8 13728.6 654.000   1
  -2   8  -7 10582.4 647.777   2
  -2   8  -7 10286.4 504.830   1
  -2   8  -6 8977.96 568.761   2
  -2   8  -6 8989.37 453.816   1
  -2   8  -5 2570.34 292.961   2
  -2   8  -5 2217.01 216.255   1
  -2   8  -4 603.749 133.052   2
  -2   8  -4 461.302 96.8257   1
  -2   8  -3 2354.95 240.952   2
  -2   8  -3 2285.11 206.321   1
  -2   8  -2 10622.3 453.495   1
  -2   8  -2 9338.57 444.638   2
  -2   8  -1 32991.1 751.987   2
  -2   8   0 25865.7 572.613   2
  -2   8   1 27754.9 432.429   2
  -2   9 -14 3642.85 537.529   2
  -2   9 -13 6815.81 710.459   2
  -2   9 -13 5609.26 567.639   1
  -2   9 -12 3237.55 469.612   2
  -2   9 -12 2121.64 335.171   1
  -2   9 -11-7.27453 97.8216   2
  -2   9 -11 137.002 96.1677   1
  -2   9 -10 700.901 174.512   1
  -2   9 -10 160.149 92.5154   2
  -2   9  -9 2563.56 361.519   2
  -2   9  -9 2590.42 296.179   1
  -2   9  -8 12885.3 780.348   2
  -2   9  -8 14529.9 654.098   1
  -2   9  -7 16785.0 649.084   1
  -2   9  -7 16404.3 832.546   2
  -2   9  -6 29800.9 1071.18   2
  -2   9  -6 28853.9 810.512   1
  -2   9  -5 17425.3 775.782   2
  -2   9  -5 20367.7 653.536   1
  -2   9  -4 10188.3 559.587   2
  -2   9  -4 10874.0 460.407   1
  -2   9  -3 7021.84 435.253   2
  -2   9  -3 5900.91 339.910   1
  -2   9  -2 1310.83 172.351   2
  -2   9  -1 669.063 114.076   2
  -2   9   0 2299.66 173.464   2
  -2  10 -13 8880.27 819.778   2
  -2  10 -12 6805.21 702.739   2
  -2  10 -11 2647.16 416.925   2
  -2  10 -10 4693.91 529.939   2
  -2  10  -9 1161.36 258.354   2
  -2  10  -9 1106.49 190.358   1
  -2  10  -8 17.0520 87.7647   2
  -2  10  -8-21.4204 45.7651   1
  -2  10  -7 2762.15 355.291   2
  -2  10  -7 2213.18 230.577   1
  -2  10  -6 3211.34 363.557   2
  -2  10  -6 3741.96 289.542   1
  -2  10  -5 9453.62 435.949   1
  -2  10  -5 8360.64 551.775   2
  -2  10  -4 7210.63 490.765   2
  -2  10  -3 3827.15 327.497   2
  -2  10  -2 4332.25 317.433   2
  -2  10  -1 14166.8 511.791   2
  -2  11 -12 1270.22 317.870   2
  -2  11 -11 4842.39 571.094   2
  -2  11 -10 7741.08 703.918   2
  -2  11  -9 6266.10 603.200   2
  -2  11  -8 4158.96 469.361   2
  -2  11  -7 6065.01 539.595   2
  -2  11  -6 4762.42 452.151   2
  -2  11  -5 408.958 131.261   2
  -2  11  -4 872.272 172.980   2
  -2  11  -3 1002.62 173.164   2
  -2  11  -2 3445.12 291.008   2
  -2  12 -12 1303.90 388.588   2
  -2  12 -11-94.2169 107.069   2
  -2  12 -10 493.348 214.352   2
  -2  12  -9 2727.03 413.566   2
  -2  12  -8 6979.39 627.104   2
  -2  12  -7 10456.3 734.466   2
  -2  12  -6 9113.91 649.904   2
  -2  12  -5 9365.61 616.824   2
  -2  12  -4 3724.93 367.087   2
  -2  13 -11 6802.11 725.777   2
  -2  13 -10 2047.17 382.522   2
  -2  13  -9 1001.59 250.940   2
  -2  13  -8 207.345 144.312   2
  -2  13  -7 1125.00 263.330   2
  -2  13  -6 1679.96 291.441   2
  -2  14 -10 78.4016 109.488   2
  -2  14  -9 217.949 115.252   2
  -2  14  -8 1046.55 280.803   2
  -1 -12   2 2676.91 441.382   4
  -1 -12   3 10018.4 824.634   4
  -1 -12   4 8749.14 748.072   4
  -1 -12   5 5787.19 590.141   4
  -1 -12   6-37.2452 63.0574   4
  -1 -11   0 710.505 244.181   4
  -1 -11   1 859.232 245.576   4
  -1 -11   2 406.464 180.515   4
  -1 -11   3 1369.32 307.772   4
  -1 -11   4 5282.30 556.521   4
  -1 -11   5 9794.09 736.477   4
  -1 -11   6 7388.05 606.179   4
  -1 -11   7 5323.52 497.670   4
  -1 -10  -1 7829.09 702.420   4
  -1 -10   0 9678.75 772.823   4
  -1 -10   1 7956.14 700.799   4
  -1 -10   2 5373.71 559.529   4
  -1 -10   3 3942.07 469.572   4
  -1 -10   4 120.083 88.3697   4
  -1 -10   5 310.990 146.771   4
  -1 -10   6 5245.11 478.337   4
  -1 -10   7 1579.53 253.262   4
  -1  -9  -7 2986.72 465.425   1
  -1  -9  -6 3151.65 447.123   1
  -1  -9  -5 1506.89 290.169   1
  -1  -9  -4 3091.29 388.841   1
  -1  -9  -3 1744.83 265.853   1
  -1  -9  -2 76.8743 71.1227   1
  -1  -9  -2 93.5580 94.3929   4
  -1  -9  -1 1956.80 232.038   1
  -1  -9  -1 1563.03 292.229   4
  -1  -9   0 2092.61 209.907   1
  -1  -9   0 2064.92 344.876   4
  -1  -9   1 9344.05 351.946   1
  -1  -9   1 9456.51 717.296   4
  -1  -9   2 15374.8 906.804   4
  -1  -9   3 6002.05 542.188   4
  -1  -9   4 12008.0 746.042   4
  -1  -9   5 16553.1 845.091   4
  -1  -9   6 1013.63 198.872   4
  -1  -9   7 165.003 89.6367   4
  -1  -8  -9 22.5522 115.887   1
  -1  -8  -8 222.937 165.137   1
  -1  -8  -7 862.528 270.102   1
  -1  -8  -6 1736.30 327.974   1
  -1  -8  -5 4807.69 481.201   1
  -1  -8  -4 6529.78 518.035   1
  -1  -8  -3 21925.1 1093.53   4
  -1  -8  -3 22496.7 890.285   1
  -1  -8  -2 3921.15 339.637   1
  -1  -8  -2 5383.92 530.605   4
  -1  -8  -1 6656.89 401.169   1
  -1  -8  -1 6448.17 571.130   4
  -1  -8   0 2950.91 236.037   1
  -1  -8   0 2828.69 227.022   1
  -1  -8   0 3318.57 417.664   4
  -1  -8   1 1210.91 128.942   1
  -1  -8   1 1406.07 135.822   1
  -1  -8   1 1716.92 293.232   4
  -1  -8   2 1079.79 71.9577   1
  -1  -8   2 1065.19 74.2801   1
  -1  -8   5 32476.6 1083.23   4
  -1  -8   6 25592.9 918.229   4
  -1  -8   7 26543.6 845.258   4
  -1  -7 -10 4268.24 602.826   1
  -1  -7  -9 3418.61 509.931   1
  -1  -7  -8 2439.86 407.012   1
  -1  -7  -7 4767.21 547.158   1
  -1  -7  -6 244.165 143.205   1
  -1  -7  -5 756.911 187.411   1
  -1  -7  -4 3644.71 376.232   1
  -1  -7  -3 15171.9 710.777   1
  -1  -7  -3 14858.1 847.924   4
  -1  -7  -2 20621.3 750.943   1
  -1  -7  -2 22552.9 1035.34   4
  -1  -7  -1 20632.2 987.057   4
  -1  -7  -1 19885.0 663.664   1
  -1  -7   0 19426.7 570.569   1
  -1  -7   0 19935.0 586.161   1
  -1  -7   1 8880.04 312.123   1
  -1  -7   1 9492.84 327.319   1
  -1  -7   2 20064.5 294.025   1
  -1  -7   2 19325.7 291.504   1
  -1  -7   6 12895.2 314.718   1
  -1  -7   6 12847.0 578.908   4
  -1  -7   7 14351.9 547.571   4
  -1  -7   7 13091.5 430.904   1
  -1  -7   8 17763.8 609.782   1
  -1  -6 -10 3001.09 479.754   1
  -1  -6  -9 5502.26 639.166   1
  -1  -6  -8 10830.6 825.406   1
  -1  -6  -7 14188.8 880.769   1
  -1  -6  -6 8337.30 627.699   1
  -1  -6  -5 8343.95 592.651   1
  -1  -6  -4 16776.1 772.710   1
  -1  -6  -3 14133.2 656.567   1
  -1  -6  -3 16373.9 829.756   4
  -1  -6  -2 716.337 138.289   1
  -1  -6  -2 867.971 201.827   4
  -1  -6  -1 2290.69 217.401   1
  -1  -6  -1 2300.82 299.524   4
  -1  -6   0 20724.0 559.421   1
  -1  -6   1 4637.44 209.918   1
  -1  -6   1 4718.87 209.836   1
  -1  -6   5 23934.4 375.002   1
  -1  -6   6 11630.2 379.262   1
  -1  -6   6 12987.6 507.222   4
  -1  -6   7 426.029 93.7051   1
  -1  -6   8 212.661 77.6517   1
  -1  -5 -11 3579.67 548.164   1
  -1  -5 -10 1443.56 324.304   1
  -1  -5  -9 412.901 192.790   1
  -1  -5  -8 108.674 109.548   1
  -1  -5  -7 6012.05 548.296   1
  -1  -5  -6 9654.55 657.379   1
  -1  -5  -5 2014.72 283.425   1
  -1  -5  -4 1989.27 260.959   1
  -1  -5  -3 12300.1 588.179   1
  -1  -5  -3 13151.2 694.197   4
  -1  -5  -2 13780.2 566.453   1
  -1  -5  -2 15652.7 750.273   4
  -1  -5  -1 14696.1 512.898   1
  -1  -5  -1 16776.5 754.071   4
  -1  -5   0 11066.5 382.656   1
  -1  -5   1 29544.4 467.277   1
  -1  -5   1 30453.2 471.551   1
  -1  -5   5 45235.4 877.782   4
  -1  -5   5 42027.1 649.774   1
  -1  -5   6 10716.0 366.222   4
  -1  -5   6 10448.0 402.174   1
  -1  -5   7 8069.31 420.222   1
  -1  -4 -11 9810.76 869.204   1
  -1  -4 -10 3360.96 486.138   1
  -1  -4  -9 11367.1 837.859   1
  -1  -4  -8 14009.0 868.808   1
  -1  -4  -7 2896.03 371.747   1
  -1  -4  -7 3605.85 234.029   2
  -1  -4  -6 570.932 90.6883   2
  -1  -4  -6 726.738 189.912   1
  -1  -4  -5 1795.46 253.423   1
  -1  -4  -5 2182.40 147.331   2
  -1  -4  -4 13528.4 646.385   1
  -1  -4  -3 29033.3 873.438   1
  -1  -4  -3 30396.0 967.618   4
  -1  -4  -2 17212.8 593.499   1
  -1  -4  -2 16346.1 695.194   4
  -1  -4  -1 95760.3 1244.57   1
  -1  -4  -1 100403. 1692.45   4
  -1  -4   0 159650. 1313.22   1
  -1  -4   1 61384.8 571.062   1
  -1  -4   4 213.938 41.1561   1
  -1  -4   4 131.415 41.9567   4
  -1  -4   5 4231.64 207.487   4
  -1  -4   5 4114.05 231.408   1
  -1  -4   6 72025.5 1161.45   1
  -1  -4   7 18228.6 671.802   1
  -1  -3 -12 23.7630 144.128   1
  -1  -3 -11 1035.54 288.633   1
  -1  -3 -10 2544.16 418.225   1
  -1  -3  -9 11123.5 507.288   2
  -1  -3  -9 13143.2 874.886   1
  -1  -3  -8 17258.6 948.781   1
  -1  -3  -8 13983.4 532.462   2
  -1  -3  -7 6260.10 527.842   1
  -1  -3  -7 5749.27 318.093   2
  -1  -3  -6 28840.4 1060.55   1
  -1  -3  -6 28741.4 652.704   2
  -1  -3  -5 32078.6 1037.12   1
  -1  -3  -5 33314.7 623.033   2
  -1  -3  -4 5902.75 409.865   1
  -1  -3  -4 5774.39 244.730   2
  -1  -3  -3 7068.86 238.535   2
  -1  -3  -3 8058.72 431.222   1
  -1  -3  -2 14583.6 517.392   1
  -1  -3  -2 13759.4 567.357   4
  -1  -3  -1 16308.8 468.232   1
  -1  -3  -1 18107.2 635.388   4
  -1  -3   0 32671.7 523.394   1
  -1  -3   0 35014.8 844.907   4
  -1  -3   1 1278.27 65.5656   1
  -1  -3   1 1406.80 153.794   4
  -1  -3   2 47719.5 831.174   4
  -1  -3   3 22762.9 345.893   1
  -1  -3   3 23685.4 524.857   4
  -1  -3   4 76914.5 899.958   1
  -1  -3   5 56968.2 952.244   1
  -1  -3   6 13411.7 539.865   1
  -1  -2 -13 5105.37 656.659   1
  -1  -2 -12 4000.81 561.587   1
  -1  -2 -11 5410.59 615.928   1
  -1  -2 -10 914.696 163.630   2
  -1  -2 -10 1181.59 271.096   1
  -1  -2  -9 561.022 124.728   2
  -1  -2  -9 706.394 223.769   1
  -1  -2  -8 2192.02 227.630   2
  -1  -2  -8 1767.36 296.006   1
  -1  -2  -7 4661.67 304.029   2
  -1  -2  -7 3484.63 383.408   1
  -1  -2  -6 46329.3 884.016   2
  -1  -2  -6 45687.4 1283.57   1
  -1  -2  -5 19072.5 770.316   1
  -1  -2  -5 19379.8 521.536   2
  -1  -2  -4 44718.3 1077.81   1
  -1  -2  -4 44000.4 699.686   2
  -1  -2  -3 58486.1 710.688   2
  -1  -2  -3 60711.1 1128.39   1
  -1  -2  -2 37373.9 771.477   1
  -1  -2  -2 39519.1 540.827   2
  -1  -2  -1 54.9978 40.8688   4
  -1  -2  -1-15.2125 21.4158   1
  -1  -2   0 104762. 825.006   1
  -1  -2   0 102037. 1155.92   4
  -1  -2   1 35635.5 614.587   4
  -1  -2   3 93894.7 867.069   1
  -1  -2   3 90428.8 742.963   3
  -1  -2   4 13588.0 240.699   3
  -1  -2   4 14346.8 440.323   1
  -1  -2   5 118998. 1497.16   1
  -1  -2   5 118626. 1570.20   2
  -1  -2   6 38526.0 978.265   1
  -1  -1 -13 3289.71 527.903   1
  -1  -1 -12 6706.98 702.595   1
  -1  -1 -11 6667.97 489.511   2
  -1  -1 -11 8139.05 731.501   1
  -1  -1 -10 2837.88 305.413   2
  -1  -1 -10 3172.61 450.337   1
  -1  -1  -9 12516.0 598.168   2
  -1  -1  -9 11186.8 765.676   1
  -1  -1  -8 19821.6 708.131   2
  -1  -1  -8 19001.6 923.474   1
  -1  -1  -7 5157.96 451.318   1
  -1  -1  -7 5309.84 341.808   2
  -1  -1  -6 2588.47 221.862   2
  -1  -1  -6 3216.01 330.981   1
  -1  -1  -5 229.805 68.3383   2
  -1  -1  -5 89.2547 61.3988   1
  -1  -1  -4 54.8299 26.0920   2
  -1  -1  -4 11.8841 23.2076   1
  -1  -1  -3 50313.8 700.864   2
  -1  -1  -3 49490.9 961.942   1
  -1  -1  -2 31607.2 657.089   1
  -1  -1  -2 30976.7 476.377   2
  -1  -1  -1 175354. 1299.60   1
  -1  -1  -1 188656. 1108.09   2
  -1  -1   0 47313.4 483.226   1
  -1  -1   0 48382.4 629.467   3
  -1  -1   1-1.83883 5.02804   3
  -1  -1   2 223.817 40.5838   1
  -1  -1   2 212.530 33.8365   3
  -1  -1   3 44003.7 702.763   1
  -1  -1   3 43472.3 441.369   3
  -1  -1   4 6885.42 183.086   3
  -1  -1   4 7782.51 360.486   1
  -1  -1   5 6007.48 193.718   3
  -1  -1   5 6528.41 381.789   1
  -1  -1   5 6662.52 356.534   2
  -1  -1   6 49389.4 632.890   3
  -1  -1   7 28527.7 531.661   3
  -1  -1   8 41346.8 696.856   3
  -1  -1   9 6743.76 291.533   3
  -1  -1   9 6838.80 305.826   3
  -1  -1  10 2745.97 197.889   3
  -1   0 -14 1517.89 378.929   1
  -1   0 -13 652.040 231.339   1
  -1   0 -12-90.6500 125.467   1
  -1   0 -12-36.5200 60.0992   2
  -1   0 -11 2597.90 318.120   2
  -1   0 -11 3163.61 451.311   1
  -1   0 -10 4840.86 404.705   2
  -1   0 -10 4498.56 501.452   1
  -1   0  -9 22467.2 832.228   2
  -1   0  -9 21648.0 1053.91   1
  -1   0  -8 46474.0 1132.99   2
  -1   0  -8 47480.6 1420.65   1
  -1   0  -7 30720.8 1064.12   1
  -1   0  -7 31744.2 876.277   2
  -1   0  -6 25996.7 736.639   2
  -1   0  -6 25479.6 889.926   1
  -1   0  -5 6.79419 30.7485   2
  -1   0  -5 33.6498 30.1836   1
  -1   0  -4 3872.57 284.391   1
  -1   0  -4 4444.37 253.300   2
  -1   0  -3 9369.42 322.850   2
  -1   0  -3 10557.7 419.232   1
  -1   0  -2 21248.7 420.087   2
  -1   0  -2 21206.4 509.624   1
  -1   0  -2 20512.5 412.639   3
  -1   0  -1 9569.27 250.929   3
  -1   0  -1 6279.31 192.233   2
  -1   0   0 0.57704 3.74702   2
  -1   0   0 3.20920 8.77976   1
  -1   0   1 3182.60 127.680   3
  -1   0   1-3.97950 6.27598   1
  -1   0   2 49363.3 514.216   3
  -1   0   2 116.076 39.6120   1
  -1   0   3-3.02332 12.3930   1
  -1   0   3 53748.5 615.174   3
  -1   0   4-6.64374 24.3446   1
  -1   0   4 37333.8 590.214   3
  -1   0   5-11.6787 37.7832   1
  -1   0   5 13307.2 396.937   3
  -1   0   6 443.041 85.2008   3
  -1   0   7 1878.43 174.271   3
  -1   0   8 6016.13 336.825   3
  -1   0   9 2838.08 248.407   3
  -1   0  10 16383.6 584.854   3
  -1   0  11 22180.5 704.097   3
  -1   1 -14 6910.70 750.089   1
  -1   1 -14 6457.50 589.129   2
  -1   1 -13 10122.0 710.381   2
  -1   1 -13 9881.31 841.816   1
  -1   1 -12 7597.51 586.188   2
  -1   1 -12 8667.87 748.544   1
  -1   1 -11 14557.8 770.564   2
  -1   1 -11 16453.3 978.671   1
  -1   1 -10 2279.75 293.121   2
  -1   1 -10 1845.90 309.715   1
  -1   1  -9 17.0752 47.0446   1
  -1   1  -9 190.577 83.0285   2
  -1   1  -8 5504.33 401.960   2
  -1   1  -8 6628.36 525.044   1
  -1   1  -7 11775.5 656.320   1
  -1   1  -7 12760.9 572.676   2
  -1   1  -6 39210.0 927.203   2
  -1   1  -6 41441.3 1104.21   1
  -1   1  -5 25973.8 812.201   1
  -1   1  -5 24764.6 672.861   2
  -1   1  -4 51113.9 879.884   2
  -1   1  -4 55814.6 1056.40   1
  -1   1  -3 61793.9 638.608   3
  -1   1  -3 61474.4 958.177   1
  -1   1  -2 31081.4 411.135   3
  -1   1  -2 31018.3 569.853   1
  -1   1  -2 31289.8 539.795   2
  -1   1  -1-0.87574 5.56979   1
  -1   1  -1 2.25762 7.42112   2
  -1   1   0 3.50595 5.75587   2
  -1   1   0-1.78208 3.65976   1
  -1   1   1 57307.1 649.966   3
  -1   1   2 639.465 93.3714   1
  -1   1   2 9.47911 12.5169   3
  -1   1   3 57017.0 1009.24   1
  -1   1   3 54045.2 804.674   3
  -1   1   4 45851.9 1026.57   1
  -1   1   4 43475.2 796.012   3
  -1   1   5 34980.2 787.003   3
  -1   1   6 63195.4 1127.23   3
  -1   1   7 18389.6 648.262   3
  -1   1  11 6444.15 438.066   3
  -1   2 -15 226.808 144.657   2
  -1   2 -14 7238.56 641.609   2
  -1   2 -14 6627.77 718.126   1
  -1   2 -13 4386.50 481.880   2
  -1   2 -13 4931.62 580.000   1
  -1   2 -12 9200.63 666.101   2
  -1   2 -12 12652.5 882.354   1
  -1   2 -11 18721.6 898.264   2
  -1   2 -11 20166.7 1055.76   1
  -1   2 -10 7804.33 551.234   2
  -1   2 -10 6989.14 587.759   1
  -1   2  -9 3436.55 343.724   2
  -1   2  -9 3430.44 391.965   1
  -1   2  -8 21750.3 810.304   2
  -1   2  -8 24343.5 965.326   1
  -1   2  -7 6855.60 436.658   2
  -1   2  -7 6636.27 461.223   1
  -1   2  -6 775.005 136.541   2
  -1   2  -6 590.743 136.266   1
  -1   2  -5 10984.1 502.531   1
  -1   2  -5 11253.8 478.719   2
  -1   2  -4 7201.25 352.365   2
  -1   2  -4 7206.98 195.785   3
  -1   2  -4 7037.63 353.425   1
  -1   2  -3 97410.3 1164.87   2
  -1   2  -3 95506.7 694.227   3
  -1   2  -3 96929.7 1134.68   1
  -1   2  -2 21921.8 481.866   2
  -1   2  -2 21489.5 358.210   3
  -1   2  -2 21954.8 452.188   1
  -1   2  -1 198092. 1148.27   1
  -1   2  -1 186940. 1182.61   3
  -1   2   0 188415. 958.652   2
  -1   2   0 203544. 1410.28   3
  -1   2   1 74456.1 930.522   3
  -1   2   2 168.130 51.8971   1
  -1   2   3 6778.14 385.536   1
  -1   2   4 341.093 103.463   1
  -1   2  11 5813.62 461.931   3
  -1   3 -15 4993.37 563.464   2
  -1   3 -15 6529.68 725.060   1
  -1   3 -14 2989.05 473.436   1
  -1   3 -14 3008.50 424.195   2
  -1   3 -13 358.006 143.539   2
  -1   3 -13 189.218 131.511   1
  -1   3 -12-19.3695 91.1533   1
  -1   3 -12-70.8776 72.0284   2
  -1   3 -11 3643.90 407.324   2
  -1   3 -11 4354.20 478.149   1
  -1   3 -10 1051.47 223.073   1
  -1   3 -10 902.766 196.267   2
  -1   3  -9 12503.1 672.226   2
  -1   3  -9 12338.2 714.434   1
  -1   3  -8 61083.9 1418.21   2
  -1   3  -8 60052.8 1457.44   1
  -1   3  -7 36049.6 1019.56   2
  -1   3  -7 36777.2 1053.73   1
  -1   3  -6 39354.4 996.304   2
  -1   3  -6 36849.5 971.738   1
  -1   3  -5 15921.8 575.538   1
  -1   3  -5 15277.2 574.779   2
  -1   3  -5 15043.6 243.544   3
  -1   3  -4 7659.39 205.425   3
  -1   3  -4 7723.42 350.333   1
  -1   3  -4 7933.90 381.054   2
  -1   3  -3-16.8162 28.7122   1
  -1   3  -3-5.72361 14.9487   3
  -1   3  -3-18.8391 28.5257   2
  -1   3  -2 685.914 78.9983   1
  -1   3  -2 621.925 88.9767   2
  -1   3  -2 611.985 76.2877   3
  -1   3  -1 732.229 78.3561   2
  -1   3  -1 742.568 91.5228   3
  -1   3  -1 784.371 76.1193   1
  -1   3   0 223192. 1132.00   2
  -1   3   0 218857. 1819.37   3
  -1   3   0 219586. 1377.37   1
  -1   3   2 13596.7 507.425   1
  -1   3   3 31547.3 919.252   1
  -1   3  11 12422.1 750.083   3
  -1   4 -15 4852.97 571.025   2
  -1   4 -15 5106.24 648.409   1
  -1   4 -14 11883.6 864.029   2
  -1   4 -14 12122.3 930.623   1
  -1   4 -13 6517.67 612.172   2
  -1   4 -13 6340.81 634.733   1
  -1   4 -12 7235.01 614.235   2
  -1   4 -12 7243.64 640.887   1
  -1   4 -11 4912.27 478.823   2
  -1   4 -11 5815.41 544.066   1
  -1   4 -10 215.738 107.876   2
  -1   4 -10 660.794 182.294   1
  -1   4  -9 355.508 121.004   2
  -1   4  -9 351.140 117.512   1
  -1   4  -8 3176.73 336.473   2
  -1   4  -8 3241.01 330.158   1
  -1   4  -7 25579.6 847.404   1
  -1   4  -7 24019.5 861.762   2
  -1   4  -6 21570.8 758.867   2
  -1   4  -6 18400.6 651.346   1
  -1   4  -5 74429.5 1317.42   2
  -1   4  -5 74519.4 705.386   3
  -1   4  -5 72307.2 1171.93   1
  -1   4  -4 47210.3 963.541   2
  -1   4  -4 45944.3 652.408   3
  -1   4  -4 44792.9 804.140   1
  -1   4  -3 35364.1 638.239   1
  -1   4  -3 36199.7 776.851   2
  -1   4  -3 36805.0 662.198   3
  -1   4  -2 43.7740 26.3370   2
  -1   4  -2 65.7733 22.0942   1
  -1   4  -2 79.9879 30.5270   3
  -1   4  -1 3842.18 198.851   2
  -1   4  -1 4104.09 193.261   1
  -1   4   0 13.8385 15.0919   2
  -1   4   1 4661.15 124.927   2
  -1   4   2 14002.8 563.275   1
  -1   4  11 2176.08 338.479   3
  -1   5 -15-9.27079 104.086   2
  -1   5 -15 260.167 189.948   1
  -1   5 -14 4962.40 569.765   2
  -1   5 -14 5511.99 601.459   1
  -1   5 -13 2360.56 369.794   2
  -1   5 -13 3130.18 436.244   1
  -1   5 -12 11466.6 786.829   2
  -1   5 -12 10902.5 755.555   1
  -1   5 -11 16832.2 909.087   2
  -1   5 -11 14219.7 817.904   1
  -1   5 -10 3032.27 369.484   2
  -1   5 -10 2636.53 330.839   1
  -1   5  -9 23224.0 974.850   2
  -1   5  -9 22741.1 907.899   1
  -1   5  -8 10781.2 626.304   2
  -1   5  -8 10866.3 581.507   1
  -1   5  -7 692.551 156.323   2
  -1   5  -7 736.069 144.269   1
  -1   5  -6 868.420 138.015   1
  -1   5  -6 807.140 154.139   2
  -1   5  -6 819.740 78.6180   3
  -1   5  -5 5837.19 387.279   2
  -1   5  -5 6526.25 270.814   3
  -1   5  -5 6087.50 324.277   1
  -1   5  -4 26478.6 758.795   2
  -1   5  -4 27857.8 615.761   1
  -1   5  -4 26614.6 611.835   3
  -1   5  -3 8720.55 398.334   2
  -1   5  -3 8339.47 376.804   3
  -1   5  -3 8666.38 309.590   1
  -1   5  -2 12945.6 439.360   2
  -1   5  -2 12879.1 366.188   1
  -1   5  -2 13814.2 524.986   3
  -1   5  -1 29372.5 592.656   2
  -1   5  -1 29093.3 567.508   1
  -1   5   0 88624.1 859.275   2
  -1   5   1 45826.5 422.178   2
  -1   5   2 5553.23 377.590   1
  -1   5  11 1689.55 313.763   3
  -1   6 -15 2834.20 466.736   2
  -1   6 -15 2683.83 447.914   1
  -1   6 -14 2231.65 393.203   2
  -1   6 -14 2582.20 401.195   1
  -1   6 -13 26.4620 68.8095   1
  -1   6 -13 3.63679 85.9875   2
  -1   6 -12 3024.89 399.586   1
  -1   6 -12 2369.35 362.865   2
  -1   6 -11 11062.5 711.043   1
  -1   6 -11 10498.6 742.614   2
  -1   6 -10 4075.68 437.461   2
  -1   6 -10 4759.28 439.484   1
  -1   6  -9 12132.1 652.850   1
  -1   6  -9 12501.6 734.502   2
  -1   6  -8 38328.1 1068.12   1
  -1   6  -8 38883.6 1221.03   2
  -1   6  -7 30817.1 1031.40   2
  -1   6  -7 29343.8 841.996   1
  -1   6  -7 29027.9 489.041   3
  -1   6  -6 44639.2 1166.55   2
  -1   6  -6 42188.2 738.202   3
  -1   6  -6 44539.7 950.400   1
  -1   6  -5 6213.84 317.024   1
  -1   6  -5 6347.89 414.092   2
  -1   6  -5 5912.67 306.960   3
  -1   6  -4 1036.82 157.061   2
  -1   6  -4 988.029 135.989   3
  -1   6  -4 849.363 106.466   1
  -1   6  -3 448.176 94.7608   2
  -1   6  -3 493.810 78.6988   1
  -1   6  -3 297.863 82.8543   3
  -1   6  -2 17893.5 450.935   1
  -1   6  -2 17574.9 537.929   2
  -1   6  -1 25507.2 583.476   2
  -1   6   0 74261.1 839.555   2
  -1   6   1 25282.2 323.355   2
  -1   6  11 4849.75 571.350   3
  -1   7 -15 6536.94 712.626   2
  -1   7 -15 4976.48 577.873   1
  -1   7 -14 10203.3 849.883   2
  -1   7 -14 11286.4 838.908   1
  -1   7 -13 16334.6 1029.99   2
  -1   7 -13 17346.8 993.974   1
  -1   7 -12 14822.5 940.344   2
  -1   7 -12 15254.8 867.234   1
  -1   7 -11 2416.54 332.443   1
  -1   7 -11 2211.81 349.201   2
  -1   7 -10 658.122 205.235   2
  -1   7 -10 649.224 171.877   1
  -1   7  -9 8.00357 39.4134   1
  -1   7  -9 92.0607 81.0958   2
  -1   7  -8 2179.85 128.431   3
  -1   7  -8 2561.25 325.829   2
  -1   7  -8 2220.72 248.334   1
  -1   7  -8 2566.18 138.551   3
  -1   7  -7 6008.88 466.698   2
  -1   7  -7 5554.56 279.552   3
  -1   7  -7 6214.07 371.720   1
  -1   7  -6 8551.22 395.597   1
  -1   7  -6 7743.57 374.723   3
  -1   7  -6 8467.84 528.079   2
  -1   7  -5 42991.4 1113.99   2
  -1   7  -5 41344.9 804.479   1
  -1   7  -5 40433.3 957.338   3
  -1   7  -4 26421.6 589.618   1
  -1   7  -4 27045.6 827.547   2
  -1   7  -3 34763.3 873.522   2
  -1   7  -3 34609.0 655.834   1
  -1   7  -2 31058.6 756.535   2
  -1   7  -1 6821.49 315.490   2
  -1   7   0 1579.79 125.865   2
  -1   7   1 2636.67 95.5409   2
  -1   7  10 131.428 136.049   3
  -1   7  11 904.739 287.270   3
  -1   8 -14 1214.19 268.081   1
  -1   8 -14 444.848 166.381   2
  -1   8 -13 3083.69 457.339   2
  -1   8 -13 3208.76 419.519   1
  -1   8 -12 8670.92 730.285   2
  -1   8 -12 8456.84 635.683   1
  -1   8 -11 18798.0 882.925   1
  -1   8 -11 19823.4 1067.62   2
  -1   8 -10 6999.03 605.299   2
  -1   8 -10 6872.41 502.106   1
  -1   8  -9 4295.96 454.455   2
  -1   8  -9 5328.26 401.819   1
  -1   8  -8 1005.28 161.694   1
  -1   8  -8 984.806 205.106   2
  -1   8  -8 797.079 109.387   3
  -1   8  -7 1569.86 179.872   1
  -1   8  -7 1002.71 199.468   2
  -1   8  -6 720.287 159.729   2
  -1   8  -6 706.660 111.483   1
  -1   8  -5 6912.99 467.295   2
  -1   8  -5 6612.25 315.185   1
  -1   8  -4 6487.25 423.844   2
  -1   8  -4 5585.11 274.106   1
  -1   8  -3 6844.04 407.412   2
  -1   8  -2 18077.5 598.808   2
  -1   8  -1 8706.22 369.995   2
  -1   8   0 18852.7 452.090   2
  -1   8  10 2551.97 469.464   3
  -1   9 -14 683.758 261.805   2
  -1   9 -13-21.5495 76.8290   2
  -1   9 -12 1111.89 265.858   2
  -1   9 -11 4079.37 496.243   2
  -1   9 -11 3390.51 358.359   1
  -1   9 -10 4401.30 383.895   1
  -1   9 -10 4520.48 499.186   2
  -1   9  -9 4135.36 461.173   2
  -1   9  -9 4779.22 363.965   1
  -1   9  -8 25000.0 1074.44   2
  -1   9  -8 24551.1 749.862   1
  -1   9  -8 23001.8 684.527   3
  -1   9  -7 20450.3 925.363   2
  -1   9  -7 21496.1 645.364   1
  -1   9  -6 18323.5 830.974   2
  -1   9  -6 18420.5 551.697   1
  -1   9  -5 4430.24 249.767   1
  -1   9  -5 4279.15 379.810   2
  -1   9  -4 65.2024 49.9450   2
  -1   9  -3 9582.17 489.724   2
  -1   9  -2 3479.20 269.127   2
  -1   9  -1 351.089 79.1274   2
  -1   9   0 18778.5 441.400   2
  -1  10 -13 3580.31 524.313   2
  -1  10 -12 1817.87 355.411   2
  -1  10 -11 2334.39 392.239   2
  -1  10 -10 642.689 204.143   2
  -1  10  -9 300.985 142.137   2
  -1  10  -8 10494.0 717.920   2
  -1  10  -8 9345.57 488.770   3
  -1  10  -7 12610.1 757.616   2
  -1  10  -6 11019.4 668.217   2
  -1  10  -5 14938.9 735.589   2
  -1  10  -4 10385.0 568.297   2
  -1  10  -3 3167.05 291.321   2
  -1  10  -2 7198.81 403.644   2
  -1  10  -1 866.496 121.563   2
  -1  11 -13 5660.66 672.769   2
  -1  11 -12 9180.53 815.593   2
  -1  11 -11 10790.8 847.973   2
  -1  11 -10 5864.59 599.901   2
  -1  11  -9 4922.61 532.651   2
  -1  11  -8 2344.13 350.788   2
  -1  11  -7 717.189 181.657   2
  -1  11  -6 134.865 111.221   2
  -1  11  -5 3018.31 335.507   2
  -1  11  -4 5741.85 436.721   2
  -1  11  -3 8241.84 484.623   2
  -1  12 -12 505.607 202.955   2
  -1  12 -11 1842.81 369.991   2
  -1  12 -10 3616.12 481.133   2
  -1  12  -9 1388.00 305.525   2
  -1  12  -8 3355.07 427.382   2
  -1  12  -7 4248.34 460.273   2
  -1  12  -6 4942.72 473.469   2
  -1  12  -5 1765.31 281.236   2
  -1  13 -11 252.422 175.018   2
  -1  13 -10 490.731 213.639   2
  -1  13  -9 321.482 152.913   2
  -1  13  -8 3195.89 438.485   2
  -1  13  -7 2992.90 404.457   2
  -1  14 -10 3236.40 498.067   2
  -1  14  -9 2351.85 402.867   2
  -1  14  -6 72.2465 131.737   3
  -1  14  -5 3433.80 503.199   3
  -1  15  -5 400.623 194.540   3
  -1  15  -4-99.3888 131.600   3
   0 -14   2 1685.42 379.325   4
   0 -14   3 1910.86 403.412   4
   0 -14   4 2403.50 455.854   4
   0 -14   5 3539.42 521.848   4
   0 -14   6 2610.75 425.595   4
   0 -14   7 593.800 210.507   4
   0 -13   0 2537.06 472.148   4
   0 -13   1 625.903 249.989   4
   0 -13   2 146.547 151.397   4
   0 -13   3 436.927 215.709   4
   0 -13   4 2283.92 431.786   4
   0 -13   5 8275.23 803.442   4
   0 -13   6 7567.61 725.422   4
   0 -13   7 1693.06 326.317   4
   0 -12  -2 524.207 229.965   4
   0 -12  -1 1538.10 357.829   4
   0 -12   0 1249.84 328.380   4
   0 -12   1 3203.07 512.487   4
   0 -12   2 9201.00 832.963   4
   0 -12   3 4690.65 578.111   4
   0 -12   6 230.225 129.115   4
   0 -12   7-25.4120 93.6336   4
   0 -12   8 151.846 110.069   4
   0 -11  -3 3068.69 498.400   4
   0 -11  -2 79.6419 164.363   4
   0 -11  -1-35.5703 89.1336   4
   0 -11   0 72.4492 116.512   4
   0 -11   8 569.202 167.292   4
   0 -10  -4 3195.10 389.117   1
   0 -10  -4 4054.13 534.830   4
   0 -10  -3 7082.84 542.198   1
   0 -10  -3 7538.85 733.344   4
   0 -10  -2 10262.7 598.796   1
   0 -10  -2 11123.1 901.764   4
   0 -10  -1 6986.26 456.573   1
   0 -10  -1 7314.87 687.791   4
   0  -9  -8 3349.12 506.958   1
   0  -9  -7 1918.29 358.752   1
   0  -9  -6 624.291 203.625   1
   0  -9  -5 400.401 157.073   1
   0  -9  -5 570.233 200.474   4
   0  -9  -4 793.871 205.288   1
   0  -9  -4 397.412 171.796   4
   0  -9  -3 4068.87 527.257   4
   0  -9  -3 3495.73 373.283   1
   0  -9  -2 22412.8 897.853   1
   0  -9  -1 13989.4 631.978   1
   0  -9   0 12539.6 527.560   1
   0  -9   1 10553.3 419.947   1
   0  -9   2 1578.70 133.988   1
   0  -9   3 4356.01 162.246   1
   0  -9   3 4273.27 154.325   1
   0  -9   9 10660.8 536.530   4
   0  -8  -9 2434.21 434.341   1
   0  -8  -8 5488.32 605.972   1
   0  -8  -7 6114.77 613.325   1
   0  -8  -6 9898.68 722.888   1
   0  -8  -5 4025.17 445.835   1
   0  -8  -5 4004.83 490.447   4
   0  -8  -4 13355.6 758.034   1
   0  -8  -4 12044.1 839.407   4
   0  -8  -3 11263.2 654.323   1
   0  -8  -3 10412.8 770.129   4
   0  -8  -2 3779.27 339.548   1
   0  -8  -1 1514.89 192.557   1
   0  -8   0 1644.48 180.591   1
   0  -8   0 1331.14 165.509   1
   0  -8   1 5184.49 281.529   1
   0  -8   1 4111.75 240.399   1
   0  -8   2 198.722 50.6536   1
   0  -8   2 85.2569 38.1147   1
   0  -8   3 20494.4 362.273   1
   0  -8   3 20884.4 375.749   1
   0  -8   4 30486.0 389.396   1
   0  -8   4 31081.9 397.461   1
   0  -8   5 27795.9 446.647   1
   0  -8   6 13625.1 403.776   1
   0  -8   7 5073.82 294.851   1
   0  -8   9 1299.13 164.709   4
   0  -7 -10 1072.96 304.049   1
   0  -7  -9 1735.26 356.968   1
   0  -7  -8 3017.32 448.531   1
   0  -7  -7-15.3143 62.7723   1
   0  -7  -6 4914.14 523.997   4
   0  -7  -6 5308.80 524.558   1
   0  -7  -5 3387.96 422.065   4
   0  -7  -5 3365.52 393.259   1
   0  -7  -4 3107.47 350.940   1
   0  -7  -4 3811.70 456.416   4
   0  -7  -3 3022.29 311.458   1
   0  -7  -2 10394.4 534.656   1
   0  -7  -1 31670.8 851.509   1
   0  -7   0 27264.7 697.733   1
   0  -7   0 25326.1 667.112   1
   0  -7   1 2779.71 189.101   1
   0  -7   1 2680.12 188.250   1
   0  -7   2 459.191 63.7734   1
   0  -7   2 521.128 73.1653   1
   0  -7   3 7448.23 221.699   1
   0  -7   3 8023.67 236.168   1
   0  -7   4 12002.3 287.852   1
   0  -7   5 27021.8 523.674   1
   0  -7   6 35031.1 723.905   1
   0  -7   7 21473.4 657.833   1
   0  -7   9 1804.43 153.115   4
   0  -6 -11 1420.27 355.760   1
   0  -6 -10 5568.47 650.354   1
   0  -6  -9 6030.36 632.363   1
   0  -6  -8 14787.4 937.411   1
   0  -6  -7 5940.02 562.875   1
   0  -6  -6 11212.6 741.055   1
   0  -6  -6 10051.9 695.832   4
   0  -6  -5 135.422 114.220   4
   0  -6  -5 251.394 129.200   1
   0  -6  -4-16.5382 55.9219   1
   0  -6  -4 214.314 123.243   4
   0  -6  -3 10377.0 556.652   1
   0  -6  -2 21571.4 742.016   1
   0  -6  -1 46086.3 957.927   1
   0  -6   0 44617.4 809.767   1
   0  -6   0 43879.6 824.052   1
   0  -6   1 19809.5 465.806   1
   0  -6   1 19295.2 464.190   1
   0  -6   2 17840.9 351.982   1
   0  -6   2 18133.5 381.797   1
   0  -6   3 11490.6 269.462   1
   0  -6   4 918.727 87.0934   1
   0  -6   5 937.284 109.059   1
   0  -6   6 3541.40 246.526   1
   0  -6   7 5512.29 354.257   1
   0  -5 -11 349.095 197.550   1
   0  -5 -10 459.582 197.304   1
   0  -5  -9 3989.98 500.335   1
   0  -5  -8 9535.97 737.846   1
   0  -5  -7 23346.4 1083.36   1
   0  -5  -6 13102.5 791.701   1
   0  -5  -6 12100.0 711.137   4
   0  -5  -5 8204.71 594.226   4
   0  -5  -5 6649.30 505.326   1
   0  -5  -4 12792.3 640.512   1
   0  -5  -3 8891.40 495.401   1
   0  -5  -2 353.481 93.7795   1
   0  -5  -1 212.266 66.5076   1
   0  -5   0 951.684 110.336   1
   0  -5   0 759.632 99.3105   1
   0  -5   1 21231.2 424.854   1
   0  -5   1 22217.0 452.306   1
   0  -5   2 31355.7 420.049   1
   0  -5   2 31416.1 461.281   1
   0  -5   3 34411.6 474.725   1
   0  -5   3 34502.0 807.138   2
   0  -5   4 10032.4 310.906   1
   0  -5   5 66089.4 967.014   1
   0  -5   6 6171.51 344.831   1
   0  -4 -12 9456.54 883.075   1
   0  -4 -11 4536.41 595.983   1
   0  -4 -10 581.412 189.890   1
   0  -4  -9 4175.47 507.430   1
   0  -4  -8-3.07893 57.0847   1
   0  -4  -7 2237.97 324.262   1
   0  -4  -7 1887.74 146.148   2
   0  -4  -6 1571.12 258.944   1
   0  -4  -6 1387.80 109.648   2
   0  -4  -6 1378.26 225.188   4
   0  -4  -5 12535.9 664.390   1
   0  -4  -5 12291.0 281.824   2
   0  -4  -5 13332.6 689.708   4
   0  -4  -4 14637.1 656.730   1
   0  -4  -3 32068.6 883.581   1
   0  -4  -2 23246.8 671.492   1
   0  -4  -1 122767. 1362.90   1
   0  -4   0 65535.3 832.770   1
   0  -4   1 20854.7 386.781   1
   0  -4   1 21251.8 359.871   1
   0  -4   2 7114.63 182.343   1
   0  -4   2 6987.34 305.772   2
   0  -4   3 7543.63 237.583   1
   0  -4   3 7126.26 348.705   2
   0  -4   4 24942.8 539.601   1
   0  -4   4-0.23960 25.7143   2
   0  -4   5 64838.8 1012.55   1
   0  -4   6 83904.4 1352.64   1
   0  -3 -12 4642.98 608.687   1
   0  -3 -11 1722.91 354.060   1
   0  -3 -10 4191.79 514.325   1
   0  -3  -9 11246.6 789.096   1
   0  -3  -9 9052.74 436.435   2
   0  -3  -8 18044.3 934.722   1
   0  -3  -8 18599.0 583.868   2
   0  -3  -7 19663.3 938.632   1
   0  -3  -7 17789.2 522.195   2
   0  -3  -6 22354.8 927.825   1
   0  -3  -6 23125.2 535.664   2
   0  -3  -6 22914.1 820.011   4
   0  -3  -5 123.387 37.8639   2
   0  -3  -5 71.1901 53.2280   1
   0  -3  -4 302.688 46.0234   2
   0  -3  -4 389.064 108.709   1
   0  -3  -3 7709.55 171.741   2
   0  -3  -3 7805.13 412.780   1
   0  -3  -2 78826.2 1152.55   1
   0  -3  -1 66542.3 912.719   1
   0  -3   0 247058. 1418.60   1
   0  -3   1 21251.7 286.624   1
   0  -3   1 21779.0 322.091   1
   0  -3   1 21757.0 431.054   2
   0  -3   2 47038.6 462.100   1
   0  -3   2 48309.5 745.717   2
   0  -3   3 4127.35 186.821   1
   0  -3   3 10.0371 16.3490   2
   0  -3   4 1420.87 140.278   1
   0  -3   4 1682.45 176.879   2
   0  -3   5 2700.28 223.585   1
   0  -3   6 1704.53 204.650   1
   0  -2 -13 960.217 296.002   1
   0  -2 -12 3713.18 521.314   1
   0  -2 -11 829.575 239.393   1
   0  -2 -10-1.31417 42.1958   2
   0  -2 -10 40.0303 64.5733   1
   0  -2  -9 9022.72 472.518   2
   0  -2  -9 9641.18 702.212   1
   0  -2  -8 18258.5 626.439   2
   0  -2  -8 18513.2 915.611   1
   0  -2  -7 45530.5 1370.86   1
   0  -2  -7 48788.9 930.880   2
   0  -2  -6 50166.2 1366.09   1
   0  -2  -6 49104.5 867.011   2
   0  -2  -5 37663.5 1046.70   1
   0  -2  -5 37733.4 678.081   2
   0  -2  -5 39569.8 927.347   4
   0  -2  -4 39783.9 977.920   1
   0  -2  -4 39897.6 607.035   2
   0  -2  -4 39306.4 919.799   4
   0  -2  -3 28694.2 409.159   2
   0  -2  -3 28595.6 742.649   1
   0  -2  -2 2246.27 180.241   1
   0  -2  -1 43193.4 653.181   1
   0  -2   0 1579.00 92.2679   1
   0  -2   1 9.87663 14.3408   2
   0  -2   2 1631.84 94.8881   1
   0  -2   2 1105.79 103.471   2
   0  -2   3 124689. 1147.10   1
   0  -2   3 117211. 1242.67   2
   0  -2   4 39060.2 770.443   1
   0  -2   4 37871.3 790.306   2
   0  -2   5 57772.7 1108.01   1
   0  -2   5 56472.8 1082.41   2
   0  -2   8 1523.28 87.9841   3
   0  -2   8 1420.61 81.2543   3
   0  -2   9 1115.65 78.6204   3
   0  -2   9 1043.60 79.8537   3
   0  -2  10 3599.55 142.152   3
   0  -1 -14 7613.06 801.605   1
   0  -1 -13 7920.68 806.191   1
   0  -1 -12 13964.4 723.207   2
   0  -1 -12 13156.5 963.714   1
   0  -1 -11 12035.9 643.217   2
   0  -1 -11 12214.0 852.481   1
   0  -1 -10 441.998 116.749   2
   0  -1 -10 656.394 193.005   1
   0  -1  -9 345.560 141.882   1
   0  -1  -9 253.852 88.6612   2
   0  -1  -8 173.087 116.446   1
   0  -1  -8 29.5752 36.4139   2
   0  -1  -7 1730.26 185.510   2
   0  -1  -7 1513.70 246.139   1
   0  -1  -6 10312.6 421.008   2
   0  -1  -6 11361.8 624.704   1
   0  -1  -5 13991.3 446.133   2
   0  -1  -5 13575.5 605.470   1
   0  -1  -4 1409.92 178.671   1
   0  -1  -4 1103.03 128.592   4
   0  -1  -4 1267.08 117.843   2
   0  -1  -3 113360. 944.269   2
   0  -1  -3 115714. 1381.68   1
   0  -1  -2 195.808 48.4492   1
   0  -1  -2 38.8503 14.2222   2
   0  -1  -1 15.6985 10.6843   1
   0  -1   1 8006.73 198.610   2
   0  -1   2 43892.5 600.442   2
   0  -1   2 2.25524 8.01766   1
   0  -1   3 19.6543 19.7594   1
   0  -1   3 3616.92 202.882   2
   0  -1   4 38628.8 759.492   2
   0  -1   4 37785.8 392.372   3
   0  -1   5 88692.5 734.471   3
   0  -1   5 92418.0 1299.15   2
   0  -1   6 86120.2 833.797   3
   0  -1   7 30700.7 612.862   3
   0  -1   7 31606.0 561.136   3
   0  -1   8 33189.9 682.706   3
   0  -1   8 34618.5 647.299   3
   0  -1   9 5856.37 282.749   3
   0  -1   9 5642.43 306.662   3
   0  -1  10 182.468 60.8648   3
   0   0 -14 227.113 169.240   1
   0   0 -13 1383.43 247.467   2
   0   0 -13 1520.04 343.595   1
   0   0 -12 5135.12 463.095   2
   0   0 -12 6504.99 665.350   1
   0   0 -11 13775.2 716.028   2
   0   0 -11 12258.4 845.190   1
   0   0 -10 5614.82 433.047   2
   0   0 -10 5515.61 524.587   1
   0   0  -9 20969.7 773.497   2
   0   0  -9 21546.5 981.419   1
   0   0  -8 41624.1 1038.54   2
   0   0  -8 41242.3 1293.68   1
   0   0  -7 20755.2 688.051   2
   0   0  -7 19957.6 827.605   1
   0   0  -6 1819.04 182.986   2
   0   0  -6 1885.13 238.354   1
   0   0  -5 450.765 85.3046   2
   0   0  -5 168.090 60.1573   1
   0   0  -4 3679.02 213.566   2
   0   0  -4 3962.16 277.914   1
   0   0  -3 33.2982 25.9023   1
   0   0  -3 35.6500 27.0686   2
   0   0  -2 23683.0 334.776   4
   0   0  -2 22802.1 370.311   2
   0   0  -1 0.87669 5.06802   2
   0   0  -1 0.66325 4.08615   1
   0   0   1-2.17069 6.94478   1
   0   0   1 2.27269 4.67255   2
   0   0   2 23360.9 388.986   2
   0   0   2 24365.5 490.195   1
   0   0   3 103.855 39.7291   1
   0   0   3 40.1050 28.0540   2
   0   0   4 3388.45 212.116   2
   0   0   4 4186.56 296.980   1
   0   0   5 332.986 78.2592   2
   0   0   6 1700.82 188.540   2
   0   0   7 22219.1 593.654   3
   0   0   8 42010.1 868.722   3
   0   0   9 21864.9 658.519   3
   0   0  10 6463.92 378.427   3
   0   1 -14 7534.55 767.161   1
   0   1 -14 8494.17 668.559   2
   0   1 -13 1689.12 287.421   2
   0   1 -13 1332.80 326.058   1
   0   1 -12 2955.10 361.850   2
   0   1 -12 3304.52 462.222   1
   0   1 -11 1892.17 274.679   2
   0   1 -11 1421.20 287.862   1
   0   1 -10 3.41489 65.5295   1
   0   1 -10 177.515 99.8593   2
   0   1  -9 6609.37 528.238   1
   0   1  -9 6048.44 438.735   2
   0   1  -8 34486.4 975.690   2
   0   1  -8 33892.7 1117.24   1
   0   1  -7 31114.9 865.139   2
   0   1  -7 32878.3 1022.17   1
   0   1  -6 84440.6 1313.92   2
   0   1  -6 83137.1 1495.12   1
   0   1  -5 87921.1 1383.01   1
   0   1  -5 89813.4 1232.62   2
   0   1  -4 38439.1 728.811   2
   0   1  -4 38960.8 818.119   1
   0   1  -3 3472.06 194.675   2
   0   1  -3 3457.16 204.564   1
   0   1  -2 0.64971 8.35695   2
   0   1  -2 8.18798 6.93300   1
   0   1  -1 0.78711 4.15719   2
   0   1   1 6834.38 226.948   1
   0   1   2 41.6026 27.2689   1
   0   1   2 80.0302 21.1190   2
   0   1   3 114969. 968.810   2
   0   1   3 119408. 1477.24   1
   0   1   4 1193.16 173.640   1
   0   1   4 1327.32 123.437   2
   0   1   5 14221.2 466.439   2
   0   1   6 10300.4 439.421   2
   0   1   8 30.1488 41.3832   3
   0   1   9 474.918 118.707   3
   0   1  10 411.868 110.848   3
   0   1  11 12280.9 616.933   3
   0   2 -15 4195.68 500.562   2
   0   2 -15 4531.27 616.164   1
   0   2 -14 17430.9 987.269   2
   0   2 -14 17928.9 1144.82   1
   0   2 -13 9406.05 690.879   2
   0   2 -13 9464.38 795.763   1
   0   2 -12 18790.1 928.746   2
   0   2 -12 17986.1 1021.10   1
   0   2 -11 24794.4 1022.93   2
   0   2 -11 26615.1 1195.65   1
   0   2 -10 3954.86 383.851   2
   0   2 -10 4078.56 442.745   1
   0   2  -9 1093.65 189.678   2
   0   2  -9 869.734 191.557   1
   0   2  -8 1346.76 218.291   1
   0   2  -8 1809.76 230.234   2
   0   2  -7 6080.45 397.721   2
   0   2  -7 6309.39 425.985   1
   0   2  -6 17443.9 646.701   1
   0   2  -6 17690.7 631.352   2
   0   2  -5 57232.7 1046.35   2
   0   2  -5 58643.0 1055.82   1
   0   2  -4 37643.9 775.960   2
   0   2  -4 37596.3 737.698   1
   0   2  -3 116955. 1229.66   2
   0   2  -3 117358. 1097.23   1
   0   2  -2 1641.43 93.6867   1
   0   2  -2 1593.56 122.550   2
   0   2  -1 579.118 59.9497   2
   0   2   0 1635.22 96.5325   1
   0   2   0 1581.87 74.2962   2
   0   2   1 43613.0 668.835   1
   0   2   2 2104.55 181.234   1
   0   2   3 29355.6 431.126   2
   0   2   3 30933.9 814.918   1
   0   2   4 40393.4 625.137   2
   0   2   5 38822.4 709.774   2
   0   2   6 47026.4 888.910   2
   0   2   7 43963.2 942.985   2
   0   2   9 9726.21 564.924   3
   0   2  10-24.9414 57.1180   3
   0   2  11 720.378 177.827   3
   0   3 -16 3290.26 492.527   2
   0   3 -15 222.330 137.905   2
   0   3 -15 502.014 212.014   1
   0   3 -14 434.936 175.084   2
   0   3 -14 115.665 112.027   1
   0   3 -13 4376.08 493.052   2
   0   3 -13 4324.60 525.647   1
   0   3 -12 4058.38 444.583   2
   0   3 -12 4109.66 483.852   1
   0   3 -11 15559.3 824.539   2
   0   3 -11 15582.7 875.456   1
   0   3 -10 151.506 75.8135   2
   0   3 -10 45.7611 49.9551   1
   0   3  -9 7606.53 519.576   2
   0   3  -9 7077.39 523.173   1
   0   3  -8 28199.1 936.722   2
   0   3  -8 29582.4 985.133   1
   0   3  -7 27714.1 873.626   2
   0   3  -7 28937.8 901.921   1
   0   3  -6 1891.50 207.012   1
   0   3  -6 1409.14 180.573   2
   0   3  -5 2777.57 245.187   2
   0   3  -5 2638.05 216.401   1
   0   3  -4 1445.59 79.0414   3
   0   3  -4 1502.78 139.078   1
   0   3  -4 1415.83 157.446   2
   0   3  -3 4407.16 252.594   2
   0   3  -3 4428.11 186.695   1
   0   3  -2 45846.6 720.631   2
   0   3  -2 45441.9 438.764   1
   0   3  -1 21114.4 420.272   2
   0   3   0 265457. 1160.69   2
   0   3   0 252770. 1459.21   1
   0   3   1 67897.8 958.828   1
   0   3   2 81170.2 1231.15   1
   0   3   3 6641.29 403.895   1
   0   3   3 7234.40 172.660   2
   0   3   4 282.796 47.8589   2
   0   3   5 97.4907 35.4267   2
   0   3   6 23423.9 579.250   2
   0   3   9 9475.51 616.646   3
   0   3  10 4811.60 465.877   3
   0   3  11 1382.97 258.049   3
   0   4 -16 1824.28 379.421   2
   0   4 -15 4946.80 567.565   2
   0   4 -15 4981.32 606.294   1
   0   4 -14 1722.63 331.542   2
   0   4 -14 1981.30 373.766   1
   0   4 -13 2635.74 376.319   2
   0   4 -13 3510.62 457.179   1
   0   4 -12 497.677 168.186   1
   0   4 -12 380.777 156.560   2
   0   4 -11 6937.79 564.720   2
   0   4 -11 7794.71 601.628   1
   0   4 -10 329.452 119.148   2
   0   4 -10 479.229 156.043   1
   0   4  -9 85.4918 71.0721   2
   0   4  -9 175.831 95.5930   1
   0   4  -8 65468.4 1474.96   2
   0   4  -8 65612.5 1411.38   1
   0   4  -7 46270.0 1165.56   2
   0   4  -7 46262.4 1071.90   1
   0   4  -6 86385.9 1503.08   2
   0   4  -6 84525.0 1294.64   1
   0   4  -5 60858.4 1183.44   2
   0   4  -5 63048.8 619.232   3
   0   4  -5 62319.5 971.636   1
   0   4  -5 63871.4 638.238   3
   0   4  -4 24544.6 513.244   1
   0   4  -4 24187.4 689.755   2
   0   4  -3 8108.21 365.404   2
   0   4  -3 7290.53 218.199   1
   0   4  -2 6919.07 301.246   2
   0   4  -2 7217.17 182.589   1
   0   4  -1 20574.6 453.463   2
   0   4   0 67075.7 667.678   2
   0   4   1 127862. 1478.43   1
   0   4   2 23367.1 731.975   1
   0   4   9 4552.93 458.648   3
   0   4  10 494.886 176.128   3
   0   4  11 4993.98 521.431   3
   0   5 -16 2179.15 412.769   1
   0   5 -15 658.865 211.840   1
   0   5 -15 1137.60 284.829   2
   0   5 -14 5616.39 595.062   2
   0   5 -14 6416.55 639.038   1
   0   5 -13 17495.8 1011.48   2
   0   5 -13 17887.7 999.546   1
   0   5 -12 34588.6 1356.88   2
   0   5 -12 32536.3 1279.42   1
   0   5 -11 24752.6 1087.05   2
   0   5 -11 24686.1 1045.70   1
   0   5 -10 21563.4 962.624   2
   0   5 -10 21866.0 916.186   1
   0   5  -9 687.103 174.858   2
   0   5  -9 725.817 154.875   1
   0   5  -8 12694.5 599.788   1
   0   5  -8 11909.6 648.839   2
   0   5  -7 1898.41 240.988   2
   0   5  -7 1526.41 184.201   1
   0   5  -6 6527.30 426.883   2
   0   5  -6 7030.12 234.828   3
   0   5  -6 6430.84 340.110   1
   0   5  -6 6702.05 228.705   3
   0   5  -5 63348.0 867.222   3
   0   5  -5 63226.9 895.823   1
   0   5  -4 9547.56 455.382   2
   0   5  -4 9395.22 287.619   1
   0   5  -3 33606.6 785.282   2
   0   5  -3 34589.9 452.141   1
   0   5  -2 30714.3 682.548   2
   0   5  -1 20738.3 495.331   2
   0   5   0 891.355 86.4266   2
   0   5   1 176.412 27.3645   2
   0   5   1 111.658 56.0843   1
   0   5   2 1186.55 200.985   1
   0   5   9 4710.83 507.224   3
   0   5  10 439.162 177.654   3
   0   5  11 661.619 197.344   3
   0   6 -16 1017.15 273.819   1
   0   6 -15 113.388 127.153   2
   0   6 -15-25.4886 86.9986   1
   0   6 -14 236.236 162.542   2
   0   6 -14 108.324 101.038   1
   0   6 -13 3086.51 442.794   2
   0   6 -13 3750.70 453.208   1
   0   6 -12 6582.24 603.270   2
   0   6 -12 4943.06 484.036   1
   0   6 -11 24442.6 1112.38   2
   0   6 -11 24208.7 1000.69   1
   0   6 -10 15056.8 827.857   2
   0   6 -10 14246.1 716.458   1
   0   6  -9 2224.85 308.457   2
   0   6  -9 2754.82 293.319   1
   0   6  -8 4348.46 407.411   2
   0   6  -8 4987.63 361.150   1
   0   6  -7 6157.39 452.082   2
   0   6  -7 5714.19 229.183   3
   0   6  -7 6481.02 369.400   1
   0   6  -7 6605.08 245.731   3
   0   6  -6 3592.56 225.123   3
   0   6  -6 3842.77 243.990   1
   0   6  -6 3500.66 216.374   3
   0   6  -6 3588.74 328.016   2
   0   6  -5 1023.96 168.902   2
   0   6  -5 762.294 93.0212   1
   0   6  -4 1050.26 158.832   2
   0   6  -4 907.474 82.0808   1
   0   6  -3 11364.4 479.187   2
   0   6  -2 17672.2 547.289   2
   0   6  -1 18449.6 496.375   2
   0   6   0 41647.9 622.233   2
   0   6   1 44645.7 432.806   2
   0   6   1 43583.2 428.484   2
   0   6   1 42356.5 987.867   1
   0   6   8 16811.2 975.524   3
   0   6   9 6247.84 615.540   3
   0   6  10 4990.85 586.524   3
   0   6  11 1266.44 311.208   3
   0   7 -15 5425.19 604.274   1
   0   7 -15 5317.24 634.018   2
   0   7 -14 2393.42 408.857   2
   0   7 -14 1859.13 327.762   1
   0   7 -13 2291.24 389.574   2
   0   7 -13 2610.10 376.688   1
   0   7 -12 130.509 121.254   2
   0   7 -12 288.467 143.082   1
   0   7 -11 2286.46 344.275   2
   0   7 -11 2154.79 297.158   1
   0   7 -10 524.138 137.293   1
   0   7 -10 545.776 168.750   2
   0   7  -9 1646.39 221.385   1
   0   7  -9 1854.87 285.417   2
   0   7  -8 19582.8 882.515   2
   0   7  -8 17208.4 407.580   3
   0   7  -8 18765.8 650.883   1
   0   7  -8 18690.1 422.188   3
   0   7  -7 23884.8 647.850   1
   0   7  -7 22654.3 586.127   3
   0   7  -7 23308.0 914.026   2
   0   7  -6 36113.0 1071.70   2
   0   7  -6 37626.9 703.671   1
   0   7  -6 35458.7 847.069   3
   0   7  -5 26054.3 862.081   2
   0   7  -5 26273.9 493.174   1
   0   7  -4 13081.5 291.568   1
   0   7  -4 12666.1 565.582   2
   0   7  -3 8046.26 415.531   2
   0   7  -2 419.273 90.6935   2
   0   7  -1 2463.79 189.420   2
   0   7   0 26394.3 517.000   2
   0   7   1 31244.2 331.756   2
   0   7   1 29709.7 333.240   2
   0   7   8 2511.36 411.639   3
   0   7   9 2385.93 423.992   3
   0   7  10 988.857 274.764   3
   0   8 -14 4050.06 552.677   2
   0   8 -13 11893.8 894.653   2
   0   8 -13 9917.41 695.561   1
   0   8 -12 11382.1 701.052   1
   0   8 -12 11090.8 826.064   2
   0   8 -11 6499.12 594.625   2
   0   8 -11 5788.93 463.839   1
   0   8 -10 5276.93 514.440   2
   0   8 -10 4518.65 375.728   1
   0   8  -9 1142.55 170.806   1
   0   8  -9 1430.33 257.377   2
   0   8  -8 1518.46 158.748   3
   0   8  -8 1396.69 170.268   1
   0   8  -8 1573.99 260.140   2
   0   8  -7 5764.58 470.930   2
   0   8  -7 5467.53 285.456   1
   0   8  -7 6378.93 361.506   3
   0   8  -6 13922.6 696.761   2
   0   8  -6 14792.0 384.246   1
   0   8  -5 30459.9 968.244   2
   0   8  -5 28517.0 434.138   1
   0   8  -4 33778.8 957.203   2
   0   8  -3 20275.0 692.485   2
   0   8  -2 173.371 63.6721   2
   0   8  -1 4898.32 277.005   2
   0   8   0 1663.69 133.930   2
   0   8   7 6396.44 663.049   3
   0   8   8 4273.29 557.442   3
   0   8   9 2978.16 486.545   3
   0   9 -14 984.830 286.165   2
   0   9 -13 6315.24 672.592   2
   0   9 -12 5805.05 607.787   2
   0   9 -11 10043.2 764.554   2
   0   9 -10 12318.0 817.323   2
   0   9  -9 10054.5 704.254   2
   0   9  -8 5953.57 521.849   2
   0   9  -8 5109.21 336.917   3
   0   9  -7 338.739 96.1839   3
   0   9  -7 363.296 122.062   2
   0   9  -6 1139.75 207.917   2
   0   9  -5 613.768 146.981   2
   0   9  -4 8104.19 487.941   2
   0   9  -3 4773.56 347.778   2
   0   9  -2 1599.15 185.983   2
   0   9  -1 11327.2 434.991   2
   0   9   0 13031.2 365.932   2
   0   9   6 731.269 241.486   3
   0   9   7 2436.71 441.131   3
   0   9   8 1958.90 402.271   3
   0  10 -13 111.914 122.431   2
   0  10 -12 621.019 222.557   2
   0  10 -11 1760.87 328.462   2
   0  10 -10 2635.09 384.152   2
   0  10  -9 5279.07 524.658   2
   0  10  -8 11099.7 728.389   2
   0  10  -8 10458.7 542.045   3
   0  10  -7 15473.3 713.032   3
   0  10  -7 15401.6 823.858   2
   0  10  -6 11482.2 674.267   2
   0  10  -6 11140.6 632.925   3
   0  10  -5 8371.29 544.258   2
   0  10  -4 2584.20 287.572   2
   0  10  -3 4327.98 342.321   2
   0  10  -2 47.9088 28.9989   2
   0  10   5 257.055 192.044   3
   0  10   6-118.205 141.233   3
   0  11 -13 7869.83 787.854   2
   0  11 -12 8652.44 787.492   2
   0  11 -11 3134.42 461.720   2
   0  11 -10 1414.89 287.342   2
   0  11  -9 4084.59 474.541   2
   0  11  -8 353.009 141.961   2
   0  11  -7 766.858 190.993   2
   0  11  -7 1054.99 205.115   3
   0  11  -6 6695.95 536.408   2
   0  11  -6 5892.17 501.464   3
   0  11  -5 16030.3 777.542   2
   0  11  -4 10664.4 604.030   2
   0  11  -3 4050.13 343.586   2
   0  11   4 2007.09 415.736   3
   0  11   5 1415.39 344.365   3
   0  12 -12 7204.44 742.526   2
   0  12 -11 9793.85 840.848   2
   0  12 -10 2494.48 403.589   2
   0  12  -9 648.525 210.710   2
   0  12  -8 47.2861 75.7514   2
   0  12  -7 81.7417 107.463   2
   0  12  -7-119.936 113.029   3
   0  12  -6 264.569 122.641   3
   0  12  -6 283.924 134.945   2
   0  12  -5 74.6188 58.9944   2
   0  12  -5 35.0858 59.7951   3
   0  12  -4 5193.05 547.811   3
   0  12   2 378.168 199.102   3
   0  12   3-16.0033 101.584   3
   0  13 -11 2628.21 478.615   2
   0  13 -10 1809.15 363.119   2
   0  13  -9 5718.54 604.240   2
   0  13  -8 6292.04 602.461   2
   0  13  -7 1418.21 286.492   2
   0  13  -6 6943.23 640.755   3
   0  13  -5 6571.40 632.343   3
   0  13  -4 1894.20 363.609   3
   0  13  -3 183.675 142.558   3
   0  13  -2-20.0639 84.4753   3
   0  13  -1 778.122 280.801   3
   0  13   0 2306.64 441.801   3
   0  14 -10 2734.80 455.229   2
   0  14  -9 197.571 120.437   2
   0  14  -6 3548.06 492.463   3
   0  14  -5 3802.24 527.429   3
   0  14  -4 2449.32 455.160   3
   0  14  -3 1838.64 406.560   3
   0  14  -2 1895.14 420.546   3
   1 -15   5 897.486 323.151   4
   1 -15   6 1525.48 387.400   4
   1 -14   1 2500.13 511.300   4
   1 -14   2 1935.42 404.530   4
   1 -13  -1 662.773 282.622   4
   1 -12  -3 1927.22 427.417   4
   1 -12  -2 5614.53 696.734   4
   1 -11  -5 717.917 270.924   4
   1 -11  -4 3057.16 499.176   4
   1 -11  -3 207.500 158.069   4
   1 -10  -8 286.087 232.090   1
   1 -10  -7 2402.89 407.733   1
   1 -10  -6 3069.73 427.309   1
   1 -10  -6 3442.77 521.524   4
   1 -10  -5 4004.72 477.824   1
   1 -10  -5 4220.55 565.942   4
   1 -10  -4 4047.66 465.401   1
   1 -10  -4 4039.19 547.041   4
   1 -10  -3 8454.92 599.262   1
   1 -10  -2 844.055 187.461   1
   1 -10  -1 1568.80 227.538   1
   1 -10   0 180.098 70.8624   1
   1 -10   1 638.559 120.309   1
   1 -10   2 7455.59 370.293   1
   1 -10   3 2860.51 210.478   1
   1 -10   4 9188.51 352.576   1
   1  -9  -9 1526.30 362.576   1
   1  -9  -8 538.607 196.433   1
   1  -9  -7 327.748 190.239   4
   1  -9  -7 318.033 154.712   1
   1  -9  -6-26.3473 96.0179   4
   1  -9  -6 83.1120 126.613   1
   1  -9  -5 563.333 210.109   4
   1  -9  -5 726.597 202.726   1
   1  -9  -4 2593.41 342.572   1
   1  -9  -3 17072.6 812.540   1
   1  -9  -2 20404.4 831.726   1
   1  -9  -1 27902.8 891.964   1
   1  -9   0 19273.1 695.064   1
   1  -9   1 264.094 78.3670   1
   1  -9   2 2741.72 208.289   1
   1  -9   2 3260.55 238.911   1
   1  -9   3 9541.24 394.296   1
   1  -9   3 8043.81 335.824   1
   1  -9   4 284.096 75.4727   1
   1  -9   4 284.950 64.9369   1
   1  -8 -10 2000.95 419.509   1
   1  -8  -9 3885.29 534.130   1
   1  -8  -8 7239.13 700.553   1
   1  -8  -7 14050.3 936.406   1
   1  -8  -7 13195.8 908.077   4
   1  -8  -6 7151.36 616.444   1
   1  -8  -6 7441.31 710.637   4
   1  -8  -5 2587.12 349.960   1
   1  -8  -4 3956.51 407.873   1
   1  -8  -3 4246.69 392.419   1
   1  -8  -2 33.9984 65.5041   1
   1  -8  -1 6399.68 418.345   1
   1  -8   0 17855.5 635.764   1
   1  -8   0 18544.1 645.236   1
   1  -8   1 7635.07 374.198   1
   1  -8   1 7984.82 390.936   1
   1  -8   2 18462.8 517.189   1
   1  -8   2 18711.2 577.133   1
   1  -8   3 7035.94 329.905   1
   1  -8   3 6636.37 298.811   1
   1  -8   4 5634.62 279.549   1
   1  -8   5 6596.52 331.255   1
   1  -8   6 828.438 133.438   1
   1  -7 -10 48.0634 116.162   1
   1  -7  -9 55.1030 122.058   1
   1  -7  -8 1052.68 258.730   1
   1  -7  -7 9053.63 734.157   1
   1  -7  -7 8918.53 717.670   4
   1  -7  -6 11218.0 735.193   1
   1  -7  -6 12646.7 848.694   4
   1  -7  -5 10350.5 667.846   1
   1  -7  -4 3585.14 369.742   1
   1  -7  -3 3712.02 351.572   1
   1  -7  -2 256.441 104.467   1
   1  -7  -1 2432.51 245.331   1
   1  -7   0 1538.93 175.289   1
   1  -7   0 1507.49 176.897   1
   1  -7   1 7408.23 343.322   1
   1  -7   1 7498.27 364.318   1
   1  -7   2 29733.6 612.500   1
   1  -7   2 31550.4 704.511   1
   1  -7   2 31709.1 774.395   2
   1  -7   3 33319.7 644.930   1
   1  -7   4 25182.8 593.836   1
   1  -7   5 43460.4 877.967   1
   1  -7   6 8260.73 417.820   1
   1  -6 -11 4114.27 586.272   1
   1  -6 -10 2994.42 472.092   1
   1  -6  -9 6166.93 635.817   1
   1  -6  -8 3114.29 448.002   1
   1  -6  -8 3137.09 400.082   4
   1  -6  -7 1419.95 272.816   1
   1  -6  -7 1036.42 220.994   4
   1  -6  -6 287.036 122.486   1
   1  -6  -5 3175.36 355.681   1
   1  -6  -4 12734.6 671.487   1
   1  -6  -3 26352.0 899.181   1
   1  -6  -2 21527.9 738.544   1
   1  -6  -1 24848.4 713.287   1
   1  -6  -1 24305.7 720.667   1
   1  -6   0 79162.0 1168.60   1
   1  -6   0 75472.1 1163.73   1
   1  -6   1 26044.1 590.087   1
   1  -6   1 27168.7 645.103   1
   1  -6   1 25905.3 594.151   2
   1  -6   2 17079.6 437.522   1
   1  -6   2 17653.0 555.774   2
   1  -6   3 374.098 70.5963   1
   1  -6   4 977.390 121.579   1
   1  -6   5 6379.37 343.094   1
   1  -6   6 41339.9 966.769   1
   1  -5 -12 176.069 174.570   1
   1  -5 -11 1914.61 395.610   1
   1  -5 -10 1373.44 316.215   1
   1  -5  -9 14222.1 950.339   1
   1  -5  -8 23679.0 1138.75   1
   1  -5  -8 22703.9 1001.86   4
   1  -5  -7 10934.0 723.699   1
   1  -5  -7 11661.4 732.035   4
   1  -5  -6 5142.13 467.254   1
   1  -5  -5 9204.10 580.047   1
   1  -5  -4 2558.37 290.616   1
   1  -5  -3 436.327 111.150   1
   1  -5  -2 4464.08 314.475   1
   1  -5  -1 46661.5 926.101   1
   1  -5  -1 44994.0 873.400   1
   1  -5   0 88951.0 868.663   2
   1  -5   0 90509.1 1230.32   1
   1  -5   0 91967.7 1158.40   1
   1  -5   1 29415.2 574.974   1
   1  -5   1 29465.1 599.699   2
   1  -5   2 13501.1 463.446   2
   1  -5   2 13331.8 368.639   1
   1  -5   3 8437.74 405.895   2
   1  -5   3 8778.43 326.178   1
   1  -5   4 27973.3 653.709   1
   1  -5   5 5899.85 334.833   1
   1  -4 -12 3674.97 530.381   1
   1  -4 -11 1642.09 355.064   1
   1  -4 -10 30.9097 74.9718   1
   1  -4  -9 46.3917 98.4917   1
   1  -4  -8 4630.92 489.786   1
   1  -4  -8 4709.01 250.063   2
   1  -4  -8 4173.69 398.459   4
   1  -4  -7 1907.32 144.414   2
   1  -4  -7 1903.80 270.400   4
   1  -4  -7 1716.44 278.185   1
   1  -4  -6 45072.7 1321.50   1
   1  -4  -6 45008.7 596.822   2
   1  -4  -5 35953.6 1100.76   1
   1  -4  -5 34518.5 401.199   2
   1  -4  -4 39356.2 1066.00   1
   1  -4  -3 74489.9 1337.35   1
   1  -4  -2 14582.2 539.165   1
   1  -4  -1 4798.93 280.373   1
   1  -4  -1 4298.95 249.467   1
   1  -4  -1 4522.49 126.227   2
   1  -4   0-10.0199 21.2308   2
   1  -4   0 45.5607 32.2011   1
   1  -4   0 13.5270 16.1603   1
   1  -4   1 3501.94 181.630   1
   1  -4   1 3477.82 192.718   2
   1  -4   2 96.7692 46.4578   2
   1  -4   2 107.160 37.2339   1
   1  -4   3 37924.0 815.146   2
   1  -4   3 36757.1 664.861   1
   1  -4   4 46975.1 878.340   1
   1  -4   4-0.49778 25.5719   2
   1  -4   5 75390.8 1250.44   1
   1  -3 -13 3149.41 500.412   1
   1  -3 -12 8029.75 775.172   1
   1  -3 -11 11410.3 867.651   1
   1  -3 -10 4701.11 535.513   1
   1  -3  -9 779.659 134.062   2
   1  -3  -9 682.313 205.657   1
   1  -3  -8 7655.96 600.334   1
   1  -3  -8 7612.01 371.959   2
   1  -3  -8 8342.37 510.871   4
   1  -3  -7 592.775 97.7698   2
   1  -3  -7 472.438 139.740   1
   1  -3  -7 817.995 172.939   4
   1  -3  -6 5627.74 256.890   2
   1  -3  -6 5678.99 454.467   1
   1  -3  -5 4089.18 192.352   2
   1  -3  -5 4326.43 366.167   1
   1  -3  -4 1919.38 107.824   2
   1  -3  -4 1738.50 215.705   1
   1  -3  -3 29254.9 301.463   2
   1  -3  -3 27353.5 768.423   1
   1  -3  -2 13132.1 472.607   1
   1  -3  -1 21533.3 506.931   1
   1  -3  -1 23078.0 598.912   1
   1  -3   0 224917. 1156.90   2
   1  -3   0 221678. 1428.75   1
   1  -3   1 858.217 87.9825   2
   1  -3   1 753.949 77.1396   1
   1  -3   2-6.48430 12.2713   2
   1  -3   2 584.236 75.8389   1
   1  -3   3 39.4411 28.5054   1
   1  -3   3 48.9646 35.2936   2
   1  -3   3 23.2569 16.6633   3
   1  -3   4 8626.21 412.080   2
   1  -3   4 7887.91 373.162   1
   1  -3   4 7971.80 210.952   3
   1  -3   5 15839.6 601.865   1
   1  -3   5 16142.4 254.681   3
   1  -3   8 70374.4 929.580   4
   1  -2 -13 32.3671 86.4684   1
   1  -2 -12-67.7375 114.451   1
   1  -2 -11 5872.10 423.624   2
   1  -2 -11 6525.90 645.233   1
   1  -2 -10 5304.00 379.494   2
   1  -2 -10 6019.56 583.456   1
   1  -2  -9 21796.2 717.601   2
   1  -2  -9 22711.4 1107.29   1
   1  -2  -8 40256.9 1315.47   1
   1  -2  -8 34648.7 849.305   2
   1  -2  -7 35109.7 1147.80   1
   1  -2  -7 34179.5 771.292   2
   1  -2  -7 35831.2 960.121   4
   1  -2  -6 20620.6 542.536   2
   1  -2  -6 20167.7 815.291   1
   1  -2  -5 1976.79 148.283   2
   1  -2  -5 2678.07 272.917   1
   1  -2  -4 302.357 52.5842   2
   1  -2  -4 152.565 55.3679   1
   1  -2  -3 5482.41 316.608   1
   1  -2  -3 6172.51 189.360   2
   1  -2  -2 189.843 48.8064   1
   1  -2  -1 69224.2 464.524   2
   1  -2  -1 67040.9 834.694   1
   1  -2   0 188713. 981.468   2
   1  -2   0 203759. 1378.68   3
   1  -2   1 12.2214 14.5767   1
   1  -2   1 0.36866 7.42614   2
   1  -2   2 22721.1 496.019   2
   1  -2   2 21944.0 355.503   3
   1  -2   3 99124.9 1172.58   2
   1  -2   3 98350.4 1196.98   1
   1  -2   4 6812.38 348.832   2
   1  -2   4 7565.25 378.788   1
   1  -2   4 7028.13 191.730   3
   1  -2   5 11867.7 568.876   1
   1  -2   5 11311.1 262.467   3
   1  -2   6 710.555 73.3608   3
   1  -2   7 7672.62 340.056   4
   1  -2   7 6523.76 236.199   3
   1  -2   8 24273.2 483.087   3
   1  -2   9 3360.76 188.534   3
   1  -2   9 3421.53 205.430   3
   1  -2  10 6679.13 271.256   3
   1  -1 -14 5078.97 657.634   1
   1  -1 -13 6859.74 714.944   1
   1  -1 -12 1923.42 272.049   2
   1  -1 -12 2032.08 360.574   1
   1  -1 -11 7641.06 506.670   2
   1  -1 -11 6686.24 622.375   1
   1  -1 -10 61.0711 49.5492   2
   1  -1 -10 156.392 89.0942   1
   1  -1  -9-19.0698 45.4596   2
   1  -1  -9 132.481 110.369   1
   1  -1  -8 16222.8 606.871   2
   1  -1  -8 16380.8 818.617   1
   1  -1  -7 20007.6 622.054   2
   1  -1  -7 20483.5 843.816   1
   1  -1  -6 68774.1 1442.12   1
   1  -1  -6 64535.3 1028.39   2
   1  -1  -5 34662.6 688.787   2
   1  -1  -5 34542.5 938.041   1
   1  -1  -4 44158.3 691.690   2
   1  -1  -4 43152.7 946.613   1
   1  -1  -3 54571.8 934.911   1
   1  -1  -3 55839.7 657.720   2
   1  -1  -2 543.076 80.4149   1
   1  -1  -1-0.09356 10.5153   1
   1  -1  -1 13.0456 16.4475   3
   1  -1   0 2634.94 109.525   2
   1  -1   0-0.92653 4.94372   3
   1  -1   1 63515.3 556.062   3
   1  -1   1 65601.4 682.673   1
   1  -1   2 30243.2 545.487   2
   1  -1   2 30964.3 403.766   3
   1  -1   3 59410.2 869.337   2
   1  -1   3 60449.8 622.703   3
   1  -1   4 51885.6 898.721   2
   1  -1   4 50631.2 624.667   3
   1  -1   5 24980.8 710.617   2
   1  -1   5 25474.2 496.307   3
   1  -1   6 41133.2 685.098   3
   1  -1   7 12760.8 416.083   3
   1  -1   8 6447.32 312.899   3
   1  -1   9 12.3303 23.9571   3
   1  -1  10 1991.17 189.536   3
   1   0 -14 7530.84 772.143   1
   1   0 -13 6321.77 529.816   2
   1   0 -13 6811.13 680.787   1
   1   0 -12 15266.0 779.116   2
   1   0 -12 15422.3 965.078   1
   1   0 -11 21544.8 884.958   2
   1   0 -11 20264.0 1053.62   1
   1   0 -10 17101.0 743.769   2
   1   0 -10 17023.9 915.117   1
   1   0  -9 3089.39 299.744   2
   1   0  -9 4122.06 435.328   1
   1   0  -8 6132.08 484.742   1
   1   0  -8 6328.54 396.673   2
   1   0  -7 1661.60 232.749   1
   1   0  -7 1647.64 188.903   2
   1   0  -6 628.558 109.003   2
   1   0  -6 628.224 134.770   1
   1   0  -6 554.094 77.3782   4
   1   0  -5 12401.2 528.909   1
   1   0  -5 12686.7 443.571   2
   1   0  -4 37775.5 817.554   1
   1   0  -4 37236.8 683.636   2
   1   0  -3 53953.3 720.992   2
   1   0  -3 52734.3 608.382   3
   1   0  -3 52255.7 826.932   1
   1   0  -2 52514.0 534.078   3
   1   0  -2-19.6263 17.6634   1
   1   0  -1 4.26475 6.18067   3
   1   0  -1 150067. 835.417   1
   1   0   0 194345. 1009.18   2
   1   0   0 160263. 847.575   1
   1   0   1 9949.70 246.989   2
   1   0   1 9675.08 281.407   1
   1   0   1 9409.56 243.699   3
   1   0   2 20413.6 417.930   2
   1   0   2 21427.4 518.310   1
   1   0   2 20123.8 402.833   3
   1   0   3 9718.55 331.236   2
   1   0   3 9565.16 310.100   3
   1   0   4 4140.62 246.184   2
   1   0   4 5430.28 355.009   1
   1   0   4 5227.13 285.851   4
   1   0   4 4017.48 220.799   3
   1   0   5 42.4026 39.3260   2
   1   0   5 9.55791 19.7612   3
   1   0   6 24170.1 639.959   3
   1   0   7 33173.1 780.497   3
   1   0   8 45050.7 960.421   3
   1   0   9 22163.0 713.482   3
   1   0  10 5342.59 362.653   3
   1   1 -15 6956.60 768.005   1
   1   1 -14 296.053 130.106   2
   1   1 -14 427.297 221.972   1
   1   1 -13 378.182 150.268   2
   1   1 -13 88.9642 110.692   1
   1   1 -12 708.460 210.754   1
   1   1 -12 721.077 184.345   2
   1   1 -11 18503.4 843.039   2
   1   1 -11 18565.3 976.237   1
   1   1 -10 3172.70 332.536   2
   1   1 -10 3132.22 378.391   1
   1   1  -9 7021.29 463.307   2
   1   1  -9 7923.66 576.738   1
   1   1  -8 41028.8 1053.01   2
   1   1  -8 43269.9 1291.43   1
   1   1  -7 29080.4 838.610   2
   1   1  -7 27805.5 906.925   1
   1   1  -6 49672.3 1006.38   2
   1   1  -6 46958.6 1074.25   1
   1   1  -5 6069.14 325.957   2
   1   1  -5 5655.41 334.787   1
   1   1  -4 6865.03 187.502   3
   1   1  -4 7004.56 318.074   2
   1   1  -4 6875.68 320.318   1
   1   1  -3 43489.2 444.151   3
   1   1  -3 42819.8 674.917   1
   1   1  -3 42675.9 693.405   2
   1   1  -2 270.722 37.4655   3
   1   1  -2 261.397 41.3887   1
   1   1  -1 6.91458 12.8679   3
   1   1   0 47765.9 502.200   1
   1   1   0 1.04563 11.3000   3
   1   1   1 183516. 1349.54   1
   1   1   1 174073. 1025.77   2
   1   1   1 173547. 1312.45   3
   1   1   1 181338. 1437.28   4
   1   1   2 32894.0 696.393   1
   1   1   2 31275.4 492.984   2
   1   1   2 31935.8 611.442   3
   1   1   3 51967.5 1026.77   1
   1   1   3 51560.5 731.131   2
   1   1   3 50745.5 846.137   3
   1   1   4 16.6991 25.7474   3
   1   1   4 55.1210 32.8412   2
   1   1   5 194.614 69.8411   3
   1   1   5 218.667 59.4297   2
   1   1   6 3078.13 250.215   2
   1   1   6 3114.72 263.711   3
   1   1   7 5367.38 357.615   3
   1   1   8 21167.0 751.056   3
   1   1   9 10948.0 569.202   3
   1   1  10 2196.10 266.867   3
   1   2 -15 6382.22 624.029   2
   1   2 -15 5833.93 672.297   1
   1   2 -14 6950.35 617.241   2
   1   2 -14 8078.54 758.743   1
   1   2 -13 7662.07 622.038   2
   1   2 -13 7889.07 700.450   1
   1   2 -12 4154.22 434.341   2
   1   2 -12 4660.82 511.973   1
   1   2 -11 302.698 125.480   2
   1   2 -11 286.684 109.598   1
   1   2 -10 285.535 105.007   2
   1   2 -10 578.626 158.652   1
   1   2  -9 82.2932 76.7377   1
   1   2  -9 144.446 97.4636   2
   1   2  -8 21556.8 802.394   2
   1   2  -8 22726.2 865.019   1
   1   2  -7 36216.7 980.856   2
   1   2  -7 38868.3 1059.70   1
   1   2  -6 38817.0 937.349   2
   1   2  -6 38558.4 953.587   1
   1   2  -5 117136. 1508.95   2
   1   2  -5 114254. 1399.47   1
   1   2  -4 13442.2 407.002   1
   1   2  -4 13062.7 242.368   3
   1   2  -4 13148.9 462.557   2
   1   2  -3 89955.1 835.071   1
   1   2  -3 90144.0 747.715   3
   1   2  -3 88625.8 1080.16   2
   1   2  -2 877.795 85.9450   3
   1   2  -1 33865.2 578.564   3
   1   2   0 102483. 1103.68   3
   1   2   0 103415. 836.298   1
   1   2   1 83.4719 45.5212   1
   1   2   1 48.2737 24.8292   2
   1   2   2 39094.3 818.051   1
   1   2   2 37090.6 520.935   2
   1   2   3 60625.3 758.859   2
   1   2   3 61453.2 1187.52   1
   1   2   4 44492.0 728.945   2
   1   2   5 20104.2 559.732   2
   1   2   5 18044.7 663.567   3
   1   2   6 45119.5 919.622   2
   1   2   6 46120.9 1105.50   3
   1   2   7 4841.09 380.810   3
   1   2   8 1773.46 246.650   3
   1   2   9 673.695 153.166   3
   1   2  10 1150.36 209.284   3
   1   2  11 5083.70 465.904   3
   1   3 -16 26.6953 94.8433   2
   1   3 -15 248.742 153.397   2
   1   3 -15 171.817 154.940   1
   1   3 -14 6027.14 592.003   2
   1   3 -14 7341.10 703.928   1
   1   3 -13 7879.75 637.713   2
   1   3 -13 8303.98 712.500   1
   1   3 -12 15699.1 860.977   2
   1   3 -12 17226.9 958.259   1
   1   3 -11 13165.1 747.566   2
   1   3 -11 14797.9 824.732   1
   1   3 -10 3638.87 373.665   2
   1   3 -10 3295.34 360.458   1
   1   3  -9 7535.20 512.177   2
   1   3  -9 8385.77 535.154   1
   1   3  -8 5667.52 424.908   2
   1   3  -8 6173.11 425.585   1
   1   3  -7 184.997 81.0142   1
   1   3  -7 94.4097 65.4439   2
   1   3  -6 12513.7 553.684   2
   1   3  -6 12619.2 500.825   1
   1   3  -5 54405.7 1075.61   2
   1   3  -5 54721.9 899.829   1
   1   3  -5 55492.8 542.832   3
   1   3  -4 74732.5 864.021   1
   1   3  -4 75256.1 773.510   3
   1   3  -4 74601.5 1167.62   2
   1   3  -3 21706.7 328.009   1
   1   3  -3 20672.0 458.828   3
   1   3  -3 21567.9 573.495   2
   1   3  -2 46628.1 735.619   3
   1   3  -2 45523.6 750.772   2
   1   3  -1 1290.61 69.6139   1
   1   3   0 33151.5 555.848   1
   1   3   1 19386.3 389.316   2
   1   3   1 17302.8 511.047   1
   1   3   2 13302.8 301.871   2
   1   3   2 15037.7 557.901   1
   1   3   3 8100.03 259.901   2
   1   3   4 5429.77 238.564   2
   1   3   5 33645.2 669.805   2
   1   3   5 33278.1 989.730   3
   1   3   6 29819.8 983.379   3
   1   3   6 27923.9 681.911   2
   1   3   7 7150.45 502.277   3
   1   3   8 17155.1 815.326   3
   1   3   9 12356.7 729.475   3
   1   3  10 2498.66 344.276   3
   1   3  11 887.918 217.059   3
   1   4 -16 3005.85 471.738   2
   1   4 -16 3138.52 503.448   1
   1   4 -15 868.668 255.356   2
   1   4 -15 1224.21 293.419   1
   1   4 -14 47.9927 91.1768   2
   1   4 -14 448.234 186.565   1
   1   4 -13-58.5150 81.2893   2
   1   4 -13-23.1190 76.4962   1
   1   4 -12 5524.46 526.061   2
   1   4 -12 6373.41 565.791   1
   1   4 -11 27842.2 1117.08   2
   1   4 -11 27339.0 1110.75   1
   1   4 -10 12485.5 708.917   2
   1   4 -10 11627.5 665.552   1
   1   4  -9 25474.3 972.655   2
   1   4  -9 26831.3 936.071   1
   1   4  -8 33660.3 1067.73   2
   1   4  -8 35631.3 985.322   1
   1   4  -7 17521.5 723.754   2
   1   4  -7 19595.4 664.925   1
   1   4  -6 73519.7 1389.31   2
   1   4  -6 73129.5 1126.65   1
   1   4  -6 74098.7 674.590   3
   1   4  -5 3765.00 297.082   2
   1   4  -5 3780.51 217.199   1
   1   4  -5 3778.45 192.678   3
   1   4  -4 250.337 41.6493   1
   1   4  -4 133.923 42.5778   3
   1   4  -4 141.752 50.0277   2
   1   4  -3 6809.49 309.619   3
   1   4  -3 7543.84 358.116   2
   1   4  -2 12973.3 430.463   2
   1   4  -1 61771.9 615.848   1
   1   4  -1 60429.2 837.689   2
   1   4   0 158683. 1368.51   1
   1   4   1 100447. 884.999   2
   1   4   1 95068.2 1317.41   1
   1   4   2 16880.6 329.851   2
   1   4   2 18121.0 649.881   1
   1   4   3 29506.8 454.731   2
   1   4   4 13631.6 345.226   2
   1   4   5 1770.00 136.929   2
   1   4   6 843.910 181.963   3
   1   4   7 3339.79 373.648   3
   1   4   8 14696.8 820.045   3
   1   4   9 10382.5 719.854   3
   1   4  10 2979.24 405.308   3
   1   4  11 9147.29 732.675   3
   1   5 -16 5562.74 635.519   2
   1   5 -16 5289.85 631.441   1
   1   5 -15 2810.47 447.690   2
   1   5 -15 2658.80 421.937   1
   1   5 -14 7807.73 705.757   2
   1   5 -14 7274.99 656.086   1
   1   5 -13 8833.98 689.661   1
   1   5 -13 9298.51 723.989   2
   1   5 -12 12598.2 808.960   2
   1   5 -12 12622.6 769.757   1
   1   5 -11 3510.58 407.069   2
   1   5 -11 2930.36 354.239   1
   1   5 -10 66.8484 84.3076   1
   1   5 -10 15.5213 45.5546   2
   1   5  -9 9962.61 627.568   2
   1   5  -9 9067.13 519.154   1
   1   5  -8 7332.46 512.616   2
   1   5  -8 6755.51 412.377   1
   1   5  -7 8324.80 519.921   2
   1   5  -7 8292.96 408.786   1
   1   5  -7 7956.02 237.033   3
   1   5  -6 10195.7 541.510   2
   1   5  -6 9736.01 336.399   3
   1   5  -6 9722.95 377.366   1
   1   5  -5 40828.3 1018.93   2
   1   5  -5 41990.5 606.454   1
   1   5  -5 41370.5 774.062   3
   1   5  -4 15547.4 509.064   3
   1   5  -4 14502.4 565.725   2
   1   5  -3 50877.3 976.385   3
   1   5  -3 52307.8 1005.57   2
   1   5  -2 4527.55 270.162   2
   1   5  -1 29507.1 626.549   2
   1   5   0 12308.7 431.324   1
   1   5   0 11462.1 347.714   2
   1   5   1 14182.3 340.659   2
   1   5   1 14011.2 536.419   1
   1   5   2 14186.9 287.051   2
   1   5   3 11691.5 225.044   2
   1   5   4 1597.31 83.0772   2
   1   5   6 11230.6 713.938   3
   1   5   7 5793.01 528.907   3
   1   5   8 113.158 98.0213   3
   1   5   9 352.047 165.832   3
   1   5  10 2324.44 390.085   3
   1   5  11 3928.58 510.936   3
   1   6 -16 228.308 149.560   1
   1   6 -15 983.363 253.998   1
   1   6 -15 1484.82 329.147   2
   1   6 -14 4548.94 559.471   2
   1   6 -14 3993.75 476.270   1
   1   6 -13 10198.7 785.609   2
   1   6 -13 10463.1 727.523   1
   1   6 -12 9126.02 704.639   2
   1   6 -12 8308.69 608.298   1
   1   6 -11 15540.8 876.087   2
   1   6 -11 16244.6 791.700   1
   1   6 -10 4379.08 445.631   2
   1   6 -10 4940.82 405.098   1
   1   6  -9 11557.8 693.668   2
   1   6  -9 12310.5 576.967   1
   1   6  -8 341.480 54.7152   3
   1   6  -8 336.475 129.977   2
   1   6  -8 273.249 43.3694   3
   1   6  -8 344.484 94.3789   1
   1   6  -7 486.396 95.7305   1
   1   6  -7 614.697 147.692   2
   1   6  -7 435.809 73.8557   3
   1   6  -6 12302.6 613.865   2
   1   6  -6 11630.7 436.034   3
   1   6  -6 11770.8 352.235   1
   1   6  -5 25039.6 830.822   2
   1   6  -5 24032.8 341.522   1
   1   6  -5 23108.2 663.039   3
   1   6  -4 49471.2 1099.62   2
   1   6  -4 50944.3 1030.64   3
   1   6  -3 15980.7 578.250   2
   1   6  -2 18644.1 576.855   2
   1   6  -1 4370.56 255.842   2
   1   6   0 19929.7 585.852   1
   1   6   0 20921.0 501.333   2
   1   6   1 2804.20 160.033   2
   1   6   1 2435.72 246.343   1
   1   6   1 2787.93 156.879   2
   1   6   2 549.873 46.8273   2
   1   6   2 622.075 52.4140   2
   1   6   5 9796.01 683.031   3
   1   6   6 7952.09 641.355   3
   1   6   7 15677.6 931.845   3
   1   6   8 10468.4 800.484   3
   1   6   9 5183.77 592.476   3
   1   6  10 2220.58 405.680   3
   1   7 -15 1961.08 368.452   2
   1   7 -14 121.644 154.005   2
   1   7 -14 280.122 151.302   1
   1   7 -13 186.256 139.813   2
   1   7 -13 508.365 179.864   1
   1   7 -12 2357.71 377.454   2
   1   7 -12 3227.42 368.219   1
   1   7 -11 9267.21 694.942   2
   1   7 -11 8106.76 539.585   1
   1   7 -10 10366.4 692.103   2
   1   7 -10 11476.7 591.713   1
   1   7  -9 10149.6 667.147   2
   1   7  -9 9986.64 493.264   1
   1   7  -8 19361.5 889.315   2
   1   7  -8 20260.6 600.620   1
   1   7  -8 20177.0 536.481   3
   1   7  -7 14509.1 735.028   2
   1   7  -7 14452.4 512.840   3
   1   7  -7 13723.8 412.071   1
   1   7  -6 13472.8 672.704   2
   1   7  -6 12225.7 273.342   1
   1   7  -6 12925.3 524.760   3
   1   7  -5 678.057 146.732   2
   1   7  -5 954.583 150.156   3
   1   7  -4 2294.42 246.278   2
   1   7  -4 2258.15 244.376   3
   1   7  -3 11206.8 508.315   2
   1   7  -2 20120.8 634.792   2
   1   7  -1 9658.57 399.166   2
   1   7   0 20906.8 517.798   2
   1   7   1 19149.4 397.851   2
   1   7   1 17687.4 367.425   2
   1   7   5 310.398 145.328   3
   1   7   6 457.547 193.095   3
   1   7   7 4278.31 531.382   3
   1   7   8 2654.22 434.725   3
   1   7   9 4106.18 552.287   3
   1   7  10 4019.99 576.106   3
   1   8 -15 4563.61 592.610   2
   1   8 -14 5597.17 632.891   2
   1   8 -13 2616.82 417.968   2
   1   8 -12 1238.70 276.062   2
   1   8 -11 344.905 144.701   2
   1   8 -10 560.233 129.014   1
   1   8 -10 798.207 203.080   2
   1   8  -9 341.859 126.147   2
   1   8  -9 278.319 81.0511   1
   1   8  -8 14062.4 779.722   2
   1   8  -8 13330.0 419.829   1
   1   8  -8 14092.7 531.240   3
   1   8  -7 26510.4 1023.33   2
   1   8  -7 25302.3 776.877   3
   1   8  -7 25946.3 410.706   1
   1   8  -6 22909.1 908.741   2
   1   8  -6 21535.0 752.444   3
   1   8  -5 33684.6 1044.62   2
   1   8  -5 34446.0 993.064   3
   1   8  -4 15239.4 661.798   2
   1   8  -4 17070.8 734.282   3
   1   8  -3 261.478 86.8355   2
   1   8  -2 895.029 141.386   2
   1   8  -1 1573.63 167.159   2
   1   8   0 2930.07 195.729   2
   1   8   4 7828.00 673.958   3
   1   8   5 4815.84 554.898   3
   1   8   6 1241.82 303.679   3
   1   8   7 1315.77 323.248   3
   1   8   8 156.618 203.306   3
   1   8   9 72.0910 174.633   3
   1   9 -14 4117.58 565.493   2
   1   9 -13 8036.80 746.441   2
   1   9 -12 12998.1 908.755   2
   1   9 -11 15950.7 957.533   2
   1   9 -10 5326.54 534.179   2
   1   9  -9 7141.53 588.968   2
   1   9  -8 294.106 94.1722   3
   1   9  -8 534.251 158.433   2
   1   9  -7 241.736 121.386   2
   1   9  -7 188.006 81.1286   3
   1   9  -6 615.299 148.952   3
   1   9  -6 542.174 140.616   2
   1   9  -5 13006.0 676.633   3
   1   9  -5 13174.2 676.820   2
   1   9  -4 12558.0 619.689   2
   1   9  -4 11401.4 661.677   3
   1   9  -3 5789.53 394.181   2
   1   9  -3 5525.98 474.350   3
   1   9  -2 14774.1 570.380   2
   1   9  -1 8896.83 400.374   2
   1   9   2 74.7523 69.9090   3
   1   9   3 2354.56 383.457   3
   1   9   4 3832.14 509.656   3
   1   9   5 1641.94 373.938   3
   1   9   6 4339.55 581.731   3
   1   9   7 4179.73 595.234   3
   1  10 -14 94.3302 110.180   2
   1  10 -13-0.84256 95.9618   2
   1  10 -12 3172.00 459.032   2
   1  10 -11 8485.74 722.009   2
   1  10 -10 8377.06 692.508   2
   1  10  -9 3065.42 401.209   2
   1  10  -8 3933.49 437.965   2
   1  10  -8 4044.36 358.333   3
   1  10  -7 1274.52 237.568   2
   1  10  -7 1612.99 245.905   3
   1  10  -6 4304.44 411.528   2
   1  10  -6 5498.21 466.796   3
   1  10  -5 464.649 124.986   2
   1  10  -5 449.196 150.076   3
   1  10  -4 264.872 124.703   2
   1  10  -4 128.565 102.817   3
   1  10  -3 3057.81 293.776   2
   1  10  -3 3767.09 419.601   3
   1  10  -2 5040.32 345.905   2
   1  10  -2 5500.57 529.778   3
   1  10  -1 8517.74 676.965   3
   1  10   0 8880.15 714.219   3
   1  10   1 8913.59 742.393   3
   1  10   2 7407.62 695.602   3
   1  10   3 3178.08 466.962   3
   1  10   4 12.9839 78.6085   3
   1  10   5-93.0518 138.868   3
   1  11 -13 2289.12 425.840   2
   1  11 -12 2047.43 393.740   2
   1  11 -11 192.983 160.320   2
   1  11 -10 1250.57 275.860   2
   1  11  -9 2519.78 384.357   2
   1  11  -8 7493.17 622.228   2
   1  11  -7 6046.00 511.221   3
   1  11  -7 5499.53 507.533   2
   1  11  -6 8683.27 610.415   2
   1  11  -6 8961.76 635.208   3
   1  11  -5 10425.4 631.905   2
   1  11  -5 11544.2 758.603   3
   1  11  -4 4788.26 407.945   2
   1  11  -4 5454.11 532.698   3
   1  11  -3 2694.29 382.770   3
   1  11  -2 309.373 140.500   3
   1  11  -1 986.764 253.060   3
   1  11   0 789.309 233.102   3
   1  11   1 1205.83 289.755   3
   1  11   2 4083.00 561.991   3
   1  11   3 2438.41 449.318   3
   1  11   4 2147.98 434.480   3
   1  12 -12 10609.9 880.284   2
   1  12 -11 3034.93 466.715   2
   1  12 -10 2778.14 426.645   2
   1  12  -9 952.270 258.480   2
   1  12  -8 81.6899 93.7300   2
   1  12  -7 208.990 134.811   3
   1  12  -7 311.735 137.566   2
   1  12  -6-29.5527 75.4513   3
   1  12  -6 12.3474 73.9284   2
   1  12  -5 6855.33 625.252   3
   1  12  -4 8484.21 722.865   3
   1  12  -3 11251.3 865.830   3
   1  12  -2 3825.63 511.536   3
   1  12  -1 2352.91 413.891   3
   1  12   0 587.963 232.872   3
   1  12   1 119.435 137.169   3
   1  12   2 327.500 175.976   3
   1  13 -11 1112.63 309.628   2
   1  13 -10 4195.59 544.057   2
   1  13  -9 7003.70 671.116   2
   1  13  -8 2008.82 346.795   2
   1  13  -6 2034.85 356.595   3
   1  13  -5 137.044 137.338   3
   1  13  -4 280.881 160.080   3
   1  13  -3 299.612 183.426   3
   1  13  -2 763.065 268.286   3
   1  13  -1 3850.04 571.430   3
   1  14  -6 2138.68 391.579   3
   1  14  -5 2549.02 451.442   3
   1  14  -4 1614.24 370.296   3
   1  14  -3 1044.74 337.714   3
   2 -11  -6 45.1587 118.539   4
   2 -11  -5-7.45337 77.5930   1
   2 -11  -4 117.056 105.822   1
   2 -11  -3 1538.52 281.429   1
   2 -11  -2 9140.78 613.435   1
   2 -11  -1 18437.1 818.257   1
   2 -11   0 18026.6 765.851   1
   2 -11   1 9035.09 506.298   1
   2 -10  -8 3458.84 520.246   1
   2 -10  -8 3446.89 534.724   4
   2 -10  -7 8411.62 790.870   1
   2 -10  -7 8481.10 839.574   4
   2 -10  -6 7160.84 655.580   1
   2 -10  -5 3638.12 439.068   1
   2 -10  -4 3674.94 430.989   1
   2 -10  -3 2117.27 308.316   1
   2 -10  -2 188.960 79.2517   1
   2 -10  -1 488.266 139.954   1
   2 -10   0 5212.78 396.306   1
   2 -10   1 13943.3 615.426   1
   2 -10   2 3836.65 311.742   1
   2 -10   3 3991.18 307.095   1
   2  -9  -9 285.336 186.362   1
   2  -9  -8-4.23986 98.1132   4
   2  -9  -8 117.205 143.321   1
   2  -9  -7 208.192 124.265   1
   2  -9  -7 20.0166 122.732   4
   2  -9  -6 4927.01 527.930   1
   2  -9  -5 7656.53 623.698   1
   2  -9  -4 12972.1 763.423   1
   2  -9  -3 2495.66 320.802   1
   2  -9  -2 2759.49 320.571   1
   2  -9  -1 2070.14 259.571   1
   2  -9   0 2066.90 237.776   1
   2  -9   1 290.508 83.2206   2
   2  -9   1 794.933 149.614   1
   2  -9   2 1475.68 188.074   1
   2  -9   3 5399.92 336.721   1
   2  -9   4 9102.96 440.877   1
   2  -8 -10 2076.49 425.552   1
   2  -8  -9 4181.77 584.858   1
   2  -8  -9 4060.00 523.875   4
   2  -8  -8 7405.24 695.147   1
   2  -8  -8 6703.15 673.006   4
   2  -8  -7 1910.61 352.108   1
   2  -8  -6 1083.28 240.780   1
   2  -8  -5 191.466 105.998   1
   2  -8  -4 242.866 112.330   1
   2  -8  -3 3912.17 387.230   1
   2  -8  -2 8827.42 537.643   1
   2  -8  -1 28453.0 907.678   1
   2  -8   0 24496.8 814.874   1
   2  -8   0 24732.9 576.424   2
   2  -8   1 31891.7 828.785   1
   2  -8   1 32281.8 758.604   2
   2  -8   2 10009.8 439.959   1
   2  -8   3 1595.20 178.820   1
   2  -8   4 380.125 92.7835   1
   2  -7 -11 107.266 99.0527   1
   2  -7 -10 5.53993 131.422   1
   2  -7  -9 2447.88 418.201   1
   2  -7  -9 1905.27 336.103   4
   2  -7  -8 10904.5 818.876   1
   2  -7  -8 9622.61 765.449   4
   2  -7  -7 13437.8 857.290   1
   2  -7  -6 14458.5 848.982   1
   2  -7  -5 6577.66 539.568   1
   2  -7  -4 4406.41 413.909   1
   2  -7  -3 4616.16 395.332   1
   2  -7  -2 1558.56 217.190   1
   2  -7  -1 4169.03 336.098   1
   2  -7  -1 4084.07 180.624   2
   2  -7   0 21556.1 726.896   1
   2  -7   0 20833.3 516.189   2
   2  -7   1 35488.3 774.436   2
   2  -7   1 33340.7 806.630   1
   2  -7   1 35486.5 878.700   1
   2  -7   2 30044.7 797.920   2
   2  -7   2 28770.3 708.946   1
   2  -7   3 28748.0 728.200   1
   2  -7   4 7711.34 396.657   1
   2  -6 -11 5800.52 680.802   1
   2  -6 -10 1291.13 315.749   1
   2  -6  -9 695.653 214.722   1
   2  -6  -9 988.000 235.310   4
   2  -6  -8 309.851 116.074   1
   2  -6  -7 5326.14 527.633   1
   2  -6  -6 14476.3 810.197   1
   2  -6  -5 11940.0 705.708   1
   2  -6  -4 17696.4 786.085   1
   2  -6  -3 18264.0 761.406   1
   2  -6  -2 7773.15 463.023   1
   2  -6  -1 10715.6 297.797   2
   2  -6  -1 12345.6 580.103   1
   2  -6   0 14293.7 416.492   2
   2  -6   0 14279.6 551.890   1
   2  -6   0 13125.4 493.210   1
   2  -6   1-2.13371 18.4812   1
   2  -6   1 48.6982 34.7585   2
   2  -6   2 9555.54 437.075   2
   2  -6   2 10647.8 414.466   1
   2  -6   3 131.403 48.8096   1
   2  -6   4 7893.77 396.855   1
   2  -5 -12 6046.44 704.731   1
   2  -5 -11 6721.89 727.782   1
   2  -5 -10 7065.32 691.733   1
   2  -5  -9 7965.97 693.973   1
   2  -5  -9 8107.05 616.077   4
   2  -5  -8 4288.25 480.619   1
   2  -5  -7 645.826 56.3328   2
   2  -5  -7 831.831 195.391   1
   2  -5  -6 5602.21 483.235   1
   2  -5  -5 1215.78 216.546   1
   2  -5  -4 263.812 95.1975   1
   2  -5  -3 15703.2 666.555   1
   2  -5  -2 29409.3 367.077   2
   2  -5  -2 30563.6 871.038   1
   2  -5  -1 58803.6 687.227   2
   2  -5  -1 60295.0 1136.79   1
   2  -5   0 81549.9 951.604   2
   2  -5   0 74592.7 1078.50   1
   2  -5   1 24935.5 601.545   2
   2  -5   1 24753.9 598.281   1
   2  -5   2 27845.4 642.073   1
   2  -5   2 28166.9 706.324   2
   2  -5   3 45261.8 870.992   1
   2  -5   4 1826.02 194.062   1
   2  -4 -13 87.0237 172.223   1
   2  -4 -12 211.854 171.963   1
   2  -4 -11 179.649 154.750   1
   2  -4 -10 1391.44 292.454   1
   2  -4  -9 2950.42 401.943   1
   2  -4  -9 3318.88 370.456   4
   2  -4  -8 3497.72 411.482   1
   2  -4  -8 3968.45 239.828   2
   2  -4  -7 32085.4 628.307   2
   2  -4  -7 29582.8 1128.16   1
   2  -4  -6 42158.1 635.327   2
   2  -4  -6 43612.8 1292.58   1
   2  -4  -5 29164.9 459.931   2
   2  -4  -5 30077.1 998.309   1
   2  -4  -4 27711.5 904.388   1
   2  -4  -4 27247.4 393.258   2
   2  -4  -3 26641.8 361.269   2
   2  -4  -3 23620.6 775.188   1
   2  -4  -2 3901.64 149.223   2
   2  -4  -2 4346.80 293.329   1
   2  -4  -2 4016.07 308.847   1
   2  -4  -1 3257.83 162.240   2
   2  -4  -1 3471.94 243.510   1
   2  -4  -1 3072.15 239.322   1
   2  -4   0 53811.4 736.788   2
   2  -4   0 52937.6 855.106   1
   2  -4   1 21780.7 539.197   2
   2  -4   1 21479.6 531.679   1
   2  -4   2 1493.56 154.969   2
   2  -4   2 1611.91 155.903   3
   2  -4   2 1665.24 155.007   1
   2  -4   3 51705.1 946.041   1
   2  -4   3 50806.0 828.193   3
   2  -4   4 9413.66 338.385   3
   2  -4   4 9810.51 456.652   1
   2  -4   5 27049.2 532.012   3
   2  -4   6 1613.38 120.744   3
   2  -4   7 223.753 43.1487   3
   2  -4   8 6036.55 181.217   3
   2  -3 -13 3285.73 505.806   1
   2  -3 -12 11058.3 896.824   1
   2  -3 -11 10222.0 845.036   1
   2  -3 -10 1740.15 311.792   1
   2  -3 -10 1498.92 192.370   2
   2  -3  -9 346.425 145.970   1
   2  -3  -9 128.561 67.8755   4
   2  -3  -9 323.453 93.4144   2
   2  -3  -8 420.067 156.436   1
   2  -3  -8 234.657 63.0373   2
   2  -3  -7 21050.4 569.821   2
   2  -3  -7 21434.6 917.528   1
   2  -3  -6 36363.9 689.123   2
   2  -3  -6 36439.5 1132.55   1
   2  -3  -5 28897.1 554.095   2
   2  -3  -5 28324.6 914.587   1
   2  -3  -4 7695.66 454.375   1
   2  -3  -4 8336.37 262.725   2
   2  -3  -3 16274.2 333.854   2
   2  -3  -3 16949.8 613.818   1
   2  -3  -2 6657.74 214.436   2
   2  -3  -2 5858.77 327.572   1
   2  -3  -1 32824.8 505.989   2
   2  -3  -1 25328.6 646.308   3
   2  -3   0 3206.51 176.618   2
   2  -3   0 3446.53 205.240   1
   2  -3   0 3276.34 222.861   3
   2  -3   1 106476. 1123.77   2
   2  -3   1 102264. 1095.23   1
   2  -3   1 105501. 1155.63   3
   2  -3   2 157543. 1340.47   3
   2  -3   2 161115. 1480.21   1
   2  -3   3 17656.0 567.336   2
   2  -3   3 18376.9 567.602   1
   2  -3   3 17759.0 433.156   3
   2  -3   4 11444.4 508.624   1
   2  -3   4 11555.0 337.433   3
   2  -3   5 8651.19 298.390   3
   2  -3   6 94924.2 984.828   3
   2  -3   7 31164.4 561.875   3
   2  -3   8 30442.5 572.313   3
   2  -3   9 1681.06 134.511   3
   2  -2 -14 1351.37 340.337   1
   2  -2 -13 4020.11 555.508   1
   2  -2 -12 7134.42 701.875   1
   2  -2 -11 20780.1 807.638   2
   2  -2 -11 27105.1 1340.91   1
   2  -2 -10 10656.2 539.499   2
   2  -2 -10 9705.42 714.647   1
   2  -2  -9 19206.8 957.088   1
   2  -2  -9 19833.0 691.757   2
   2  -2  -9 20456.9 737.101   4
   2  -2  -8 16441.0 837.623   1
   2  -2  -8 14939.3 553.299   2
   2  -2  -7 7387.82 369.512   2
   2  -2  -7 6006.05 464.497   1
   2  -2  -6 900.824 121.199   2
   2  -2  -6 417.803 118.440   1
   2  -2  -5 6684.12 429.842   1
   2  -2  -5 7564.20 311.144   2
   2  -2  -4 11857.6 523.381   1
   2  -2  -3 43692.7 930.774   1
   2  -2  -3 42403.9 834.325   3
   2  -2  -2 3566.41 226.545   1
   2  -2  -2 2892.01 152.181   2
   2  -2  -2 3375.39 233.337   1
   2  -2  -2 3399.81 227.711   3
   2  -2  -1 486.877 77.4025   1
   2  -2  -1 510.681 67.5632   2
   2  -2  -1 454.880 78.2046   3
   2  -2   0-8.48082 17.6436   2
   2  -2   0 117827. 1106.81   1
   2  -2   1 98936.9 1058.68   2
   2  -2   1-18.6709 21.2555   1
   2  -2   2 185108. 1588.42   2
   2  -2   2 186710. 1376.67   3
   2  -2   3 7894.36 367.443   2
   2  -2   3 7813.13 281.598   3
   2  -2   4 2613.70 227.728   2
   2  -2   4 2663.29 170.332   3
   2  -2   5 15169.4 429.982   3
   2  -2   6 1232.27 127.452   3
   2  -2   7 19016.7 520.521   3
   2  -2   8 20928.7 706.389   4
   2  -2   8 20656.3 560.215   3
   2  -2   9 34722.8 748.968   3
   2  -2  10 11032.2 434.671   3
   2  -1 -14 1890.20 396.349   1
   2  -1 -13 73.3164 129.346   1
   2  -1 -13 118.446 92.5038   2
   2  -1 -12-22.2817 64.0021   2
   2  -1 -12 183.490 144.874   1
   2  -1 -11 1178.34 279.558   1
   2  -1 -11 735.609 161.616   2
   2  -1 -10 3828.61 340.510   2
   2  -1 -10 3802.49 441.904   1
   2  -1  -9 7618.38 446.341   2
   2  -1  -9 7854.50 587.325   1
   2  -1  -9 7079.27 370.300   4
   2  -1  -8 35856.8 1189.99   1
   2  -1  -8 37427.0 942.148   2
   2  -1  -7 13819.5 534.694   2
   2  -1  -7 15127.8 724.315   1
   2  -1  -6 18689.6 747.796   1
   2  -1  -6 18598.9 570.076   2
   2  -1  -5 65630.9 1280.31   1
   2  -1  -5 73788.6 1044.75   2
   2  -1  -4 36075.1 718.050   3
   2  -1  -4 35304.5 851.605   1
   2  -1  -3 457.799 91.9289   1
   2  -1  -3 496.570 81.4202   3
   2  -1  -2 964.501 112.615   1
   2  -1  -2 999.088 106.184   3
   2  -1  -1 1288.33 113.284   3
   2  -1  -1 1119.62 102.338   1
   2  -1   0 137063. 1123.69   2
   2  -1   0 135958. 1140.24   3
   2  -1   1 12553.6 368.538   2
   2  -1   1 12382.3 350.450   3
   2  -1   1 12432.6 377.176   1
   2  -1   2 31192.6 637.770   2
   2  -1   2 31423.1 578.690   3
   2  -1   2 32681.5 713.422   1
   2  -1   3 159507. 1593.62   2
   2  -1   3 160035. 1365.33   3
   2  -1   4 69.7959 50.8835   2
   2  -1   4 147.910 49.9824   3
   2  -1   5 372.972 76.6910   3
   2  -1   6 71.6654 45.9534   3
   2  -1   7 79.7662 48.1923   3
   2  -1   8 6446.13 353.524   3
   2  -1   9 11120.3 484.329   3
   2  -1  10 3853.38 298.572   3
   2   0 -15 3045.72 518.574   1
   2   0 -14 14075.5 828.331   2
   2   0 -14 14847.0 1050.58   1
   2   0 -13 8190.07 609.865   2
   2   0 -13 7855.19 721.701   1
   2   0 -12 16379.5 808.383   2
   2   0 -12 16787.6 1000.64   1
   2   0 -11 7724.19 528.362   2
   2   0 -11 8566.06 700.462   1
   2   0 -10 4901.11 392.133   2
   2   0 -10 5679.65 518.386   1
   2   0  -9 2969.65 295.094   2
   2   0  -9 3638.84 394.202   1
   2   0  -8 123.525 72.2070   1
   2   0  -8 51.0309 34.6323   4
   2   0  -8 21.7044 37.2028   2
   2   0  -7 7075.89 401.981   2
   2   0  -7 5914.31 433.270   1
   2   0  -6 45623.6 1119.40   1
   2   0  -6 48086.8 969.771   2
   2   0  -5 130517. 1674.86   1
   2   0  -5 129814. 1453.51   2
   2   0  -4 52742.8 763.071   3
   2   0  -4 52509.4 963.092   1
   2   0  -3 60602.8 778.701   3
   2   0  -3 66780.5 1007.53   1
   2   0  -2 120991. 1070.43   3
   2   0  -2 123012. 1083.83   1
   2   0  -1 2790.71 149.904   1
   2   0  -1 2656.20 161.897   3
   2   0   0 17967.8 430.085   3
   2   0   0 18420.3 411.801   1
   2   0   1 6206.05 260.101   2
   2   0   1 6176.14 274.672   1
   2   0   1 6072.37 263.497   3
   2   0   2 10591.3 367.230   2
   2   0   2 11202.2 435.867   1
   2   0   2 10316.5 359.258   3
   2   0   3 44166.2 816.290   2
   2   0   3 46697.3 1006.19   1
   2   0   3 44318.1 806.902   3
   2   0   4 10906.0 443.072   2
   2   0   4 11263.5 429.851   3
   2   0   5 26819.6 801.725   4
   2   0   5 26747.4 704.533   3
   2   0   6 50525.9 1011.24   3
   2   0   7 22683.0 710.982   3
   2   0   8 11492.9 533.827   3
   2   0   9 3353.00 293.471   3
   2   0  10 134.551 81.0430   3
   2   1 -15 181.940 114.909   2
   2   1 -15 223.523 128.504   1
   2   1 -14 525.079 178.480   2
   2   1 -14 794.913 261.094   1
   2   1 -13 8398.43 624.655   2
   2   1 -13 7842.93 702.663   1
   2   1 -12 11017.1 690.551   2
   2   1 -12 10920.6 783.997   1
   2   1 -11 21464.1 900.924   2
   2   1 -11 24965.8 1130.97   1
   2   1 -10 66.6721 88.0483   1
   2   1 -10 63.9909 82.6621   2
   2   1  -9 10934.1 587.458   2
   2   1  -9 11892.1 675.759   1
   2   1  -8 10623.0 544.948   2
   2   1  -8 11521.6 620.762   1
   2   1  -7 11305.4 571.255   1
   2   1  -7 11760.1 538.176   2
   2   1  -6 3504.97 191.122   3
   2   1  -6 3729.36 297.389   1
   2   1  -6 3179.78 260.985   2
   2   1  -5 26169.1 512.649   3
   2   1  -5 25196.6 692.055   1
   2   1  -5 25284.5 684.456   2
   2   1  -4 21903.1 461.092   3
   2   1  -4 20855.0 559.999   1
   2   1  -3 22430.0 464.802   1
   2   1  -3 23147.0 538.390   1
   2   1  -3 21677.4 451.480   3
   2   1  -2 16149.4 342.209   1
   2   1  -2 15284.2 397.125   3
   2   1  -1 9201.71 252.485   1
   2   1  -1 8811.14 314.009   3
   2   1   0 93747.7 947.047   1
   2   1   0 91365.9 1089.27   3
   2   1   1 19394.3 462.281   2
   2   1   1 19695.9 522.171   1
   2   1   1 18877.6 526.704   3
   2   1   2 16989.9 454.612   2
   2   1   2 16900.9 554.306   1
   2   1   2 16392.5 514.522   3
   2   1   3 3950.57 319.538   1
   2   1   3 3088.06 215.045   2
   2   1   3 3395.53 276.418   4
   2   1   3 3143.09 240.220   3
   2   1   4 660.037 108.168   2
   2   1   4 717.085 125.469   3
   2   1   5 1306.44 160.791   2
   2   1   5 1466.69 186.342   3
   2   1   6 20383.0 718.508   3
   2   1   7 27005.2 859.851   3
   2   1   8 30186.1 958.495   3
   2   1   9 19189.3 797.795   3
   2   1  10 6368.59 475.663   3
   2   2 -16 4192.61 521.492   2
   2   2 -15 2199.10 373.185   2
   2   2 -15 3033.56 489.489   1
   2   2 -14 843.901 224.967   2
   2   2 -14 876.569 246.801   1
   2   2 -13 2024.50 325.992   2
   2   2 -13 2439.30 374.267   1
   2   2 -12 778.326 197.060   1
   2   2 -12 907.014 208.769   2
   2   2 -11 13113.6 725.144   2
   2   2 -11 11191.8 725.007   1
   2   2 -10 29537.0 1048.53   2
   2   2 -10 29766.4 1146.75   1
   2   2  -9 10097.6 584.192   2
   2   2  -9 10609.4 619.678   1
   2   2  -8 43838.0 1141.95   2
   2   2  -8 40732.7 1108.41   1
   2   2  -7 12437.0 568.386   1
   2   2  -7 12133.6 317.926   3
   2   2  -6 53183.0 686.432   3
   2   2  -6 53304.6 1118.45   2
   2   2  -5 71679.2 812.437   3
   2   2  -5 71635.0 1096.79   1
   2   2  -5 71496.5 1192.92   2
   2   2  -4 43631.7 667.916   3
   2   2  -4 43502.5 727.706   1
   2   2  -3 1647.15 109.319   1
   2   2  -3 1750.64 139.901   3
   2   2  -3 1778.88 127.040   1
   2   2  -2 8748.73 217.638   1
   2   2  -2 8621.22 330.225   3
   2   2  -1 8135.62 344.376   3
   2   2  -1 8095.45 234.523   1
   2   2   0 52243.2 753.746   1
   2   2   0 51599.1 980.820   4
   2   2   0 51225.8 773.731   2
   2   2   0 50700.7 907.004   3
   2   2   1 98655.3 1227.08   1
   2   2   1 96233.1 1064.88   2
   2   2   1 94373.3 1318.27   3
   2   2   2 68221.4 1189.02   1
   2   2   2 66393.1 894.672   2
   2   2   2 65283.8 1155.21   3
   2   2   3 73967.6 1006.44   2
   2   2   3 72393.9 1283.99   3
   2   2   4 18947.0 554.649   2
   2   2   4 22670.7 761.561   3
   2   2   5 14228.0 514.007   2
   2   2   5 15374.8 657.669   3
   2   2   6 300.158 102.292   3
   2   2   7 261.452 97.9833   3
   2   2   8 2003.47 269.291   3
   2   2   9 9886.46 627.234   3
   2   2  10 5509.45 485.708   3
   2   3 -16 4432.78 559.713   2
   2   3 -16 3883.84 553.620   1
   2   3 -15 3470.41 464.184   2
   2   3 -15 3108.30 486.553   1
   2   3 -14 3893.70 474.797   2
   2   3 -14 4049.38 515.389   1
   2   3 -13 7727.77 634.372   2
   2   3 -13 8156.87 676.809   1
   2   3 -12 20653.0 975.536   2
   2   3 -12 19595.2 976.536   1
   2   3 -11 7987.12 584.568   2
   2   3 -11 8230.18 598.655   1
   2   3 -10 10962.0 658.596   2
   2   3 -10 11280.7 655.691   1
   2   3  -9 4352.79 395.198   2
   2   3  -9 3941.26 370.704   1
   2   3  -8 7062.82 474.176   2
   2   3  -8 7312.64 459.999   1
   2   3  -7 3434.86 160.497   3
   2   3  -7 3063.56 263.756   1
   2   3  -6 21999.4 622.509   1
   2   3  -6 22311.4 462.788   3
   2   3  -6 22507.1 752.463   2
   2   3  -5 98185.4 1147.75   1
   2   3  -5 98252.4 1041.24   3
   2   3  -5 100118. 1491.88   2
   2   3  -4 62927.3 887.820   3
   2   3  -4 59998.2 694.363   1
   2   3  -4 62094.8 1097.63   2
   2   3  -4 61696.0 746.030   1
   2   3  -3 14812.7 259.293   1
   2   3  -3 14573.7 460.975   3
   2   3  -3 14933.8 276.156   1
   2   3  -2 19373.7 557.019   3
   2   3  -2 19963.1 283.031   1
   2   3  -1 18235.4 372.902   1
   2   3  -1 16188.7 549.432   3
   2   3   0 15312.9 433.514   1
   2   3   0 14762.1 546.906   3
   2   3   1 23421.8 544.522   2
   2   3   1 23702.1 730.413   3
   2   3   2 9048.46 460.255   1
   2   3   2 9257.14 331.475   2
   2   3   2 9243.56 480.849   3
   2   3   3 37880.6 710.723   2
   2   3   3 40829.9 1063.10   3
   2   3   4 32892.2 714.612   2
   2   3   4 33130.6 1004.77   3
   2   3   5 12272.5 462.784   2
   2   3   5 14480.2 689.808   3
   2   3   6 4130.17 387.513   3
   2   3   7 13019.9 724.349   3
   2   3   8 4392.35 438.193   3
   2   3   9 913.199 204.525   3
   2   3  10 530.516 171.661   3
   2   4 -16 358.809 198.121   2
   2   4 -16-26.0636 110.842   1
   2   4 -15 144.198 124.308   2
   2   4 -15 181.896 159.558   1
   2   4 -14 448.825 155.392   2
   2   4 -14 578.600 213.360   1
   2   4 -13 10227.4 740.519   2
   2   4 -13 9718.37 723.290   1
   2   4 -12 7642.77 617.242   2
   2   4 -12 6751.81 566.642   1
   2   4 -11 20775.1 972.463   2
   2   4 -11 21034.8 916.418   1
   2   4 -10 27385.5 1068.85   2
   2   4 -10 25232.9 936.832   1
   2   4  -9 20653.6 883.224   2
   2   4  -9 18817.5 752.788   1
   2   4  -8 4800.15 401.633   2
   2   4  -8 4235.29 327.924   1
   2   4  -8 4241.91 145.848   3
   2   4  -7 2027.25 203.886   1
   2   4  -7 2212.66 147.400   3
   2   4  -7 2264.88 263.711   2
   2   4  -6 654.037 101.222   1
   2   4  -6 589.671 85.5801   3
   2   4  -6 644.269 129.525   2
   2   4  -5 47911.2 834.763   3
   2   4  -5 46801.0 1071.41   2
   2   4  -4 2096.44 97.7755   1
   2   4  -4 2298.15 106.771   1
   2   4  -4 2175.31 188.938   3
   2   4  -4 1830.77 197.962   2
   2   4  -3 35649.3 810.330   3
   2   4  -2 22145.5 672.668   3
   2   4  -1 58294.1 1140.92   3
   2   4  -1 60875.0 726.156   1
   2   4   0 42423.1 1036.41   3
   2   4   0 43360.7 781.216   1
   2   4   1 11094.2 382.447   2
   2   4   1 11167.2 555.943   3
   2   4   1 11019.4 469.975   1
   2   4   2 3795.62 212.438   2
   2   4   2 3992.71 345.842   3
   2   4   3 3567.20 213.777   2
   2   4   3 3398.75 336.789   3
   2   4   4 233.232 67.0294   2
   2   4   4 475.460 134.806   3
   2   4   5 3127.47 219.996   2
   2   4   5 3863.54 387.412   3
   2   4   6 7370.23 557.948   3
   2   4   7 20662.9 980.060   3
   2   4   8 21734.8 1047.11   3
   2   4   9 6663.27 601.186   3
   2   4  10 5834.45 586.136   3
   2   5 -16 4753.58 591.639   2
   2   5 -16 3957.18 531.613   1
   2   5 -15 7659.38 716.893   2
   2   5 -15 6831.67 654.095   1
   2   5 -14 2114.42 366.947   2
   2   5 -14 2186.74 362.692   1
   2   5 -13 242.598 126.724   2
   2   5 -13 376.991 158.283   1
   2   5 -12-33.8621 70.7562   1
   2   5 -12 23.4529 95.1874   2
   2   5 -11 7312.12 595.420   2
   2   5 -11 8036.70 560.174   1
   2   5 -10 15106.3 815.687   2
   2   5 -10 16380.3 736.748   1
   2   5  -9 5982.66 484.734   2
   2   5  -9 5654.90 396.777   1
   2   5  -8 24118.4 940.216   2
   2   5  -8 22222.2 711.210   1
   2   5  -8 22377.5 460.773   3
   2   5  -7 17536.9 553.181   1
   2   5  -7 17084.5 471.570   3
   2   5  -7 16660.2 735.687   2
   2   5  -6 10862.8 362.403   1
   2   5  -6 11228.0 426.793   3
   2   5  -6 11318.9 577.845   2
   2   5  -5 20971.6 330.026   1
   2   5  -5 20269.2 317.854   1
   2   5  -5 20907.1 626.688   3
   2   5  -5 19298.4 712.104   2
   2   5  -4 10844.8 472.090   3
   2   5  -4 10681.9 500.258   2
   2   5  -3 311.873 83.4124   2
   2   5  -3 393.175 93.3545   3
   2   5  -2 4049.62 320.208   3
   2   5  -1 93.3794 35.4134   1
   2   5  -1 94.5452 55.1512   3
   2   5   0 19746.1 761.492   3
   2   5   0 20933.0 588.409   1
   2   5   1 30156.6 642.787   2
   2   5   1 30958.7 991.680   3
   2   5   1 30122.2 823.269   1
   2   5   2 30491.0 595.763   2
   2   5   2 33161.5 1080.09   3
   2   5   3 14369.6 412.120   2
   2   5   3 15401.7 765.977   3
   2   5   4 1007.54 111.602   2
   2   5   4 1452.41 246.029   3
   2   5   5 560.739 160.724   3
   2   5   6 329.012 133.272   3
   2   5   7 582.135 184.130   3
   2   5   8 3482.01 455.851   3
   2   5   9 9417.75 766.189   3
   2   5  10 6399.68 659.154   3
   2   6 -15 4297.04 549.323   2
   2   6 -15 3652.76 476.692   1
   2   6 -14 4983.56 562.369   2
   2   6 -14 4607.84 505.452   1
   2   6 -13 4498.40 512.551   2
   2   6 -13 5677.21 519.339   1
   2   6 -12 10198.7 743.740   2
   2   6 -12 9268.54 624.136   1
   2   6 -11 1824.77 300.710   2
   2   6 -11 2274.48 290.291   1
   2   6 -10 555.527 134.273   1
   2   6 -10 315.551 134.084   2
   2   6  -9 169.772 75.2975   2
   2   6  -9 265.329 82.9086   1
   2   6  -9 342.036 50.2607   3
   2   6  -8 5257.24 450.382   2
   2   6  -8 5451.55 276.186   3
   2   6  -8 5490.84 321.580   1
   2   6  -7 5991.76 460.773   2
   2   6  -7 5903.49 273.128   1
   2   6  -7 5839.33 321.861   3
   2   6  -6 17669.2 603.972   3
   2   6  -6 17009.0 303.921   1
   2   6  -6 17485.9 318.128   1
   2   6  -6 17514.5 745.352   2
   2   6  -5 38703.1 940.216   3
   2   6  -5 39317.9 1063.69   2
   2   6  -4 57547.4 1198.98   3
   2   6  -4 57278.3 1215.14   2
   2   6  -3 31774.0 929.761   3
   2   6  -3 31171.9 840.665   2
   2   6  -2 6173.07 429.795   3
   2   6  -2 5157.74 320.264   2
   2   6  -1 1830.37 146.351   1
   2   6  -1 1758.94 179.497   2
   2   6   0 85.2652 46.8087   2
   2   6   0 181.679 62.3585   1
   2   6   1 2319.42 174.388   2
   2   6   1 2551.63 305.965   3
   2   6   1 2442.59 252.419   1
   2   6   2 5622.73 247.259   2
   2   6   2 7009.08 531.342   3
   2   6   3 34032.4 1227.73   3
   2   6   4 28143.8 1172.13   3
   2   6   5 8443.89 658.494   3
   2   6   6 9910.50 749.875   3
   2   6   7 4005.01 501.138   3
   2   6   8 3487.94 484.424   3
   2   6   9 1406.06 331.494   3
   2   6  10 109.465 152.224   3
   2   7 -15-83.7192 143.904   2
   2   7 -14 913.180 253.080   2
   2   7 -13 5291.61 572.590   2
   2   7 -12 13050.5 863.332   2
   2   7 -12 13613.1 721.735   1
   2   7 -11 14011.2 864.217   2
   2   7 -11 14676.5 686.497   1
   2   7 -10 8942.87 657.177   2
   2   7 -10 8340.46 468.480   1
   2   7  -9 10433.2 682.554   2
   2   7  -9 9448.18 363.380   3
   2   7  -9 9405.64 436.708   1
   2   7  -8 12577.1 717.791   2
   2   7  -8 12882.7 492.466   3
   2   7  -8 12749.6 410.707   1
   2   7  -7 28.9775 47.9696   2
   2   7  -7 5.46596 15.8110   1
   2   7  -7 36.1758 45.9292   3
   2   7  -7 8.76907 14.8332   1
   2   7  -6-25.7076 37.6873   3
   2   7  -6 128.809 90.0822   2
   2   7  -5 11844.6 575.344   3
   2   7  -5 12621.0 625.902   2
   2   7  -4 18258.3 738.512   3
   2   7  -4 18952.9 729.165   2
   2   7  -3 30071.9 987.007   3
   2   7  -3 31209.4 886.185   2
   2   7  -2 4140.10 383.090   3
   2   7  -2 5048.12 333.856   2
   2   7  -1 17957.6 818.929   3
   2   7  -1 17729.6 585.705   2
   2   7   0 7885.77 363.353   2
   2   7   0 8899.40 594.940   3
   2   7   0 7256.40 390.492   1
   2   7   0 9093.31 387.642   2
   2   7   1 4053.76 415.471   3
   2   7   1 3766.79 227.053   2
   2   7   2 6674.40 555.875   3
   2   7   2 6125.08 240.697   2
   2   7   3 1821.79 312.387   3
   2   7   4 1663.74 313.853   3
   2   7   5 1525.36 296.534   3
   2   7   6 4499.69 538.843   3
   2   7   7 1462.06 321.674   3
   2   7   8 3247.82 500.988   3
   2   7   9 4801.67 635.707   3
   2   8 -15 4085.72 562.824   2
   2   8 -14 1152.87 294.902   2
   2   8 -13 266.911 126.076   2
   2   8 -12 494.680 165.322   2
   2   8 -11 8129.97 670.714   2
   2   8 -10 4111.24 464.931   2
   2   8  -9 15295.9 853.514   2
   2   8  -9 14572.8 532.641   3
   2   8  -8 25653.5 1057.27   2
   2   8  -8 24799.2 782.343   3
   2   8  -7 22850.0 960.138   2
   2   8  -7 23349.3 808.909   3
   2   8  -6 20269.6 863.802   2
   2   8  -6 20438.3 789.167   3
   2   8  -5 8931.23 548.361   2
   2   8  -5 8579.45 536.580   3
   2   8  -4 2961.19 298.575   2
   2   8  -4 2272.24 285.294   3
   2   8  -3 643.069 158.977   3
   2   8  -3 786.179 147.870   2
   2   8  -2 55.5507 55.4543   2
   2   8  -2 5.39630 56.7713   3
   2   8  -1 3086.87 374.854   3
   2   8  -1 2912.11 245.709   2
   2   8   0 11797.4 736.710   3
   2   8   0 12453.9 460.308   2
   2   8   1 7600.32 617.408   3
   2   8   2 23211.7 1113.82   3
   2   8   3 10920.3 802.167   3
   2   8   4 3446.51 468.236   3
   2   8   5 1750.57 345.432   3
   2   8   6 162.618 134.215   3
   2   8   7 807.491 264.599   3
   2   8   8 1243.18 327.408   3
   2   9 -14 2626.42 442.357   2
   2   9 -13 4654.57 564.605   2
   2   9 -12 11464.3 835.887   2
   2   9 -11 2959.00 419.303   2
   2   9 -10 14.9077 70.7221   2
   2   9  -9-10.8363 77.7393   2
   2   9  -8 785.349 160.482   3
   2   9  -8 873.079 209.787   2
   2   9  -7 184.781 98.1999   2
   2   9  -7 181.742 86.0540   3
   2   9  -6 1999.79 284.163   2
   2   9  -6 2099.26 275.682   3
   2   9  -5 13506.0 695.819   2
   2   9  -5 14375.0 751.221   3
   2   9  -4 16957.3 738.337   2
   2   9  -4 16083.6 816.245   3
   2   9  -3 15393.7 666.551   2
   2   9  -3 14570.1 802.511   3
   2   9  -2 2142.57 234.130   2
   2   9  -2 1845.02 302.206   3
   2   9  -1 36.1490 57.3994   3
   2   9  -1 76.2714 67.7971   2
   2   9   0-28.2629 53.2225   3
   2   9   1 408.528 164.764   3
   2   9   2 2170.20 367.594   3
   2   9   3 4841.45 568.296   3
   2   9   4 3180.75 471.832   3
   2   9   5 2861.27 475.793   3
   2   9   6 3016.44 494.290   3
   2  10 -13 2422.84 425.427   2
   2  10 -12 7610.29 709.632   2
   2  10 -11 9322.10 754.028   2
   2  10 -10 8459.87 696.309   2
   2  10  -9 3641.04 448.967   2
   2  10  -8 23.6220 68.0376   3
   2  10  -8 20.0553 54.3918   2
   2  10  -7 1216.18 238.650   2
   2  10  -7 829.808 183.627   3
   2  10  -6 11.5616 46.1341   2
   2  10  -6-26.1281 62.4372   3
   2  10  -5 3572.08 373.994   2
   2  10  -5 3347.88 395.760   3
   2  10  -4 11239.7 626.360   2
   2  10  -4 11681.3 750.650   3
   2  10  -3 13172.7 639.005   2
   2  10  -3 12830.7 813.110   3
   2  10  -2 17653.1 981.743   3
   2  10  -1 9288.40 737.800   3
   2  10   0 4459.88 526.496   3
   2  10   1 983.186 263.999   3
   2  10   2 250.609 166.049   3
   2  10   3 3391.83 511.185   3
   2  10   4 947.880 286.477   3
   2  11 -13-39.0118 116.835   2
   2  11 -12 258.808 157.554   2
   2  11 -11 3862.07 502.915   2
   2  11 -10 3196.41 444.952   2
   2  11  -9 12508.3 844.405   2
   2  11  -8 11936.8 791.145   2
   2  11  -8 11923.8 720.106   3
   2  11  -7 5484.87 516.676   2
   2  11  -7 5514.06 510.327   3
   2  11  -6 3942.10 423.577   2
   2  11  -6 4173.53 458.443   3
   2  11  -5 2658.80 331.860   2
   2  11  -5 2350.68 357.863   3
   2  11  -4 749.004 206.973   3
   2  11  -3 40.3043 66.7361   3
   2  11  -2 1518.41 308.151   3
   2  11  -1 1292.31 290.494   3
   2  11   0 1883.46 367.791   3
   2  11   1 5743.00 661.705   3
   2  11   2 3897.94 561.066   3
   2  11   3 4325.44 604.369   3
   2  12 -12 330.320 195.942   2
   2  12 -11 325.697 167.333   2
   2  12 -10 334.611 165.767   2
   2  12  -9 99.9871 123.060   2
   2  12  -8 1712.03 306.179   2
   2  12  -7 716.445 212.132   3
   2  12  -7 1201.64 254.257   2
   2  12  -6 5124.95 496.817   2
   2  12  -6 6852.07 630.472   3
   2  12  -5 6946.44 651.260   3
   2  12  -4 4025.43 505.798   3
   2  12  -3 1882.88 357.389   3
   2  12  -2 1088.39 281.374   3
   2  12  -1 235.407 157.002   3
   2  12   0 28.3137 98.1416   3
   2  12   1 391.272 208.730   3
   2  13 -11 5478.33 629.331   2
   2  13 -10 4133.77 548.467   2
   2  13  -9 1509.01 319.077   2
   2  13  -6 1270.87 339.440   3
   2  13  -5 2160.29 398.750   3
   2  13  -4 3255.07 504.071   3
   2  13  -3 2224.85 433.705   3
   2  13  -2 3259.06 526.767   3
   2  14  -6 1660.02 362.042   3
   2  14  -5 24.8170 111.920   3
   3 -11  -7 103.748 155.893   1
   3 -11  -6 756.755 234.457   1
   3 -11  -5 1445.84 298.927   1
   3 -11  -4 1690.89 322.749   1
   3 -11  -3 9225.62 674.702   1
   3 -11  -2 10568.4 692.591   1
   3 -11  -1 15654.8 797.508   1
   3 -11   0 12366.0 685.216   1
   3 -11   1 1355.43 226.192   1
   3 -11   2 401.819 138.795   1
   3 -11   3 81.0396 49.1215   1
   3 -10  -8 3319.35 503.040   1
   3 -10  -8 3741.80 565.356   4
   3 -10  -7 5319.89 608.393   1
   3 -10  -6 2596.82 423.233   1
   3 -10  -5 1565.46 312.548   1
   3 -10  -4-31.5093 60.3816   1
   3 -10  -3 140.747 96.8581   1
   3 -10  -2 339.719 143.311   1
   3 -10  -1 1944.69 272.515   1
   3 -10   0 10537.8 617.377   1
   3 -10   1 4884.55 419.384   1
   3 -10   2 10478.2 582.174   1
   3  -9 -10-22.5097 101.415   4
   3  -9  -9 290.851 141.681   1
   3  -9  -9 104.077 161.600   4
   3  -9  -8 718.293 251.924   1
   3  -9  -7 5783.76 610.188   1
   3  -9  -6 10774.6 789.292   1
   3  -9  -5 10663.2 744.848   1
   3  -9  -4 4211.00 448.150   1
   3  -9  -3 2002.06 295.569   1
   3  -9  -2 1.85221 50.4993   1
   3  -9  -1 427.121 127.198   1
   3  -9   0 19.9659 55.4531   1
   3  -9   1 2040.15 251.110   1
   3  -8 -10 2541.89 453.676   1
   3  -8 -10 2053.70 378.299   4
   3  -8  -9 4099.18 549.107   1
   3  -8  -9 3750.16 517.932   4
   3  -8  -8 889.096 256.992   1
   3  -8  -7 632.924 203.504   1
   3  -8  -6 2650.01 379.729   1
   3  -8  -5 3691.89 428.235   1
   3  -8  -4 3402.77 387.163   1
   3  -8  -3 20933.8 920.780   1
   3  -8  -2 18135.1 818.182   1
   3  -8  -2 16948.5 313.075   2
   3  -8  -1 18737.1 833.535   1
   3  -8  -1 15880.5 443.100   2
   3  -8   0 14440.4 496.059   2
   3  -8   0 14051.7 662.721   1
   3  -7 -11 4579.83 633.865   1
   3  -7 -10 2805.45 459.489   1
   3  -7 -10 3390.23 461.352   4
   3  -7  -9 7410.60 710.465   1
   3  -7  -8 8481.27 715.633   1
   3  -7  -7 13752.0 879.022   1
   3  -7  -6 2236.50 333.585   1
   3  -7  -5 1636.92 278.800   1
   3  -7  -4 353.109 136.573   1
   3  -7  -3 1861.37 264.485   1
   3  -7  -2 19516.4 409.846   2
   3  -7  -2 20474.5 840.548   1
   3  -7  -1 13870.9 418.303   2
   3  -7  -1 13513.9 642.636   1
   3  -7   0 43126.8 829.697   2
   3  -7   1 22935.3 668.560   2
   3  -6 -12 3473.95 579.789   1
   3  -6 -11 252.340 151.533   1
   3  -6 -10 774.196 241.447   1
   3  -6 -10 266.275 127.319   4
   3  -6  -9 1157.49 275.831   1
   3  -6  -8 5102.94 534.547   1
   3  -6  -7 2901.54 393.075   1
   3  -6  -6 19678.1 946.314   1
   3  -6  -5 14122.9 762.071   1
   3  -6  -4 20787.4 874.285   1
   3  -6  -3 13281.9 303.897   2
   3  -6  -3 13139.0 662.051   1
   3  -6  -2 19247.2 441.155   2
   3  -6  -2 20542.8 797.652   1
   3  -6  -1 1725.18 146.535   2
   3  -6  -1 1760.23 228.288   1
   3  -6   0 2692.18 206.966   2
   3  -6   1 35780.1 821.284   2
   3  -6   4 22318.7 690.075   3
   3  -6   5 13099.1 503.550   3
   3  -6   6 23154.5 632.381   3
   3  -5 -12 3187.33 531.719   1
   3  -5 -11 6214.24 670.947   1
   3  -5 -11 5818.98 521.078   4
   3  -5 -10 4858.10 557.231   1
   3  -5 -10 4667.83 477.237   4
   3  -5  -9 350.445 169.736   1
   3  -5  -8 682.284 187.473   1
   3  -5  -7-11.8061 54.3120   1
   3  -5  -7 23.0789 28.9114   2
   3  -5  -6 9515.22 296.504   2
   3  -5  -6 10206.0 309.497   2
   3  -5  -5 22264.9 429.207   2
   3  -5  -5 21949.0 430.022   2
   3  -5  -4 4762.10 200.118   2
   3  -5  -4 4564.97 392.495   1
   3  -5  -3 34149.6 555.233   2
   3  -5  -3 34630.3 1067.70   1
   3  -5  -2 16239.6 418.051   2
   3  -5  -2 15165.1 643.064   1
   3  -5  -1 22251.6 532.136   2
   3  -5   0 36539.4 742.690   2
   3  -5   0 35996.7 859.860   1
   3  -5   0 36271.8 936.741   3
   3  -5   1 122.891 44.6853   2
   3  -5   1 279.439 79.2570   3
   3  -5   1 250.164 72.1667   1
   3  -5   2-7.06449 34.2351   1
   3  -5   2 17.5829 36.2242   3
   3  -5   3 17014.1 580.123   3
   3  -5   4 4971.30 302.084   3
   3  -5   5 24487.0 637.143   3
   3  -5   6 29814.1 682.847   3
   3  -5   7 45888.8 800.139   3
   3  -5   8 9980.50 348.472   3
   3  -4 -13 1763.60 400.081   1
   3  -4 -12 181.890 140.569   1
   3  -4 -11 5678.21 606.169   1
   3  -4 -11 6139.62 493.791   4
   3  -4 -10 6203.28 617.010   1
   3  -4  -9 12696.4 834.030   1
   3  -4  -9 12267.9 482.915   2
   3  -4  -8 28914.1 695.620   2
   3  -4  -8 30740.4 1213.15   1
   3  -4  -7 26858.6 632.649   2
   3  -4  -7 24837.5 1033.44   1
   3  -4  -6 1626.55 260.635   1
   3  -4  -6 1668.67 146.908   2
   3  -4  -5 5275.55 423.819   1
   3  -4  -5 5243.43 245.039   2
   3  -4  -4 1234.59 122.504   2
   3  -4  -4 1002.83 181.153   1
   3  -4  -3 16776.0 424.009   2
   3  -4  -3 16694.6 680.754   1
   3  -4  -2 22709.4 510.199   2
   3  -4  -2 22357.3 731.787   1
   3  -4  -2 22430.8 731.904   3
   3  -4  -1 13553.4 413.647   2
   3  -4  -1 12591.8 524.778   3
   3  -4  -1 13263.6 506.422   1
   3  -4   0 79900.3 1076.10   2
   3  -4   0 78962.5 1195.34   1
   3  -4   0 80523.2 1296.27   3
   3  -4   1 61825.9 1029.06   2
   3  -4   1 58762.9 1003.83   1
   3  -4   1 58588.0 1035.61   3
   3  -4   2 22999.5 678.989   2
   3  -4   2 21827.1 618.795   3
   3  -4   2 23879.6 677.261   1
   3  -4   3 50576.0 911.791   3
   3  -4   4 308.814 73.5731   3
   3  -4   5 2809.47 208.854   3
   3  -4   6 9946.27 387.843   3
   3  -4   7 4564.62 260.699   3
   3  -4   8 24742.4 592.463   3
   3  -4   9 10524.2 369.013   3
   3  -3 -13 4243.00 594.311   1
   3  -3 -12 2011.29 388.265   1
   3  -3 -11 19.1096 74.9911   1
   3  -3 -10 1298.79 272.659   1
   3  -3 -10 2074.90 232.534   2
   3  -3  -9 1381.59 273.331   1
   3  -3  -9 1155.46 166.425   2
   3  -3  -8 20567.5 650.278   2
   3  -3  -8 19364.4 926.721   1
   3  -3  -7 10043.9 629.955   1
   3  -3  -7 10339.8 427.946   2
   3  -3  -6 39370.7 1186.26   1
   3  -3  -6 41003.8 803.476   2
   3  -3  -5 26374.2 892.720   1
   3  -3  -4 38341.4 1040.75   1
   3  -3  -3 3182.86 198.366   2
   3  -3  -3 2478.61 248.201   1
   3  -3  -3 3128.30 261.206   3
   3  -3  -2 512.519 86.8503   2
   3  -3  -2 446.277 101.716   3
   3  -3  -1 331.291 65.0012   2
   3  -3  -1 251.892 75.7268   3
   3  -3   0 3001.52 208.536   2
   3  -3   0 2736.99 215.699   3
   3  -3   1-5.72085 15.6227   2
   3  -3   1 21.9306 27.0747   1
   3  -3   2 53662.9 1022.80   2
   3  -3   2 71428.1 1049.35   3
   3  -3   3 23.9987 30.1471   1
   3  -3   3 64296.4 1002.31   3
   3  -3   4 36214.5 747.417   3
   3  -3   5 7973.36 358.393   3
   3  -3   6 29769.1 706.213   3
   3  -3   7 4591.99 284.812   3
   3  -3   8 2510.16 211.974   3
   3  -3   9 1808.10 181.532   3
   3  -2 -14 7767.62 792.819   1
   3  -2 -13 10109.2 879.992   1
   3  -2 -12 12965.1 670.322   2
   3  -2 -12 12881.5 911.342   1
   3  -2 -11 9267.96 543.961   2
   3  -2 -11 10255.7 772.301   1
   3  -2 -10 5209.86 530.711   1
   3  -2 -10 5024.29 380.288   2
   3  -2  -9 6158.15 402.349   2
   3  -2  -9 5767.70 522.549   1
   3  -2  -8 5267.06 346.027   2
   3  -2  -8 5847.99 492.850   1
   3  -2  -7 3799.22 373.952   1
   3  -2  -7 3877.95 281.397   2
   3  -2  -6 11351.9 615.043   1
   3  -2  -6 11524.1 449.319   2
   3  -2  -5 42989.5 973.539   3
   3  -2  -5 42204.9 1098.40   1
   3  -2  -4 28212.2 755.828   3
   3  -2  -4 28577.9 878.520   1
   3  -2  -3 37015.0 887.888   1
   3  -2  -3 34232.2 793.200   3
   3  -2  -3 36545.1 850.917   1
   3  -2  -2 5585.75 313.370   1
   3  -2  -2 5626.36 276.040   2
   3  -2  -2 4739.60 288.030   3
   3  -2  -1 132923. 1454.55   3
   3  -2  -1 139278. 1454.37   1
   3  -2   0 136868. 1411.85   1
   3  -2   0 139518. 1466.22   3
   3  -2   1 743.016 108.583   2
   3  -2   1 1064.34 124.461   3
   3  -2   1 994.868 128.481   1
   3  -2   2 4487.54 287.227   2
   3  -2   2 3777.65 239.416   3
   3  -2   2 4429.84 295.723   1
   3  -2   3 36721.1 756.852   3
   3  -2   4 9093.88 393.157   3
   3  -2   5 9271.23 409.447   3
   3  -2   6 9007.35 413.951   3
   3  -2   7 21396.8 653.570   3
   3  -2   8 18683.3 626.494   3
   3  -2   9 10474.3 488.771   3
   3  -1 -14 45.8207 118.231   1
   3  -1 -13 1057.82 282.890   1
   3  -1 -13 616.214 162.941   2
   3  -1 -12 3132.22 350.313   2
   3  -1 -12 2505.44 402.360   1
   3  -1 -11 11698.0 630.424   2
   3  -1 -11 12429.5 825.799   1
   3  -1 -10 10180.9 572.279   2
   3  -1 -10 9709.87 692.787   1
   3  -1 -10 11385.6 500.484   4
   3  -1  -9 17019.4 854.158   1
   3  -1  -9 15450.1 662.920   2
   3  -1  -8 25148.6 985.519   1
   3  -1  -8 26745.5 815.290   2
   3  -1  -7 6016.56 454.244   1
   3  -1  -7 6027.91 366.260   2
   3  -1  -6 12066.5 493.432   3
   3  -1  -6 11361.4 587.481   1
   3  -1  -6 12289.8 491.645   2
   3  -1  -5 1393.99 161.096   3
   3  -1  -5 1337.21 188.915   1
   3  -1  -4 230.190 71.7605   1
   3  -1  -4 281.072 73.7230   3
   3  -1  -4 137.537 54.7536   1
   3  -1  -3 1577.61 172.415   1
   3  -1  -3 1779.75 170.078   3
   3  -1  -3 1468.41 160.273   1
   3  -1  -2 49961.4 856.213   1
   3  -1  -2 48274.2 853.387   3
   3  -1  -1 200249. 1623.00   1
   3  -1  -1 213483. 1747.24   3
   3  -1   0 34894.2 704.159   1
   3  -1   0 36746.4 736.826   2
   3  -1   1 41322.3 804.242   3
   3  -1   1 41827.2 823.576   1
   3  -1   2 13675.2 494.830   2
   3  -1   2 13357.7 462.771   3
   3  -1   2 12033.5 491.625   1
   3  -1   3 34760.2 838.235   2
   3  -1   3 33221.1 757.856   3
   3  -1   4 630.604 110.234   3
   3  -1   5 4482.40 298.121   3
   3  -1   6 21856.7 686.224   3
   3  -1   7 8266.32 435.838   3
   3  -1   8 29241.4 845.963   3
   3  -1   9 13157.8 590.606   3
   3  -1  10 7047.60 446.535   3
   3   0 -15 8073.39 809.317   1
   3   0 -14 3687.66 431.420   2
   3   0 -14 4487.15 570.913   1
   3   0 -13 5453.85 494.879   2
   3   0 -13 7260.43 700.786   1
   3   0 -12 5416.78 467.005   2
   3   0 -12 6493.29 621.130   1
   3   0 -11 1242.66 267.952   1
   3   0 -11 884.942 189.267   2
   3   0 -10 2266.97 276.897   2
   3   0 -10 1957.34 299.521   1
   3   0  -9 1805.22 278.143   1
   3   0  -9 1925.28 241.479   2
   3   0  -8 12621.5 672.951   1
   3   0  -8 12427.5 580.966   2
   3   0  -7 21818.8 629.826   3
   3   0  -7 20899.7 806.400   1
   3   0  -7 21124.1 716.439   2
   3   0  -6 60403.6 1025.27   3
   3   0  -6 58785.7 1254.59   1
   3   0  -6 58655.1 1122.36   2
   3   0  -5 66897.3 1036.09   3
   3   0  -5 67778.8 1243.25   1
   3   0  -4 18098.3 520.503   3
   3   0  -4 17258.2 588.557   1
   3   0  -3 14614.9 470.333   1
   3   0  -3 13266.9 439.186   3
   3   0  -2 25000.4 605.161   3
   3   0  -2 25063.3 566.410   1
   3   0  -1 2547.31 175.519   1
   3   0  -1 2940.26 213.897   2
   3   0  -1 2888.85 208.699   3
   3   0   0 2162.13 192.780   2
   3   0   0 2208.06 189.179   3
   3   0   0 1940.99 165.031   1
   3   0   1 1945.97 180.617   2
   3   0   1 2377.29 199.158   3
   3   0   1 2152.73 192.562   1
   3   0   2 47391.3 913.162   2
   3   0   2 49716.7 1031.20   1
   3   0   2 46783.3 918.489   3
   3   0   3 37958.6 862.743   2
   3   0   3 38098.0 867.315   3
   3   0   4 77073.6 1299.48   3
   3   0   5 6312.17 386.050   3
   3   0   6 10785.6 525.201   3
   3   0   7 480.356 122.491   3
   3   0   8 1580.36 213.994   3
   3   0   9 2293.11 273.334   3
   3   0  10 2968.46 322.288   3
   3   1 -15 1920.38 393.777   1
   3   1 -15 1119.61 264.375   2
   3   1 -14 3522.08 437.316   2
   3   1 -14 4919.22 584.617   1
   3   1 -13 12822.8 776.497   2
   3   1 -13 13706.3 922.575   1
   3   1 -12 17578.7 874.503   2
   3   1 -12 22332.1 1142.42   1
   3   1 -11 7765.07 564.843   2
   3   1 -11 7687.50 608.676   1
   3   1 -10 264.001 116.679   1
   3   1 -10 178.792 86.1731   2
   3   1  -9 722.418 172.334   1
   3   1  -9 613.789 146.262   2
   3   1  -8 19.2512 29.8954   1
   3   1  -8 48.7332 33.2028   2
   3   1  -7 16.9905 53.3221   1
   3   1  -7 160.625 52.2641   3
   3   1  -7 88.1358 54.9630   2
   3   1  -6 11655.6 416.706   3
   3   1  -6 11275.6 520.251   1
   3   1  -6 10551.5 494.938   2
   3   1  -5 101283. 1370.28   1
   3   1  -5 104550. 1240.95   3
   3   1  -5 101753. 1428.59   1
   3   1  -4 97276.4 1192.22   1
   3   1  -4 95154.5 1268.59   1
   3   1  -3 57589.0 838.616   1
   3   1  -3 53742.3 901.344   3
   3   1  -2 13010.0 374.069   1
   3   1  -2 13078.5 452.060   3
   3   1  -1 15959.4 512.140   3
   3   1  -1 16224.5 437.296   1
   3   1   0 23072.6 648.093   3
   3   1   0 23809.3 583.714   1
   3   1   1 8549.80 373.713   2
   3   1   1 8160.74 386.145   1
   3   1   1 7384.41 380.496   3
   3   1   2 170.400 60.0765   2
   3   1   2 112.847 56.3605   1
   3   1   2 78.9243 40.9440   3
   3   1   3 22721.5 668.648   2
   3   1   3 23800.9 747.132   3
   3   1   4 7723.89 442.709   3
   3   1   5 28806.3 892.761   3
   3   1   6 45326.4 1166.30   3
   3   1   7 28952.1 972.433   3
   3   1   8 11792.4 636.054   3
   3   1   9 2440.25 300.293   3
   3   1  10 280.814 122.253   3
   3   2 -16 906.364 285.476   1
   3   2 -16 1268.82 297.113   2
   3   2 -15 492.872 179.908   2
   3   2 -15 457.306 195.297   1
   3   2 -14 22.7035 77.6008   1
   3   2 -14 138.248 75.4454   2
   3   2 -13 1602.87 295.961   2
   3   2 -13 1354.20 276.144   1
   3   2 -12 7854.13 603.683   2
   3   2 -12 8312.35 666.698   1
   3   2 -11 19425.8 898.685   2
   3   2 -11 21113.6 978.438   1
   3   2 -10 22163.7 917.183   2
   3   2 -10 22314.0 937.304   1
   3   2  -9 25770.1 948.274   1
   3   2  -9 27528.3 972.628   2
   3   2  -8 36069.3 1027.92   1
   3   2  -8 35237.8 693.047   3
   3   2  -8 33939.4 1031.08   2
   3   2  -7 10061.4 377.086   3
   3   2  -7 10199.8 510.547   1
   3   2  -7 10092.2 530.863   2
   3   2  -6 27567.8 638.973   3
   3   2  -6 26838.5 739.013   1
   3   2  -6 26990.2 823.220   2
   3   2  -5 4682.81 265.827   3
   3   2  -5 4206.86 268.645   1
   3   2  -5 5042.85 276.705   1
   3   2  -4 104.265 38.6383   1
   3   2  -4 87.0392 47.2371   3
   3   2  -4 128.587 43.9891   1
   3   2  -3 15383.3 506.912   3
   3   2  -3 15484.5 400.904   1
   3   2  -2 22834.7 478.495   1
   3   2  -2 23478.6 648.474   3
   3   2  -1 48591.9 758.524   1
   3   2  -1 48426.8 968.275   3
   3   2   0 177156. 1661.28   1
   3   2   0 176200. 1934.02   3
   3   2   1 123654. 1446.84   2
   3   2   1 123256. 1693.93   3
   3   2   2 13862.3 496.059   2
   3   2   2 14830.8 609.614   3
   3   2   3 15048.8 538.346   2
   3   2   3 15625.3 658.907   3
   3   2   4 3383.93 320.476   3
   3   2   5 949.580 175.796   3
   3   2   6 145.744 84.1361   3
   3   2   7 2007.16 278.829   3
   3   2   8 15748.6 809.803   3
   3   2   9 11979.7 730.804   3
   3   2  10 3011.81 369.519   3
   3   3 -16 7307.90 706.967   2
   3   3 -16 8147.20 795.155   1
   3   3 -15 3804.56 493.499   2
   3   3 -15 2723.40 435.747   1
   3   3 -14 5907.96 578.946   2
   3   3 -14 6721.40 636.389   1
   3   3 -13 1281.05 269.561   1
   3   3 -13 1251.76 264.883   2
   3   3 -12 4516.24 474.308   2
   3   3 -12 4986.79 486.644   1
   3   3 -11 1551.31 261.045   2
   3   3 -11 993.701 213.658   1
   3   3 -10 124.749 74.1966   1
   3   3 -10 171.503 93.8076   2
   3   3  -9 21622.4 827.502   1
   3   3  -9 21281.4 468.205   3
   3   3  -9 22450.3 900.621   2
   3   3  -8 27769.8 856.598   1
   3   3  -8 28896.6 606.543   3
   3   3  -8 29122.7 982.102   2
   3   3  -7 22567.2 569.843   3
   3   3  -7 21628.5 802.230   2
   3   3  -7 21382.3 687.766   1
   3   3  -6 12155.0 573.134   2
   3   3  -6 13993.7 425.968   4
   3   3  -6 12997.4 446.147   3
   3   3  -6 12359.0 472.100   1
   3   3  -6 13513.9 473.604   1
   3   3  -5 17456.2 511.131   4
   3   3  -5 16922.6 529.998   3
   3   3  -5 16757.3 468.346   1
   3   3  -5 16800.3 482.572   1
   3   3  -4 3722.67 258.895   4
   3   3  -4 4022.08 215.273   1
   3   3  -4 3414.10 181.101   1
   3   3  -4 4025.79 268.518   3
   3   3  -3 14525.5 348.206   1
   3   3  -3 15410.6 565.477   4
   3   3  -3 15688.1 559.492   3
   3   3  -2 2414.11 241.463   4
   3   3  -2 2240.62 218.708   3
   3   3  -2 2260.57 144.265   1
   3   3  -1 8478.75 327.329   1
   3   3  -1 7684.68 424.194   3
   3   3   0 17080.4 529.211   1
   3   3   0 16410.0 555.666   2
   3   3   0 16648.8 646.326   3
   3   3   1 12033.1 524.397   1
   3   3   1 11295.7 441.602   2
   3   3   1 11220.0 554.860   3
   3   3   2 27245.8 694.843   2
   3   3   2 27926.1 906.567   3
   3   3   3 39764.6 859.864   2
   3   3   3 42005.7 1160.90   3
   3   3   4 6783.48 374.033   2
   3   3   4 6701.00 485.146   3
   3   3   5 1949.75 272.948   3
   3   3   6 2813.07 339.754   3
   3   3   7 964.994 217.671   3
   3   3   8 76.3213 96.1225   3
   3   3   9 1143.74 261.559   3
   3   3  10 5150.86 540.832   3
   3   4 -16 999.464 269.682   2
   3   4 -16 1600.12 342.642   1
   3   4 -15 1792.45 344.932   2
   3   4 -15 1586.19 325.890   1
   3   4 -14 6635.28 624.481   2
   3   4 -14 6361.36 605.221   1
   3   4 -13 13084.1 851.293   2
   3   4 -13 13818.7 826.396   1
   3   4 -12 17295.2 935.674   2
   3   4 -12 17236.6 874.699   1
   3   4 -11 30687.7 1191.72   2
   3   4 -11 27279.2 1026.61   1
   3   4 -10 149.792 88.6515   1
   3   4 -10 433.649 148.069   2
   3   4  -9 1574.99 224.154   1
   3   4  -9 1547.17 128.848   3
   3   4  -9 1517.41 244.011   2
   3   4  -8 310.377 99.7947   1
   3   4  -8 107.940 61.4142   2
   3   4  -8 404.769 73.9114   3
   3   4  -7 1730.17 182.510   1
   3   4  -7 1796.65 181.612   1
   3   4  -7 1590.80 157.352   3
   3   4  -7 1761.09 240.997   2
   3   4  -6 18373.8 519.483   1
   3   4  -6 17655.7 491.023   1
   3   4  -6 19539.0 588.512   3
   3   4  -6 17431.3 709.980   2
   3   4  -5 21473.6 452.745   1
   3   4  -5 21315.1 641.475   3
   3   4  -5 23197.8 781.423   2
   3   4  -5 21787.3 477.554   1
   3   4  -4 66916.1 646.536   1
   3   4  -4 67866.7 683.316   1
   3   4  -4 65897.0 1193.30   3
   3   4  -3 53216.3 1115.35   3
   3   4  -3 53888.0 563.366   1
   3   4  -2 16240.8 374.829   1
   3   4  -2 15655.5 634.244   3
   3   4  -1 2460.97 189.884   1
   3   4  -1 2351.41 250.676   3
   3   4   0 6386.17 346.548   1
   3   4   0 5491.33 327.600   2
   3   4   0 5685.56 409.543   3
   3   4   1 458.006 110.463   1
   3   4   1 461.761 86.9200   2
   3   4   1 536.321 136.452   3
   3   4   2 1098.25 142.182   2
   3   4   2 1218.00 204.617   3
   3   4   3 18885.1 590.150   2
   3   4   3 20066.0 865.915   3
   3   4   4 19759.8 893.874   3
   3   4   5 16992.3 864.768   3
   3   4   6 19335.2 953.031   3
   3   4   7 11741.5 774.626   3
   3   4   8 7140.93 628.352   3
   3   4   9 4356.01 518.135   3
   3   4  10 561.667 215.493   3
   3   5 -16 656.510 233.804   1
   3   5 -16 1571.64 349.896   2
   3   5 -15 111.983 107.975   2
   3   5 -15 347.958 181.112   1
   3   5 -14 225.740 149.807   2
   3   5 -14 250.281 149.738   1
   3   5 -13 1361.76 263.810   1
   3   5 -13 1014.18 249.586   2
   3   5 -12 11812.1 793.662   2
   3   5 -12 11702.9 696.521   1
   3   5 -11 12198.8 768.444   2
   3   5 -11 12744.3 674.045   1
   3   5 -10 3244.95 382.377   2
   3   5 -10 3364.72 318.497   1
   3   5  -9 8168.26 580.639   2
   3   5  -9 7467.37 436.561   1
   3   5  -9 7615.81 316.344   3
   3   5  -8 22122.1 671.725   1
   3   5  -8 22083.9 598.392   3
   3   5  -8 22744.1 924.870   2
   3   5  -7 6501.68 323.366   1
   3   5  -7 6188.20 300.046   1
   3   5  -7 6041.38 338.543   3
   3   5  -7 6160.96 460.675   2
   3   5  -6 6489.25 249.370   1
   3   5  -6 6582.94 263.366   1
   3   5  -6 6581.89 375.952   3
   3   5  -6 6216.68 439.320   2
   3   5  -5 633.998 51.9094   1
   3   5  -5 741.523 59.4082   1
   3   5  -5 775.532 134.568   3
   3   5  -5 898.972 161.653   2
   3   5  -4 6405.01 404.349   3
   3   5  -3 8486.75 484.443   3
   3   5  -2 12552.5 607.381   3
   3   5  -2 12667.6 323.561   1
   3   5  -1 23860.9 872.918   3
   3   5  -1 23471.1 575.925   1
   3   5   0 42349.3 924.327   2
   3   5   0 42358.5 1204.46   3
   3   5   0 43117.6 935.245   1
   3   5   1 14162.5 508.244   2
   3   5   1 16811.4 790.397   3
   3   5   2 13377.2 477.357   2
   3   5   2 14860.6 768.014   3
   3   5   3 5548.68 490.497   3
   3   5   4 166.749 84.1779   3
   3   5   5-14.1688 48.7976   3
   3   5   6 1282.34 267.708   3
   3   5   7 9637.25 748.248   3
   3   5   8 6122.22 624.594   3
   3   5   9 6355.35 657.743   3
   3   5  10 3574.10 527.085   3
   3   6 -15 4137.33 540.298   2
   3   6 -14 4907.03 559.876   2
   3   6 -14 4113.01 466.666   1
   3   6 -13 779.146 215.312   2
   3   6 -13 295.487 107.685   1
   3   6 -12 551.985 149.247   1
   3   6 -12 502.591 185.125   2
   3   6 -11 1775.75 302.166   2
   3   6 -11 1281.23 211.832   1
   3   6 -10 3172.57 385.779   2
   3   6 -10 3084.29 302.342   1
   3   6  -9 7528.30 568.639   2
   3   6  -9 7368.42 410.360   1
   3   6  -9 7018.68 338.480   3
   3   6  -8 23291.4 620.874   1
   3   6  -8 23055.7 678.870   3
   3   6  -8 21475.2 924.625   2
   3   6  -7 27559.7 504.511   1
   3   6  -7 29349.6 538.260   1
   3   6  -7 28438.8 807.916   3
   3   6  -7 26966.9 994.632   2
   3   6  -6 34100.5 940.259   3
   3   6  -6 34723.0 1083.06   2
   3   6  -5 39954.8 1060.93   3
   3   6  -5 37196.9 1055.10   2
   3   6  -4 19330.5 760.948   3
   3   6  -4 18243.8 714.647   2
   3   6  -3 973.518 185.537   3
   3   6  -2 651.342 70.1117   1
   3   6  -2 791.749 165.962   3
   3   6  -1 1863.92 266.358   3
   3   6  -1 1853.99 167.026   1
   3   6   0 10028.5 470.713   2
   3   6   0 9067.53 444.585   1
   3   6   0 10728.2 649.860   3
   3   6   1 9196.30 407.313   2
   3   6   1 10598.1 677.661   3
   3   6   2 6783.63 554.673   3
   3   6   3 22469.7 1058.81   3
   3   6   4 7310.72 625.873   3
   3   6   5 8412.76 697.808   3
   3   6   6 590.668 204.627   3
   3   6   7 14.6565 75.1106   3
   3   6   8-80.3712 82.8538   3
   3   6   9 249.861 180.767   3
   3   7 -15 2700.27 443.303   2
   3   7 -14 5567.94 602.916   2
   3   7 -13 10977.9 838.206   2
   3   7 -12 14361.7 920.887   2
   3   7 -11 15567.1 914.362   2
   3   7 -10 1616.63 289.006   2
   3   7  -9 3187.75 381.894   2
   3   7  -9 3347.84 262.134   3
   3   7  -9 3208.21 228.708   1
   3   7  -8 1094.39 167.167   3
   3   7  -8 1137.72 221.538   2
   3   7  -7 195.260 107.076   2
   3   7  -7 91.6452 53.3255   3
   3   7  -6 340.407 116.726   2
   3   7  -6 411.699 122.995   3
   3   7  -5 26078.3 924.560   3
   3   7  -5 27039.9 939.136   2
   3   7  -4 30308.8 1025.68   3
   3   7  -4 29820.1 943.421   2
   3   7  -3 5744.10 459.814   3
   3   7  -3 5215.60 375.141   2
   3   7  -2 7994.69 565.208   3
   3   7  -2 7684.71 440.624   2
   3   7  -1 4548.31 437.297   3
   3   7   0 1013.89 228.999   3
   3   7   1 992.700 233.063   3
   3   7   2-56.4367 78.3050   3
   3   7   3 8601.02 695.200   3
   3   7   4 9092.00 745.519   3
   3   7   5 5557.93 602.038   3
   3   7   6 3179.50 479.185   3
   3   7   7 2700.17 452.908   3
   3   7   8 4099.88 583.481   3
   3   8 -14 549.082 204.293   2
   3   8 -13 22.6727 96.7033   2
   3   8 -12 4138.95 502.434   2
   3   8 -11 13992.4 889.504   2
   3   8 -10 12273.9 799.545   2
   3   8  -9 9919.26 694.280   2
   3   8  -9 11661.8 544.289   3
   3   8  -8 2648.87 348.225   2
   3   8  -8 2166.17 255.580   3
   3   8  -7 242.981 112.651   2
   3   8  -7 320.090 112.040   3
   3   8  -6 2006.30 276.839   3
   3   8  -6 1107.31 206.664   2
   3   8  -5 1848.27 273.769   3
   3   8  -5 1602.79 239.233   2
   3   8  -4 1044.02 210.821   3
   3   8  -4 917.750 177.398   2
   3   8  -3 2527.93 328.328   3
   3   8  -3 2257.45 258.286   2
   3   8  -2 15132.8 830.407   3
   3   8  -2 13801.0 607.192   2
   3   8  -1 9566.26 682.403   3
   3   8  -1 10389.0 498.372   2
   3   8   0 11147.2 759.930   3
   3   8   0 8363.16 424.180   2
   3   8   1 11917.1 810.599   3
   3   8   2 6759.77 635.807   3
   3   8   3 1093.23 263.790   3
   3   8   4-35.9584 120.548   3
   3   8   5 144.009 88.8456   3
   3   8   6 1826.03 384.669   3
   3   8   7 3468.68 544.205   3
   3   9 -14 2644.28 445.204   2
   3   9 -13 2995.03 461.360   2
   3   9 -12-81.6391 136.329   2
   3   9 -11 255.076 140.010   2
   3   9 -10 2280.12 359.350   2
   3   9  -9 4542.91 486.183   2
   3   9  -8 13954.9 819.911   2
   3   9  -8 14696.9 727.752   3
   3   9  -7 5968.15 519.056   2
   3   9  -7 6497.29 503.479   3
   3   9  -6 10805.8 671.329   2
   3   9  -6 11622.4 694.957   3
   3   9  -5 10006.8 667.365   3
   3   9  -5 11341.4 656.022   2
   3   9  -4 8662.48 629.328   3
   3   9  -4 8218.77 534.010   2
   3   9  -3 956.948 222.777   3
   3   9  -3 567.694 140.845   2
   3   9  -2 380.022 112.994   2
   3   9  -2 507.106 180.353   3
   3   9  -1 3280.31 426.271   3
   3   9   0 4022.76 486.653   3
   3   9   1 8633.51 737.448   3
   3   9   2 3991.18 527.542   3
   3   9   3 5910.77 649.648   3
   3   9   4 1134.48 309.460   3
   3   9   5 2918.69 504.211   3
   3  10 -13 4299.13 556.017   2
   3  10 -12 6281.04 657.336   2
   3  10 -11 3502.61 472.348   2
   3  10 -10 2823.62 422.545   2
   3  10  -9 217.838 140.615   2
   3  10  -8 1730.09 303.539   2
   3  10  -8 1858.63 282.386   3
   3  10  -7 3980.17 433.542   2
   3  10  -7 3274.84 381.215   3
   3  10  -6 2209.93 313.775   2
   3  10  -6 2148.52 322.578   3
   3  10  -5 9416.48 617.884   2
   3  10  -5 10089.0 705.612   3
   3  10  -4 6901.99 508.038   2
   3  10  -4 6553.51 591.485   3
   3  10  -3 14285.5 695.555   2
   3  10  -3 15051.1 924.019   3
   3  10  -2 7300.46 659.412   3
   3  10  -1 1274.43 299.009   3
   3  10   0 172.378 114.796   3
   3  10   1-20.2560 94.0517   3
   3  10   2 1978.03 412.981   3
   3  10   3 1463.72 357.224   3
   3  11 -12 5251.16 615.197   2
   3  11 -11 4940.67 580.783   2
   3  11 -10 5324.78 581.365   2
   3  11  -9 5434.65 572.647   2
   3  11  -8 1729.17 312.565   2
   3  11  -8 791.747 200.435   3
   3  11  -7 747.871 220.201   2
   3  11  -7 1014.14 235.445   3
   3  11  -6 893.576 209.132   2
   3  11  -6 795.315 224.257   3
   3  11  -5 157.284 109.628   2
   3  11  -5 308.733 164.570   3
   3  11  -4 1221.93 267.184   3
   3  11  -3 3526.67 477.273   3
   3  11  -2 2929.49 459.323   3
   3  11  -1 3042.23 484.516   3
   3  11   0 3577.12 529.770   3
   3  11   1 1899.06 396.371   3
   3  12 -11 194.487 180.588   2
   3  12 -10 1651.22 349.014   2
   3  12  -9 2242.22 376.359   2
   3  12  -8 4433.49 509.297   2
   3  12  -7 6957.80 614.665   2
   3  12  -7 7455.69 661.848   3
   3  12  -6 6700.85 644.617   3
   3  12  -5 2508.48 405.172   3
   3  12  -4 133.503 133.477   3
   3  12  -3 435.573 196.193   3
   3  12  -2 107.969 120.448   3
   3  12  -1 615.363 242.068   3
   3  13 -10 810.071 252.088   2
   3  13  -9 377.090 196.036   2
   3  13  -6 1054.45 286.138   3
   3  13  -5 3325.25 507.595   3
   3  13  -4 1855.80 391.616   3
   3  13  -3 1645.68 376.225   3
   4 -12  -5 2702.28 436.378   1
   4 -12  -4 483.924 202.588   1
   4 -12  -3-56.2005 117.227   1
   4 -12  -2 92.4372 108.098   1
   4 -12  -1 87.3867 85.2197   1
   4 -12   0 1263.54 253.917   1
   4 -12   1 5584.67 495.600   1
   4 -12   2 10537.6 671.354   1
   4 -11  -8 424.022 224.770   1
   4 -11  -7 1372.77 329.735   1
   4 -11  -6 3494.81 494.924   1
   4 -11  -5 3538.70 481.569   1
   4 -11  -4 8262.47 692.156   1
   4 -11  -3 5400.36 533.972   1
   4 -11  -2 3163.37 395.756   1
   4 -11  -1 1069.33 228.566   1
   4 -11   0 25.5022 58.2315   1
   4 -11   1 4604.86 443.515   1
   4 -11   2 221.481 108.938   1
   4 -10  -9 1683.79 384.284   1
   4 -10  -8 1927.62 405.954   1
   4 -10  -7 918.576 264.048   1
   4 -10  -6-136.785 139.742   1
   4 -10  -5 1535.17 303.684   1
   4 -10  -4 1484.24 298.149   1
   4 -10  -3 1957.55 320.465   1
   4 -10  -2 6856.96 567.017   1
   4 -10  -1 11430.4 711.965   1
   4 -10   0 4324.31 429.279   1
   4 -10   1 10240.6 640.317   1
   4  -9 -10 1502.17 349.582   4
   4  -9  -9 2081.85 408.782   1
   4  -9  -8 5674.73 633.341   1
   4  -9  -7 6521.30 641.527   1
   4  -9  -6 9170.13 741.046   1
   4  -9  -5 1887.60 315.054   1
   4  -9  -4 1265.39 267.910   1
   4  -9  -3 26.5951 52.2065   1
   4  -9  -2 2050.91 304.049   1
   4  -9  -1 2103.74 303.230   1
   4  -9   0 7815.78 556.773   1
   4  -8 -10 773.101 249.313   1
   4  -8  -9 20.5674 106.445   1
   4  -8  -8 952.026 255.985   1
   4  -8  -7 3227.47 458.263   1
   4  -8  -6 10402.3 752.583   1
   4  -8  -5 9942.82 716.272   1
   4  -8  -4 12764.0 764.935   1
   4  -8  -3 13140.6 765.602   1
   4  -8  -2 3443.01 214.123   2
   4  -8  -2 4127.87 429.070   1
   4  -8  -1 3525.68 246.790   2
   4  -8  -1 3825.88 382.821   1
   4  -7 -11 3372.55 530.114   1
   4  -7 -10 5693.35 655.281   1
   4  -7  -9 4367.82 542.456   1
   4  -7  -8 4036.27 494.846   1
   4  -7  -7 308.606 136.385   1
   4  -7  -6 645.480 188.075   1
   4  -7  -5 3254.43 385.715   1
   4  -7  -4 4798.19 203.610   2
   4  -7  -4 5422.63 485.869   1
   4  -7  -3 13383.1 401.044   2
   4  -7  -3 15047.4 812.339   1
   4  -7  -2 21247.5 561.655   2
   4  -7  -2 22819.4 925.525   1
   4  -7  -1 38147.9 834.582   2
   4  -7   3 14844.6 659.361   3
   4  -7   4 1454.21 200.529   3
   4  -7   5 2817.25 272.140   3
   4  -7   6 12221.0 544.920   3
   4  -7   7 16717.4 610.980   3
   4  -6 -12 39.5371 126.503   1
   4  -6 -11 1337.29 331.784   1
   4  -6 -10 5235.22 610.608   1
   4  -6  -9 6965.63 664.425   1
   4  -6  -8 4244.78 492.124   1
   4  -6  -7 5353.38 532.436   1
   4  -6  -6 15516.6 855.067   1
   4  -6  -6 14495.2 390.431   2
   4  -6  -5 3926.37 209.484   2
   4  -6  -5 4294.56 428.541   1
   4  -6  -4 10592.7 358.628   2
   4  -6  -4 12473.9 705.646   1
   4  -6  -3 3187.74 209.284   2
   4  -6  -3 2698.05 317.464   1
   4  -6  -2 969.863 123.638   2
   4  -6  -2 1182.20 199.097   1
   4  -6  -1 6298.47 334.613   2
   4  -6   0 29315.5 769.946   2
   4  -6   0 28608.5 935.927   3
   4  -6   1 15973.0 672.707   3
   4  -6   2 4292.92 342.948   3
   4  -6   3 7434.15 441.823   3
   4  -6   4 3270.43 286.747   3
   4  -6   5 3211.24 275.080   3
   4  -6   6 4402.62 311.687   3
   4  -6   7 3843.86 281.263   3
   4  -6   8 18364.8 596.679   3
   4  -5 -12 4477.78 588.218   1
   4  -5 -11 2716.01 457.716   1
   4  -5 -10 134.349 110.838   1
   4  -5  -9 250.214 124.365   1
   4  -5  -8 233.895 126.267   1
   4  -5  -8 17.7242 31.4354   2
   4  -5  -7 17407.1 911.064   1
   4  -5  -7 18915.9 541.594   2
   4  -5  -6 21644.5 570.151   2
   4  -5  -6 21089.2 949.251   1
   4  -5  -6 22788.7 573.180   2
   4  -5  -5 36169.7 724.029   2
   4  -5  -5 35140.8 1177.21   1
   4  -5  -4 21897.9 545.249   2
   4  -5  -4 25946.1 1020.49   1
   4  -5  -3 11663.5 417.979   2
   4  -5  -3 12520.3 638.880   1
   4  -5  -2 2453.27 197.322   2
   4  -5  -2 2441.29 279.839   3
   4  -5  -1 16523.1 539.142   2
   4  -5  -1 15902.4 668.340   3
   4  -5   0 4363.89 295.260   2
   4  -5   0 5448.32 385.828   3
   4  -5   1 14508.2 603.170   3
   4  -5   2 86624.5 1446.55   3
   4  -5   3 127756. 1709.18   3
   4  -5   4 33901.8 869.600   3
   4  -5   5 11221.6 492.419   3
   4  -5   6 20124.6 655.219   3
   4  -5   7 13295.1 524.108   3
   4  -5   8 15574.7 555.329   3
   4  -4 -13 3352.76 536.501   1
   4  -4 -12 7146.92 721.328   1
   4  -4 -11 8081.49 731.887   1
   4  -4 -10 4773.77 534.242   1
   4  -4  -9 18951.3 662.313   2
   4  -4  -9 19064.9 1020.00   1
   4  -4  -8 8813.66 661.486   1
   4  -4  -8 8821.16 423.787   2
   4  -4  -7 405.517 136.734   1
   4  -4  -7 558.118 108.429   2
   4  -4  -6 2196.90 295.289   1
   4  -4  -5 4160.93 258.886   2
   4  -4  -5 4564.98 414.934   1
   4  -4  -4 32554.2 735.474   2
   4  -4  -4 30893.6 1006.85   1
   4  -4  -4 32680.1 985.772   3
   4  -4  -3 18433.3 541.919   2
   4  -4  -3 16809.8 706.642   1
   4  -4  -3 17357.8 689.286   3
   4  -4  -2 27064.6 669.663   2
   4  -4  -2 26786.6 860.923   3
   4  -4  -1 31726.9 756.909   2
   4  -4  -1 30319.5 858.677   3
   4  -4   0 47046.6 965.877   2
   4  -4   0 38680.1 950.996   3
   4  -4   1 34212.1 874.500   3
   4  -4   2 31231.1 824.495   3
   4  -4   3 8557.76 429.012   3
   4  -4   4 759.513 128.848   3
   4  -4   5 3211.63 260.871   3
   4  -4   6 11300.7 492.967   3
   4  -4   7 13762.4 551.455   3
   4  -4   8 12826.1 533.470   3
   4  -4   9 9440.63 455.464   3
   4  -3 -13 101.013 103.806   1
   4  -3 -12 749.461 240.151   1
   4  -3 -11 4477.11 526.430   1
   4  -3 -11 4264.45 358.342   2
   4  -3 -10 7009.16 447.974   2
   4  -3 -10 7401.98 640.902   1
   4  -3  -9 12923.7 575.958   2
   4  -3  -9 12682.1 805.580   1
   4  -3  -8 34408.6 1244.47   1
   4  -3  -8 34462.3 893.537   2
   4  -3  -7 18330.6 871.099   1
   4  -3  -7 16812.9 584.250   2
   4  -3  -6 16755.6 780.930   1
   4  -3  -5 2318.88 280.880   1
   4  -3  -5 2141.94 248.477   3
   4  -3  -4 6344.25 325.763   2
   4  -3  -4 6449.67 418.080   3
   4  -3  -3 548.098 101.480   2
   4  -3  -3 766.803 138.088   3
   4  -3  -2 7149.23 360.535   2
   4  -3  -2 5797.31 368.751   3
   4  -3  -1 11790.4 468.708   2
   4  -3  -1 9696.06 461.501   3
   4  -3   0 59677.6 1107.81   1
   4  -3   0 62163.0 1144.65   3
   4  -3   1 15972.5 573.490   3
   4  -3   2 27787.4 764.669   3
   4  -3   3 32777.5 822.295   3
   4  -3   4 25135.1 731.779   3
   4  -3   5 22.5195 25.5894   3
   4  -3   6 677.354 125.438   3
   4  -3   7 5061.95 346.986   3
   4  -3   8 3434.87 291.127   3
   4  -3   9 16043.6 631.509   3
   4  -2 -14 10829.4 974.720   1
   4  -2 -13 7447.87 738.412   1
   4  -2 -12 10951.9 628.885   2
   4  -2 -12 12336.3 889.141   1
   4  -2 -11 2435.75 371.224   1
   4  -2 -11 2196.27 278.336   2
   4  -2 -10 37.5956 86.7694   1
   4  -2 -10 65.2126 60.3474   2
   4  -2  -9-36.6752 81.5833   1
   4  -2  -9 41.3280 68.3670   2
   4  -2  -8 165.919 94.8001   1
   4  -2  -8 269.527 87.4691   2
   4  -2  -7 8511.94 571.537   1
   4  -2  -7 8479.84 438.825   2
   4  -2  -6 10312.7 514.133   3
   4  -2  -6 11328.2 619.572   1
   4  -2  -5 94500.5 1804.73   1
   4  -2  -5 89487.4 1511.36   3
   4  -2  -4 24542.0 812.427   1
   4  -2  -4 23383.9 739.272   3
   4  -2  -3 21514.5 618.398   2
   4  -2  -3 19526.0 658.012   3
   4  -2  -2 20928.1 665.580   3
   4  -2  -2 22561.7 676.680   1
   4  -2  -1 18735.9 594.516   1
   4  -2  -1 19545.5 632.574   3
   4  -2   0 167.845 63.7413   2
   4  -2   0 141.170 57.6579   1
   4  -2   0 157.212 58.5924   3
   4  -2   1 18292.8 610.442   3
   4  -2   2 14622.9 550.794   3
   4  -2   3 69514.6 1211.90   3
   4  -2   4 11384.9 511.614   3
   4  -2   5 19380.0 679.029   3
   4  -2   6 15148.1 618.194   3
   4  -2   7 17036.4 671.668   3
   4  -2   8 5378.44 387.108   3
   4  -2   9 254.318 94.3692   3
   4  -1 -15 41.1593 131.100   1
   4  -1 -14 496.185 220.824   1
   4  -1 -13 4636.44 448.522   2
   4  -1 -13 3930.31 525.669   1
   4  -1 -12 16441.9 820.605   2
   4  -1 -12 16755.8 1003.58   1
   4  -1 -11 24857.3 1171.12   1
   4  -1 -11 25741.5 968.624   2
   4  -1 -10 267.522 124.759   1
   4  -1 -10 213.419 98.1577   2
   4  -1  -9 2232.14 319.552   1
   4  -1  -9 1895.94 241.431   2
   4  -1  -8 210.223 91.1453   1
   4  -1  -8 118.456 70.4591   2
   4  -1  -7 7756.20 439.811   3
   4  -1  -7 7565.51 513.866   1
   4  -1  -6 631.808 124.271   3
   4  -1  -6 815.489 164.639   1
   4  -1  -5 18161.0 722.853   1
   4  -1  -5 18594.3 640.695   3
   4  -1  -4 64703.5 1247.49   1
   4  -1  -4 65460.9 1183.35   3
   4  -1  -3 69683.3 1191.58   1
   4  -1  -3 69856.3 1193.71   3
   4  -1  -2 71225.4 1147.75   1
   4  -1  -2 71540.1 1190.15   3
   4  -1  -1 6510.20 342.055   1
   4  -1  -1 7004.87 390.373   2
   4  -1  -1 6499.90 363.107   3
   4  -1   0 38070.8 893.379   2
   4  -1   0 39553.3 865.230   1
   4  -1   1 11206.1 487.414   3
   4  -1   1 11482.5 496.637   1
   4  -1   2 1193.00 163.731   3
   4  -1   3 115.571 63.6533   3
   4  -1   4 3918.43 309.443   3
   4  -1   5 3789.61 313.702   3
   4  -1   6 20942.2 751.772   3
   4  -1   7 19616.0 749.229   3
   4  -1   8 27915.0 925.181   3
   4  -1   9 7541.81 499.491   3
   4   0 -15 1479.30 368.254   1
   4   0 -14 349.543 168.929   1
   4   0 -14 598.257 197.156   2
   4   0 -13-15.0666 61.3286   1
   4   0 -13 86.0950 90.7728   2
   4   0 -12 2173.89 308.155   2
   4   0 -12 2044.79 348.526   1
   4   0 -11 5469.17 459.657   2
   4   0 -11 5843.87 554.177   1
   4   0 -10 20283.5 966.206   1
   4   0 -10 19295.9 823.540   2
   4   0  -9 29862.5 1103.68   1
   4   0  -9 28170.9 958.983   2
   4   0  -8 57938.1 1132.17   3
   4   0  -8 56816.3 1432.08   1
   4   0  -8 57383.5 1274.78   2
   4   0  -7 17505.4 617.490   3
   4   0  -7 18006.5 765.424   1
   4   0  -6 29984.2 795.648   3
   4   0  -6 26770.0 871.302   1
   4   0  -5 8395.54 411.988   3
   4   0  -5 6594.83 413.102   1
   4   0  -4 9798.62 448.391   1
   4   0  -4 9443.05 435.989   3
   4   0  -4 8810.98 435.726   1
   4   0  -3 656.307 118.487   3
   4   0  -3 810.284 120.675   1
   4   0  -2 7351.98 349.661   1
   4   0  -2 7330.60 381.502   3
   4   0  -1 6651.88 340.570   1
   4   0  -1 7466.26 416.073   2
   4   0  -1 6628.30 374.180   3
   4   0   0 94203.7 1438.83   2
   4   0   0 94190.8 1416.94   3
   4   0   0 92175.3 1316.58   1
   4   0   1 37677.5 921.453   3
   4   0   1 36435.8 906.507   1
   4   0   2 43796.0 1020.32   3
   4   0   3 32301.8 903.104   3
   4   0   4 15149.9 636.995   3
   4   0   5 1692.77 219.573   3
   4   0   6 138.277 73.3611   3
   4   0   7 3617.23 340.551   3
   4   0   8 4726.00 408.123   3
   4   0   9 7235.26 524.387   3
   4   0  10 7297.20 538.864   3
   4   1 -15 4831.61 528.426   2
   4   1 -15 5012.56 614.843   1
   4   1 -14 7079.00 612.704   2
   4   1 -14 8747.21 782.478   1
   4   1 -13 2877.56 375.200   2
   4   1 -13 3697.12 474.258   1
   4   1 -12 5706.26 500.646   2
   4   1 -12 5360.73 540.229   1
   4   1 -11 4190.41 419.963   2
   4   1 -11 4207.76 451.615   1
   4   1 -10 345.813 123.130   1
   4   1 -10 208.813 109.329   2
   4   1  -9 77.5748 87.5002   1
   4   1  -9 204.980 80.4966   2
   4   1  -9 330.577 91.4976   3
   4   1  -8 10747.3 466.308   3
   4   1  -8 9441.89 560.591   1
   4   1  -8 10323.9 562.412   2
   4   1  -7 13125.1 518.435   3
   4   1  -7 12837.0 616.096   1
   4   1  -6 20846.5 639.005   3
   4   1  -6 18229.5 684.297   1
   4   1  -5 39360.2 903.509   1
   4   1  -5 41697.7 905.664   3
   4   1  -5 41072.3 971.067   1
   4   1  -4 41519.3 860.856   1
   4   1  -4 43078.2 929.308   3
   4   1  -3 24952.3 628.168   1
   4   1  -3 25942.9 741.615   3
   4   1  -2 1779.63 168.990   1
   4   1  -2 1552.99 181.063   3
   4   1  -1 319.230 69.6791   1
   4   1  -1 358.261 89.2551   2
   4   1  -1 357.335 91.2214   3
   4   1   0 4897.16 337.433   3
   4   1   0 5069.42 319.774   1
   4   1   1 22027.9 741.779   3
   4   1   2 5975.26 403.601   3
   4   1   3 54363.5 1261.97   3
   4   1   4 24114.7 868.045   3
   4   1   5 38427.1 1133.14   3
   4   1   6 6450.66 481.530   3
   4   1   7 9519.86 603.060   3
   4   1   8 493.508 149.631   3
   4   1   9 99.8212 85.4327   3
   4   1  10 716.760 189.315   3
   4   2 -16 221.648 180.415   1
   4   2 -16 35.4694 125.893   2
   4   2 -15 610.025 209.994   2
   4   2 -15 899.922 268.653   1
   4   2 -14 1859.43 327.535   2
   4   2 -14 1820.12 353.711   1
   4   2 -13 9728.55 712.074   2
   4   2 -13 9537.00 758.353   1
   4   2 -12 16916.0 886.385   2
   4   2 -12 16090.6 895.492   1
   4   2 -11 18981.5 901.762   2
   4   2 -11 20310.1 948.630   1
   4   2 -10 9772.77 620.840   1
   4   2 -10 8674.34 392.157   3
   4   2 -10 9295.66 605.283   2
   4   2  -9 13988.9 512.968   3
   4   2  -9 13506.2 696.144   2
   4   2  -9 14464.5 710.369   1
   4   2  -8 3234.70 251.671   3
   4   2  -8 3571.24 330.351   1
   4   2  -8 3111.95 316.967   2
   4   2  -7 543.084 122.319   1
   4   2  -7 525.824 101.398   3
   4   2  -6 380.523 89.2583   1
   4   2  -6 196.155 70.0952   1
   4   2  -6 250.218 76.0464   3
   4   2  -5 31831.4 765.017   1
   4   2  -5 33573.2 823.567   3
   4   2  -4 30360.1 812.512   3
   4   2  -4 28445.7 668.864   1
   4   2  -3 55788.8 893.754   1
   4   2  -3 56300.9 1129.26   3
   4   2  -2 4045.39 247.128   1
   4   2  -2 4382.96 321.773   3
   4   2  -1 52313.4 1146.22   3
   4   2  -1 52548.8 947.815   1
   4   2   0 44472.9 1096.22   3
   4   2   0 61471.3 1118.48   1
   4   2   1 15327.1 653.687   3
   4   2   2 285.174 89.9413   3
   4   2   3 183.696 87.2949   3
   4   2   4 25236.1 939.953   3
   4   2   5 270.685 111.446   3
   4   2   6 529.951 142.566   3
   4   2   7 9146.86 623.558   3
   4   2   8 18105.1 924.958   3
   4   2   9 5843.23 549.781   3
   4   2  10 3576.82 442.852   3
   4   3 -16 1431.95 316.325   2
   4   3 -16 829.793 261.398   1
   4   3 -15 2388.31 386.163   2
   4   3 -15 1855.44 363.060   1
   4   3 -14 1115.02 275.112   1
   4   3 -14 980.833 247.806   2
   4   3 -13 13.0062 83.2518   1
   4   3 -13-11.4893 60.2705   2
   4   3 -12 362.378 135.743   1
   4   3 -12 379.118 153.236   2
   4   3 -11 6619.68 546.771   2
   4   3 -11 7053.58 537.578   1
   4   3 -10 20048.9 847.891   1
   4   3 -10 19327.8 564.159   3
   4   3 -10 20224.3 920.067   2
   4   3  -9 14636.0 676.606   1
   4   3  -9 15413.8 528.280   3
   4   3  -9 14819.3 750.091   2
   4   3  -8 26156.8 574.985   4
   4   3  -8 26721.9 717.501   3
   4   3  -8 25852.9 834.535   1
   4   3  -8 25403.8 932.131   2
   4   3  -7 16387.2 577.361   3
   4   3  -7 14829.8 586.010   1
   4   3  -7 15593.2 710.350   2
   4   3  -6 7761.04 381.135   1
   4   3  -6 6810.37 375.791   3
   4   3  -6 7126.34 370.653   1
   4   3  -5 3239.40 268.782   3
   4   3  -5 3134.11 239.026   1
   4   3  -5 2889.98 205.053   1
   4   3  -4 901.785 110.790   1
   4   3  -4 923.422 150.554   3
   4   3  -3 640.298 125.749   3
   4   3  -3 575.227 86.9266   1
   4   3  -2 15708.1 655.109   3
   4   3  -2 14944.3 459.919   1
   4   3  -1 17057.7 549.476   1
   4   3  -1 17004.5 683.643   3
   4   3   0 43890.2 988.874   1
   4   3   0 47489.1 1204.52   3
   4   3   1 8137.42 515.535   3
   4   3   2 34616.5 1098.54   3
   4   3   3 13540.9 715.319   3
   4   3   4 32.4265 52.9869   3
   4   3   5-17.4542 76.2394   3
   4   3   6 293.148 124.586   3
   4   3   7 3863.12 443.061   3
   4   3   8 3604.20 442.789   3
   4   3   9 8745.64 708.902   3
   4   3  10 12347.8 874.029   3
   4   4 -16 5212.85 610.017   2
   4   4 -16 5007.90 601.981   1
   4   4 -15 7050.80 680.752   2
   4   4 -15 7288.56 683.242   1
   4   4 -14 9507.52 767.829   2
   4   4 -14 9493.14 737.344   1
   4   4 -13 5884.88 577.414   2
   4   4 -13 5316.09 521.270   1
   4   4 -12 8547.78 667.148   2
   4   4 -12 7359.58 578.924   1
   4   4 -11 340.977 125.413   1
   4   4 -11 453.389 163.055   2
   4   4 -10 1878.96 248.999   1
   4   4 -10 1675.31 161.376   3
   4   4 -10 2022.29 296.806   2
   4   4  -9-60.0294 72.7533   2
   4   4  -9 14.6715 28.9763   3
   4   4  -8 13937.0 569.266   1
   4   4  -8 15459.7 565.190   3
   4   4  -8 15080.5 744.304   2
   4   4  -7 10960.9 456.234   1
   4   4  -7 11237.7 498.302   3
   4   4  -7 10842.2 612.928   2
   4   4  -7 11006.8 461.772   1
   4   4  -6 16366.0 625.174   3
   4   4  -6 16054.3 500.485   1
   4   4  -6 15827.4 469.297   1
   4   4  -5 33458.2 634.420   1
   4   4  -5 34014.6 924.768   3
   4   4  -5 31579.8 644.626   1
   4   4  -4 36903.0 661.756   1
   4   4  -4 36964.2 1002.37   3
   4   4  -4 36290.0 624.771   1
   4   4  -3 14469.2 647.021   3
   4   4  -3 12625.4 374.854   1
   4   4  -2 7342.05 326.263   1
   4   4  -2 8297.98 503.260   3
   4   4  -1 480.218 97.9111   1
   4   4  -1 741.813 160.145   3
   4   4   0 518.299 111.697   1
   4   4   0 748.448 169.736   3
   4   4   1 5496.82 449.584   3
   4   4   2 2703.52 330.359   3
   4   4   3 28611.8 1106.22   3
   4   4   4 22141.3 1007.98   3
   4   4   5 21233.9 1026.71   3
   4   4   6 8391.99 664.406   3
   4   4   7 1354.94 283.874   3
   4   4   8 1018.07 272.868   3
   4   4   9 374.047 189.664   3
   4   4  10 190.870 160.369   3
   4   5 -16 713.096 237.217   2
   4   5 -15 1213.22 295.238   2
   4   5 -15 1315.58 290.869   1
   4   5 -14 3858.94 499.549   2
   4   5 -14 4106.69 466.790   1
   4   5 -13 4341.73 505.134   2
   4   5 -13 4218.38 439.072   1
   4   5 -12 14770.4 893.864   2
   4   5 -12 14206.5 756.411   1
   4   5 -11 10321.1 720.675   2
   4   5 -11 10086.4 596.866   1
   4   5 -10 7579.77 485.901   1
   4   5 -10 6388.07 326.739   3
   4   5 -10 7435.60 585.319   2
   4   5  -9 4496.15 339.992   1
   4   5  -9 3981.66 285.284   3
   4   5  -9 3678.15 400.424   2
   4   5  -8 3776.06 270.369   1
   4   5  -8 3316.51 258.101   1
   4   5  -8 3690.88 289.064   3
   4   5  -8 3461.65 368.940   2
   4   5  -7 391.273 77.5904   1
   4   5  -7 379.569 128.980   2
   4   5  -7 522.612 89.4371   1
   4   5  -6 273.221 56.0738   1
   4   5  -6 230.650 49.2326   1
   4   5  -6 157.206 70.0949   2
   4   5  -5 38463.3 1061.18   3
   4   5  -5 35980.1 509.532   1
   4   5  -5 37174.5 530.485   1
   4   5  -4 23535.8 400.985   1
   4   5  -4 23850.4 861.126   3
   4   5  -4 25446.2 442.190   1
   4   5  -3 40227.4 615.495   1
   4   5  -3 38340.0 1126.45   3
   4   5  -2 7387.38 322.599   1
   4   5  -2 7550.51 518.239   3
   4   5  -1 21322.3 640.260   1
   4   5  -1 20573.3 875.650   3
   4   5   0 7843.23 446.398   1
   4   5   0 7755.45 557.831   3
   4   5   1 5569.15 486.763   3
   4   5   2 154.435 89.9353   3
   4   5   3 370.514 139.006   3
   4   5   4 4704.09 497.030   3
   4   5   5 3309.03 433.217   3
   4   5   6 12435.6 870.981   3
   4   5   7 4548.80 543.456   3
   4   5   8 3161.07 470.648   3
   4   5   9 2810.38 462.802   3
   4   6 -15 1313.85 304.247   2
   4   6 -14 254.555 131.376   2
   4   6 -13 363.806 163.080   2
   4   6 -12 1700.34 311.321   2
   4   6 -12 2045.78 279.766   1
   4   6 -11 16292.1 928.020   2
   4   6 -11 16836.3 722.710   1
   4   6 -10 6575.92 411.901   1
   4   6 -10 6346.91 548.698   2
   4   6  -9 15459.0 559.816   1
   4   6  -9 16158.5 613.087   3
   4   6  -9 15381.7 829.774   2
   4   6  -8 16092.1 482.147   1
   4   6  -8 17809.3 687.956   3
   4   6  -8 17532.4 861.692   2
   4   6  -7 14957.6 355.871   1
   4   6  -7 15534.6 671.499   3
   4   6  -7 13812.0 730.722   2
   4   6  -6 28947.5 952.050   3
   4   6  -6 29132.2 1025.66   2
   4   6  -5 28916.8 990.013   3
   4   6  -5 27750.0 968.063   2
   4   6  -4 2913.05 322.766   3
   4   6  -3 5246.58 442.407   3
   4   6  -3 4751.89 153.194   1
   4   6  -2 6964.05 526.019   3
   4   6  -2 5652.26 279.004   1
   4   6  -1 4022.02 412.247   3
   4   6  -1 3622.31 271.754   1
   4   6   0 14217.3 792.397   3
   4   6   1 4402.32 453.384   3
   4   6   2 18383.3 961.301   3
   4   6   3 11081.3 777.931   3
   4   6   4 2754.30 401.789   3
   4   6   5 525.980 196.845   3
   4   6   6 48.7894 84.7392   3
   4   6   7 899.905 283.417   3
   4   6   8 2521.10 454.017   3
   4   7 -15 4208.75 560.705   2
   4   7 -14 3604.67 506.261   2
   4   7 -13 3358.61 477.689   2
   4   7 -12 3312.22 447.196   2
   4   7 -11 2357.66 370.589   2
   4   7 -10 55.7612 74.0281   2
   4   7  -9 3371.52 303.569   3
   4   7  -9 3617.67 413.183   2
   4   7  -8 16404.0 713.888   3
   4   7  -8 15977.5 841.555   2
   4   7  -7 408.789 125.991   2
   4   7  -7 354.655 107.251   3
   4   7  -6 4298.90 396.570   3
   4   7  -6 3853.99 385.614   2
   4   7  -5 8103.37 552.142   3
   4   7  -5 7348.29 510.730   2
   4   7  -4 3410.52 370.149   3
   4   7  -4 3730.60 354.672   2
   4   7  -3 11579.3 701.721   3
   4   7  -2 2333.96 327.101   3
   4   7  -1 1796.56 285.577   3
   4   7   0 2660.07 368.218   3
   4   7   1 3574.86 437.169   3
   4   7   2 7229.27 636.455   3
   4   7   3 6939.25 646.012   3
   4   7   4 3455.65 481.866   3
   4   7   5 1110.89 293.019   3
   4   7   6 3225.73 511.593   3
   4   7   7 811.243 258.021   3
   4   8 -14 1786.17 378.516   2
   4   8 -13 3700.62 507.189   2
   4   8 -12 10920.3 829.125   2
   4   8 -11 10518.8 783.712   2
   4   8 -10 9986.76 740.490   2
   4   8  -9 2621.86 295.269   3
   4   8  -9 2268.15 342.568   2
   4   8  -8 29.1094 97.9000   2
   4   8  -8 148.810 71.5623   3
   4   8  -7 4509.28 417.302   3
   4   8  -7 4641.18 458.751   2
   4   8  -6 3502.34 374.098   3
   4   8  -6 3841.43 397.713   2
   4   8  -5 5277.57 480.549   3
   4   8  -5 6124.50 486.850   2
   4   8  -4 6820.49 559.637   3
   4   8  -4 6106.67 463.733   2
   4   8  -3 25795.2 1109.67   3
   4   8  -3 23656.4 886.238   2
   4   8  -2 18089.3 952.145   3
   4   8  -2 19409.1 774.269   2
   4   8  -1 9098.47 690.402   3
   4   8  -1 10377.2 549.784   2
   4   8   0 6490.73 603.682   3
   4   8   1 899.182 236.225   3
   4   8   2 125.443 126.323   3
   4   8   3 2448.90 415.813   3
   4   8   4 4252.52 562.016   3
   4   8   5 4589.04 601.936   3
   4   9 -13 423.352 212.077   2
   4   9 -12 1607.69 338.401   2
   4   9 -11 7297.07 671.251   2
   4   9 -10 3845.27 472.878   2
   4   9  -9 9630.80 725.179   2
   4   9  -8 9653.41 698.901   2
   4   9  -8 8265.32 589.698   3
   4   9  -7 8932.78 635.904   3
   4   9  -7 8239.06 624.335   2
   4   9  -6 4546.20 461.480   3
   4   9  -6 4186.48 428.707   2
   4   9  -5 955.673 221.899   3
   4   9  -5 1184.78 228.468   2
   4   9  -4 351.133 116.944   2
   4   9  -4 438.476 154.133   3
   4   9  -3 176.134 91.0158   2
   4   9  -3 316.544 133.502   3
   4   9  -2 2809.18 405.625   3
   4   9  -2 3545.31 345.494   2
   4   9  -1 3718.14 469.126   3
   4   9   0 5216.90 580.178   3
   4   9   1 5285.20 609.339   3
   4   9   2 5901.60 649.828   3
   4   9   3 3120.25 495.623   3
   4   9   4 866.422 294.138   3
   4  10 -13 3519.30 530.367   2
   4  10 -12 1542.16 341.911   2
   4  10 -11 167.553 100.985   2
   4  10 -10 306.107 158.357   2
   4  10  -9 2366.62 376.131   2
   4  10  -8 7266.06 625.048   2
   4  10  -8 7225.28 587.880   3
   4  10  -7 3577.02 433.606   2
   4  10  -7 3810.94 437.199   3
   4  10  -6 6651.98 563.747   2
   4  10  -6 8691.09 685.917   3
   4  10  -5 7760.67 660.306   3
   4  10  -5 7278.02 571.962   2
   4  10  -4 6404.69 614.912   3
   4  10  -4 5511.87 472.351   2
   4  10  -3 2640.27 407.308   3
   4  10  -2 105.093 126.861   3
   4  10  -1-31.5032 126.806   3
   4  10   0 948.888 275.170   3
   4  10   1 1684.53 360.724   3
   4  10   2 723.422 261.853   3
   4  11 -12 857.204 274.304   2
   4  11 -11 3396.64 492.540   2
   4  11 -10 3834.56 505.884   2
   4  11  -9 1574.83 303.513   2
   4  11  -8 281.363 144.603   2
   4  11  -8 256.030 153.475   3
   4  11  -7 328.719 148.336   2
   4  11  -7 137.051 100.128   3
   4  11  -6 323.050 141.351   2
   4  11  -6 425.848 174.256   3
   4  11  -5 4197.75 525.505   3
   4  11  -4 5904.91 628.948   3
   4  11  -3 3187.68 475.557   3
   4  11  -2 4035.28 550.851   3
   4  11  -1 1840.26 395.100   3
   4  11   0 480.668 218.638   3
   4  12 -11 3069.17 479.026   2
   4  12 -10 3284.86 490.782   2
   4  12  -9 3328.56 488.634   2
   4  12  -8 3806.05 490.374   2
   4  12  -7 741.845 221.070   3
   4  12  -6 373.919 168.064   3
   4  12  -5 76.5482 137.459   3
   4  12  -4 28.3590 124.872   3
   4  12  -3 327.773 173.110   3
   4  12  -2 2427.40 453.013   3
   4  13  -6 2493.11 443.886   3
   4  13  -5 2923.06 487.078   3
   5 -12  -6 852.976 270.120   1
   5 -12  -5 265.022 167.687   1
   5 -12  -4 152.932 141.350   1
   5 -12  -3 1707.50 334.409   1
   5 -12  -2 2703.18 393.147   1
   5 -12  -1 1611.59 302.943   1
   5 -12   0 4600.12 507.138   1
   5 -12   1 3979.74 457.174   1
   5 -12   2 3199.36 407.799   1
   5 -11  -8 825.087 247.128   1
   5 -11  -7 3504.92 531.862   1
   5 -11  -6 3830.27 523.917   1
   5 -11  -5 5284.34 606.083   1
   5 -11  -4 2520.70 396.340   1
   5 -11  -3 659.081 201.681   1
   5 -11  -2 104.716 109.002   1
   5 -11  -1 3289.11 436.534   1
   5 -11   0 3027.32 394.473   1
   5 -11   1 1706.77 294.252   1
   5 -10  -8 67.3567 111.468   1
   5 -10  -7 408.958 209.669   1
   5 -10  -6 4719.86 561.387   1
   5 -10  -5 5903.85 597.880   1
   5 -10  -4 1930.87 339.527   1
   5 -10  -3 6831.59 609.272   1
   5 -10  -2 4727.31 519.013   1
   5 -10  -1 4600.96 471.548   1
   5 -10   0 4607.92 470.197   1
   5  -9  -9 4963.14 621.626   1
   5  -9  -8 3615.68 519.668   1
   5  -9  -7 4993.24 576.570   1
   5  -9  -6 1914.40 345.077   1
   5  -9  -5 716.392 227.427   1
   5  -9  -4 125.170 136.439   1
   5  -9  -3 2921.48 394.344   1
   5  -9  -2 17127.8 918.114   1
   5  -9  -1 14446.9 819.716   1
   5  -8 -10 897.347 279.436   1
   5  -8  -9 2678.74 446.248   1
   5  -8  -8 3418.73 482.096   1
   5  -8  -7 6252.42 617.622   1
   5  -8  -6 5246.79 564.912   1
   5  -8  -5 6351.97 583.685   1
   5  -8  -4 7259.00 610.622   1
   5  -8  -3 977.110 217.817   1
   5  -8  -2 163.949 101.410   1
   5  -8   3 9783.54 599.958   3
   5  -8   4 3188.06 333.205   3
   5  -8   5 3739.60 355.258   3
   5  -8   6 1472.16 221.773   3
   5  -8   7 4003.98 342.999   3
   5  -7 -11 2234.45 430.512   1
   5  -7 -10 1742.52 363.335   1
   5  -7  -9 542.987 197.141   1
   5  -7  -8 899.966 256.049   1
   5  -7  -7 2558.00 393.406   1
   5  -7  -6 8311.83 678.123   1
   5  -7  -5 12771.2 800.574   1
   5  -7  -4 13867.7 838.159   1
   5  -7  -3 10683.4 449.140   2
   5  -7  -3 10922.2 687.445   1
   5  -7  -2 4554.41 433.378   1
   5  -7   0 4821.04 420.762   3
   5  -7   1 54.6968 38.5793   3
   5  -7   2 600.080 149.144   3
   5  -7   3 3833.74 354.887   3
   5  -7   4 19527.7 790.415   3
   5  -7   5 10534.8 570.841   3
   5  -7   6 16975.9 705.817   3
   5  -7   7 41320.7 1092.73   3
   5  -7   8 10481.5 521.337   3
   5  -6 -12 2456.21 465.534   1
   5  -6 -11 6282.40 686.072   1
   5  -6 -10 4583.80 567.288   1
   5  -6  -9 1780.44 343.849   1
   5  -6  -8 8043.48 682.529   1
   5  -6  -7 10542.0 754.527   1
   5  -6  -7 11119.1 434.251   2
   5  -6  -6 1759.90 308.433   1
   5  -6  -5 422.626 97.2576   2
   5  -6  -5 217.303 93.4084   1
   5  -6  -4 525.879 107.877   2
   5  -6  -4 355.618 123.646   1
   5  -6  -3 9616.48 433.327   2
   5  -6  -3 10172.8 637.989   1
   5  -6  -3 10602.7 637.616   3
   5  -6  -2 24296.4 945.147   3
   5  -6  -1 16596.9 760.962   3
   5  -6   0 38880.7 1152.04   3
   5  -6   1 12835.1 644.570   3
   5  -6   2 28757.4 936.574   3
   5  -6   3 2026.69 245.665   3
   5  -6   4-22.1797 32.7210   3
   5  -6   5 70.5211 48.3735   3
   5  -6   6 12372.6 581.792   3
   5  -6   7 16890.8 673.807   3
   5  -6   8 12672.9 571.185   3
   5  -5 -12 445.132 224.102   1
   5  -5 -11 258.894 160.794   1
   5  -5 -10 2311.05 389.413   1
   5  -5  -9 1893.62 345.159   1
   5  -5  -8 19179.5 1008.25   1
   5  -5  -8 18758.5 641.009   2
   5  -5  -7 24171.6 1103.65   1
   5  -5  -7 24000.8 696.218   2
   5  -5  -6 20354.8 962.960   1
   5  -5  -5 19158.2 948.054   1
   5  -5  -4 9857.29 439.845   2
   5  -5  -4 9798.15 617.433   1
   5  -5  -4 8440.66 560.483   3
   5  -5  -3 1.21069 46.2355   3
   5  -5  -2 248.084 107.030   3
   5  -5  -1 4000.34 352.759   3
   5  -5   0 8352.36 502.671   3
   5  -5   1 48259.2 1180.83   3
   5  -5   2 36555.8 1016.05   3
   5  -5   3 43642.1 1102.47   3
   5  -5   4 11341.1 561.446   3
   5  -5   5 6936.12 435.866   3
   5  -5   6 1878.08 232.475   3
   5  -5   7 2180.56 248.281   3
   5  -5   8 1632.24 210.292   3
   5  -4 -13 7000.64 769.125   1
   5  -4 -12 13285.4 996.673   1
   5  -4 -11 5976.70 634.669   1
   5  -4 -10 1696.51 221.593   2
   5  -4 -10 2056.66 360.316   1
   5  -4  -9 737.158 193.443   1
   5  -4  -9 1404.87 194.469   2
   5  -4  -8 81.8711 83.9023   1
   5  -4  -8 402.242 104.518   2
   5  -4  -7 3257.13 391.857   1
   5  -4  -6 14533.7 780.379   1
   5  -4  -6 13048.1 707.844   3
   5  -4  -5 23209.9 949.534   1
   5  -4  -5 23143.3 896.727   3
   5  -4  -4 32313.1 1062.52   1
   5  -4  -4 29513.9 993.177   3
   5  -4  -3 19834.2 779.063   3
   5  -4  -2 3245.54 318.051   3
   5  -4  -1 10096.8 532.230   3
   5  -4   0 9850.33 521.676   3
   5  -4   1 468.384 114.306   3
   5  -4   2-13.5379 36.9913   3
   5  -4   3 5031.41 366.650   3
   5  -4   4 20306.8 749.801   3
   5  -4   5 20589.1 753.287   3
   5  -4   6 9826.09 527.719   3
   5  -4   7 12572.4 595.342   3
   5  -4   8 9449.30 521.109   3
   5  -4   9 4254.78 352.326   3
   5  -3 -14 154.985 144.814   1
   5  -3 -13 2988.94 478.798   1
   5  -3 -12 5814.50 634.403   1
   5  -3 -11 11053.6 612.171   2
   5  -3 -11 10672.5 814.112   1
   5  -3 -10 7315.51 641.767   1
   5  -3 -10 8331.77 506.569   2
   5  -3  -9 7894.72 628.762   1
   5  -3  -9 8222.87 484.216   2
   5  -3  -8 12292.7 754.891   1
   5  -3  -8 11724.7 552.352   2
   5  -3  -7 869.088 193.566   1
   5  -3  -7 1231.67 215.153   3
   5  -3  -6 4988.42 458.426   1
   5  -3  -6 4689.44 400.497   3
   5  -3  -5 736.024 155.286   3
   5  -3  -5 532.947 146.434   1
   5  -3  -4 6415.17 457.530   1
   5  -3  -4 5903.85 418.445   3
   5  -3  -3 5062.78 377.593   3
   5  -3  -2 1330.96 191.922   3
   5  -3  -1 58629.4 1236.55   3
   5  -3   0 82629.1 1467.65   3
   5  -3   1 29217.8 878.397   3
   5  -3   2 25547.0 816.089   3
   5  -3   3 8676.12 481.889   3
   5  -3   4 3461.09 312.057   3
   5  -3   5 1544.09 213.510   3
   5  -3   6 11691.6 584.855   3
   5  -3   7 9578.68 538.684   3
   5  -3   8 31610.1 995.860   3
   5  -3   9 11118.1 596.432   3
   5  -2 -14 2402.68 436.835   1
   5  -2 -13 2034.62 385.019   1
   5  -2 -12 1325.98 303.318   1
   5  -2 -12 499.123 142.368   2
   5  -2 -11 404.231 164.748   1
   5  -2 -11 546.203 156.361   2
   5  -2 -10 4035.05 467.226   1
   5  -2 -10 3644.72 350.780   2
   5  -2  -9 6082.14 547.111   1
   5  -2  -9 5512.75 411.223   2
   5  -2  -8 4714.05 400.358   3
   5  -2  -8 4311.42 431.462   1
   5  -2  -8 4271.35 346.997   2
   5  -2  -7 12198.0 622.877   3
   5  -2  -7 12329.4 704.567   1
   5  -2  -6 39777.2 1110.52   3
   5  -2  -6 45227.0 1340.63   1
   5  -2  -5 40690.1 1174.05   1
   5  -2  -5 45571.6 1145.74   3
   5  -2  -4 5683.81 396.034   3
   5  -2  -3 15105.7 631.598   3
   5  -2  -2 11000.3 538.216   3
   5  -2  -1 33640.0 928.401   3
   5  -2   0 12756.8 572.300   3
   5  -2   1 23792.1 790.234   3
   5  -2   2 19708.7 727.477   3
   5  -2   3 12021.0 570.215   3
   5  -2   4 12566.6 600.117   3
   5  -2   5 10818.8 572.085   3
   5  -2   6 3171.96 315.559   3
   5  -2   7 1302.71 205.967   3
   5  -2   8 2948.83 324.761   3
   5  -2   9 2611.79 311.617   3
   5  -1 -15 2665.70 495.752   1
   5  -1 -14 4336.83 465.327   2
   5  -1 -14 4852.19 611.172   1
   5  -1 -13 7318.07 587.310   2
   5  -1 -13 7920.01 729.138   1
   5  -1 -12 15317.7 971.586   1
   5  -1 -12 15329.9 808.955   2
   5  -1 -11 8116.79 668.364   1
   5  -1 -11 9074.89 589.853   2
   5  -1 -10 78.3055 102.521   1
   5  -1 -10 137.333 86.4093   2
   5  -1  -9 97.2653 86.0304   1
   5  -1  -9 91.4324 76.5627   2
   5  -1  -9 66.5774 81.9152   3
   5  -1  -8 3532.42 326.566   3
   5  -1  -8 3361.95 370.638   1
   5  -1  -7 7252.92 460.361   3
   5  -1  -7 8171.49 551.551   1
   5  -1  -6 29871.7 912.802   3
   5  -1  -6 30640.0 1060.95   1
   5  -1  -5 37934.7 1010.41   3
   5  -1  -5 35380.8 1037.30   1
   5  -1  -4 92988.4 1547.96   3
   5  -1  -3 84054.7 1474.28   3
   5  -1  -2 26.0094 47.9157   3
   5  -1  -1 712.822 132.608   3
   5  -1   0 6060.66 391.532   3
   5  -1   1 12284.4 578.905   3
   5  -1   2 13335.5 620.471   3
   5  -1   3 13160.8 620.575   3
   5  -1   4 21203.5 800.804   3
   5  -1   5 17050.8 738.700   3
   5  -1   6 28052.3 968.022   3
   5  -1   7 28317.2 997.641   3
   5  -1   8 18137.5 815.782   3
   5  -1   9 2278.11 303.409   3
   5   0 -15-31.5244 128.597   1
   5   0 -15 15.4977 91.9392   2
   5   0 -14 1587.01 295.039   2
   5   0 -14 1204.00 300.413   1
   5   0 -13 4289.48 459.902   2
   5   0 -13 4276.21 516.753   1
   5   0 -12 10817.1 694.677   2
   5   0 -12 9346.94 732.765   1
   5   0 -11 15083.4 885.066   1
   5   0 -11 14764.7 776.271   2
   5   0 -10 22792.6 1033.69   1
   5   0 -10 21593.6 902.267   2
   5   0  -9 21462.9 775.031   3
   5   0  -9 19609.8 908.858   1
   5   0  -9 20172.9 834.230   2
   5   0  -8 22246.6 780.549   3
   5   0  -8 22705.4 927.058   1
   5   0  -7 86.8303 45.9830   3
   5   0  -7 131.887 72.4204   1
   5   0  -6 3174.77 288.516   3
   5   0  -6 2987.71 310.836   1
   5   0  -5 35.2435 44.0886   1
   5   0  -5 155.027 71.3987   3
   5   0  -4 170.613 70.3123   3
   5   0  -3 8275.49 463.945   3
   5   0  -2 2585.87 256.091   3
   5   0  -1 21590.5 769.745   3
   5   0   0 73828.1 1432.28   3
   5   0   1 48022.4 1169.22   3
   5   0   2 34948.9 1034.25   3
   5   0   3 8543.41 514.552   3
   5   0   4 866.301 164.504   3
   5   0   5 749.553 165.710   3
   5   0   6 938.449 189.414   3
   5   0   7 2485.35 308.048   3
   5   0   8 10394.6 655.663   3
   5   0   9 9996.47 667.179   3
   5   1 -16 2959.15 442.354   2
   5   1 -15 960.905 312.582   1
   5   1 -15 1062.10 258.424   2
   5   1 -14 3234.29 426.766   2
   5   1 -14 3586.71 505.192   1
   5   1 -13 342.456 167.035   1
   5   1 -13 29.6986 72.2878   2
   5   1 -12 135.424 99.4421   1
   5   1 -12-18.1558 71.2432   2
   5   1 -11 2471.35 319.983   2
   5   1 -11 2099.70 327.944   1
   5   1 -10 205.358 107.490   1
   5   1 -10 386.279 123.216   2
   5   1 -10 374.391 105.343   3
   5   1  -9 10337.8 517.637   3
   5   1  -9 9553.60 608.627   1
   5   1  -9 11347.5 641.780   2
   5   1  -8 14867.0 624.996   3
   5   1  -8 14548.9 720.382   1
   5   1  -7 24537.2 792.656   3
   5   1  -7 24926.5 888.390   1
   5   1  -6 25229.7 810.716   3
   5   1  -6 25391.9 863.903   1
   5   1  -5 33344.1 927.045   3
   5   1  -5 36000.9 958.270   1
   5   1  -4 756.539 141.286   3
   5   1  -4 657.396 125.021   1
   5   1  -3 1330.54 165.839   1
   5   1  -3 1211.31 183.630   3
   5   1  -2 3728.37 278.315   1
   5   1  -2 3517.65 313.352   3
   5   1  -1 2041.50 241.973   3
   5   1   0 25220.3 869.198   3
   5   1   1 17192.5 730.538   3
   5   1   2 23246.8 875.895   3
   5   1   3 55980.2 1392.52   3
   5   1   4 11873.4 660.019   3
   5   1   5 1091.23 202.965   3
   5   1   6 549.568 158.174   3
   5   1   7 1541.36 268.562   3
   5   1   8 2265.89 331.197   3
   5   1   9 1231.63 258.464   3
   5   2 -16 806.528 243.440   2
   5   2 -16 1173.21 301.496   1
   5   2 -15 1993.70 361.128   2
   5   2 -15 1499.41 336.129   1
   5   2 -14 5882.98 586.905   2
   5   2 -14 4701.00 574.830   1
   5   2 -13 6962.53 602.435   2
   5   2 -13 6402.11 598.499   1
   5   2 -12 9174.27 670.042   2
   5   2 -12 9454.88 692.221   1
   5   2 -11 24095.6 1039.89   1
   5   2 -11 22844.1 723.487   3
   5   2 -11 21587.9 989.339   2
   5   2 -10 2383.48 239.838   3
   5   2 -10 2713.02 333.542   1
   5   2 -10 2318.83 315.165   2
   5   2  -9 680.071 155.267   1
   5   2  -9 882.442 186.287   2
   5   2  -9 887.931 149.898   3
   5   2  -8 1514.77 197.213   3
   5   2  -8 1425.37 214.175   1
   5   2  -7 5467.94 377.004   3
   5   2  -7 5386.96 392.590   1
   5   2  -6 40007.8 1028.59   3
   5   2  -6 42923.4 1098.50   1
   5   2  -5 33370.9 872.954   1
   5   2  -5 34327.4 849.072   1
   5   2  -4 26967.6 723.398   1
   5   2  -4 26703.9 865.316   3
   5   2  -3 31120.9 780.988   1
   5   2  -3 32326.7 962.428   3
   5   2  -2 20562.5 776.685   3
   5   2  -2 20425.9 640.697   1
   5   2  -1 6477.50 449.211   3
   5   2   0 1490.03 215.657   3
   5   2   1 3495.85 356.882   3
   5   2   2 2674.15 311.723   3
   5   2   3 19654.7 878.385   3
   5   2   4 9856.12 643.161   3
   5   2   5 5531.71 493.990   3
   5   2   6 23417.3 1053.36   3
   5   2   7 8387.57 655.096   3
   5   2   8 4963.44 515.783   3
   5   2   9 2777.49 401.459   3
   5   3 -16 1247.43 313.132   2
   5   3 -16 516.449 234.257   1
   5   3 -15 394.918 186.227   1
   5   3 -15 32.7035 78.2494   2
   5   3 -14 4359.76 513.364   2
   5   3 -14 3255.34 457.459   1
   5   3 -13 1638.94 302.827   2
   5   3 -13 1578.83 297.725   1
   5   3 -12 10774.2 711.259   1
   5   3 -12 12375.3 804.013   2
   5   3 -11 31026.0 1141.67   1
   5   3 -11 29809.1 1194.89   2
   5   3 -10 6187.94 377.713   3
   5   3 -10 7287.19 563.377   2
   5   3 -10 5853.42 465.741   1
   5   3  -9 3624.91 298.156   3
   5   3  -9 3132.14 324.788   1
   5   3  -9 3618.01 383.022   2
   5   3  -8 9119.23 482.802   3
   5   3  -8 9122.98 512.320   1
   5   3  -8 8395.25 566.122   2
   5   3  -7 650.624 142.137   3
   5   3  -7 585.513 126.697   1
   5   3  -6 56.6701 51.8976   3
   5   3  -6 33.2354 50.2657   1
   5   3  -6 7.56151 45.9698   1
   5   3  -5 1119.91 142.698   1
   5   3  -5 1289.11 191.915   3
   5   3  -5 1106.40 149.818   1
   5   3  -4 22740.6 649.525   1
   5   3  -4 23511.2 844.046   3
   5   3  -3 24358.2 874.176   3
   5   3  -3 25614.6 677.396   1
   5   3  -2 18856.4 786.425   3
   5   3  -2 19357.7 624.088   1
   5   3  -1 6208.37 382.431   1
   5   3  -1 6542.01 478.686   3
   5   3   0 24069.7 938.124   3
   5   3   1 9243.44 597.865   3
   5   3   2 13156.7 728.423   3
   5   3   3 830.032 191.879   3
   5   3   4 467.862 155.574   3
   5   3   5 2081.63 317.290   3
   5   3   6 7066.12 621.924   3
   5   3   7 8921.00 717.192   3
   5   3   8 6279.57 624.139   3
   5   3   9 10115.2 814.480   3
   5   4 -16 10627.3 874.347   2
   5   4 -15 3143.20 469.186   2
   5   4 -15 2667.78 410.357   1
   5   4 -14 3120.40 448.003   2
   5   4 -14 2459.68 368.621   1
   5   4 -13 430.526 169.358   1
   5   4 -13 421.231 166.275   2
   5   4 -12 707.751 188.032   1
   5   4 -12 512.824 165.968   2
   5   4 -11 10758.2 636.890   1
   5   4 -11 9289.25 684.249   2
   5   4 -10 2746.66 302.982   1
   5   4 -10 3393.17 282.077   3
   5   4 -10 3680.52 414.473   2
   5   4  -9 11998.5 555.571   3
   5   4  -9 12422.4 727.711   2
   5   4  -9 12498.4 596.112   1
   5   4  -8 19631.6 736.017   3
   5   4  -8 18248.5 673.249   1
   5   4  -8 18314.3 865.117   2
   5   4  -7 5929.82 412.250   3
   5   4  -7 6262.75 360.531   1
   5   4  -7 6012.65 355.983   1
   5   4  -6 36088.1 1048.80   3
   5   4  -6 36027.0 821.971   1
   5   4  -5 48569.8 894.481   1
   5   4  -5 51383.9 1282.71   3
   5   4  -5 50888.2 953.775   1
   5   4  -4 12262.7 637.033   3
   5   4  -4 11812.2 432.785   1
   5   4  -3 376.498 128.317   3
   5   4  -3 327.554 78.6803   1
   5   4  -2 107.669 70.5222   1
   5   4  -2 162.968 94.1877   3
   5   4  -1 4017.04 314.470   1
   5   4  -1 4768.29 430.357   3
   5   4   0 11367.7 663.898   3
   5   4   1 17962.1 872.501   3
   5   4   2 13762.8 793.579   3
   5   4   3 25956.7 1126.44   3
   5   4   4 4130.85 464.490   3
   5   4   5 3029.37 410.672   3
   5   4   6-4.76166 71.6239   3
   5   4   7 447.784 188.076   3
   5   4   8 1213.92 302.657   3
   5   4   9 1968.23 401.724   3
   5   5 -15 1557.78 352.427   2
   5   5 -14 3061.99 448.095   2
   5   5 -13 6194.87 614.301   2
   5   5 -13 6607.22 557.987   1
   5   5 -12 5926.63 587.356   2
   5   5 -12 6279.16 505.799   1
   5   5 -11 11760.3 649.691   1
   5   5 -11 10196.1 731.946   2
   5   5 -10 2592.07 276.045   1
   5   5 -10 2331.36 239.885   3
   5   5 -10 2678.63 364.338   2
   5   5  -9 409.241 107.280   1
   5   5  -9 432.183 145.528   2
   5   5  -9 341.652 108.622   3
   5   5  -8 3808.01 335.462   3
   5   5  -8 3753.20 400.210   2
   5   5  -8 4059.56 284.496   1
   5   5  -7 2655.69 291.953   3
   5   5  -7 2369.25 196.051   1
   5   5  -6 4372.00 389.454   3
   5   5  -6 4141.39 238.576   1
   5   5  -6 3924.90 229.392   1
   5   5  -5 27695.6 989.048   3
   5   5  -5 27827.4 575.934   1
   5   5  -4 23691.4 555.691   1
   5   5  -4 24893.3 966.540   3
   5   5  -3 17582.6 533.953   1
   5   5  -3 19987.4 888.158   3
   5   5  -2 5542.81 334.816   1
   5   5  -2 5761.82 483.299   3
   5   5  -1 1007.27 210.625   3
   5   5   0 473.870 147.174   3
   5   5   1 521.544 156.916   3
   5   5   2 2587.54 372.189   3
   5   5   3 10914.4 779.175   3
   5   5   4 9696.65 758.079   3
   5   5   5 8939.70 752.265   3
   5   5   6 4975.99 576.712   3
   5   5   7 1061.46 282.066   3
   5   5   8 1244.16 339.038   3
   5   5   9 91.6350 183.479   3
   5   6 -15-53.3532 113.164   2
   5   6 -14 2016.60 381.856   2
   5   6 -13 3889.62 498.357   2
   5   6 -12 6919.31 646.194   2
   5   6 -11 13406.2 862.495   2
   5   6 -10 13746.2 655.026   3
   5   6 -10 12810.9 813.137   2
   5   6  -9 18017.9 738.315   3
   5   6  -9 19690.4 970.166   2
   5   6  -8 3120.90 326.942   3
   5   6  -8 2877.66 357.359   2
   5   6  -7 90.1841 84.8307   2
   5   6  -7-40.8097 45.3297   3
   5   6  -6 250.577 101.397   3
   5   6  -5 9310.99 609.615   3
   5   6  -4 11925.4 716.346   3
   5   6  -4 11554.6 297.456   1
   5   6  -3 4331.52 423.808   3
   5   6  -2 16511.9 860.326   3
   5   6  -1 5008.04 489.763   3
   5   6   0 5727.50 538.334   3
   5   6   1 5034.17 522.817   3
   5   6   2 5570.89 565.060   3
   5   6   3 538.660 190.286   3
   5   6   4 245.092 135.235   3
   5   6   5 741.999 251.536   3
   5   6   6 2249.30 411.541   3
   5   6   7 4104.34 570.567   3
   5   7 -14 327.470 160.793   2
   5   7 -13 825.394 244.895   2
   5   7 -12-38.0850 73.8695   2
   5   7 -11 2524.24 388.556   2
   5   7 -10 7324.10 633.335   2
   5   7  -9 8367.07 546.208   3
   5   7  -9 9842.32 711.690   2
   5   7  -8 15306.2 765.127   3
   5   7  -8 16412.7 888.222   2
   5   7  -7 3475.05 374.745   3
   5   7  -7 3174.81 371.903   2
   5   7  -6 6154.54 512.953   3
   5   7  -6 5676.84 491.888   2
   5   7  -5 520.392 162.328   3
   5   7  -4 10478.0 692.757   3
   5   7  -3 1241.94 246.075   3
   5   7  -2 1389.98 274.441   3
   5   7  -1 5268.88 530.829   3
   5   7   0 6216.31 587.813   3
   5   7   1 14285.2 935.535   3
   5   7   2 5869.97 612.291   3
   5   7   3 7697.65 743.892   3
   5   7   4 959.081 269.967   3
   5   7   5 377.709 164.704   3
   5   7   6-35.0366 149.792   3
   5   8 -14 2635.07 462.693   2
   5   8 -13 6102.24 654.498   2
   5   8 -12 4000.40 513.259   2
   5   8 -11 1151.12 269.835   2
   5   8 -10 513.860 171.523   2
   5   8  -9-44.3007 88.4551   2
   5   8  -9 38.3664 65.9265   3
   5   8  -8 1599.95 265.861   3
   5   8  -8 1750.86 299.165   2
   5   8  -7 3005.78 373.109   3
   5   8  -7 4479.42 463.754   2
   5   8  -6 2637.45 354.193   3
   5   8  -6 3419.74 392.925   2
   5   8  -5 15762.8 889.156   3
   5   8  -5 16098.2 831.646   2
   5   8  -4 11645.7 771.023   3
   5   8  -4 13071.0 730.934   2
   5   8  -3 12629.5 828.232   3
   5   8  -2 4409.07 497.998   3
   5   8  -1 2021.71 353.913   3
   5   8   0 122.076 95.4684   3
   5   8   1 799.040 216.626   3
   5   8   2 1397.70 323.503   3
   5   8   3 7499.37 767.265   3
   5   8   4 6224.45 726.539   3
   5   9 -13 2674.79 443.778   2
   5   9 -12 3763.17 512.992   2
   5   9 -11 8223.34 732.991   2
   5   9 -10 8916.38 745.040   2
   5   9  -9 8252.41 619.045   3
   5   9  -9 8143.91 680.484   2
   5   9  -8 995.555 226.394   3
   5   9  -8 2172.85 353.660   2
   5   9  -7 67.7631 73.5130   2
   5   9  -7 257.494 147.293   3
   5   9  -6 491.880 170.693   2
   5   9  -6 728.055 215.696   3
   5   9  -5 3023.08 404.129   3
   5   9  -5 3840.46 417.603   2
   5   9  -4 5310.20 552.991   3
   5   9  -4 3811.84 408.900   2
   5   9  -3 5893.70 601.326   3
   5   9  -3 5230.28 459.475   2
   5   9  -2 7315.59 689.118   3
   5   9  -1 3944.41 512.028   3
   5   9   0 3515.55 500.132   3
   5   9   1 423.480 200.518   3
   5   9   2-7.55181 97.3015   3
   5  10 -12 531.155 213.481   2
   5  10 -11 493.753 199.916   2
   5  10 -10 3888.52 508.382   2
   5  10  -9 5195.60 572.135   2
   5  10  -8 6919.46 616.684   3
   5  10  -8 6470.91 608.963   2
   5  10  -7 3809.50 475.905   3
   5  10  -7 4132.62 477.958   2
   5  10  -6 6732.09 642.117   3
   5  10  -6 6957.24 601.029   2
   5  10  -5 2664.04 400.588   3
   5  10  -5 2587.35 355.247   2
   5  10  -4 242.000 147.081   3
   5  10  -3 146.505 163.429   3
   5  10  -2-92.6205 116.728   3
   5  10  -1 308.670 138.968   3
   5  10   0 2030.96 398.429   3
   5  11 -11 722.062 258.075   2
   5  11 -10 106.245 140.999   2
   5  11  -9-182.011 156.230   2
   5  11  -8 5.80284 90.2984   2
   5  11  -7 1763.55 323.044   2
   5  11  -7 1442.99 315.302   3
   5  11  -6 731.652 240.326   3
   5  11  -5 4425.38 551.374   3
   5  11  -4 2169.89 395.988   3
   5  11  -3 1642.21 370.991   3
   5  11  -2 263.255 177.960   3
   5  12 -10 2969.72 470.051   2
   5  12  -9 3257.68 478.633   2
   5  12  -7 275.135 159.772   3
   5  12  -6 24.7186 95.6844   3
   5  12  -5 415.453 213.273   3
   5  12  -4 2871.23 506.992   3
   6 -13  -2 1638.85 345.307   1
   6 -13  -1 294.966 172.796   1
   6 -13   0 83.3397 144.051   1
   6 -12  -6 96.6676 144.555   1
   6 -12  -5 797.692 275.297   1
   6 -12  -4 3104.63 484.851   1
   6 -12  -3 2526.91 415.192   1
   6 -12  -2 4253.34 525.743   1
   6 -12  -1 5037.61 593.133   1
   6 -12   0 2886.10 425.448   1
   6 -12   1 421.529 167.714   1
   6 -11  -7 4322.81 592.288   1
   6 -11  -6 3602.29 524.917   1
   6 -11  -5 842.513 273.665   1
   6 -11  -4 72.4599 112.204   1
   6 -11  -3 169.863 134.447   1
   6 -11  -2 3154.30 470.853   1
   6 -11  -1 4344.36 505.536   1
   6 -11   0 1263.28 276.075   1
   6 -10  -8 1587.39 361.807   1
   6 -10  -7 5285.49 631.774   1
   6 -10  -6 8912.46 787.887   1
   6 -10  -5 3449.12 472.730   1
   6 -10  -4 5642.55 607.656   1
   6 -10  -3 4681.51 557.546   1
   6 -10  -2 93.0824 98.2990   1
   6 -10  -1 2326.71 361.982   1
   6  -9  -9 219.905 155.783   1
   6  -9  -8 498.065 215.691   1
   6  -9  -7-23.7552 73.1903   1
   6  -9  -6 195.534 112.844   1
   6  -9  -5 2640.90 401.440   1
   6  -9  -4 6771.66 642.792   1
   6  -9  -3 9748.52 747.891   1
   6  -9  -2 11734.4 798.763   1
   6  -9   4 100.411 73.6548   3
   6  -9   5 783.080 194.328   3
   6  -9   6 5892.77 481.637   3
   6  -8 -10 3773.99 551.617   1
   6  -8  -9 3549.54 526.235   1
   6  -8  -8 4550.05 567.369   1
   6  -8  -7 3717.67 500.241   1
   6  -8  -6 1847.61 348.064   1
   6  -8  -5 1025.48 262.022   1
   6  -8  -4 77.8758 68.6957   1
   6  -8  -3 493.865 181.750   1
   6  -8  -2 422.240 164.468   1
   6  -8   0 10110.0 675.178   3
   6  -8   1 26069.4 1055.65   3
   6  -8   2 6295.61 510.796   3
   6  -8   3 2398.67 308.642   3
   6  -8   4 2941.79 336.438   3
   6  -8   5 1218.54 216.252   3
   6  -8   6 288.698 123.956   3
   6  -8   7 767.382 178.499   3
   6  -7 -11 213.979 153.797   1
   6  -7 -10 300.340 179.307   1
   6  -7  -9 909.611 258.623   1
   6  -7  -8 1517.74 317.540   1
   6  -7  -7 10338.6 797.141   1
   6  -7  -6 15060.1 919.076   1
   6  -7  -5 16540.8 978.457   1
   6  -7  -4 13964.8 831.274   1
   6  -7  -3 12086.8 758.544   1
   6  -7  -3 11586.4 721.216   3
   6  -7  -2 463.873 156.554   3
   6  -7  -1 172.812 101.418   3
   6  -7   0 3637.20 385.265   3
   6  -7   1 1107.56 213.839   3
   6  -7   2 22551.9 930.477   3
   6  -7   3 35447.4 1149.65   3
   6  -7   4 37501.4 1152.88   3
   6  -7   5 19723.3 833.415   3
   6  -7   6 14806.3 712.328   3
   6  -7   7 2192.39 278.103   3
   6  -7   8 1818.71 247.802   3
   6  -6 -12 6786.72 752.190   1
   6  -6 -11 5356.04 644.609   1
   6  -6 -10 438.411 211.003   1
   6  -6  -9 4966.99 563.717   1
   6  -6  -8 3534.90 470.343   1
   6  -6  -7 1585.86 301.425   1
   6  -6  -6 4115.49 472.096   1
   6  -6  -5 5272.06 514.206   1
   6  -6  -4 24201.2 1061.11   1
   6  -6  -4 24971.6 1047.91   3
   6  -6  -3 13171.7 730.305   3
   6  -6  -2 10019.7 634.624   3
   6  -6  -1 10156.0 626.680   3
   6  -6   0 17748.8 807.914   3
   6  -6   1 1307.68 220.811   3
   6  -6   2 5327.86 433.661   3
   6  -6   3 299.036 102.559   3
   6  -6   4 1520.48 230.273   3
   6  -6   5 13022.4 666.802   3
   6  -6   6 13483.2 680.981   3
   6  -6   7 4711.84 402.895   3
   6  -6   8 12239.8 640.074   3
   6  -5 -12 1933.24 398.124   1
   6  -5 -11 5575.68 639.677   1
   6  -5 -10 5254.32 589.642   1
   6  -5  -9 12924.0 881.710   1
   6  -5  -9 12987.6 599.270   2
   6  -5  -8 12425.0 830.778   1
   6  -5  -7 9612.93 710.566   1
   6  -5  -6 18988.8 996.383   1
   6  -5  -6 17312.5 883.208   3
   6  -5  -5 1464.48 262.816   1
   6  -5  -5 1620.55 266.202   3
   6  -5  -4 822.603 183.355   1
   6  -5  -4 356.109 129.042   3
   6  -5  -3 2564.30 316.665   3
   6  -5  -2 1623.60 242.074   3
   6  -5  -1 19143.8 825.106   3
   6  -5   0 24263.2 913.365   3
   6  -5   1 37375.3 1126.22   3
   6  -5   2 18723.0 790.578   3
   6  -5   3 12694.6 650.564   3
   6  -5   4 1783.88 245.636   3
   6  -5   5-9.31834 47.7630   3
   6  -5   6 307.168 102.247   3
   6  -5   7 7222.20 491.543   3
   6  -5   8 6077.46 450.016   3
   6  -4 -13 3362.78 530.352   1
   6  -4 -12 4631.19 587.698   1
   6  -4 -11 885.047 257.981   1
   6  -4 -10 686.439 212.518   1
   6  -4 -10 883.460 171.470   2
   6  -4  -9 1602.16 296.611   1
   6  -4  -9 1565.15 217.771   2
   6  -4  -8 26.9907 48.7640   1
   6  -4  -7 3431.10 410.363   1
   6  -4  -7 4034.17 417.228   3
   6  -4  -6 13877.5 819.754   1
   6  -4  -6 12004.8 701.055   3
   6  -4  -5 30723.3 1134.91   1
   6  -4  -5 31468.3 1120.03   3
   6  -4  -4 15319.4 743.157   3
   6  -4  -3 10289.8 605.728   3
   6  -4  -2 857.364 170.380   3
   6  -4  -1 2085.77 263.486   3
   6  -4   0 2466.04 286.126   3
   6  -4   1 6626.78 463.448   3
   6  -4   2 23681.8 880.071   3
   6  -4   3 22113.0 861.165   3
   6  -4   4 11511.3 621.455   3
   6  -4   5 9816.05 577.597   3
   6  -4   6 4763.51 406.030   3
   6  -4   7 5085.78 424.494   3
   6  -4   8 1101.28 205.204   3
   6  -3 -13 3284.05 501.517   1
   6  -3 -12 7981.81 735.376   1
   6  -3 -11 15628.9 996.538   1
   6  -3 -11 17281.7 801.236   2
   6  -3 -10 4602.77 502.471   1
   6  -3 -10 4374.18 389.152   2
   6  -3  -9 2625.70 374.468   1
   6  -3  -9 1992.17 252.301   2
   6  -3  -8 2644.27 332.618   3
   6  -3  -8 2844.17 378.872   1
   6  -3  -7 7085.70 536.480   3
   6  -3  -7 7387.99 588.987   1
   6  -3  -6 7285.42 556.302   1
   6  -3  -6 7598.95 535.649   3
   6  -3  -5 7895.82 551.615   1
   6  -3  -5 8594.67 555.118   3
   6  -3  -4 24950.1 923.642   3
   6  -3  -3 31628.6 1024.70   3
   6  -3  -2 60182.4 1390.93   3
   6  -3  -1 14175.4 666.950   3
   6  -3   0 17138.5 742.607   3
   6  -3   1 41.6931 39.3710   3
   6  -3   2 253.787 92.4906   3
   6  -3   3 3624.55 346.690   3
   6  -3   4 5543.23 440.195   3
   6  -3   5 9427.98 571.894   3
   6  -3   6 12551.6 675.954   3
   6  -3   7 17364.9 807.852   3
   6  -3   8 20870.5 895.291   3
   6  -2 -14-90.8830 105.430   1
   6  -2 -13 281.891 183.735   1
   6  -2 -13 171.450 122.048   2
   6  -2 -12 3782.40 409.983   2
   6  -2 -12 4338.59 535.130   1
   6  -2 -11 8403.94 710.692   1
   6  -2 -11 7897.83 560.620   2
   6  -2 -10 12430.1 815.763   1
   6  -2 -10 9982.55 599.928   2
   6  -2  -9 17303.1 819.980   3
   6  -2  -9 16407.0 908.519   1
   6  -2  -9 16640.9 749.492   2
   6  -2  -8 19993.9 871.782   3
   6  -2  -8 17752.1 904.965   1
   6  -2  -7 10415.5 616.244   3
   6  -2  -7 11167.4 709.196   1
   6  -2  -6 11909.1 679.047   1
   6  -2  -6 11493.9 636.939   3
   6  -2  -5 3859.73 376.762   1
   6  -2  -5 4556.79 391.259   3
   6  -2  -4 2167.88 265.612   3
   6  -2  -3 9967.70 554.870   3
   6  -2  -2 19047.6 778.237   3
   6  -2  -1 5946.28 428.107   3
   6  -2   0 24823.4 882.148   3
   6  -2   1 21164.1 832.381   3
   6  -2   2 18959.5 791.410   3
   6  -2   3 23466.0 886.135   3
   6  -2   4 3723.96 356.869   3
   6  -2   5 536.387 137.421   3
   6  -2   6 484.461 140.852   3
   6  -2   7 10116.4 628.428   3
   6  -2   8 8028.03 571.374   3
   6  -2   9 7244.26 550.320   3
   6  -1 -15 1841.67 398.727   1
   6  -1 -14 5391.90 542.864   2
   6  -1 -14 7633.39 758.891   1
   6  -1 -13 3968.83 519.496   1
   6  -1 -13 2866.43 382.067   2
   6  -1 -12 1150.94 271.509   1
   6  -1 -12 1081.36 226.362   2
   6  -1 -11-0.66887 70.5383   1
   6  -1 -11-11.2330 74.4629   2
   6  -1 -10 843.112 214.521   1
   6  -1 -10 884.122 185.843   2
   6  -1 -10 1166.71 210.889   3
   6  -1  -9 951.133 220.751   1
   6  -1  -9 1631.18 249.894   3
   6  -1  -8 7256.55 503.188   3
   6  -1  -8 5066.80 472.193   1
   6  -1  -7 13208.3 672.961   3
   6  -1  -7 14253.2 783.668   1
   6  -1  -6 33664.3 1050.85   3
   6  -1  -6 31577.5 1069.43   1
   6  -1  -5 36308.8 1067.66   3
   6  -1  -4 19017.6 779.324   3
   6  -1  -3 2752.78 288.181   3
   6  -1  -2 381.103 107.671   3
   6  -1  -1 50.8143 66.0407   3
   6  -1   0 4327.63 376.687   3
   6  -1   1 17146.9 754.317   3
   6  -1   2 23073.0 901.009   3
   6  -1   3 55459.3 1414.84   3
   6  -1   4 7170.63 520.885   3
   6  -1   5 10519.7 642.406   3
   6  -1   6 7439.34 550.980   3
   6  -1   7 6675.40 536.081   3
   6  -1   8 203.448 100.484   3
   6  -1   9 214.624 125.580   3
   6   0 -15 2086.15 411.164   1
   6   0 -15 1373.54 301.682   2
   6   0 -14 3425.25 436.223   2
   6   0 -14 3449.96 501.536   1
   6   0 -13 5268.38 519.606   2
   6   0 -13 4743.29 560.483   1
   6   0 -12 10709.0 792.246   1
   6   0 -12 8690.44 637.637   2
   6   0 -11 18133.2 778.837   3
   6   0 -11 19291.4 1013.24   1
   6   0 -11 20627.2 943.896   2
   6   0 -10 5310.06 428.816   3
   6   0 -10 5720.90 526.602   1
   6   0 -10 5442.23 470.696   2
   6   0  -9 6636.47 474.163   3
   6   0  -9 5701.54 505.413   1
   6   0  -8 1601.17 235.733   3
   6   0  -8 1768.86 262.402   1
   6   0  -7 1768.58 245.719   3
   6   0  -7 2290.86 311.373   1
   6   0  -6 7236.81 480.063   3
   6   0  -6 7376.57 499.409   1
   6   0  -5 18667.7 773.187   3
   6   0  -4 22642.1 839.317   3
   6   0  -3 41471.4 1144.87   3
   6   0  -2 15578.4 703.360   3
   6   0  -1 11092.0 609.494   3
   6   0   0 11990.5 648.906   3
   6   0   1 2617.47 305.311   3
   6   0   2-14.2097 55.8805   3
   6   0   3 694.619 161.100   3
   6   0   4 16489.3 812.396   3
   6   0   5 7407.28 562.733   3
   6   0   6 4963.65 471.243   3
   6   0   7 1650.85 275.646   3
   6   0   8 5497.46 527.415   3
   6   0   9 3665.86 442.300   3
   6   1 -16 2023.50 380.742   2
   6   1 -15 81.9102 85.0209   1
   6   1 -15 44.9154 91.2717   2
   6   1 -14 453.685 199.536   1
   6   1 -14 620.337 195.976   2
   6   1 -13 519.694 199.042   1
   6   1 -13 255.851 113.250   2
   6   1 -12 2825.46 373.295   2
   6   1 -12 2422.98 371.150   1
   6   1 -11 8507.13 511.715   3
   6   1 -11 9593.14 692.952   1
   6   1 -11 8637.21 631.480   2
   6   1 -10 11394.9 598.021   3
   6   1 -10 11074.4 706.535   1
   6   1 -10 11926.7 713.092   2
   6   1  -9 21708.0 850.542   3
   6   1  -9 18664.0 897.751   1
   6   1  -8 19312.7 791.208   3
   6   1  -8 17821.1 820.212   1
   6   1  -7 2870.38 301.452   3
   6   1  -7 2947.83 335.793   1
   6   1  -6 2284.90 269.032   3
   6   1  -6 2180.21 265.681   1
   6   1  -5 840.015 165.091   3
   6   1  -4 1717.20 237.623   3
   6   1  -3 5370.80 420.325   3
   6   1  -2 7253.06 500.604   3
   6   1  -1 23843.1 906.190   3
   6   1   0 45551.7 1286.40   3
   6   1   1 7393.76 528.091   3
   6   1   2 22347.1 942.906   3
   6   1   3 17448.1 850.694   3
   6   1   4 153.603 101.899   3
   6   1   5 913.645 202.917   3
   6   1   6 2807.84 380.754   3
   6   1   7 8096.63 646.596   3
   6   1   8 4621.07 500.925   3
   6   1   9 6811.62 636.430   3
   6   2 -16 5050.98 596.907   2
   6   2 -16 5295.32 653.808   1
   6   2 -15 3740.60 483.188   2
   6   2 -15 2861.81 447.335   1
   6   2 -14 3107.06 442.322   2
   6   2 -14 3776.75 499.114   1
   6   2 -13 3024.75 420.799   1
   6   2 -13 3553.45 443.680   2
   6   2 -12 4546.56 487.249   1
   6   2 -12 4191.80 465.050   2
   6   2 -11 105.538 85.4720   1
   6   2 -11 125.217 97.9976   2
   6   2 -11 197.050 92.1054   3
   6   2 -10 6899.12 461.384   3
   6   2 -10 6029.57 503.363   1
   6   2 -10 6420.77 537.742   2
   6   2  -9 4433.88 375.166   3
   6   2  -9 3572.50 372.964   1
   6   2  -8 14646.9 688.160   3
   6   2  -8 13728.1 686.831   1
   6   2  -7 5574.00 419.734   3
   6   2  -7 5175.88 418.904   1
   6   2  -6 17334.2 756.824   3
   6   2  -6 16668.1 703.389   1
   6   2  -5 28134.8 955.196   3
   6   2  -4 15634.7 735.475   3
   6   2  -3 3214.76 333.263   3
   6   2  -2 2766.80 321.509   3
   6   2  -1 3165.44 345.135   3
   6   2   0 3633.82 379.443   3
   6   2   1 9426.59 623.130   3
   6   2   2 14346.4 788.202   3
   6   2   3 23193.2 1027.43   3
   6   2   4 4070.23 443.872   3
   6   2   5 14503.9 854.793   3
   6   2   6 5586.41 551.229   3
   6   2   7 53.9657 64.4756   3
   6   2   8 209.869 147.416   3
   6   2   9 208.386 129.885   3
   6   3 -16 270.132 153.706   2
   6   3 -16 334.739 181.463   1
   6   3 -15 1556.38 341.850   1
   6   3 -15 1249.91 296.776   2
   6   3 -14 6744.91 647.059   2
   6   3 -14 5455.43 571.243   1
   6   3 -13 8437.47 677.173   1
   6   3 -13 8132.18 692.288   2
   6   3 -12 15936.5 878.387   1
   6   3 -12 16838.1 958.314   2
   6   3 -11 5970.43 406.987   3
   6   3 -11 5021.96 509.448   2
   6   3 -10 2209.26 257.386   3
   6   3 -10 2247.25 296.323   1
   6   3 -10 2090.79 316.223   2
   6   3  -9 1653.51 236.342   3
   6   3  -9 1204.48 203.051   1
   6   3  -9 1084.72 228.377   2
   6   3  -8 201.315 87.1886   1
   6   3  -8 284.253 86.0696   3
   6   3  -7 1108.90 196.039   3
   6   3  -7 982.574 169.388   1
   6   3  -6 1154.66 201.692   3
   6   3  -6 1361.55 191.643   1
   6   3  -5 56670.9 1430.35   3
   6   3  -4 50556.5 1364.30   3
   6   3  -3 45691.9 1324.37   3
   6   3  -2 8832.07 593.152   3
   6   3  -1 4742.69 442.965   3
   6   3   0 3803.05 404.258   3
   6   3   1 2954.03 366.812   3
   6   3   2 512.558 162.132   3
   6   3   3 2115.98 328.906   3
   6   3   4 10369.6 746.018   3
   6   3   5 7021.95 632.117   3
   6   3   6 12163.7 859.764   3
   6   3   7 5662.18 603.193   3
   6   3   8 5004.06 593.228   3
   6   3   9 1415.73 323.046   3
   6   4 -15 462.842 191.143   2
   6   4 -14 310.427 175.836   1
   6   4 -14 74.2218 92.1380   2
   6   4 -13 1853.36 306.159   1
   6   4 -13 2314.18 376.635   2
   6   4 -12 2416.41 328.206   1
   6   4 -12 2705.95 395.149   2
   6   4 -11 11512.5 671.238   1
   6   4 -11 12113.2 802.358   2
   6   4 -10 12874.8 629.599   3
   6   4 -10 11983.6 763.220   2
   6   4 -10 13088.0 672.681   1
   6   4  -9 24395.7 887.565   3
   6   4  -9 25189.7 881.171   1
   6   4  -9 23018.6 1050.26   2
   6   4  -8 13936.4 696.194   3
   6   4  -8 12722.2 587.084   1
   6   4  -7 2996.13 322.893   3
   6   4  -7 3205.57 283.932   1
   6   4  -6 3845.35 382.609   3
   6   4  -6 3866.18 305.122   1
   6   4  -5 9952.67 622.596   3
   6   4  -5 8380.62 425.294   1
   6   4  -4 1466.84 242.491   3
   6   4  -4 976.124 153.978   1
   6   4  -3 3181.09 358.444   3
   6   4  -2 18318.0 888.252   3
   6   4  -1 10232.1 676.616   3
   6   4   0 11197.8 721.398   3
   6   4   1 3434.81 416.441   3
   6   4   2 6857.73 612.140   3
   6   4   3 6088.03 589.671   3
   6   4   4 2445.23 385.370   3
   6   4   5 150.418 132.699   3
   6   4   6 754.380 235.381   3
   6   4   7 1164.37 292.803   3
   6   4   8 4046.81 555.911   3
   6   5 -15 2550.18 441.007   2
   6   5 -14 1744.52 347.058   2
   6   5 -13 2713.70 432.245   2
   6   5 -12 816.828 251.000   2
   6   5 -11-75.3746 104.820   2
   6   5 -10 264.693 94.3645   1
   6   5 -10 329.174 143.160   2
   6   5 -10 511.465 135.154   3
   6   5  -9 5023.02 428.896   3
   6   5  -9 4690.53 478.963   2
   6   5  -9 4630.89 344.486   1
   6   5  -8 21961.5 898.115   3
   6   5  -8 23069.8 714.044   1
   6   5  -7 3454.41 372.829   3
   6   5  -7 3495.49 267.841   1
   6   5  -6 4512.89 431.250   3
   6   5  -6 4446.33 291.066   1
   6   5  -5 8736.30 607.443   3
   6   5  -5 9113.58 416.401   1
   6   5  -4 1669.83 276.971   3
   6   5  -3 2995.32 373.520   3
   6   5  -2 142.996 91.9261   3
   6   5  -1 2260.02 339.996   3
   6   5   0 7814.54 638.548   3
   6   5   1 7215.15 628.435   3
   6   5   2 12254.5 846.273   3
   6   5   3 14271.2 943.925   3
   6   5   4 8413.13 752.086   3
   6   5   5 246.753 154.303   3
   6   5   6 94.8610 125.932   3
   6   5   7 29.7897 126.743   3
   6   6 -14 2481.06 422.387   2
   6   6 -13 6177.32 650.831   2
   6   6 -12 8338.08 731.556   2
   6   6 -11 6316.93 612.036   2
   6   6 -10 6019.43 466.238   3
   6   6 -10 6752.12 609.493   2
   6   6  -9 1158.05 243.265   2
   6   6  -9 1162.96 206.085   3
   6   6  -8 75.1530 97.3893   2
   6   6  -8 73.6254 82.2848   3
   6   6  -7 885.836 194.242   3
   6   6  -6 14671.2 816.277   3
   6   6  -5 21991.4 1018.09   3
   6   6  -4 5148.06 497.285   3
   6   6  -3 15935.9 891.417   3
   6   6  -2 13745.0 848.336   3
   6   6  -1 8042.97 667.818   3
   6   6   0 5788.13 574.731   3
   6   6   1 165.266 140.794   3
   6   6   2 418.732 189.342   3
   6   6   3 4327.11 548.796   3
   6   6   4 5561.63 640.245   3
   6   6   5 3289.20 513.188   3
   6   6   6 4136.22 596.477   3
   6   7 -14-136.394 136.758   2
   6   7 -13 1063.92 296.392   2
   6   7 -12 2804.18 443.123   2
   6   7 -11 11652.9 855.946   2
   6   7 -10 9734.08 753.736   2
   6   7  -9 8021.20 596.590   3
   6   7  -9 8511.96 682.756   2
   6   7  -8 6303.19 539.060   3
   6   7  -8 5970.99 555.704   2
   6   7  -7 2000.09 309.771   3
   6   7  -7 1669.27 297.814   2
   6   7  -6 390.991 150.367   3
   6   7  -5 593.744 187.290   3
   6   7  -4 270.579 125.673   3
   6   7  -3 5245.11 543.088   3
   6   7  -2 6800.10 633.802   3
   6   7  -1 4079.79 491.164   3
   6   7   0 9164.10 756.342   3
   6   7   1 1848.15 353.669   3
   6   7   2 1899.31 375.511   3
   6   7   3 1790.53 384.567   3
   6   7   4 284.216 181.853   3
   6   8 -13 452.313 230.123   2
   6   8 -12 459.358 188.111   2
   6   8 -11 145.693 126.372   2
   6   8 -10 287.310 141.189   2
   6   8  -9 4681.12 480.931   3
   6   8  -9 3935.95 486.879   2
   6   8  -8 10654.4 743.880   3
   6   8  -8 10824.5 775.841   2
   6   8  -7 7158.58 607.187   3
   6   8  -7 6194.67 561.520   2
   6   8  -6 5926.17 566.825   3
   6   8  -6 7583.56 619.850   2
   6   8  -5 11118.8 790.476   3
   6   8  -5 11523.3 747.588   2
   6   8  -4 3275.79 442.953   3
   6   8  -3 2152.30 370.390   3
   6   8  -2 16.5299 66.8808   3
   6   8  -1 273.409 153.737   3
   6   8   0 3784.00 514.778   3
   6   8   1 2340.77 423.149   3
   6   8   2 3441.32 523.346   3
   6   9 -12 2031.02 401.298   2
   6   9 -11 2231.96 401.487   2
   6   9 -10 1610.59 317.796   2
   6   9  -9 1030.83 268.902   2
   6   9  -8 419.312 172.936   2
   6   9  -8 133.983 77.7473   3
   6   9  -7 91.9696 79.0671   2
   6   9  -7 68.0689 123.861   3
   6   9  -6 668.498 194.259   2
   6   9  -6 671.637 210.420   3
   6   9  -5 3148.20 449.486   3
   6   9  -5 4374.79 477.223   2
   6   9  -4 8386.27 739.284   3
   6   9  -4 8521.66 645.059   2
   6   9  -3 2752.35 439.758   3
   6   9  -2 2129.75 391.524   3
   6   9  -1 1020.15 281.003   3
   6   9   0 8.15898 103.763   3
   6   9   1 613.110 248.814   3
   6  10 -11 3428.63 509.114   2
   6  10 -10 5885.72 642.188   2
   6  10  -9 3626.25 491.976   2
   6  10  -8 3694.28 480.062   3
   6  10  -8 4647.67 540.562   2
   6  10  -7 472.838 176.615   2
   6  10  -7 903.512 253.363   3
   6  10  -6 94.2069 102.990   2
   6  10  -6 192.858 120.733   3
   6  10  -5 673.607 220.660   3
   6  10  -4 2750.07 497.651   3
   6  10  -3 1451.09 341.371   3
   6  10  -2 2693.93 471.997   3
   6  11 -10 366.977 242.045   2
   6  11  -9 1991.38 392.098   2
   6  11  -8 7335.32 705.306   2
   6  11  -7 2143.04 412.222   3
   6  11  -6 1295.45 336.458   3
   6  11  -5 1212.86 323.879   3
   6  11  -4 1311.48 356.558   3
   7 -13  -4 906.661 293.407   1
   7 -13  -3 230.301 146.853   1
   7 -13  -2 216.432 187.140   1
   7 -13  -1 331.936 202.512   1
   7 -13   0 5249.45 628.175   1
   7 -13   1 5548.88 622.307   1
   7 -12  -6 3161.40 522.851   1
   7 -12  -5 6784.79 744.096   1
   7 -12  -4 4674.63 596.158   1
   7 -12  -3 3020.79 486.841   1
   7 -12  -2 1854.85 407.366   1
   7 -12  -1 88.9631 128.819   1
   7 -12   0 54.6275 127.921   1
   7 -11  -7 673.285 236.535   1
   7 -11  -6 32.3040 136.238   1
   7 -11  -5-67.6581 119.901   1
   7 -11  -4 81.8328 96.0616   1
   7 -11  -3 3812.29 552.703   1
   7 -11  -2 3501.44 502.329   1
   7 -11  -1 3908.06 507.027   1
   7 -10  -8 2334.21 453.727   1
   7 -10  -7 4403.83 601.706   1
   7 -10  -6 1626.06 392.754   1
   7 -10  -5 2728.79 449.609   1
   7 -10  -4 1226.19 339.079   1
   7 -10  -3 247.254 194.772   1
   7 -10  -2-15.1837 90.0327   1
   7  -9  -9 213.823 159.814   1
   7  -9  -8 161.874 110.444   1
   7  -9  -7 3799.58 538.885   1
   7  -9  -6 7402.77 730.133   1
   7  -9  -5 11612.9 895.489   1
   7  -9  -4 14879.8 992.937   1
   7  -9  -3 7030.56 655.048   1
   7  -9  -2 3948.11 491.274   1
   7  -9   0 1.22851 52.4235   3
   7  -9   1 3423.91 429.477   3
   7  -9   2 1953.64 326.420   3
   7  -9   3 2586.51 356.585   3
   7  -9   4 6819.89 561.168   3
   7  -9   5 5600.94 502.664   3
   7  -9   6 4694.31 458.518   3
   7  -9   7 8908.81 608.144   3
   7  -8 -10 3682.61 560.125   1
   7  -8  -9 3208.27 511.731   1
   7  -8  -8 226.729 135.840   1
   7  -8  -7 439.086 180.739   1
   7  -8  -6 59.4087 76.8972   1
   7  -8  -5 859.448 251.664   1
   7  -8  -4 2774.08 409.195   1
   7  -8  -3 5451.89 565.228   1
   7  -8  -2 5738.73 540.035   3
   7  -8  -1 12231.2 779.065   3
   7  -8   0 7045.27 578.322   3
   7  -8   1 3101.73 380.330   3
   7  -8   2 7734.71 604.078   3
   7  -8   3 1635.24 284.645   3
   7  -8   4 637.822 175.899   3
   7  -8   5 1451.80 259.280   3
   7  -8   6 4604.49 451.949   3
   7  -8   7 18449.5 881.639   3
   7  -7 -11 2683.25 476.346   1
   7  -7 -10 4649.58 601.786   1
   7  -7  -9 472.091 207.235   1
   7  -7  -8 4203.75 533.306   1
   7  -7  -7 9000.92 771.114   1
   7  -7  -6 11697.5 872.118   1
   7  -7  -5 11807.2 834.541   1
   7  -7  -4 3761.45 450.215   1
   7  -7  -4 3208.99 404.915   3
   7  -7  -3 108.036 104.060   3
   7  -7  -2 2704.55 350.877   3
   7  -7  -1 1837.79 296.688   3
   7  -7   0 4562.24 456.916   3
   7  -7   1 16046.7 834.153   3
   7  -7   2 44954.5 1385.94   3
   7  -7   3 23983.6 1008.34   3
   7  -7   4 7229.90 551.002   3
   7  -7   5 4990.31 457.393   3
   7  -7   6 1787.23 273.372   3
   7  -7   7 983.746 211.347   3
   7  -6 -11 1128.42 312.832   1
   7  -6 -10 1506.25 349.695   1
   7  -6  -9 1287.92 304.260   1
   7  -6  -8 657.591 220.019   1
   7  -6  -7 5300.28 568.251   1
   7  -6  -6 15421.7 950.105   1
   7  -6  -6 14731.2 871.835   3
   7  -6  -5 20063.7 1033.85   1
   7  -6  -5 22482.6 1051.44   3
   7  -6  -4 20155.8 1002.78   1
   7  -6  -4 20305.6 986.207   3
   7  -6  -3 6569.77 553.198   3
   7  -6  -2 8265.76 603.108   3
   7  -6  -1 1556.24 255.293   3
   7  -6   0 1748.36 278.839   3
   7  -6   1 10894.3 668.031   3
   7  -6   2 8818.28 599.898   3
   7  -6   3 6192.51 504.060   3
   7  -6   4 7761.19 560.872   3
   7  -6   5 11252.4 672.512   3
   7  -6   6 3966.68 404.789   3
   7  -6   7 3786.30 398.447   3
   7  -6   8 4598.87 429.382   3
   7  -5 -12 6500.98 715.896   1
   7  -5 -11 8742.47 805.797   1
   7  -5 -10 11613.2 876.126   1
   7  -5  -9 8654.88 735.425   1
   7  -5  -9 9030.58 537.227   2
   7  -5  -8 2011.16 350.683   1
   7  -5  -7 66.2762 74.3066   3
   7  -5  -7 8.76429 95.6145   1
   7  -5  -6 82.8495 114.556   1
   7  -5  -6 86.4347 92.3571   3
   7  -5  -5 3516.68 419.950   1
   7  -5  -5 4369.69 453.377   3
   7  -5  -4 6029.53 514.196   3
   7  -5  -3 19820.9 919.010   3
   7  -5  -2 4441.01 425.176   3
   7  -5  -1 12525.6 708.755   3
   7  -5   0 8062.01 567.532   3
   7  -5   1 6694.15 516.750   3
   7  -5   2 5503.86 463.758   3
   7  -5   3 10018.0 627.985   3
   7  -5   4 31.4880 45.6903   3
   7  -5   5 2855.16 338.522   3
   7  -5   6 6356.83 506.785   3
   7  -5   7 9472.88 628.768   3
   7  -5   8 15028.2 790.136   3
   7  -4 -13 91.7502 154.076   1
   7  -4 -12 218.333 161.983   1
   7  -4 -11 1412.72 311.202   1
   7  -4 -10 8834.00 748.492   1
   7  -4 -10 7969.66 534.298   2
   7  -4  -9 7646.84 675.167   1
   7  -4  -8 2515.39 351.857   3
   7  -4  -8 2885.03 404.848   1
   7  -4  -7 535.117 162.626   3
   7  -4  -7 776.544 215.637   1
   7  -4  -6 5856.18 532.953   1
   7  -4  -6 7024.48 575.450   3
   7  -4  -5 13797.4 798.945   1
   7  -4  -5 15873.7 819.365   3
   7  -4  -4 848.768 195.341   3
   7  -4  -3 1206.29 222.279   3
   7  -4  -2 4235.59 408.378   3
   7  -4  -1 8583.67 574.084   3
   7  -4   0 17294.0 810.646   3
   7  -4   1 13073.9 714.593   3
   7  -4   2 28980.6 1075.19   3
   7  -4   3 18078.0 851.653   3
   7  -4   4 1015.26 203.951   3
   7  -4   5 372.514 130.358   3
   7  -4   6 473.910 145.588   3
   7  -4   7 637.506 173.038   3
   7  -4   8 12534.9 729.628   3
   7  -3 -13 3611.41 518.563   1
   7  -3 -12 6040.28 660.036   1
   7  -3 -12 5305.75 480.958   2
   7  -3 -11 3165.07 452.134   1
   7  -3 -11 2881.56 342.047   2
   7  -3 -10-6.37943 71.7455   1
   7  -3 -10 39.2109 46.6305   2
   7  -3  -9 839.517 218.782   1
   7  -3  -9 485.432 146.527   3
   7  -3  -8 1260.52 245.515   3
   7  -3  -8 922.547 217.180   1
   7  -3  -7 5388.65 518.774   1
   7  -3  -7 5217.14 479.877   3
   7  -3  -6 26984.7 1109.64   1
   7  -3  -6 29338.5 1117.53   3
   7  -3  -5 20424.2 910.436   3
   7  -3  -4 40672.5 1262.41   3
   7  -3  -3 58409.8 1498.31   3
   7  -3  -2 16834.2 790.952   3
   7  -3  -1 119.945 77.1881   3
   7  -3   0 1206.98 213.885   3
   7  -3   1 16036.9 783.722   3
   7  -3   2 28506.5 1039.56   3
   7  -3   3 22622.4 949.184   3
   7  -3   4 13294.4 747.204   3
   7  -3   5 7593.67 566.437   3
   7  -3   6 12767.9 745.103   3
   7  -3   7 9095.35 636.006   3
   7  -3   8 7581.07 588.743   3
   7  -2 -14 1954.89 405.042   1
   7  -2 -13 3636.62 424.317   2
   7  -2 -13 3612.97 513.799   1
   7  -2 -12 9458.98 797.173   1
   7  -2 -12 10275.7 689.673   2
   7  -2 -11 9815.36 766.610   1
   7  -2 -11 9561.26 637.631   2
   7  -2 -10 7283.56 585.035   3
   7  -2 -10 7848.38 668.674   1
   7  -2 -10 8827.38 596.269   2
   7  -2  -9 12626.3 750.344   3
   7  -2  -9 12929.8 817.224   1
   7  -2  -8 27017.9 1070.55   3
   7  -2  -8 24372.2 1100.74   1
   7  -2  -7 44.9175 66.1428   1
   7  -2  -7 252.297 124.191   3
   7  -2  -6 3058.54 367.708   1
   7  -2  -6 3454.16 371.885   3
   7  -2  -5 8289.88 571.998   3
   7  -2  -4 10749.5 632.458   3
   7  -2  -3 29721.7 1065.12   3
   7  -2  -2 459.510 131.134   3
   7  -2  -1 10410.5 615.527   3
   7  -2   0 13509.6 720.679   3
   7  -2   1 2268.24 295.558   3
   7  -2   2 6308.28 499.743   3
   7  -2   3 9766.46 634.312   3
   7  -2   4 966.374 204.702   3
   7  -2   5 4562.19 444.842   3
   7  -2   6 3650.74 405.271   3
   7  -2   7 2348.88 327.020   3
   7  -2   8 2467.32 345.923   3
   7  -1 -14 1014.14 308.556   1
   7  -1 -14 494.112 185.719   2
   7  -1 -13 16.7631 89.9790   2
   7  -1 -13 1953.95 400.935   1
   7  -1 -12 99.2199 80.2761   1
   7  -1 -12 162.091 99.2816   2
   7  -1 -11 6187.25 520.525   3
   7  -1 -11 6352.98 607.039   1
   7  -1 -11 6956.83 551.099   2
   7  -1 -10 6815.60 543.535   3
   7  -1 -10 9408.07 712.580   1
   7  -1  -9 20608.0 919.978   3
   7  -1  -9 19043.9 965.629   1
   7  -1  -8 15853.1 802.792   3
   7  -1  -8 15465.3 863.500   1
   7  -1  -7 4808.14 441.202   3
   7  -1  -7 4301.47 433.321   1
   7  -1  -6 4587.28 423.222   3
   7  -1  -6 3621.20 383.616   1
   7  -1  -5 14838.2 746.272   3
   7  -1  -4 153.132 87.2643   3
   7  -1  -3 154.478 101.243   3
   7  -1  -2 2520.53 312.044   3
   7  -1  -1 5005.94 442.050   3
   7  -1   0 19998.8 882.162   3
   7  -1   1 7212.01 528.859   3
   7  -1   2 19443.5 896.857   3
   7  -1   3 35101.9 1238.93   3
   7  -1   4 9199.54 646.892   3
   7  -1   5 341.367 142.784   3
   7  -1   6 496.823 153.842   3
   7  -1   7 4801.47 497.699   3
   7  -1   8 6847.61 601.741   3
   7   0 -15 2879.46 427.963   2
   7   0 -15 2941.34 489.105   1
   7   0 -14 2181.67 366.126   2
   7   0 -14 2316.91 420.957   1
   7   0 -13 2754.97 434.632   1
   7   0 -13 2233.52 358.766   2
   7   0 -12 3033.31 433.604   1
   7   0 -12 2436.80 353.316   2
   7   0 -11 4280.18 414.479   3
   7   0 -11 4063.77 476.327   1
   7   0 -11 3602.13 407.362   2
   7   0 -10 26.2181 64.9644   1
   7   0 -10 92.9678 86.6091   3
   7   0  -9 59.0728 76.0958   1
   7   0  -9-37.0652 66.3974   3
   7   0  -8 774.252 187.057   3
   7   0  -8 353.948 139.944   1
   7   0  -7 66.7345 78.1310   1
   7   0  -7 204.692 100.414   3
   7   0  -6 16228.2 791.568   3
   7   0  -6 16371.5 782.802   1
   7   0  -5 35061.8 1146.09   3
   7   0  -4 22893.6 931.041   3
   7   0  -3 8355.01 569.500   3
   7   0  -2 4973.86 434.234   3
   7   0  -1 3796.90 379.695   3
   7   0   0-40.8736 66.6164   3
   7   0   1 2865.34 353.860   3
   7   0   2 14023.8 794.738   3
   7   0   3 36942.3 1298.64   3
   7   0   4 18943.2 943.681   3
   7   0   5 2217.50 333.697   3
   7   0   6 7897.72 636.020   3
   7   0   7 1046.99 255.098   3
   7   0   8 1012.68 239.925   3
   7   1 -16 186.075 180.428   2
   7   1 -15 30.7833 111.375   1
   7   1 -15 23.9269 96.0714   2
   7   1 -14 4813.15 537.937   2
   7   1 -14 4235.11 558.411   1
   7   1 -13 2636.74 398.493   2
   7   1 -13 3185.52 450.968   1
   7   1 -12 9289.65 734.321   1
   7   1 -12 8414.55 669.072   2
   7   1 -11 18296.4 832.054   3
   7   1 -11 19465.9 1008.05   1
   7   1 -11 17331.2 927.746   2
   7   1 -10 9929.97 622.210   3
   7   1 -10 10068.6 696.961   1
   7   1  -9 4473.65 414.551   3
   7   1  -9 4744.28 450.924   1
   7   1  -8 7045.04 514.262   3
   7   1  -8 6826.93 539.258   1
   7   1  -7 233.557 112.374   3
   7   1  -7 41.8677 51.4203   1
   7   1  -6 4234.46 399.525   3
   7   1  -6 4094.88 384.855   1
   7   1  -5 13962.0 735.269   3
   7   1  -4 24941.5 986.120   3
   7   1  -3 36022.8 1182.04   3
   7   1  -2 38284.9 1258.72   3
   7   1  -1 12942.8 744.784   3
   7   1   0 8717.67 614.411   3
   7   1   1 1408.59 252.112   3
   7   1   2 1060.53 228.960   3
   7   1   3 2693.68 363.219   3
   7   1   4-6.07224 52.7918   3
   7   1   5 850.693 219.968   3
   7   1   6 6060.10 584.536   3
   7   1   7 6771.93 637.547   3
   7   1   8 4670.31 550.959   3
   7   2 -16 8982.18 869.508   1
   7   2 -15 2327.71 414.057   2
   7   2 -15 2026.14 394.388   1
   7   2 -14 1138.51 271.169   1
   7   2 -14 1840.97 360.364   2
   7   2 -13 761.577 230.144   1
   7   2 -13 621.569 197.283   2
   7   2 -12 664.360 202.079   1
   7   2 -12 366.679 149.318   2
   7   2 -11 16874.3 783.669   3
   7   2 -11 18298.9 953.503   1
   7   2 -11 17558.5 954.253   2
   7   2 -10 8467.09 563.206   3
   7   2 -10 8676.56 628.577   1
   7   2 -10 8996.41 670.416   2
   7   2  -9 22667.5 921.560   3
   7   2  -9 23263.4 973.701   1
   7   2  -8 26287.0 1018.60   3
   7   2  -8 26422.8 1013.03   1
   7   2  -7 1088.60 199.102   1
   7   2  -7 916.726 186.244   3
   7   2  -6 1997.76 283.921   3
   7   2  -6 2182.22 272.759   1
   7   2  -5 15170.0 773.953   3
   7   2  -4 6863.22 533.410   3
   7   2  -3 43.1346 55.0462   3
   7   2  -2 6530.16 531.412   3
   7   2  -1 6169.34 530.143   3
   7   2   0 6307.05 539.467   3
   7   2   1 8117.97 629.904   3
   7   2   2 4664.63 484.751   3
   7   2   3 18277.6 983.252   3
   7   2   4 9507.90 725.109   3
   7   2   5 1099.11 260.385   3
   7   2   6 576.043 193.034   3
   7   2   7 671.821 223.870   3
   7   2   8 2413.42 414.176   3
   7   3 -15 2234.08 402.464   2
   7   3 -15 2905.94 465.693   1
   7   3 -14 2225.07 374.669   1
   7   3 -14 2254.94 383.597   2
   7   3 -13 4659.62 516.845   1
   7   3 -13 5535.46 590.743   2
   7   3 -12 108.216 57.0528   1
   7   3 -12 142.206 130.031   2
   7   3 -11 415.447 151.502   1
   7   3 -11 570.052 190.200   2
   7   3 -11 220.519 91.5493   3
   7   3 -10 772.115 187.525   1
   7   3 -10 369.415 153.025   2
   7   3 -10 574.009 155.574   3
   7   3  -9 442.928 133.910   1
   7   3  -9 835.393 193.988   3
   7   3  -8 8774.43 585.571   3
   7   3  -8 8361.24 543.006   1
   7   3  -7 643.080 155.858   3
   7   3  -7 645.431 156.199   1
   7   3  -6 5662.38 483.683   3
   7   3  -6 5496.28 417.903   1
   7   3  -5 21273.3 961.511   3
   7   3  -4 11204.7 705.370   3
   7   3  -3 12809.3 761.513   3
   7   3  -2 3234.25 388.431   3
   7   3  -1 887.901 211.946   3
   7   3   0 858.049 216.322   3
   7   3   1 1561.63 283.084   3
   7   3   2 6667.08 603.838   3
   7   3   3 17886.9 1011.80   3
   7   3   4 15309.5 971.878   3
   7   3   5 6530.35 655.504   3
   7   3   6 3895.17 523.994   3
   7   3   7 1044.59 277.958   3
   7   3   8 353.579 181.168   3
   7   4 -15-65.7856 91.4429   2
   7   4 -14 1378.79 312.320   2
   7   4 -13 4078.69 522.208   2
   7   4 -12 4686.15 469.272   1
   7   4 -12 3324.05 456.453   2
   7   4 -11 11052.5 801.551   2
   7   4 -11 10318.4 647.626   1
   7   4 -10 8421.61 574.693   3
   7   4 -10 8791.52 571.116   1
   7   4 -10 8458.21 684.921   2
   7   4  -9 8329.02 569.439   3
   7   4  -9 8018.56 518.778   1
   7   4  -8 3290.19 371.368   3
   7   4  -8 4597.02 377.572   1
   7   4  -7 1146.10 230.001   3
   7   4  -7 1185.08 199.274   1
   7   4  -6 1083.73 229.217   3
   7   4  -6 994.619 172.865   1
   7   4  -5 10679.9 702.810   3
   7   4  -4 17288.7 897.726   3
   7   4  -3 14314.6 832.585   3
   7   4  -2 22043.4 1047.71   3
   7   4  -1 7743.68 633.827   3
   7   4   0 3317.95 423.892   3
   7   4   1 155.277 120.041   3
   7   4   2 548.341 222.377   3
   7   4   3 673.961 229.864   3
   7   4   4 1098.06 278.674   3
   7   4   5 1848.75 366.188   3
   7   4   6 1680.13 355.070   3
   7   4   7 2306.56 424.498   3
   7   5 -14 108.583 137.574   2
   7   5 -13 81.8028 110.780   2
   7   5 -12 358.509 171.516   2
   7   5 -11 4548.60 527.181   2
   7   5 -10 9545.88 628.037   3
   7   5 -10 10910.5 787.594   2
   7   5  -9 15179.4 812.148   3
   7   5  -9 13994.7 879.588   2
   7   5  -8 20750.5 954.474   3
   7   5  -7 5896.55 531.683   3
   7   5  -6 4362.16 457.714   3
   7   5  -5 965.286 220.864   3
   7   5  -4-9.70783 54.7690   3
   7   5  -3 287.409 160.304   3
   7   5  -2 2762.18 393.828   3
   7   5  -1 8067.23 673.045   3
   7   5   0 6350.32 612.988   3
   7   5   1 10074.9 798.672   3
   7   5   2 4941.23 574.581   3
   7   5   3 8659.85 778.592   3
   7   5   4 421.561 219.456   3
   7   5   5-83.2898 116.609   3
   7   5   6 132.808 147.392   3
   7   6 -14 1216.94 313.447   2
   7   6 -13 2056.15 394.061   2
   7   6 -12 2853.94 450.893   2
   7   6 -11 1395.95 293.835   2
   7   6 -10 305.213 155.648   2
   7   6 -10 525.576 164.604   3
   7   6  -9 2548.11 346.275   3
   7   6  -9 2721.49 400.985   2
   7   6  -8 7647.29 616.621   3
   7   6  -7 6752.61 589.357   3
   7   6  -6 1148.73 251.628   3
   7   6  -5 4494.45 490.053   3
   7   6  -4 8637.51 692.101   3
   7   6  -3 9106.96 727.838   3
   7   6  -2 1867.89 330.110   3
   7   6  -1 1330.70 285.891   3
   7   6   0 640.759 207.643   3
   7   6   1 2502.85 422.014   3
   7   6   2 1954.80 384.262   3
   7   6   3 5017.23 639.327   3
   7   6   4 6293.77 718.841   3
   7   7 -13 4350.93 588.080   2
   7   7 -12 3424.55 500.958   2
   7   7 -11 4785.60 572.001   2
   7   7 -10 5088.48 573.495   2
   7   7  -9 5336.98 535.667   3
   7   7  -9 5344.90 568.163   2
   7   7  -8 571.400 172.449   2
   7   7  -8 568.340 195.712   3
   7   7  -7 30.9373 91.6830   3
   7   7  -6 11.5608 59.9625   3
   7   7  -5 6223.14 600.352   3
   7   7  -4 14954.9 946.529   3
   7   7  -3 7003.17 661.174   3
   7   7  -2 9417.91 784.051   3
   7   7  -1 8297.32 749.926   3
   7   7   0 2968.40 463.031   3
   7   7   1 841.537 268.373   3
   7   7   2 106.918 122.262   3
   7   8 -12 463.905 224.349   2
   7   8 -11 1224.57 311.231   2
   7   8 -10 4205.24 539.198   2
   7   8  -9 7200.63 649.009   3
   7   8  -9 6232.96 632.077   2
   7   8  -8 11267.2 813.303   3
   7   8  -8 10635.6 803.282   2
   7   8  -7 5208.34 563.028   3
   7   8  -7 3945.37 488.953   2
   7   8  -6 5493.44 587.836   3
   7   8  -6 4773.12 531.105   2
   7   8  -5 716.248 212.882   3
   7   8  -4 17.3249 80.2372   3
   7   8  -3 1149.61 295.492   3
   7   8  -2 1814.11 366.293   3
   7   8  -1 1705.90 364.126   3
   7   8   0 739.479 249.574   3
   7   8   1 683.108 283.188   3
   7   9 -11-1.75782 98.1808   2
   7   9 -10 671.887 233.223   2
   7   9  -9 1000.87 273.598   2
   7   9  -8 2576.28 416.719   3
   7   9  -8 2918.07 438.304   2
   7   9  -7 1499.54 315.739   2
   7   9  -7 2468.24 411.068   3
   7   9  -6 1126.46 276.904   2
   7   9  -6 567.630 214.677   3
   7   9  -5 3965.86 530.147   3
   7   9  -5 3955.22 482.917   2
   7   9  -4 2052.62 398.936   3
   7   9  -3 1240.87 311.404   3
   7   9  -2 191.205 155.522   3
   7  10 -10 1787.37 374.009   2
   7  10  -9 3321.86 499.285   2
   7  10  -8 279.749 173.858   2
   7  10  -8 226.513 132.705   3
   7  10  -7 724.164 238.585   2
   7  10  -7 1040.96 300.311   3
   7  10  -6 1064.06 286.797   2
   7  10  -6 700.024 237.356   3
   7  10  -5 2031.78 420.865   3
   7  10  -4 1028.26 297.021   3
   7  11  -7 1445.68 364.422   3
   8 -13  -4-22.1922 131.512   1
   8 -13  -3 756.194 289.911   1
   8 -13  -2 2139.89 469.302   1
   8 -13  -1 1713.05 383.828   1
   8 -13   0 2763.00 490.944   1
   8 -13   1 3982.03 568.077   1
   8 -12  -5 1772.12 425.155   1
   8 -12  -4 2413.43 459.985   1
   8 -12  -3 451.313 205.614   1
   8 -12  -2 14.0947 108.986   1
   8 -12  -1-24.6895 98.9798   1
   8 -12   0 203.085 157.397   1
   8 -11  -6 2233.01 451.085   1
   8 -11  -5 1222.64 321.878   1
   8 -11  -4 3554.90 551.846   1
   8 -11  -3 4335.77 595.563   1
   8 -11  -2 2600.23 453.152   1
   8 -11  -1 11496.0 919.636   1
   8 -10  -8 1424.90 371.413   1
   8 -10  -7 252.584 190.057   1
   8 -10  -6 462.544 216.268   1
   8 -10  -5 62.5207 151.307   1
   8 -10  -4 922.208 295.301   1
   8 -10  -3 2298.36 431.104   1
   8 -10  -2 3431.83 491.927   1
   8 -10   1 6380.96 621.641   3
   8 -10   2 7337.39 667.491   3
   8 -10   3 3641.69 467.385   3
   8 -10   4 811.841 229.472   3
   8 -10   5 2635.74 390.360   3
   8 -10   6 3934.19 468.792   3
   8  -9  -9 662.150 271.575   1
   8  -9  -8 1344.92 345.402   1
   8  -9  -7 4380.73 586.791   1
   8  -9  -6 9065.92 820.199   1
   8  -9  -5 6369.46 702.170   1
   8  -9  -4 3745.86 512.401   1
   8  -9  -3 3083.29 464.792   1
   8  -9  -2 94.5590 90.3532   3
   8  -9  -1 158.957 132.787   3
   8  -9   0 3331.09 446.839   3
   8  -9   1 5947.22 571.553   3
   8  -9   2 11233.4 784.226   3
   8  -9   3 10286.4 747.246   3
   8  -9   4 13800.0 859.188   3
   8  -9   5 6162.67 576.455   3
   8  -9   6 8185.85 657.325   3
   8  -8  -9 99.4609 148.490   1
   8  -8  -8 696.513 243.369   1
   8  -8  -7 162.637 157.455   1
   8  -8  -6 4630.87 596.681   1
   8  -8  -5 9557.17 801.384   1
   8  -8  -4 13814.9 938.716   1
   8  -8  -4 12947.7 888.433   3
   8  -8  -3 12924.7 865.574   3
   8  -8  -2 5230.84 535.004   3
   8  -8  -1 5189.69 532.384   3
   8  -8   0 1800.67 309.025   3
   8  -8   1 63.0913 121.008   3
   8  -8   2 573.827 202.255   3
   8  -8   3 1328.51 265.193   3
   8  -8   4 420.395 154.233   3
   8  -8   5 8109.55 636.003   3
   8  -8   6 9883.70 705.352   3
   8  -8   7 5209.32 501.228   3
   8  -7 -10 5396.09 652.013   1
   8  -7  -9 6685.02 705.816   1
   8  -7  -8 6604.92 681.928   1
   8  -7  -7 2976.46 460.654   1
   8  -7  -6 5893.71 621.425   1
   8  -7  -5 2298.30 387.486   1
   8  -7  -5 2204.75 359.449   3
   8  -7  -4 2951.40 419.856   1
   8  -7  -4 2705.82 379.442   3
   8  -7  -3 6551.15 593.938   3
   8  -7  -2 6251.43 577.753   3
   8  -7  -1 3979.76 447.636   3
   8  -7   0 7661.41 614.648   3
   8  -7   1 12860.7 795.734   3
   8  -7   2 9164.40 670.630   3
   8  -7   3 9627.88 690.524   3
   8  -7   4 123.070 83.2302   3
   8  -7   5 1264.30 260.910   3
   8  -7   6 1641.33 286.648   3
   8  -7   7 1513.91 270.975   3
   8  -6 -11 2.81432 115.195   1
   8  -6 -10 217.313 148.553   1
   8  -6  -9 8550.89 769.360   1
   8  -6  -8 2127.80 383.136   1
   8  -6  -7 861.737 340.793   3
   8  -6  -7 987.342 261.634   1
   8  -6  -6 2919.62 423.972   1
   8  -6  -6 2676.88 396.989   3
   8  -6  -5 4309.73 499.674   1
   8  -6  -5 5761.87 553.466   3
   8  -6  -4 4792.86 504.109   3
   8  -6  -3 3972.48 443.856   3
   8  -6  -2 218.854 115.876   3
   8  -6  -1 1281.82 254.966   3
   8  -6   0 5815.03 529.237   3
   8  -6   1 8283.61 630.066   3
   8  -6   2 19417.0 956.393   3
   8  -6   3 13415.9 797.038   3
   8  -6   4 8100.51 622.490   3
   8  -6   5 997.605 225.494   3
   8  -6   6 2824.18 368.648   3
   8  -6   7 350.686 138.512   3
   8  -5 -12 3403.97 530.378   1
   8  -5 -11 5944.34 675.790   1
   8  -5 -10 832.517 250.944   1
   8  -5  -9 1361.85 303.776   1
   8  -5  -8 196.614 136.307   3
   8  -5  -8-34.3706 106.952   1
   8  -5  -7 4686.48 538.912   1
   8  -5  -7 5178.87 540.463   3
   8  -5  -6 14445.2 897.921   1
   8  -5  -6 14562.2 887.242   3
   8  -5  -5 12796.3 822.843   1
   8  -5  -5 12593.3 802.138   3
   8  -5  -4 13627.7 810.542   3
   8  -5  -3 18306.9 927.451   3
   8  -5  -2 13751.7 792.897   3
   8  -5  -1 13646.1 797.991   3
   8  -5   0 6290.57 542.997   3
   8  -5   1 199.374 126.020   3
   8  -5   2 2204.27 318.100   3
   8  -5   3 7212.90 572.223   3
   8  -5   4 7783.54 606.785   3
   8  -5   5 10373.9 702.379   3
   8  -5   6 5521.25 517.558   3
   8  -5   7 8053.67 629.478   3
   8  -4 -12 2883.30 476.985   1
   8  -4 -11 6528.97 675.316   1
   8  -4 -11 6236.74 513.817   2
   8  -4 -10 7872.77 721.363   1
   8  -4  -9 10171.1 762.618   3
   8  -4  -9 9337.83 756.669   1
   8  -4  -8 10387.4 795.863   1
   8  -4  -8 8614.93 681.015   3
   8  -4  -7 3500.68 443.805   1
   8  -4  -7 3201.25 417.128   3
   8  -4  -6 483.801 169.915   1
   8  -4  -6 375.727 135.295   3
   8  -4  -5 96.3245 80.0920   3
   8  -4  -4 629.474 174.804   3
   8  -4  -3 4601.24 456.755   3
   8  -4  -2 18132.3 910.039   3
   8  -4  -1 10777.4 693.041   3
   8  -4   0 16924.7 867.838   3
   8  -4   1 5130.85 484.201   3
   8  -4   2 3648.44 416.909   3
   8  -4   3 4369.87 454.274   3
   8  -4   4 568.164 166.698   3
   8  -4   5 326.123 146.886   3
   8  -4   6 1200.99 257.013   3
   8  -4   7 8107.45 644.766   3
   8  -4   8 10728.1 739.200   3
   8  -3 -13 1273.07 330.613   1
   8  -3 -12 75.5045 97.4591   1
   8  -3 -12 293.263 119.996   2
   8  -3 -11 729.417 225.415   1
   8  -3 -11 817.476 196.945   2
   8  -3 -10 4195.23 486.341   3
   8  -3 -10 4409.88 522.180   1
   8  -3  -9 7294.70 626.522   3
   8  -3  -9 6479.34 625.156   1
   8  -3  -8 8424.59 661.655   3
   8  -3  -8 9386.85 748.742   1
   8  -3  -7 6402.84 575.800   1
   8  -3  -7 8128.52 628.138   3
   8  -3  -6 9987.27 710.620   1
   8  -3  -6 10335.2 704.493   3
   8  -3  -5 16411.0 875.700   3
   8  -3  -4 19506.9 939.445   3
   8  -3  -3 112.494 94.6063   3
   8  -3  -2 722.151 179.104   3
   8  -3  -1 1417.29 252.133   3
   8  -3   0 4530.96 458.229   3
   8  -3   1 7320.68 577.381   3
   8  -3   2 11231.8 707.095   3
   8  -3   3 35246.7 1293.81   3
   8  -3   4 13678.7 811.816   3
   8  -3   5 3433.07 413.119   3
   8  -3   6 1821.84 310.540   3
   8  -3   7 276.260 149.595   3
   8  -3   8 105.899 113.718   3
   8  -2 -14 3679.85 549.845   1
   8  -2 -13 2982.86 487.120   1
   8  -2 -13 2589.13 373.517   2
   8  -2 -12 2164.77 400.879   1
   8  -2 -12 2345.44 345.803   2
   8  -2 -11 6132.63 576.569   3
   8  -2 -11 6020.02 617.535   1
   8  -2 -11 5865.08 530.866   2
   8  -2 -10 1461.98 291.415   1
   8  -2 -10 2129.41 336.280   3
   8  -2  -9 2421.91 351.627   3
   8  -2  -9 2734.39 397.136   1
   8  -2  -8 55.0419 76.2159   3
   8  -2  -8 187.267 142.006   1
   8  -2  -7 2016.82 317.112   1
   8  -2  -7 1259.25 247.344   3
   8  -2  -6 5283.79 494.365   1
   8  -2  -6 6074.31 525.064   3
   8  -2  -5 23468.5 1023.68   3
   8  -2  -4 17043.8 863.661   3
   8  -2  -3 10692.9 690.871   3
   8  -2  -2 7173.83 558.311   3
   8  -2  -1 9063.54 633.904   3
   8  -2   0 1394.84 252.914   3
   8  -2   1 2.75286 45.6162   3
   8  -2   2 1635.45 283.240   3
   8  -2   3 9886.07 691.589   3
   8  -2   4 10335.0 719.739   3
   8  -2   5 7983.45 640.510   3
   8  -2   6 7008.05 602.570   3
   8  -2   7 854.773 232.874   3
   8  -2   8 873.479 235.503   3
   8  -1 -14 709.420 255.863   1
   8  -1 -14 797.569 239.497   2
   8  -1 -13 565.330 228.491   1
   8  -1 -13 903.812 234.161   2
   8  -1 -12 3198.52 398.536   3
   8  -1 -12 3668.14 491.167   1
   8  -1 -12 3216.90 408.540   2
   8  -1 -11 12222.7 776.763   3
   8  -1 -11 11113.1 834.037   1
   8  -1 -11 12847.6 807.962   2
   8  -1 -10 9149.90 670.685   3
   8  -1 -10 8282.46 678.702   1
   8  -1  -9 12276.3 767.331   3
   8  -1  -9 12466.2 828.290   1
   8  -1  -8 12746.0 771.040   3
   8  -1  -8 11786.5 791.065   1
   8  -1  -7 2807.34 362.958   3
   8  -1  -7 2340.69 333.519   1
   8  -1  -6 105.253 78.6671   3
   8  -1  -5 275.288 122.183   3
   8  -1  -4 5272.69 483.070   3
   8  -1  -3 7840.68 580.516   3
   8  -1  -2 12985.1 766.408   3
   8  -1  -1 11283.7 722.916   3
   8  -1   0 20569.8 983.670   3
   8  -1   1 5527.00 510.816   3
   8  -1   2 3213.60 392.190   3
   8  -1   3 3647.37 432.242   3
   8  -1   4-71.2237 94.8413   3
   8  -1   5 1139.81 243.390   3
   8  -1   6 3662.25 452.570   3
   8  -1   7 7022.03 637.599   3
   8  -1   8 5404.35 569.136   3
   8   0 -15 3287.80 468.201   2
   8   0 -15 2053.77 411.219   1
   8   0 -14 1712.46 358.198   1
   8   0 -14 1132.51 278.483   2
   8   0 -13 1120.69 283.707   1
   8   0 -13 1297.93 281.839   2
   8   0 -12 370.415 158.728   1
   8   0 -12 422.612 157.088   2
   8   0 -11 212.743 129.347   1
   8   0 -11 580.020 205.937   2
   8   0 -11 203.353 107.203   3
   8   0 -10 4486.67 454.432   3
   8   0 -10 3517.78 443.392   1
   8   0  -9 7502.10 589.034   3
   8   0  -9 6647.23 587.124   1
   8   0  -8 17790.2 907.688   3
   8   0  -8 22212.7 1061.73   1
   8   0  -7 3930.17 415.770   3
   8   0  -7 3817.81 414.382   1
   8   0  -6 10016.5 673.650   3
   8   0  -5 9120.99 632.728   3
   8   0  -4 5108.60 476.766   3
   8   0  -3 198.394 94.6811   3
   8   0  -2 290.322 121.747   3
   8   0  -1 5957.25 523.950   3
   8   0   0 4269.23 452.228   3
   8   0   1 6777.47 590.239   3
   8   0   2 14227.6 870.857   3
   8   0   3 24283.2 1147.92   3
   8   0   4 3324.50 434.354   3
   8   0   5 3092.66 424.853   3
   8   0   6 1624.91 324.335   3
   8   0   7 69.9906 128.459   3
   8   0   8 658.842 237.896   3
   8   1 -15 2219.63 429.621   1
   8   1 -15 2094.96 381.459   2
   8   1 -14 4986.53 609.483   1
   8   1 -14 3624.25 483.340   2
   8   1 -13 4768.26 571.570   1
   8   1 -13 5434.09 578.733   2
   8   1 -12 11183.8 846.795   1
   8   1 -12 10007.9 751.748   2
   8   1 -11 3974.43 424.661   3
   8   1 -11 4387.13 494.829   1
   8   1 -11 4512.98 503.205   2
   8   1 -10 1393.60 268.134   3
   8   1 -10 1416.59 278.140   1
   8   1  -9 39.0882 56.9588   3
   8   1  -9 55.8010 89.3644   1
   8   1  -8 2129.66 311.591   3
   8   1  -8 1898.21 306.127   1
   8   1  -7 4131.65 436.016   3
   8   1  -7 3975.26 415.452   1
   8   1  -6 305.637 128.357   3
   8   1  -5 21399.2 996.905   3
   8   1  -4 29669.5 1175.82   3
   8   1  -3 52052.5 1553.78   3
   8   1  -2 20785.3 1000.21   3
   8   1  -1 952.499 208.066   3
   8   1   0 114.306 126.668   3
   8   1   1 126.095 83.5130   3
   8   1   2 1299.48 277.785   3
   8   1   3 2775.34 400.889   3
   8   1   4 6500.54 617.718   3
   8   1   5 11111.4 833.589   3
   8   1   6 10065.5 809.859   3
   8   1   7 4211.49 547.656   3
   8   1   8 4407.89 572.998   3
   8   2 -15 226.149 172.248   1
   8   2 -15-77.8635 112.589   2
   8   2 -14 133.946 158.861   1
   8   2 -14-24.4853 86.5482   2
   8   2 -13 2687.93 423.232   2
   8   2 -13 2546.50 408.782   1
   8   2 -12 5652.01 576.543   1
   8   2 -12 5403.53 573.361   2
   8   2 -11 7316.53 568.594   3
   8   2 -11 6488.53 619.379   2
   8   2 -10 7281.81 574.239   3
   8   2 -10 7217.87 595.866   1
   8   2  -9 16174.7 856.292   3
   8   2  -9 16179.6 866.413   1
   8   2  -8 6135.88 532.998   3
   8   2  -8 7838.07 624.351   1
   8   2  -7 3035.77 372.603   3
   8   2  -7 2815.09 345.291   1
   8   2  -6 344.437 132.319   3
   8   2  -5-21.9512 57.5641   3
   8   2  -4 192.403 99.2654   3
   8   2  -3 2895.49 381.551   3
   8   2  -2 10944.1 748.180   3
   8   2  -1 10949.0 758.086   3
   8   2   0 10314.6 745.373   3
   8   2   1 1116.33 254.371   3
   8   2   2 143.028 94.9509   3
   8   2   3 1885.00 353.297   3
   8   2   4 231.545 145.030   3
   8   2   5 358.815 179.607   3
   8   2   6 853.028 288.703   3
   8   2   7 1678.00 373.841   3
   8   2   8 2531.30 462.734   3
   8   3 -14 922.843 259.636   2
   8   3 -13 982.744 243.386   1
   8   3 -13 374.320 178.017   2
   8   3 -12-49.4227 94.9637   1
   8   3 -12-44.5209 74.8232   2
   8   3 -11 135.512 118.354   1
   8   3 -11 151.391 144.887   2
   8   3 -11 191.638 112.973   3
   8   3 -10 3705.78 402.667   3
   8   3 -10 3606.49 404.919   1
   8   3  -9 4915.57 482.164   3
   8   3  -9 5865.36 499.092   1
   8   3  -8 18823.0 940.355   3
   8   3  -8 19089.0 896.425   1
   8   3  -7 11808.5 761.268   3
   8   3  -7 11947.8 676.475   1
   8   3  -6 7815.74 620.237   3
   8   3  -5 1778.71 300.418   3
   8   3  -4 39.9777 56.3947   3
   8   3  -3 79.4527 89.4308   3
   8   3  -2 846.719 211.917   3
   8   3  -1 1892.97 331.608   3
   8   3   0 11188.4 811.728   3
   8   3   1 7690.21 685.352   3
   8   3   2 9904.16 810.825   3
   8   3   3 11558.7 881.422   3
   8   3   4 6453.18 674.585   3
   8   3   5 710.812 241.202   3
   8   3   6 15.6661 131.642   3
   8   3   7 379.684 242.410   3
   8   4 -14 2907.35 477.944   2
   8   4 -13 3129.26 477.203   2
   8   4 -12 6174.27 642.701   2
   8   4 -11 2211.87 381.629   2
   8   4 -10 2802.52 365.378   3
   8   4  -9 141.255 101.675   3
   8   4  -8 1309.20 267.279   3
   8   4  -8 1404.37 229.907   1
   8   4  -7 1591.73 280.902   3
   8   4  -7 1478.33 228.075   1
   8   4  -6 3366.63 419.783   3
   8   4  -6 3918.66 366.345   1
   8   4  -5 20679.5 1060.43   3
   8   4  -4 9616.43 727.648   3
   8   4  -3 7115.47 639.702   3
   8   4  -2 6857.19 637.626   3
   8   4  -1 3077.09 430.798   3
   8   4   0 1210.15 285.769   3
   8   4   1 145.307 121.129   3
   8   4   2 151.999 113.884   3
   8   4   3 5165.74 610.460   3
   8   4   4 8056.79 793.634   3
   8   4   5 3211.51 513.842   3
   8   5 -13 3907.44 543.730   2
   8   5 -12 639.460 217.784   2
   8   5 -11 9002.85 775.334   2
   8   5 -10 11085.0 735.361   3
   8   5 -10 11852.6 878.865   2
   8   5  -9 10502.1 745.602   3
   8   5  -8 5311.76 533.764   3
   8   5  -7 369.913 161.065   3
   8   5  -6 989.197 246.654   3
   8   5  -5 1495.98 300.073   3
   8   5  -4 1327.70 274.196   3
   8   5  -3 8317.73 709.928   3
   8   5  -2 9435.88 768.565   3
   8   5  -1 8899.30 763.147   3
   8   5   0 5594.85 611.391   3
   8   5   1 3789.94 530.786   3
   8   5   2 957.803 282.542   3
   8   5   3 21.4186 104.729   3
   8   5   4 491.346 230.644   3
   8   6 -13 220.370 145.163   2
   8   6 -12 62.0855 122.442   2
   8   6 -11 1136.80 285.186   2
   8   6 -10 1810.95 324.137   3
   8   6 -10 2032.66 385.839   2
   8   6  -9 3236.77 428.668   3
   8   6  -9 3048.27 452.464   2
   8   6  -8 12081.9 838.629   3
   8   6  -7 5672.90 585.135   3
   8   6  -6 2901.69 433.206   3
   8   6  -5 12819.6 896.487   3
   8   6  -4 1900.28 350.602   3
   8   6  -3 144.801 125.133   3
   8   6  -2 148.826 104.982   3
   8   6  -1 1536.54 323.849   3
   8   6   0 4637.09 591.382   3
   8   6   1 1213.53 330.984   3
   8   6   2 2675.81 474.850   3
   8   7 -12 1735.83 365.005   2
   8   7 -11 118.114 120.894   2
   8   7 -10 141.215 140.337   2
   8   7  -9 206.233 168.482   2
   8   7  -9 111.560 113.778   3
   8   7  -8 2618.58 414.663   3
   8   7  -8 2197.24 381.595   2
   8   7  -7 619.825 206.708   3
   8   7  -6 2711.43 436.276   3
   8   7  -5 5377.40 607.234   3
   8   7  -4 4949.81 594.487   3
   8   7  -3 3534.37 500.012   3
   8   7  -2 3075.60 478.988   3
   8   7  -1 23.8059 91.5856   3
   8   7   0-152.919 152.023   3
   8   8 -11 5223.50 643.686   2
   8   8 -10 5589.20 644.972   2
   8   8  -9 4301.94 541.668   3
   8   8  -9 5677.08 640.338   2
   8   8  -8 1959.08 369.648   2
   8   8  -8 2070.90 396.813   3
   8   8  -7 75.3006 99.2973   2
   8   8  -7 72.4310 105.336   3
   8   8  -6 50.0986 93.2180   3
   8   8  -5 1133.48 306.919   3
   8   8  -4 2346.50 426.572   3
   8   8  -3 4003.36 557.066   3
   8   8  -2 6017.77 704.841   3
   8   9  -9 2117.23 420.873   2
   8   9  -8 4899.04 617.152   3
   8   9  -8 5250.85 624.001   2
   8   9  -7 3259.75 499.015   3
   8   9  -7 3668.83 512.013   2
   8   9  -6 2357.45 442.141   3
   8   9  -6 3247.29 478.706   2
   8   9  -5 410.329 216.674   3
   8   9  -4 200.294 182.144   3
   8  10  -8 2144.23 413.900   2
   8  10  -7 1030.63 301.239   3
   9 -13  -3 1817.18 464.939   1
   9 -13  -2 2154.39 447.724   1
   9 -13  -1 1256.90 359.802   1
   9 -13   0 1869.68 441.161   1
   9 -12  -4 150.062 168.068   1
   9 -12  -3 426.929 217.743   1
   9 -12  -2 356.320 210.829   1
   9 -12  -1 101.404 163.293   1
   9 -11  -6 1640.34 433.077   1
   9 -11  -5 5749.37 741.947   1
   9 -11  -4 3523.79 572.561   1
   9 -11  -3 3358.71 540.101   1
   9 -11  -2 3677.06 550.664   1
   9 -11   3 6039.96 645.880   3
   9 -11   4 2396.27 405.065   3
   9 -11   5 3268.61 470.204   3
   9 -10  -7 34.7349 133.448   1
   9 -10  -6 409.234 212.867   1
   9 -10  -5 2177.72 473.269   1
   9 -10  -4 7188.06 764.928   1
   9 -10  -3 6000.30 707.662   1
   9 -10  -1 2644.78 455.379   3
   9 -10   0 1585.78 336.360   3
   9 -10   1 1008.08 253.891   3
   9 -10   2 106.713 134.904   3
   9 -10   3 10.2831 94.1861   3
   9 -10   4 2259.33 384.758   3
   9 -10   5 1941.48 357.622   3
   9 -10   6 1835.19 325.095   3
   9  -9  -8 2600.81 488.310   1
   9  -9  -7 3205.87 534.834   1
   9  -9  -6 2773.17 512.862   1
   9  -9  -5 895.863 264.366   1
   9  -9  -4 352.493 195.192   1
   9  -9  -3 626.100 222.455   1
   9  -9  -3 354.832 178.395   3
   9  -9  -2 1621.76 339.502   3
   9  -9  -1 3591.18 485.705   3
   9  -9   0 3552.84 479.983   3
   9  -9   1 3525.33 468.771   3
   9  -9   2 10113.9 799.078   3
   9  -9   3 7413.85 675.361   3
   9  -9   4 5225.15 567.293   3
   9  -9   5 1853.38 333.468   3
   9  -9   6 152.032 134.285   3
   9  -8  -9 339.136 198.463   1
   9  -8  -8 580.806 282.445   1
   9  -8  -7 2581.96 463.216   1
   9  -8  -6 4070.03 577.260   1
   9  -8  -5 8827.51 800.989   1
   9  -8  -5 7615.47 712.454   3
   9  -8  -4 10026.8 848.960   1
   9  -8  -4 8981.12 754.427   3
   9  -8  -3 4551.47 535.277   3
   9  -8  -2 783.108 226.604   3
   9  -8  -1 162.521 127.449   3
   9  -8   0 882.383 234.100   3
   9  -8   1 3109.10 423.737   3
   9  -8   2 7658.79 673.288   3
   9  -8   3 12294.4 845.906   3
   9  -8   4 10796.5 795.527   3
   9  -8   5 13120.6 870.696   3
   9  -8   6 825.055 224.229   3
   9  -7 -10 5705.26 704.308   1
   9  -7  -9 3384.10 523.454   1
   9  -7  -8 833.033 257.204   1
   9  -7  -7 501.671 248.262   1
   9  -7  -7 253.337 156.174   3
   9  -7  -6 87.6706 95.5673   1
   9  -7  -6 165.529 134.158   3
   9  -7  -5 3940.61 525.920   1
   9  -7  -5 3674.42 465.362   3
   9  -7  -4 7902.44 701.621   3
   9  -7  -3 14734.8 943.445   3
   9  -7  -2 8309.73 701.023   3
   9  -7  -1 6346.57 604.893   3
   9  -7   0 4640.49 517.987   3
   9  -7   1 547.350 176.721   3
   9  -7   2 213.285 145.304   3
   9  -7   3 192.114 100.025   3
   9  -7   4 3501.07 446.833   3
   9  -7   5 948.362 253.953   3
   9  -7   6 1053.48 259.124   3
   9  -7   7 4393.80 498.809   3
   9  -6 -11 2391.11 440.779   1
   9  -6 -10 8510.24 823.786   1
   9  -6  -9 9192.88 832.405   1
   9  -6  -8 5005.99 609.287   1
   9  -6  -8 4152.41 543.719   3
   9  -6  -7 2025.61 390.498   1
   9  -6  -7 1971.57 361.366   3
   9  -6  -6 200.191 119.658   1
   9  -6  -6 361.859 152.484   3
   9  -6  -5 197.498 151.548   1
   9  -6  -5-35.8815 74.4317   3
   9  -6  -4 89.5480 65.1745   3
   9  -6  -3 1501.87 290.738   3
   9  -6  -2 6128.23 578.841   3
   9  -6  -1 8594.92 683.303   3
   9  -6   0 14473.5 891.068   3
   9  -6   1 4518.28 494.708   3
   9  -6   2 10234.7 751.345   3
   9  -6   3 6110.47 582.017   3
   9  -6   4 1208.87 270.206   3
   9  -6   5 207.656 126.632   3
   9  -6   6 149.235 141.824   3
   9  -6   7 429.887 157.688   3
   9  -5 -11 29.8339 112.144   1
   9  -5 -10 282.446 149.263   1
   9  -5  -9 1106.23 277.756   3
   9  -5  -9 901.997 265.875   1
   9  -5  -8 3540.56 510.032   1
   9  -5  -8 4223.72 508.413   3
   9  -5  -7 5448.49 596.116   1
   9  -5  -7 7501.75 687.959   3
   9  -5  -6 9657.15 772.501   1
   9  -5  -6 9959.49 764.665   3
   9  -5  -5 8195.23 676.028   3
   9  -5  -4 7216.74 624.353   3
   9  -5  -3 9587.20 720.605   3
   9  -5  -2 8398.36 672.468   3
   9  -5  -1 1139.97 253.969   3
   9  -5   0-48.8924 107.120   3
   9  -5   1 3738.70 444.209   3
   9  -5   2 8891.30 686.099   3
   9  -5   3 23853.5 1132.55   3
   9  -5   4 14560.0 890.864   3
   9  -5   5 10298.0 757.321   3
   9  -5   6 5822.55 576.740   3
   9  -5   7 1736.90 322.431   3
   9  -4 -12 4194.53 579.054   1
   9  -4 -11 5756.64 663.424   1
   9  -4 -11 5775.11 536.751   2
   9  -4 -10 3577.24 485.471   3
   9  -4 -10 3810.90 518.647   1
   9  -4  -9 1213.08 278.351   3
   9  -4  -9 1221.63 292.173   1
   9  -4  -8 4542.36 556.577   1
   9  -4  -8 3547.78 475.525   3
   9  -4  -7 179.993 150.478   1
   9  -4  -7 243.266 137.672   3
   9  -4  -6 504.067 184.111   1
   9  -4  -6 637.501 206.358   3
   9  -4  -5 3476.32 428.585   3
   9  -4  -4 11853.2 788.602   3
   9  -4  -3 33830.6 1318.62   3
   9  -4  -2 7959.91 644.373   3
   9  -4  -1 6961.68 594.457   3
   9  -4   0 3333.81 414.232   3
   9  -4   1 225.885 112.933   3
   9  -4   2 363.179 143.511   3
   9  -4   3-2.58792 60.5333   3
   9  -4   4 3054.59 415.815   3
   9  -4   5 5487.06 561.081   3
   9  -4   6 8407.73 701.380   3
   9  -4   7 2236.86 383.871   3
   9  -3 -13-1.92067 133.417   1
   9  -3 -12 140.275 140.181   1
   9  -3 -12 328.178 158.452   2
   9  -3 -11 5502.05 592.455   3
   9  -3 -11 5327.48 623.979   1
   9  -3 -10 4425.48 521.026   3
   9  -3 -10 5204.42 588.766   1
   9  -3  -9 13815.9 918.284   3
   9  -3  -9 12523.7 901.376   1
   9  -3  -8 16139.5 949.909   3
   9  -3  -8 16166.5 1004.84   1
   9  -3  -7 8738.61 710.008   1
   9  -3  -7 8250.99 679.910   3
   9  -3  -6 4364.36 495.920   1
   9  -3  -6 4887.39 513.626   3
   9  -3  -5 4310.42 473.833   3
   9  -3  -4 3621.11 433.885   3
   9  -3  -3 7246.37 595.198   3
   9  -3  -2 2541.35 364.649   3
   9  -3  -1 3393.59 424.347   3
   9  -3   0 11399.9 778.053   3
   9  -3   1 3634.86 439.647   3
   9  -3   2 9556.13 717.808   3
   9  -3   3 8095.77 660.106   3
   9  -3   4 1344.39 275.097   3
   9  -3   5-14.1604 72.5816   3
   9  -3   6 20.6827 201.147   3
   9  -3   7 1345.99 288.713   3
   9  -2 -13 1512.62 374.323   1
   9  -2 -13 1020.39 251.315   2
   9  -2 -12 382.616 208.678   1
   9  -2 -12 5.09091 74.8997   2
   9  -2 -12 239.450 144.238   3
   9  -2 -11 28.3833 80.0648   1
   9  -2 -11 86.9952 114.925   3
   9  -2 -10 314.842 164.864   1
   9  -2 -10 622.455 194.648   3
   9  -2  -9 1673.67 321.627   3
   9  -2  -9 1571.45 316.260   1
   9  -2  -8 7417.07 639.850   3
   9  -2  -8 8233.70 693.375   1
   9  -2  -7 2438.02 376.302   1
   9  -2  -7 2540.17 365.065   3
   9  -2  -6 5602.71 543.581   3
   9  -2  -5 9512.31 700.771   3
   9  -2  -4 3402.66 413.015   3
   9  -2  -3 3169.19 402.522   3
   9  -2  -2 1032.04 233.944   3
   9  -2  -1 314.717 130.091   3
   9  -2   0 558.859 171.031   3
   9  -2   1 1299.11 268.657   3
   9  -2   2 6854.65 619.797   3
   9  -2   3 15999.1 957.848   3
   9  -2   4 15000.5 938.295   3
   9  -2   5 6676.21 633.102   3
   9  -2   6 5178.14 569.966   3
   9  -2   7 450.060 196.969   3
   9  -1 -14 4310.86 617.372   1
   9  -1 -14 3531.20 480.648   2
   9  -1 -13 3935.91 545.188   1
   9  -1 -13 3390.85 464.858   2
   9  -1 -12 5233.78 607.270   1
   9  -1 -12 5901.21 584.425   2
   9  -1 -11 6703.40 618.716   3
   9  -1 -11 6118.01 663.402   1
   9  -1 -10 5878.60 575.161   3
   9  -1 -10 5078.86 567.119   1
   9  -1  -9 1600.29 315.149   1
   9  -1  -9 1221.01 264.352   3
   9  -1  -8 98.9097 102.612   1
   9  -1  -8-49.8795 74.8119   3
   9  -1  -7 1126.52 251.484   3
   9  -1  -7 368.074 137.544   1
   9  -1  -6 737.689 194.298   3
   9  -1  -5 5545.25 537.215   3
   9  -1  -4 13014.1 812.896   3
   9  -1  -3 27387.2 1173.74   3
   9  -1  -2 33144.9 1313.92   3
   9  -1  -1 16333.6 933.471   3
   9  -1   0 4920.99 519.673   3
   9  -1   1 784.071 212.277   3
   9  -1   2 370.624 166.984   3
   9  -1   3 3701.98 464.993   3
   9  -1   4 4177.00 505.371   3
   9  -1   5 4657.89 538.472   3
   9  -1   6 5031.18 577.696   3
   9  -1   7 3453.82 484.068   3
   9   0 -14 677.787 288.640   1
   9   0 -14 163.599 117.943   2
   9   0 -13 271.887 158.306   1
   9   0 -13 436.618 190.152   2
   9   0 -12 117.717 115.794   1
   9   0 -12 37.7400 91.6271   2
   9   0 -11 6963.64 611.722   3
   9   0 -11 7793.58 707.036   1
   9   0 -10 9092.54 705.516   3
   9   0 -10 8588.04 712.812   1
   9   0  -9 15708.7 914.898   3
   9   0  -9 15182.5 949.013   1
   9   0  -8 19384.7 1012.28   3
   9   0  -8 18614.7 997.622   1
   9   0  -7 5947.95 551.636   3
   9   0  -7 5728.70 538.824   1
   9   0  -6 1943.63 327.160   3
   9   0  -5 1343.04 270.689   3
   9   0  -4 246.269 147.918   3
   9   0  -3 576.816 175.425   3
   9   0  -2 9697.62 724.653   3
   9   0  -1 8963.19 697.015   3
   9   0   0 8587.71 685.401   3
   9   0   1 8460.00 700.128   3
   9   0   2 2322.92 370.775   3
   9   0   3 1004.82 261.923   3
   9   0   4 1656.54 352.959   3
   9   0   5 462.005 179.212   3
   9   0   6 272.287 158.241   3
   9   0   7 274.847 167.128   3
   9   1 -14 3149.10 496.824   1
   9   1 -14 3635.57 503.223   2
   9   1 -13 7682.97 749.758   1
   9   1 -13 7645.76 722.819   2
   9   1 -12 835.885 244.560   2
   9   1 -12 1631.03 357.760   1
   9   1 -11 1131.53 279.899   1
   9   1 -11 1004.37 235.883   3
   9   1 -10 796.748 209.857   1
   9   1 -10 810.438 234.740   3
   9   1  -9 2421.91 358.294   3
   9   1  -9 2844.13 401.846   1
   9   1  -8 11204.1 770.930   3
   9   1  -8 9986.13 724.104   1
   9   1  -7 5046.69 520.769   3
   9   1  -7 5394.56 518.019   1
   9   1  -6 6925.16 604.483   3
   9   1  -5 12065.1 810.958   3
   9   1  -4 4375.51 491.497   3
   9   1  -3 2460.44 365.690   3
   9   1  -2-27.9757 47.2007   3
   9   1  -1-62.9145 105.752   3
   9   1   0 1867.59 343.101   3
   9   1   1 2828.48 418.041   3
   9   1   2 1396.99 296.174   3
   9   1   3 6482.12 665.987   3
   9   1   4 13576.4 974.874   3
   9   1   5 5805.61 663.543   3
   9   1   6 3948.69 566.458   3
   9   1   7 777.591 273.407   3
   9   2 -14 3267.25 486.477   2
   9   2 -13 4726.21 572.474   1
   9   2 -13 5215.27 603.797   2
   9   2 -12 1464.71 313.670   1
   9   2 -12 1095.70 277.322   2
   9   2 -11 3275.21 424.709   3
   9   2 -11 2994.19 411.250   1
   9   2 -10 4518.48 500.501   3
   9   2 -10 4298.93 476.316   1
   9   2  -9 1886.19 333.846   3
   9   2  -9 2909.47 388.834   1
   9   2  -8-41.0873 56.8971   3
   9   2  -8-86.6581 92.8224   1
   9   2  -7 20.6387 87.4922   1
   9   2  -7 30.5126 76.4311   3
   9   2  -6 2476.99 377.809   3
   9   2  -5 6586.35 606.562   3
   9   2  -4 7115.14 631.676   3
   9   2  -3 7063.90 635.226   3
   9   2  -2 15227.0 955.481   3
   9   2  -1 9855.08 780.904   3
   9   2   0 3699.99 488.598   3
   9   2   1 50.8912 96.1044   3
   9   2   2 87.4584 137.570   3
   9   2   3 2142.60 397.280   3
   9   2   4 3847.62 534.519   3
   9   2   5 3475.88 514.836   3
   9   2   6 3952.36 575.833   3
   9   3 -13 372.696 180.624   2
   9   3 -12 34.6937 83.7671   2
   9   3 -11 2878.94 392.270   3
   9   3 -10 9590.26 723.030   3
   9   3 -10 9644.69 692.558   1
   9   3  -9 9244.96 721.258   3
   9   3  -9 9437.56 672.806   1
   9   3  -8 11400.8 791.270   3
   9   3  -8 13596.0 819.080   1
   9   3  -7 3346.22 438.168   3
   9   3  -7 3765.74 415.197   1
   9   3  -6 4242.81 494.408   3
   9   3  -5 175.314 111.191   3
   9   3  -4 755.526 213.507   3
   9   3  -3 4658.53 537.502   3
   9   3  -2 8264.67 727.224   3
   9   3  -1 11397.1 863.730   3
   9   3   0 6441.45 658.175   3
   9   3   1 5061.78 600.692   3
   9   3   2 4416.27 571.603   3
   9   3   3 4051.37 549.356   3
   9   3   4 231.904 169.575   3
   9   4 -13 1466.51 351.309   2
   9   4 -12 1247.29 319.388   2
   9   4 -11 64.2720 89.9826   2
   9   4 -10 258.897 138.155   3
   9   4  -9 4554.12 504.190   3
   9   4  -8 8607.65 718.200   3
   9   4  -7 12215.5 856.433   3
   9   4  -6 6598.16 626.070   3
   9   4  -5 3860.63 493.349   3
   9   4  -4 1648.21 325.105   3
   9   4  -3 1042.95 260.248   3
   9   4  -2-55.3081 91.7561   3
   9   4  -1-26.4464 89.2516   3
   9   4   0 355.442 179.181   3
   9   4   1 3541.17 522.689   3
   9   4   2 4083.09 567.998   3
   9   4   3 5561.29 699.546   3
   9   5 -12 2550.35 457.928   2
   9   5 -11 3969.80 543.660   2
   9   5 -10 566.061 200.258   3
   9   5  -9 2629.51 409.892   3
   9   5  -8-13.3518 74.7541   3
   9   5  -7 2197.77 374.611   3
   9   5  -6 1124.84 283.274   3
   9   5  -5 2285.42 405.211   3
   9   5  -4 8611.51 776.467   3
   9   5  -3 7107.65 702.616   3
   9   5  -2 5834.92 650.937   3
   9   5  -1 7227.82 742.004   3
   9   5   0 1589.14 369.193   3
   9   5   1 400.597 200.387   3
   9   6 -11 1251.64 312.882   2
   9   6 -10 2553.26 443.120   2
   9   6  -9 4487.24 544.210   3
   9   6  -8 4758.22 556.531   3
   9   6  -7 772.862 242.096   3
   9   6  -6 6843.69 700.839   3
   9   6  -5 743.220 220.451   3
   9   6  -4 128.118 141.767   3
   9   6  -3 674.116 202.412   3
   9   6  -2 6536.98 723.328   3
   9   6  -1 6203.30 711.401   3
   9   6   0 710.509 253.308   3
   9   7 -10 1062.59 300.786   2
   9   7  -9 3797.97 513.889   3
   9   7  -9 3899.85 555.329   2
   9   7  -8 6003.57 668.222   3
   9   7  -7 5202.61 627.404   3
   9   7  -6 3652.78 533.151   3
   9   7  -5 1724.23 381.006   3
   9   7  -4 378.921 183.059   3
   9   7  -3 911.380 300.014   3
   9   7  -2 3.98914 99.9613   3
   9   8  -9 630.228 250.437   2
   9   8  -9 704.563 267.915   3
   9   8  -8 22.9458 112.964   2
   9   8  -8 38.9786 148.774   3
   9   8  -7 531.129 233.302   2
   9   8  -7 674.040 278.999   3
   9   8  -6 1489.00 355.240   3
   9   8  -5 4797.09 630.150   3
   9   9  -7 534.965 233.607   2
  10 -13   0 952.730 314.656   1
  10 -12  -3 1148.05 350.116   1
  10 -12  -2 1710.27 427.921   1
  10 -12  -1 5208.44 699.446   1
  10 -11  -4 604.920 280.658   1
  10 -11  -3 333.749 242.698   1
  10 -11  -2 115.349 120.125   1
  10 -11   1 3709.90 546.965   3
  10 -11   2 5041.47 625.392   3
  10 -11   3 3095.09 490.539   3
  10 -11   4 2929.72 465.364   3
  10 -11   5 2666.59 451.480   3
  10 -10  -6 3437.37 611.308   1
  10 -10  -5 4914.53 691.934   1
  10 -10  -4 9285.27 907.408   1
  10 -10  -3 6866.70 776.806   1
  10 -10  -2 2294.56 447.227   3
  10 -10  -1 882.942 268.285   3
  10 -10   0 108.062 107.461   3
  10 -10   1 36.0213 107.823   3
  10 -10   2 1032.83 279.446   3
  10 -10   3 2067.63 381.149   3
  10 -10   4 4218.34 551.564   3
  10 -10   5 4019.49 547.753   3
  10  -9  -7 719.181 271.885   1
  10  -9  -6 1091.83 311.973   1
  10  -9  -5 822.642 264.968   1
  10  -9  -4 583.159 229.878   1
  10  -9  -4 248.249 156.173   3
  10  -9  -3 4962.10 607.644   3
  10  -9  -2 7050.08 703.002   3
  10  -9  -1 2883.18 467.462   3
  10  -9   0 2792.38 451.140   3
  10  -9   1 2791.07 450.872   3
  10  -9   2 1932.54 374.103   3
  10  -9   3 641.589 217.585   3
  10  -9   4 190.497 159.454   3
  10  -9   5 2192.58 376.799   3
  10  -9   6 1930.71 371.077   3
  10  -8  -8 5249.25 674.305   1
  10  -8  -7 4396.98 649.934   1
  10  -8  -6 1890.02 429.220   1
  10  -8  -6 2083.45 403.231   3
  10  -8  -5 435.147 204.712   1
  10  -8  -5 772.833 249.669   3
  10  -8  -4-144.893 152.150   3
  10  -8  -3-29.7225 96.8014   3
  10  -8  -2 285.564 164.199   3
  10  -8  -1 557.779 192.850   3
  10  -8   0 6442.75 651.046   3
  10  -8   1 11563.5 882.241   3
  10  -8   2 7490.92 698.863   3
  10  -8   3 9572.70 808.138   3
  10  -8   4 2848.56 448.512   3
  10  -8   5-11.5453 99.8310   3
  10  -8   6 496.213 214.778   3
  10  -7  -9 171.708 106.822   1
  10  -7  -8 47.0473 99.8983   1
  10  -7  -7 2638.18 436.933   3
  10  -7  -7 1803.96 392.153   1
  10  -7  -6 8406.60 808.120   1
  10  -7  -6 7821.09 761.101   3
  10  -7  -5 5734.98 654.616   1
  10  -7  -5 5669.77 628.007   3
  10  -7  -4 8009.00 743.678   3
  10  -7  -3 8820.02 759.957   3
  10  -7  -2 4983.85 565.974   3
  10  -7  -1 2886.88 425.310   3
  10  -7   0 52.6889 107.039   3
  10  -7   1 291.515 160.438   3
  10  -7   2 1237.37 292.319   3
  10  -7   3 3729.76 501.206   3
  10  -7   4 6446.52 646.440   3
  10  -7   5 6298.92 642.995   3
  10  -7   6 6928.11 678.194   3
  10  -6 -10 5302.39 664.721   1
  10  -6  -9 3871.20 635.803   3
  10  -6  -9 2064.60 405.533   1
  10  -6  -8 1054.62 281.993   3
  10  -6  -8 1239.98 356.825   1
  10  -6  -7 104.112 121.030   1
  10  -6  -7 95.9844 141.360   3
  10  -6  -6 190.733 118.820   1
  10  -6  -6-48.3880 110.634   3
  10  -6  -5 18.5716 85.9034   3
  10  -6  -4 2997.45 431.628   3
  10  -6  -3 9083.11 752.615   3
  10  -6  -2 10290.4 793.574   3
  10  -6  -1 4980.20 559.022   3
  10  -6   0 7880.78 700.646   3
  10  -6   1 3284.70 448.358   3
  10  -6   2 3113.59 451.306   3
  10  -6   3 82.1429 99.0363   3
  10  -6   4 1001.83 272.636   3
  10  -6   5 3228.53 453.904   3
  10  -6   6 801.627 236.872   3
  10  -5 -11 1004.39 301.697   1
  10  -5 -10 2923.45 469.745   3
  10  -5 -10 2883.68 484.253   1
  10  -5  -9 4359.03 578.087   1
  10  -5  -9 4956.28 596.761   3
  10  -5  -8 6237.96 690.293   1
  10  -5  -8 6118.90 662.370   3
  10  -5  -7 6905.32 697.915   1
  10  -5  -7 7074.46 701.291   3
  10  -5  -6 6432.32 663.071   1
  10  -5  -6 5610.53 597.425   3
  10  -5  -5 4557.68 534.471   3
  10  -5  -4 3609.61 470.940   3
  10  -5  -3-18.0478 91.1787   3
  10  -5  -2 621.570 196.798   3
  10  -5  -1 2293.99 378.654   3
  10  -5   0 4933.61 547.739   3
  10  -5   1 11074.6 817.116   3
  10  -5   2 5988.79 602.490   3
  10  -5   3 9523.83 772.521   3
  10  -5   4 2576.34 402.607   3
  10  -5   5 3463.64 473.764   3
  10  -5   6 269.457 157.534   3
  10  -5   7 147.195 143.670   3
  10  -4 -11 627.956 248.585   1
  10  -4 -11 298.055 205.054   3
  10  -4 -10 119.906 122.546   3
  10  -4 -10 127.175 130.682   1
  10  -4  -9 311.852 164.875   3
  10  -4  -9 281.075 166.985   1
  10  -4  -8 365.518 167.354   1
  10  -4  -8 499.102 199.273   3
  10  -4  -7 4029.68 525.693   1
  10  -4  -7 5207.81 573.818   3
  10  -4  -6 3976.25 514.773   1
  10  -4  -6 3325.83 463.339   3
  10  -4  -5 9909.91 771.326   3
  10  -4  -4 15454.3 965.892   3
  10  -4  -3 6543.72 626.730   3
  10  -4  -2 2096.14 351.648   3
  10  -4  -1 2787.24 403.266   3
  10  -4   0 438.984 171.813   3
  10  -4   1 348.289 189.180   3
  10  -4   2 1098.44 269.622   3
  10  -4   3 3542.09 485.237   3
  10  -4   4 8087.88 723.372   3
  10  -4   5 9307.90 783.944   3
  10  -4   6 5677.52 626.545   3
  10  -4   7 881.407 265.508   3
  10  -3 -12 1609.47 387.095   1
  10  -3 -12 1307.66 336.581   3
  10  -3 -12 1950.82 354.436   2
  10  -3 -11 5585.74 625.393   3
  10  -3 -11 5757.46 677.695   1
  10  -3 -10 7840.88 733.406   3
  10  -3 -10 7021.99 708.989   1
  10  -3  -9 9149.04 779.788   3
  10  -3  -9 10765.1 907.265   1
  10  -3  -8 1849.48 351.923   1
  10  -3  -8 1746.13 337.253   3
  10  -3  -7-18.2698 72.3541   1
  10  -3  -7 121.252 131.531   3
  10  -3  -6-35.9983 70.1451   3
  10  -3  -5 834.588 226.780   3
  10  -3  -4 5857.22 591.047   3
  10  -3  -3 4366.70 502.265   3
  10  -3  -2 11809.2 840.469   3
  10  -3  -1 5839.27 595.891   3
  10  -3   0 4149.19 505.618   3
  10  -3   1 3964.92 497.383   3
  10  -3   2 4094.85 510.672   3
  10  -3   3 280.253 165.244   3
  10  -3   4 1265.77 303.833   3
  10  -3   5 3250.92 458.559   3
  10  -3   6 3079.96 471.010   3
  10  -3   7 2721.93 450.497   3
  10  -2 -13 549.870 249.774   1
  10  -2 -13 421.745 178.994   2
  10  -2 -12 129.900 160.696   1
  10  -2 -12-44.9050 96.8025   2
  10  -2 -12-115.454 138.707   3
  10  -2 -11 1656.42 345.533   1
  10  -2 -11 1598.01 341.454   3
  10  -2 -10 5964.98 623.590   3
  10  -2 -10 6352.22 664.598   1
  10  -2  -9 5397.61 588.690   3
  10  -2  -9 6019.97 674.839   1
  10  -2  -8 7691.79 686.871   3
  10  -2  -8 7319.63 679.967   1
  10  -2  -7 2285.66 381.212   1
  10  -2  -7 1903.91 339.941   3
  10  -2  -6 7048.08 643.358   3
  10  -2  -5 3743.00 475.153   3
  10  -2  -4 3314.67 435.654   3
  10  -2  -3 1597.53 310.565   3
  10  -2  -2 4956.26 547.625   3
  10  -2  -1 9349.59 750.212   3
  10  -2   0 5697.86 575.350   3
  10  -2   1 7440.43 681.736   3
  10  -2   2 7637.92 703.533   3
  10  -2   3 13398.2 940.421   3
  10  -2   4 3950.88 521.103   3
  10  -2   5 589.209 221.197   3
  10  -2   6-6.73002 100.555   3
  10  -2   7 605.835 229.856   3
  10  -1 -13 4394.97 602.061   1
  10  -1 -13 3993.04 514.256   2
  10  -1 -12 4031.42 552.544   1
  10  -1 -12 3984.06 511.619   2
  10  -1 -11 838.293 261.303   1
  10  -1 -11 622.052 226.140   3
  10  -1 -10 107.183 117.666   3
  10  -1 -10 411.570 178.998   1
  10  -1  -9 129.700 109.696   3
  10  -1  -9 45.8926 94.7010   1
  10  -1  -8 2341.12 383.154   3
  10  -1  -8 2223.28 364.558   1
  10  -1  -7 9727.21 767.850   1
  10  -1  -7 9770.25 773.160   3
  10  -1  -6 6120.59 609.007   3
  10  -1  -5 11486.9 831.417   3
  10  -1  -4 4890.98 547.203   3
  10  -1  -3 18779.2 1048.43   3
  10  -1  -2 13828.0 908.068   3
  10  -1  -1 5215.09 566.938   3
  10  -1   0 218.207 146.621   3
  10  -1   1 1574.34 322.295   3
  10  -1   2 4462.67 542.605   3
  10  -1   3 1742.02 364.102   3
  10  -1   4 1424.83 330.997   3
  10  -1   5 4359.90 556.422   3
  10  -1   6 5069.53 621.631   3
  10  -1   7 3301.58 522.018   3
  10   0 -14 125.699 192.916   1
  10   0 -13 2667.29 464.363   1
  10   0 -13 2100.15 397.848   2
  10   0 -12 3652.18 518.106   1
  10   0 -12 4337.22 547.791   2
  10   0 -11 6416.74 640.987   3
  10   0 -11 6814.23 666.650   1
  10   0 -10 4962.05 562.810   3
  10   0 -10 5570.41 618.852   1
  10   0  -9 9068.47 752.787   3
  10   0  -9 10776.0 875.864   1
  10   0  -8 1049.96 264.983   1
  10   0  -8 752.802 211.791   3
  10   0  -7-42.2176 91.8763   1
  10   0  -7-22.8016 96.6369   3
  10   0  -6 476.946 177.272   3
  10   0  -5 804.212 214.463   3
  10   0  -4 1049.96 259.025   3
  10   0  -3 4513.93 533.885   3
  10   0  -2 7945.98 708.519   3
  10   0  -1 5758.31 606.565   3
  10   0   0 5527.95 610.599   3
  10   0   1 286.584 166.775   3
  10   0   2 221.121 126.529   3
  10   0   3 128.138 116.853   3
  10   0   4 309.849 178.753   3
  10   0   5 2025.71 398.589   3
  10   0   6 2426.14 442.672   3
  10   1 -13 270.188 178.306   1
  10   1 -13-38.1721 101.551   2
  10   1 -12 482.176 210.960   1
  10   1 -12 349.543 160.249   2
  10   1 -11 506.301 204.804   1
  10   1 -11 312.948 159.172   3
  10   1 -10 6888.17 655.311   3
  10   1 -10 6022.78 609.349   1
  10   1  -9 7281.22 673.236   3
  10   1  -9 7461.62 722.556   1
  10   1  -8 6245.38 623.569   3
  10   1  -8 6188.01 600.366   1
  10   1  -7 3478.89 469.698   3
  10   1  -7 3383.14 445.528   1
  10   1  -6 9731.04 771.770   3
  10   1  -5 4028.49 501.831   3
  10   1  -4 190.436 151.869   3
  10   1  -3 2244.94 382.892   3
  10   1  -2 2688.68 415.884   3
  10   1  -1 2799.97 432.452   3
  10   1   0 6117.88 638.969   3
  10   1   1 3921.01 536.754   3
  10   1   2 9563.79 842.778   3
  10   1   3 11954.9 972.006   3
  10   1   4 1803.95 382.290   3
  10   1   5 145.568 122.067   3
  10   2 -12 1312.47 332.750   2
  10   2 -11 1193.58 268.583   3
  10   2 -10 188.701 122.321   3
  10   2 -10 84.6989 105.432   1
  10   2  -9-28.8498 87.0350   3
  10   2  -9 246.848 139.534   1
  10   2  -8 1896.15 332.901   1
  10   2  -8 1490.60 306.405   3
  10   2  -7 6945.52 663.676   3
  10   2  -7 7110.87 619.805   1
  10   2  -6 5293.68 582.427   3
  10   2  -5 10098.4 817.210   3
  10   2  -4 5207.66 585.799   3
  10   2  -3 4837.28 564.197   3
  10   2  -2 2369.21 408.859   3
  10   2  -1 939.264 292.372   3
  10   2   0 154.788 151.297   3
  10   2   1 685.330 252.052   3
  10   2   2 1371.74 345.384   3
  10   2   3 5465.41 674.925   3
  10   2   4 3545.67 555.114   3
  10   3 -12 3245.67 518.673   2
  10   3 -10 3829.55 496.482   3
  10   3  -9 9385.98 782.084   3
  10   3  -8 4161.38 520.436   3
  10   3  -7-30.1095 115.510   3
  10   3  -6 1711.45 349.827   3
  10   3  -5 4166.82 534.005   3
  10   3  -4 4173.64 537.613   3
  10   3  -3 7519.67 732.196   3
  10   3  -2 10038.4 868.111   3
  10   3  -1 6561.88 706.671   3
  10   3   0 2405.19 434.847   3
  10   3   1 1672.42 389.260   3
  10   3   2 306.954 183.174   3
  10   4 -10 2339.07 395.491   3
  10   4  -9 4569.47 552.672   3
  10   4  -8 9214.12 800.571   3
  10   4  -7 2482.45 424.343   3
  10   4  -6 732.665 227.357   3
  10   4  -5 3255.55 482.820   3
  10   4  -4 1038.80 288.056   3
  10   4  -3 156.114 136.194   3
  10   4  -2 839.760 279.507   3
  10   4  -1 1911.76 390.966   3
  10   4   0 3964.00 582.604   3
  10   4   1 1187.83 321.174   3
  10   5 -10 434.368 188.371   3
  10   5  -9 700.210 240.104   3
  10   5  -8 4551.82 577.513   3
  10   5  -7 1053.74 292.535   3
  10   5  -6 1904.67 381.041   3
  10   5  -5 6878.19 738.046   3
  10   5  -4 2824.04 478.560   3
  10   5  -3 1944.88 403.624   3
  10   5  -2 1590.61 385.644   3
  10   5  -1 18.1840 122.402   3
  10   6  -9 2912.61 483.611   3
  10   6  -8 998.367 286.100   3
  10   6  -7 41.4801 131.863   3
  10   6  -6 1075.72 308.622   3
  10   6  -5 4418.17 632.638   3
  10   6  -4 1911.36 409.596   3
  10   6  -3 2682.95 489.474   3
  10   7  -9 4961.04 622.812   3
  10   7  -8 4558.03 620.975   3
  10   7  -7 1861.60 403.919   3
  10   7  -6 757.042 267.804   3
  11 -11  -1 1840.38 414.864   3
  11 -11   0 2497.17 497.549   3
  11 -11   1 3941.24 579.936   3
  11 -11   2 1875.64 405.006   3
  11 -11   3 1303.29 335.905   3
  11 -11   4 92.8042 113.435   3
  11 -10  -4 2762.99 534.643   1
  11 -10  -3 525.538 259.826   3
  11 -10  -2 34.7822 129.161   3
  11 -10  -1 119.147 129.982   3
  11 -10   0 261.898 128.729   3
  11 -10   1 1291.31 335.198   3
  11 -10   2 2299.44 422.068   3
  11 -10   3 3408.33 532.119   3
  11 -10   4 3423.20 519.872   3
  11 -10   5 6866.81 738.824   3
  11  -9  -5 767.304 279.738   1
  11  -9  -5 1153.90 343.801   3
  11  -9  -4 4434.00 654.242   1
  11  -9  -4 3513.58 537.453   3
  11  -9  -3 5970.26 693.050   3
  11  -9  -2 3258.11 512.152   3
  11  -9  -1 1923.96 413.846   3
  11  -9   0 1258.09 341.891   3
  11  -9   1-6.33163 107.742   3
  11  -9   2 52.7008 121.707   3
  11  -9   3 154.977 161.171   3
  11  -9   4 4674.46 602.162   3
  11  -9   5 4448.21 590.613   3
  11  -8  -7 2017.75 448.415   1
  11  -8  -7 1586.04 383.124   3
  11  -8  -6 59.1683 103.159   1
  11  -8  -6-69.3287 123.756   3
  11  -8  -5 300.369 176.558   1
  11  -8  -5-32.5952 107.564   3
  11  -8  -4 160.995 113.744   3
  11  -8  -3 2586.32 454.370   3
  11  -8  -2 3871.89 542.493   3
  11  -8  -1 5695.85 650.010   3
  11  -8   0 8887.33 815.136   3
  11  -8   1 5559.83 653.430   3
  11  -8   2 5226.86 625.379   3
  11  -8   3 2189.25 413.830   3
  11  -8   4 432.508 196.757   3
  11  -8   5 918.590 292.163   3
  11  -7  -8 3239.58 573.135   1
  11  -7  -8 2472.07 468.907   3
  11  -7  -7 5407.31 699.711   1
  11  -7  -7 3931.72 575.117   3
  11  -7  -6 5141.01 657.050   1
  11  -7  -6 6056.79 694.254   3
  11  -7  -5 5442.19 669.388   1
  11  -7  -5 4665.16 613.324   3
  11  -7  -4 2705.96 456.075   3
  11  -7  -3 188.901 124.152   3
  11  -7  -2 214.806 170.928   3
  11  -7  -1-26.3263 79.8214   3
  11  -7   0 745.482 265.790   3
  11  -7   1 3070.68 472.646   3
  11  -7   2 3798.42 534.524   3
  11  -7   3 5381.69 635.593   3
  11  -7   4 4265.04 558.640   3
  11  -7   5 4525.22 578.488   3
  11  -7   6 2902.48 456.577   3
  11  -6  -9 981.086 297.320   3
  11  -6  -9 568.817 252.904   1
  11  -6  -8 143.659 104.829   1
  11  -6  -8 121.910 163.473   3
  11  -6  -7 1925.00 405.281   1
  11  -6  -7 1546.36 375.745   3
  11  -6  -6 798.116 284.701   1
  11  -6  -6 1096.63 289.110   3
  11  -6  -5 2520.87 436.555   3
  11  -6  -4 4109.30 557.026   3
  11  -6  -3 11066.1 900.410   3
  11  -6  -2 6945.94 717.394   3
  11  -6  -1 4203.18 550.214   3
  11  -6   0 1096.78 290.170   3
  11  -6   1 68.8904 122.837   3
  11  -6   2 483.766 176.636   3
  11  -6   3 982.444 296.691   3
  11  -6   4 2510.88 426.030   3
  11  -6   5 2784.39 464.483   3
  11  -6   6 5788.86 658.545   3
  11  -5 -10 3422.36 544.073   1
  11  -5 -10 2195.25 437.512   3
  11  -5  -9 4245.45 624.071   1
  11  -5  -9 6913.80 752.316   3
  11  -5  -8 3965.84 581.721   1
  11  -5  -8 3566.06 548.603   3
  11  -5  -7 2025.91 421.188   1
  11  -5  -7 2322.03 406.283   3
  11  -5  -6 1929.20 379.438   3
  11  -5  -6 1768.73 379.096   1
  11  -5  -5 3514.47 494.090   3
  11  -5  -4 612.633 213.542   3
  11  -5  -3 7405.48 711.242   3
  11  -5  -2 8925.35 784.720   3
  11  -5  -1 5374.25 617.433   3
  11  -5   0 2330.30 414.766   3
  11  -5   1 1602.90 338.714   3
  11  -5   2 4854.42 583.034   3
  11  -5   3 3262.41 482.374   3
  11  -5   4 42.3727 122.799   3
  11  -5   5 1043.74 300.823   3
  11  -5   6 2037.66 384.117   3
  11  -4 -11 174.114 157.154   3
  11  -4 -10 1367.27 339.581   3
  11  -4 -10 994.602 317.089   1
  11  -4  -9 2097.20 407.167   3
  11  -4  -9 2262.14 462.631   1
  11  -4  -8 5364.41 643.885   1
  11  -4  -8 3504.70 504.351   3
  11  -4  -7 3711.22 537.227   1
  11  -4  -7 3029.13 462.911   3
  11  -4  -6 6793.00 692.390   3
  11  -4  -5 8368.21 765.034   3
  11  -4  -4 694.390 228.933   3
  11  -4  -3 69.6811 123.429   3
  11  -4  -2 361.548 176.925   3
  11  -4  -1 1940.09 378.846   3
  11  -4   0 4014.98 527.692   3
  11  -4   1 3061.39 458.856   3
  11  -4   2 6539.87 687.847   3
  11  -4   3 8168.72 776.268   3
  11  -4   4 4647.80 591.380   3
  11  -4   5 1708.08 381.348   3
  11  -4   6 744.085 243.210   3
  11  -3 -12 3728.93 542.716   3
  11  -3 -11 2659.45 453.765   3
  11  -3 -11 2854.06 489.027   1
  11  -3 -10 2519.84 445.942   3
  11  -3 -10 2618.31 463.883   1
  11  -3  -9 653.730 237.283   3
  11  -3  -9 1207.63 317.002   1
  11  -3  -8-85.4813 108.356   1
  11  -3  -8 107.150 143.797   3
  11  -3  -7 3240.01 487.130   1
  11  -3  -7 2708.24 444.464   3
  11  -3  -6 6925.69 687.465   3
  11  -3  -5 3723.10 503.801   3
  11  -3  -4 2514.25 409.602   3
  11  -3  -3 8214.38 738.267   3
  11  -3  -2 15263.8 1014.82   3
  11  -3  -1 8589.12 768.389   3
  11  -3   0 3114.33 471.583   3
  11  -3   1 101.140 99.6218   3
  11  -3   2 160.051 111.001   3
  11  -3   3 983.630 305.985   3
  11  -3   4 2449.04 434.486   3
  11  -3   5 3910.24 562.659   3
  11  -3   6 4187.86 579.331   3
  11  -2 -12 1069.05 333.540   1
  11  -2 -11 4067.79 552.276   3
  11  -2 -11 3019.81 498.107   1
  11  -2 -10 5158.15 616.361   3
  11  -2 -10 3554.52 551.588   1
  11  -2  -9 7199.24 717.478   3
  11  -2  -9 7741.85 770.741   1
  11  -2  -8 5271.25 612.226   3
  11  -2  -8 5438.18 620.253   1
  11  -2  -7 655.633 221.275   1
  11  -2  -7 943.348 277.390   3
  11  -2  -6 409.755 164.873   3
  11  -2  -5 28.2130 87.8284   3
  11  -2  -4 310.363 175.355   3
  11  -2  -3 2961.86 449.566   3
  11  -2  -2 5227.65 605.521   3
  11  -2  -1 9684.33 821.493   3
  11  -2   0 5680.75 641.265   3
  11  -2   1 2570.04 442.707   3
  11  -2   2 2724.62 446.251   3
  11  -2   3 767.975 262.001   3
  11  -2   4 56.5608 130.638   3
  11  -2   5-24.7520 139.861   3
  11  -2   6 1535.94 351.831   3
  11  -1 -12 1429.24 359.409   1
  11  -1 -11 84.9976 153.789   1
  11  -1 -11-30.6402 105.305   3
  11  -1 -10 1559.48 342.651   3
  11  -1 -10 1905.33 384.652   1
  11  -1  -9 5310.73 622.159   3
  11  -1  -9 4989.17 607.526   1
  11  -1  -8 5320.04 613.116   3
  11  -1  -8 5912.74 646.168   1
  11  -1  -7 4298.29 535.706   1
  11  -1  -7 5706.70 629.796   3
  11  -1  -6 4642.05 566.415   3
  11  -1  -5 7634.30 726.451   3
  11  -1  -4 3448.52 482.804   3
  11  -1  -3 1387.41 317.186   3
  11  -1  -2 207.504 129.786   3
  11  -1  -1 962.779 284.149   3
  11  -1   0 3166.02 493.883   3
  11  -1   1 5094.94 617.432   3
  11  -1   2 3241.72 505.443   3
  11  -1   3 1977.99 398.602   3
  11  -1   4 2979.09 520.808   3
  11  -1   5 1638.25 383.802   3
  11   0 -12 2416.01 437.962   1
  11   0 -11 1695.43 370.632   1
  11   0 -11 1278.20 317.948   3
  11   0 -10 900.640 263.486   3
  11   0 -10 434.883 191.047   1
  11   0  -9 474.147 218.319   3
  11   0  -9 173.393 145.203   1
  11   0  -8 246.063 145.857   1
  11   0  -8-5.64243 96.4557   3
  11   0  -7 367.394 169.077   1
  11   0  -7 881.050 267.552   3
  11   0  -6 4888.10 586.253   3
  11   0  -5 4772.28 574.570   3
  11   0  -4 8728.36 790.065   3
  11   0  -3 3898.26 521.450   3
  11   0  -2 4690.37 588.768   3
  11   0  -1 1751.96 370.785   3
  11   0   0 983.630 298.998   3
  11   0   1 251.100 142.471   3
  11   0   2 31.9317 115.737   3
  11   0   3 1353.02 339.986   3
  11   1 -11 1650.68 364.361   1
  11   1 -11 1788.72 350.547   3
  11   1 -10 4001.68 536.742   3
  11   1 -10 4026.35 534.151   1
  11   1  -9 6147.65 661.343   3
  11   1  -9 5304.34 611.979   1
  11   1  -8 8493.31 776.703   3
  11   1  -8 8261.57 738.229   1
  11   1  -7 628.115 232.121   1
  11   1  -7 986.420 273.513   3
  11   1  -6 364.832 165.119   3
  11   1  -5 287.967 157.815   3
  11   1  -4 743.572 245.818   3
  11   1  -3 3296.35 499.550   3
  11   1  -2 3903.64 553.417   3
  11   1  -1 8215.20 799.634   3
  11   1   0 4224.17 578.324   3
  11   1   1 3038.74 501.138   3
  11   1   2 2284.28 444.390   3
  11   2 -11 331.972 195.520   3
  11   2 -10 156.960 139.977   3
  11   2  -9 4031.61 543.205   3
  11   2  -8 7216.59 731.534   3
  11   2  -7 6329.28 688.240   3
  11   2  -6 4186.60 556.684   3
  11   2  -5 5175.60 645.366   3
  11   2  -4 646.082 225.020   3
  11   2  -3 220.138 136.842   3
  11   2  -2 734.829 251.613   3
  11   2  -1 1506.33 352.056   3
  11   2   0 1707.80 383.752   3
  11   2   1 1884.02 411.159   3
  11   3 -10 1.71828 128.067   3
  11   3  -9 645.586 248.043   3
  11   3  -8 164.219 128.970   3
  11   3  -7 876.615 256.700   3
  11   3  -6 3252.45 509.585   3
  11   3  -5 3704.79 546.804   3
  11   3  -4 5231.70 654.295   3
  11   3  -3 4967.91 635.658   3
  11   3  -2 4516.70 614.200   3
  11   3  -1 1351.88 357.482   3
  11   4 -10 1953.20 406.398   3
  11   4  -9 2829.01 480.445   3
  11   4  -8 2333.61 441.005   3
  11   4  -7 212.268 171.457   3
  11   4  -6 533.290 233.736   3
  11   4  -5-43.4610 118.556   3
  11   4  -4 125.508 462.716   3
  11   4  -3 356.761 223.439   3
  11   5  -9 4209.81 606.278   3
  11   5  -8 4104.41 605.909   3
  11   5  -7 1949.79 399.724   3
  11   5  -6 4198.65 619.002   3
  11   5  -5 1662.20 389.751   3
  12  -9  -2 887.572 298.506   3
  12  -9  -1 697.642 271.362   3
  12  -9   0 183.540 167.508   3
  12  -9   1 1758.62 396.156   3
  12  -9   2 2030.00 434.082   3
  12  -9   3 3546.18 545.212   3
  12  -9   4 3521.05 564.586   3
  12  -8  -5 516.396 249.408   1
  12  -8  -5 984.444 335.105   3
  12  -8  -4 1566.59 378.184   3
  12  -8  -3 5131.91 664.196   3
  12  -8  -2 5225.07 666.279   3
  12  -8  -1 4500.78 617.648   3
  12  -8   0 1560.60 359.182   3
  12  -8   1 466.717 222.038   3
  12  -8   2 439.890 220.025   3
  12  -8   3 108.051 172.515   3
  12  -8   4 652.555 263.597   3
  12  -7  -6 1879.70 428.266   1
  12  -7  -6 1023.65 328.185   3
  12  -7  -5 1040.25 316.442   3
  12  -7  -4 105.442 135.162   3
  12  -7  -3 96.5287 150.664   3
  12  -7  -2 1807.96 402.104   3
  12  -7  -1 1540.64 363.314   3
  12  -7   0 1949.88 407.244   3
  12  -7   1 5092.12 638.075   3
  12  -7   2 4219.98 599.591   3
  12  -7   3 3939.91 587.477   3
  12  -7   4 662.532 223.920   3
  12  -7   5 463.641 254.492   3
  12  -6  -8 733.924 273.728   3
  12  -6  -7 2405.69 488.921   1
  12  -6  -7 2829.69 514.270   3
  12  -6  -6 2567.46 500.996   1
  12  -6  -6 2892.32 487.669   3
  12  -6  -5 3000.76 503.144   3
  12  -6  -4 7684.36 790.071   3
  12  -6  -3 3669.59 549.255   3
  12  -6  -2 583.383 238.521   3
  12  -6  -1 468.741 245.977   3
  12  -6   0 74.8583 119.356   3
  12  -6   1 2179.08 425.115   3
  12  -6   2 3418.29 524.307   3
  12  -6   3 3426.83 530.488   3
  12  -6   4 4077.15 603.538   3
  12  -6   5 4242.02 600.751   3
  12  -5  -9 4595.26 649.249   3
  12  -5  -8 806.540 284.236   1
  12  -5  -8 944.018 287.962   3
  12  -5  -7 8.22699 130.081   1
  12  -5  -7 56.2363 108.562   3
  12  -5  -6 354.714 192.233   1
  12  -5  -6 130.085 145.010   3
  12  -5  -5 1091.41 317.966   3
  12  -5  -4 9427.44 853.577   3
  12  -5  -3 4894.84 627.404   3
  12  -5  -2 5078.73 636.516   3
  12  -5  -1 3208.38 511.172   3
  12  -5   0 188.459 157.835   3
  12  -5   1 1.83890 128.010   3
  12  -5   2 577.177 226.751   3
  12  -5   3-15.7639 94.5328   3
  12  -5   4 1036.66 316.487   3
  12  -5   5 3940.31 587.853   3
  12  -4 -10 4428.36 625.035   3
  12  -4  -9 7807.74 866.828   1
  12  -4  -9 7560.97 799.311   3
  12  -4  -8 4693.61 636.581   1
  12  -4  -8 4710.73 625.663   3
  12  -4  -7 1648.79 381.518   1
  12  -4  -7 1668.59 390.703   3
  12  -4  -6 1358.47 350.077   3
  12  -4  -5 230.906 175.714   3
  12  -4  -4 160.208 131.444   3
  12  -4  -3-15.6371 88.0902   3
  12  -4  -2 2937.86 470.555   3
  12  -4  -1 7881.02 778.231   3
  12  -4   0 5541.29 668.919   3
  12  -4   1 4472.63 597.771   3
  12  -4   2 2750.97 489.690   3
  12  -4   3 3418.73 542.249   3
  12  -4   4 1102.94 324.446   3
  12  -3 -11 192.581 160.911   3
  12  -3 -10 40.6108 116.178   3
  12  -3 -10 352.086 220.718   1
  12  -3  -9 983.292 315.937   1
  12  -3  -9 674.133 245.102   3
  12  -3  -8 816.653 276.820   1
  12  -3  -8 680.848 240.351   3
  12  -3  -7 4573.77 613.252   1
  12  -3  -7 4633.98 612.289   3
  12  -3  -6 4286.97 586.909   3
  12  -3  -5 2849.14 467.668   3
  12  -3  -4 3142.28 492.681   3
  12  -3  -3 5717.15 660.095   3
  12  -3  -2 3499.82 528.203   3
  12  -3  -1 2164.37 436.253   3
  12  -3   0-77.2578 113.911   3
  12  -3   1 1947.86 405.913   3
  12  -3   2 4743.68 632.626   3
  12  -3   3 9818.41 948.524   3
  12  -2 -11 3110.10 508.688   3
  12  -2 -10 2067.46 425.850   3
  12  -2 -10 1990.08 425.811   1
  12  -2  -9 3631.01 531.860   3
  12  -2  -9 2620.07 477.565   1
  12  -2  -8 1398.73 349.402   1
  12  -2  -8 560.831 250.212   3
  12  -2  -7 177.809 167.322   1
  12  -2  -7-11.0397 91.0733   3
  12  -2  -6 680.732 243.307   3
  12  -2  -5 2010.10 395.111   3
  12  -2  -4 5030.99 634.889   3
  12  -2  -3 5288.53 642.878   3
  12  -2  -2 5387.35 670.856   3
  12  -2  -1 2472.22 447.181   3
  12  -2   0 2926.73 497.796   3
  12  -2   1-99.9895 150.305   3
  12  -2   2 557.651 219.837   3
  12  -1 -11 992.371 301.428   3
  12  -1 -11 913.274 307.468   1
  12  -1 -10 3188.16 517.764   3
  12  -1 -10 3722.92 564.742   1
  12  -1  -9 8194.64 818.474   3
  12  -1  -9 7988.57 796.488   1
  12  -1  -8 7601.33 774.170   3
  12  -1  -8 6267.62 705.404   1
  12  -1  -7 947.981 306.909   1
  12  -1  -7 1138.77 311.006   3
  12  -1  -6 601.966 204.684   3
  12  -1  -5 689.958 239.019   3
  12  -1  -4-87.8164 122.993   3
  12  -1  -3 1623.74 360.798   3
  12  -1  -2 2688.38 479.707   3
  12  -1  -1 4068.49 578.307   3
  12  -1   0 4879.34 630.473   3
  12  -1   1 690.577 233.157   3
  12   0 -11 170.167 158.919   3
  12   0 -11 8.58500 142.851   1
  12   0 -10 179.781 124.995   3
  12   0 -10-66.1958 145.817   1
  12   0  -9 757.826 265.103   3
  12   0  -9 911.369 296.556   1
  12   0  -8 1712.84 365.725   1
  12   0  -8 1094.84 295.174   3
  12   0  -7 3904.85 567.556   3
  12   0  -7 4610.78 590.753   1
  12   0  -6 6132.09 705.661   3
  12   0  -5 3628.15 537.482   3
  12   0  -4 970.688 281.752   3
  12   0  -3 395.920 189.419   3
  12   0  -2 747.027 272.740   3
  12   0  -1 31.1740 99.1014   3
  12   0   0 781.948 293.906   3
  12   1 -11 3681.95 556.283   3
  12   1 -10 1307.76 347.187   3
  12   1  -9 2003.08 406.769   3
  12   1  -8 1927.34 379.114   3
  12   1  -7 71.6042 125.598   1
  12   1  -7 81.9354 142.247   3
  12   1  -6 68.7487 152.401   3
  12   1  -5 1591.06 359.454   3
  12   1  -4 4887.22 636.189   3
  12   1  -3 6150.02 735.079   3
  12   1  -2 8826.74 889.985   3
  12   2 -10 2089.74 434.226   3
  12   2  -9 4463.48 620.813   3
  12   2  -8 5127.98 662.228   3
  12   2  -7 1266.82 313.337   3
  12   2  -6 424.665 202.311   3
  12   2  -5 127.184 129.115   3
  12   2  -4 800.879 293.258   3
  12   3 -10 165.684 154.738   3
  12   3  -9 1022.87 292.415   3
  12   3  -8 6348.17 740.497   3
  12   3  -7 2399.68 465.537   3
  12   3  -6 1584.64 376.916   3
  13  -5  -4 2327.79 456.373   3
  13  -5  -3 3541.19 568.140   3
  13  -5  -2 2338.03 462.723   3
  13  -5  -1 1001.13 304.299   3
  13  -4  -7 171.079 144.906   1
  13  -4  -6 68.1207 129.426   3
  13  -4  -5 40.3237 100.304   3
  13  -4  -4 1375.71 345.160   3
  13  -4  -3 3178.12 537.981   3
  13  -4  -2 2236.90 448.222   3
  13  -4  -1 3997.74 597.443   3
  13  -3  -8 4363.65 631.707   1
  13  -3  -7 3185.62 538.631   1
  13  -3  -6 2041.52 460.329   3
  13  -3  -5 1175.99 333.505   3
  13  -3  -4 274.134 192.215   3
  13  -3  -3 125.215 123.396   3
  13  -3  -2-76.7974 142.619   3
  13  -2  -8 1247.46 351.305   1
  13  -2  -7 2462.00 483.995   1
  13  -2  -7 2356.55 468.047   3
  13  -2  -6 2832.56 526.623   3
  13  -2  -5 1423.20 361.533   3
  13  -2  -4 4422.49 631.856   3
  13  -2  -3 3878.13 599.061   3
  13  -1  -9 1816.44 417.714   1
  13  -1  -8 1699.17 402.290   1
  13  -1  -7 81.3069 132.398   1
  13   0  -7 5554.90 696.385   1
   0   0   0    0.00    0.00   0

TITL DM-AJ-53_Mo in P1
REM P1 (#1 in standard setting)
CELL 0.71073   9.634821  10.719789  11.583733 105.6389 103.1255 104.6952
ZERR    5.00   0.000284   0.000339   0.000270   0.0024   0.0022   0.0026
LATT -1
SFAC C H N O
UNIT 55.00 50.00 5.00 5.00
TREF
HKLF 4
END
;
_shelx_hkl_checksum              5943
_shelx_fab_checksum              80426
_shelx_fab_file
;
  -11    0    3     -0.77      0.00
  -11    0    4     -0.24      0.00
  -11    0    5     -0.72      0.00
  -11    1    2     -1.20      0.00
  -11    1    3     -1.72      0.00
  -11    1    4     -1.67      0.00
  -11    1    5     -1.32      0.00
  -11    1    6     -1.54      0.00
  -11    2    1     -0.54      0.00
  -11    2    2     -0.93      0.00
  -11    2    3     -0.55      0.00
  -11    2    4     -0.85      0.00
  -11    2    5     -0.57      0.00
  -11    2    6     -0.45      0.00
  -11    3    0     -0.42      0.00
  -11    3    1     -0.42      0.00
  -11    3    2     -0.80      0.00
  -11    3    3     -0.57      0.00
  -11    3    4     -0.20      0.00
  -11    3    5     -0.01      0.00
  -11    3    6      0.30      0.00
  -11    4    0     -0.47      0.00
  -11    4    1     -0.62      0.00
  -11    4    2     -0.37      0.00
  -11    4    3     -0.19      0.00
  -11    4    4     -0.05      0.00
  -11    4    5     -0.06      0.00
  -11    4    6      0.21      0.00
  -11    5    0      0.16      0.00
  -11    5    1      0.04      0.00
  -11    5    2      0.55      0.00
  -11    5    3      0.78      0.00
  -11    5    4      1.13      0.00
  -11    5    5      0.84      0.00
  -11    6    0     -0.07      0.00
  -11    6    1      0.07      0.00
  -11    6    2      0.31      0.00
  -11    6    3      0.48      0.00
  -10   -3    4      0.09      0.00
  -10   -3    5      0.36      0.00
  -10   -3    6      0.58      0.00
  -10   -2    1     -0.10      0.00
  -10   -2    2      0.22      0.00
  -10   -2    3      0.74      0.00
  -10   -2    4      0.64      0.00
  -10   -2    5      1.16      0.00
  -10   -2    6      1.11      0.00
   10    1    0      0.60      0.00
  -10   -1    1      1.07      0.00
  -10   -1    2      1.25      0.00
  -10   -1    3      1.68      0.00
  -10   -1    4      2.22      0.00
  -10   -1    5      2.15      0.00
  -10   -1    6      2.87      0.00
   10    0    1      0.03      0.00
   10    0    0      0.48      0.00
  -10    0    1      0.96      0.00
  -10    0    2      1.75      0.00
  -10    0    3      1.54      0.00
  -10    0    4      2.23      0.00
  -10    0    5      2.61      0.00
  -10    0    6      2.56      0.00
   10   -1    2      0.92      0.00
   10   -1    1      1.23      0.00
  -10    1    0      2.05      0.00
  -10    1    1      2.45      0.00
  -10    1    2      3.02      0.00
  -10    1    3      3.57      0.00
  -10    1    4      3.30      0.00
  -10    1    5      3.76      0.00
  -10    1    6      3.63      0.00
   10   -2    3      0.17      0.00
   10   -2    2      0.95      0.00
   10   -2    1      1.68      0.00
  -10    2    0      2.29      0.00
  -10    2    1      3.12      0.00
  -10    2    2      3.04      0.00
  -10    2    3      3.26      0.00
  -10    2    4      3.54      0.00
  -10    2    5      3.26      0.00
  -10    2    6      3.15      0.00
   10   -3    3      1.04      0.00
   10   -3    2      1.28      0.00
   10   -3    1      2.24      0.00
  -10    3    0      2.72      0.00
  -10    3    1      3.03      0.00
  -10    3    2      3.01      0.00
  -10    3    3      2.50      0.00
  -10    3    4      2.04      0.00
  -10    3    5      2.20      0.00
  -10    3    6      1.70      0.00
   10   -4    3      1.36      0.00
   10   -4    2      2.26      0.00
   10   -4    1      2.75      0.00
  -10    4    0      3.39      0.00
  -10    4    1      3.36      0.00
  -10    4    2      2.80      0.00
  -10    4    3      2.39      0.00
  -10    4    4      1.77      0.00
  -10    4    5      1.07      0.00
   10   -5    3      0.89      0.00
   10   -5    2      1.85      0.00
   10   -5    1      2.40      0.00
  -10    5    0      2.60      0.00
  -10    5    1      2.33      0.00
  -10    5    2      1.84      0.00
  -10    5    3      0.79      0.00
  -10    5    4      0.80      0.00
  -10    5    5      0.34      0.00
   10   -6    3      1.68      0.00
   10   -6    2      1.91      0.00
   10   -6    1      2.44      0.00
  -10    6    0      2.54      0.00
  -10    6    1      1.94      0.00
  -10    6    2      1.20      0.00
  -10    6    3      0.59      0.00
  -10    6    4     -0.32      0.00
  -10    6    5     -0.17      0.00
   10   -7    3      0.77      0.00
   10   -7    2      1.18      0.00
   10   -7    1      1.35      0.00
  -10    7    0      1.22      0.00
  -10    7    1      1.08      0.00
  -10    7    2      0.45      0.00
  -10    7    3      0.29      0.00
  -10    7    4      0.12      0.00
   10   -8    2      0.61      0.00
   10   -8    1      0.61      0.00
  -10    8    0      0.44      0.00
  -10    8    1     -0.05      0.00
  -10    8    2     -0.19      0.00
  -10    8    3     -0.52      0.00
   -9   -4    1      0.65      0.00
   -9   -4    2      0.45      0.00
   -9   -4    3      0.37      0.00
    9    3    0      0.74      0.00
   -9   -3    1      0.65      0.00
   -9   -3    2      0.71      0.00
   -9   -3    3      0.79      0.00
   -9   -3    4      0.97      0.00
   -9   -3    5      1.77      0.00
   -9   -3    6      1.61      0.00
    9    2    2      1.49      0.00
    9    2    1      1.94      0.00
    9    2    0      1.88      0.00
   -9   -2    1      1.75      0.00
   -9   -2    2      1.21      0.00
   -9   -2    3      1.78      0.00
   -9   -2    4      1.85      0.00
   -9   -2    5      1.93      0.00
   -9   -2    6      2.32      0.00
    9    1    3      0.63      0.00
    9    1    2      0.68      0.00
    9    1    1      1.15      0.00
    9    1    0      0.99      0.00
   -9   -1    1      0.86      0.00
   -9   -1    2      0.75      0.00
   -9   -1    3      0.38      0.00
   -9   -1    4      1.13      0.00
   -9   -1    5      0.66      0.00
   -9   -1    6      0.47      0.00
    9    0    3      1.28      0.00
    9    0    2      1.48      0.00
    9    0    1      1.15      0.00
    9    0    0      1.18      0.00
   -9    0    1      0.52      0.00
   -9    0    2      0.78      0.00
   -9    0    3      0.59      0.00
   -9    0    4      0.15      0.00
   -9    0    5      0.48      0.00
   -9    0    6     -0.16      0.00
    9   -1    4      0.42      0.00
    9   -1    3      0.19      0.00
    9   -1    2      0.71      0.00
    9   -1    1      0.31      0.00
   -9    1    0     -0.10      0.00
   -9    1    1     -0.26      0.00
   -9    1    2     -0.70      0.00
   -9    1    3     -0.30      0.00
   -9    1    4     -0.57      0.00
   -9    1    5     -1.27      0.00
   -9    1    6     -0.93      0.00
    9   -2    5      0.03      0.00
    9   -2    4      0.59      0.00
    9   -2    3      0.18      0.00
    9   -2    2     -0.52      0.00
    9   -2    1     -0.49      0.00
   -9    2    0     -1.16      0.00
   -9    2    1     -1.24      0.00
   -9    2    2     -1.12      0.00
   -9    2    3     -1.37      0.00
   -9    2    4     -1.03      0.00
   -9    2    5     -1.08      0.00
   -9    2    6     -1.87      0.00
    9   -3    5     -0.23      0.00
    9   -3    4     -0.74      0.00
    9   -3    3     -0.35      0.00
    9   -3    2     -1.19      0.00
    9   -3    1     -1.89      0.00
   -9    3    0     -2.01      0.00
   -9    3    1     -2.23      0.00
   -9    3    2     -2.09      0.00
   -9    3    3     -1.58      0.00
   -9    3    4     -2.15      0.00
   -9    3    5     -1.43      0.00
    9   -4    5     -0.61      0.00
    9   -4    4     -1.66      0.00
    9   -4    3     -2.59      0.00
    9   -4    2     -2.43      0.00
    9   -4    1     -3.04      0.00
   -9    4    0     -3.24      0.00
   -9    4    1     -2.71      0.00
   -9    4    2     -2.47      0.00
   -9    4    3     -1.99      0.00
   -9    4    4     -1.07      0.00
   -9    4    5     -1.63      0.00
    9   -5    5     -1.84      0.00
    9   -5    4     -1.66      0.00
    9   -5    3     -2.70      0.00
    9   -5    2     -3.28      0.00
    9   -5    1     -3.06      0.00
   -9    5    0     -3.09      0.00
   -9    5    1     -3.02      0.00
   -9    5    2     -2.04      0.00
   -9    5    3     -2.10      0.00
   -9    5    4     -1.14      0.00
   -9    5    5     -0.50      0.00
    9   -6    5     -2.44      0.00
    9   -6    4     -3.49      0.00
    9   -6    3     -3.27      0.00
    9   -6    2     -3.71      0.00
    9   -6    1     -3.64      0.00
   -9    6    0     -2.81      0.00
   -9    6    1     -2.20      0.00
   -9    6    2     -1.58      0.00
   -9    6    3     -0.34      0.00
   -9    6    4     -0.47      0.00
    9   -7    5     -1.91      0.00
    9   -7    4     -3.18      0.00
    9   -7    3     -3.81      0.00
    9   -7    2     -3.47      0.00
    9   -7    1     -3.28      0.00
   -9    7    0     -2.83      0.00
   -9    7    1     -1.68      0.00
   -9    7    2     -1.09      0.00
   -9    7    3     -0.30      0.00
   -9    7    4      0.22      0.00
    9   -8    5     -2.21      0.00
    9   -8    4     -2.36      0.00
    9   -8    3     -2.90      0.00
    9   -8    2     -2.81      0.00
    9   -8    1     -2.11      0.00
   -9    8    0     -1.38      0.00
   -9    8    1     -0.72      0.00
   -9    8    2      0.10      0.00
   -9    8    3      0.23      0.00
    9   -9    4     -2.10      0.00
    9   -9    3     -2.26      0.00
    9   -9    2     -2.37      0.00
    9   -9    1     -2.05      0.00
   -9    9    0     -1.41      0.00
   -9    9    1     -0.60      0.00
   -9    9    2     -0.19      0.00
    9  -10    2     -0.57      0.00
    9  -10    1     -0.36      0.00
   -9   10    0     -0.17      0.00
   -9   10    1     -0.02      0.00
    8    4    1      0.61      0.00
    8    4    0      0.74      0.00
   -8   -4    1      1.07      0.00
   -8   -4    2      1.40      0.00
   -8   -4    3      0.85      0.00
   -8   -4    4      0.54      0.00
   -8   -4    5     -0.29      0.00
    8    3    3      0.96      0.00
    8    3    2      1.35      0.00
    8    3    1      1.13      0.00
    8    3    0      1.14      0.00
   -8   -3    1      1.00      0.00
   -8   -3    2      0.88      0.00
   -8   -3    3      0.64      0.00
   -8   -3    4     -0.75      0.00
   -8   -3    5     -1.13      0.00
    8    2    4      0.39      0.00
    8    2    3     -0.14      0.00
    8    2    2     -0.36      0.00
    8    2    1     -0.18      0.00
    8    2    0     -0.50      0.00
   -8   -2    1     -0.24      0.00
   -8   -2    2     -0.86      0.00
   -8   -2    3     -1.28      0.00
   -8   -2    4     -1.86      0.00
   -8   -2    5     -3.25      0.00
   -8   -2    6     -3.37      0.00
    8    1    4      0.28      0.00
    8    1    3      0.42      0.00
    8    1    2     -0.48      0.00
    8    1    1     -0.81      0.00
    8    1    0     -0.90      0.00
   -8   -1    1     -1.37      0.00
   -8   -1    2     -1.47      0.00
   -8   -1    3     -2.64      0.00
   -8   -1    4     -2.96      0.00
   -8   -1    5     -3.19      0.00
   -8   -1    6     -4.01      0.00
    8    0    5     -0.23      0.00
    8    0    4     -0.95      0.00
    8    0    3     -1.21      0.00
    8    0    2     -0.87      0.00
    8    0    1     -1.66      0.00
    8    0    0     -1.79      0.00
   -8    0    1     -2.41      0.00
   -8    0    2     -3.10      0.00
   -8    0    3     -3.59      0.00
   -8    0    4     -4.52      0.00
   -8    0    5     -4.41      0.00
   -8    0    6     -3.71      0.00
    8   -1    6     -0.53      0.00
    8   -1    5     -0.72      0.00
    8   -1    4     -0.66      0.00
    8   -1    3     -1.56      0.00
    8   -1    2     -1.55      0.00
    8   -1    1     -1.27      0.00
   -8    1    0     -1.89      0.00
   -8    1    1     -2.28      0.00
   -8    1    2     -2.97      0.00
   -8    1    3     -3.49      0.00
   -8    1    4     -3.12      0.00
   -8    1    5     -3.40      0.00
    8   -2    6     -0.44      0.00
    8   -2    5     -1.25      0.00
    8   -2    4     -1.38      0.00
    8   -2    3     -0.97      0.00
    8   -2    2     -1.84      0.00
    8   -2    1     -1.91      0.00
   -8    2    0     -2.22      0.00
   -8    2    1     -3.11      0.00
   -8    2    2     -3.73      0.00
   -8    2    3     -3.94      0.00
   -8    2    4     -4.03      0.00
   -8    2    5     -2.43      0.00
    8   -3    7     -0.41      0.00
    8   -3    6     -0.55      0.00
    8   -3    5     -0.63      0.00
    8   -3    4     -1.57      0.00
    8   -3    3     -1.20      0.00
    8   -3    2     -0.66      0.00
    8   -3    1     -1.18      0.00
   -8    3    0     -1.47      0.00
   -8    3    1     -1.64      0.00
   -8    3    2     -2.46      0.00
   -8    3    3     -2.05      0.00
   -8    3    4     -2.12      0.00
   -8    3    5     -1.79      0.00
    8   -4    7      0.33      0.00
    8   -4    6     -0.11      0.00
    8   -4    5      0.11      0.00
    8   -4    4      0.50      0.00
    8   -4    3     -0.35      0.00
    8   -4    2     -0.09      0.00
    8   -4    1     -0.07      0.00
   -8    4    0     -0.91      0.00
   -8    4    1     -1.41      0.00
   -8    4    2     -1.28      0.00
   -8    4    3     -1.87      0.00
   -8    4    4     -0.49      0.00
   -8    4    5     -1.01      0.00
    8   -5    7      0.63      0.00
    8   -5    6      0.81      0.00
    8   -5    5      0.23      0.00
    8   -5    4      0.91      0.00
    8   -5    3      1.35      0.00
    8   -5    2      0.62      0.00
    8   -5    1      0.41      0.00
   -8    5    0      0.22      0.00
   -8    5    1     -0.80      0.00
   -8    5    2     -0.65      0.00
   -8    5    3     -0.84      0.00
   -8    5    4     -1.01      0.00
    8   -6    7      0.62      0.00
    8   -6    6      1.37      0.00
    8   -6    5      1.90      0.00
    8   -6    4      1.36      0.00
    8   -6    3      1.85      0.00
    8   -6    2      1.74      0.00
    8   -6    1      0.73      0.00
   -8    6    0      0.25      0.00
   -8    6    1      0.07      0.00
   -8    6    2     -0.78      0.00
   -8    6    3     -0.14      0.00
   -8    6    4     -0.83      0.00
    8   -7    7      1.36      0.00
    8   -7    6      1.63      0.00
    8   -7    5      2.79      0.00
    8   -7    4      3.29      0.00
    8   -7    3      2.66      0.00
    8   -7    2      2.51      0.00
    8   -7    1      1.85      0.00
   -8    7    0      0.53      0.00
   -8    7    1      0.00      0.00
   -8    7    2     -0.62      0.00
   -8    7    3     -1.00      0.00
    8   -8    6      2.23      0.00
    8   -8    5      2.28      0.00
    8   -8    4      2.90      0.00
    8   -8    3      2.70      0.00
    8   -8    2      1.75      0.00
    8   -8    1      1.20      0.00
   -8    8    0      0.39      0.00
   -8    8    1     -0.58      0.00
   -8    8    2     -0.72      0.00
   -8    8    3     -1.03      0.00
    8   -9    6      2.28      0.00
    8   -9    5      2.93      0.00
    8   -9    4      2.96      0.00
    8   -9    3      3.15      0.00
    8   -9    2      2.60      0.00
    8   -9    1      1.60      0.00
   -8    9    0      0.74      0.00
   -8    9    1     -0.01      0.00
   -8    9    2     -0.35      0.00
    8  -10    5      1.69      0.00
    8  -10    4      1.84      0.00
    8  -10    3      1.74      0.00
    8  -10    2      1.74      0.00
    8  -10    1      1.23      0.00
   -8   10    0      0.67      0.00
   -8   10    1      0.21      0.00
    8  -11    2      0.62      0.00
    8  -11    1      0.32      0.00
   -8   11    0      0.11      0.00
    7    5    2     -1.63      0.00
    7    5    1     -2.13      0.00
    7    5    0     -2.77      0.00
   -7   -5    1     -3.01      0.00
   -7   -5    2     -3.60      0.00
   -7   -5    3     -3.53      0.00
   -7   -5    4     -2.95      0.00
    7    4    3     -0.93      0.00
    7    4    2     -1.63      0.00
    7    4    1     -2.39      0.00
    7    4    0     -2.80      0.00
   -7   -4    1     -3.42      0.00
   -7   -4    2     -3.36      0.00
   -7   -4    3     -3.63      0.00
   -7   -4    4     -3.23      0.00
   -7   -4    5     -2.44      0.00
    7    3    4     -2.17      0.00
    7    3    3     -3.38      0.00
    7    3    2     -3.46      0.00
    7    3    1     -3.63      0.00
    7    3    0     -3.69      0.00
   -7   -3    1     -3.47      0.00
   -7   -3    2     -3.44      0.00
   -7   -3    3     -2.60      0.00
   -7   -3    4     -2.64      0.00
   -7   -3    5     -2.20      0.00
    7    2    5     -1.60      0.00
    7    2    4     -2.16      0.00
    7    2    3     -2.97      0.00
    7    2    2     -3.95      0.00
    7    2    1     -3.51      0.00
    7    2    0     -3.34      0.00
   -7   -2    1     -2.75      0.00
   -7   -2    2     -2.17      0.00
   -7   -2    3     -1.48      0.00
   -7   -2    4     -0.31      0.00
   -7   -2    5     -0.04      0.00
    7    1    6     -1.40      0.00
    7    1    5     -2.36      0.00
    7    1    4     -3.36      0.00
    7    1    3     -3.14      0.00
    7    1    2     -3.07      0.00
    7    1    1     -3.20      0.00
    7    1    0     -2.21      0.00
   -7   -1    1     -1.53      0.00
   -7   -1    2     -0.52      0.00
   -7   -1    3      0.11      0.00
   -7   -1    4      0.79      0.00
   -7   -1    5      1.59      0.00
    7    0    7     -1.05      0.00
    7    0    6     -1.51      0.00
    7    0    5     -1.74      0.00
    7    0    4     -2.03      0.00
    7    0    3     -2.71      0.00
    7    0    2     -1.64      0.00
    7    0    1     -0.74      0.00
    7    0    0      0.33      0.00
   -7    0    1      1.75      0.00
   -7    0    2      3.19      0.00
   -7    0    3      3.98      0.00
   -7    0    4      4.61      0.00
   -7    0    5      4.23      0.00
    7   -1    7     -0.87      0.00
    7   -1    6     -1.39      0.00
    7   -1    5     -1.86      0.00
    7   -1    4     -1.41      0.00
    7   -1    3     -1.33      0.00
    7   -1    2     -1.45      0.00
    7   -1    1     -0.01      0.00
   -7    1    0      1.54      0.00
   -7    1    1      2.68      0.00
   -7    1    2      3.94      0.00
   -7    1    3      4.78      0.00
   -7    1    4      4.77      0.00
   -7    1    5      4.77      0.00
    7   -2    8     -1.04      0.00
    7   -2    7     -1.14      0.00
    7   -2    6     -1.10      0.00
    7   -2    5     -1.01      0.00
    7   -2    4     -1.20      0.00
    7   -2    3      0.22      0.00
    7   -2    2      1.30      0.00
    7   -2    1      2.48      0.00
   -7    2    0      4.20      0.00
   -7    2    1      6.05      0.00
   -7    2    2      6.18      0.00
   -7    2    3      7.06      0.00
   -7    2    4      6.01      0.00
   -7    2    5      5.61      0.00
    7   -3    8     -0.42      0.00
    7   -3    7     -0.71      0.00
    7   -3    6     -0.74      0.00
    7   -3    5      0.01      0.00
    7   -3    4      0.24      0.00
    7   -3    3      0.48      0.00
    7   -3    2      2.22      0.00
    7   -3    1      3.93      0.00
   -7    3    0      5.05      0.00
   -7    3    1      6.56      0.00
   -7    3    2      7.44      0.00
   -7    3    3      6.96      0.00
   -7    3    4      7.05      0.00
   -7    3    5      4.74      0.00
    7   -4    8     -0.58      0.00
    7   -4    7     -0.56      0.00
    7   -4    6     -0.51      0.00
    7   -4    5     -0.46      0.00
    7   -4    4      0.89      0.00
    7   -4    3      1.45      0.00
    7   -4    2      2.32      0.00
    7   -4    1      3.97      0.00
   -7    4    0      5.62      0.00
   -7    4    1      5.78      0.00
   -7    4    2      6.91      0.00
   -7    4    3      5.95      0.00
   -7    4    4      5.40      0.00
    7   -5    8     -0.83      0.00
    7   -5    7     -0.87      0.00
    7   -5    6     -0.32      0.00
    7   -5    5     -0.35      0.00
    7   -5    4     -0.10      0.00
    7   -5    3      1.44      0.00
    7   -5    2      2.55      0.00
    7   -5    1      3.76      0.00
   -7    5    0      5.54      0.00
   -7    5    1      6.47      0.00
   -7    5    2      6.25      0.00
   -7    5    3      6.26      0.00
   -7    5    4      3.88      0.00
    7   -6    8     -0.29      0.00
    7   -6    7     -0.58      0.00
    7   -6    6     -0.48      0.00
    7   -6    5      0.35      0.00
    7   -6    4      0.18      0.00
    7   -6    3      0.54      0.00
    7   -6    2      1.83      0.00
    7   -6    1      2.78      0.00
   -7    6    0      3.36      0.00
   -7    6    1      4.48      0.00
   -7    6    2      3.94      0.00
   -7    6    3      3.72      0.00
    7   -7    8     -0.71      0.00
    7   -7    7     -0.76      0.00
    7   -7    6     -1.21      0.00
    7   -7    5     -1.03      0.00
    7   -7    4     -0.11      0.00
    7   -7    3      0.07      0.00
    7   -7    2      0.85      0.00
    7   -7    1      2.15      0.00
   -7    7    0      2.63      0.00
   -7    7    1      2.82      0.00
   -7    7    2      2.74      0.00
   -7    7    3      1.42      0.00
    7   -8    8     -1.36      0.00
    7   -8    7     -1.23      0.00
    7   -8    6     -0.89      0.00
    7   -8    5     -1.03      0.00
    7   -8    4     -0.45      0.00
    7   -8    3      0.56      0.00
    7   -8    2      0.87      0.00
    7   -8    1      1.61      0.00
   -7    8    0      2.42      0.00
   -7    8    1      2.26      0.00
   -7    8    2      2.12      0.00
    7   -9    7     -1.71      0.00
    7   -9    6     -1.50      0.00
    7   -9    5     -1.02      0.00
    7   -9    4     -0.84      0.00
    7   -9    3     -0.04      0.00
    7   -9    2      0.84      0.00
    7   -9    1      1.24      0.00
   -7    9    0      1.91      0.00
   -7    9    1      2.01      0.00
    7  -10    6     -1.63      0.00
    7  -10    5     -1.28      0.00
    7  -10    4     -0.91      0.00
    7  -10    3     -0.91      0.00
    7  -10    2     -0.25      0.00
    7  -10    1      0.36      0.00
   -7   10    0      0.80      0.00
    7  -11    5     -0.65      0.00
    7  -11    4     -0.24      0.00
    7  -11    3     -0.10      0.00
    7  -11    2      0.00      0.00
    7  -11    1      0.52      0.00
   -7   11    0      0.71      0.00
    6    6    2     -0.73      0.00
    6    6    1     -0.45      0.00
    6    6    0     -0.27      0.00
   -6   -6    1      0.12      0.00
   -6   -6    2      0.14      0.00
    6    5    4      0.23      0.00
    6    5    3      0.63      0.00
    6    5    2      0.48      0.00
    6    5    1      0.73      0.00
    6    5    0      0.92      0.00
   -6   -5    1      1.16      0.00
   -6   -5    2      1.30      0.00
   -6   -5    3      1.00      0.00
   -6   -5    4      1.49      0.00
    6    4    5     -0.05      0.00
    6    4    4     -0.23      0.00
    6    4    3      0.20      0.00
    6    4    2      1.08      0.00
    6    4    1      1.28      0.00
    6    4    0      1.96      0.00
   -6   -4    1      2.40      0.00
   -6   -4    2      2.86      0.00
   -6   -4    3      2.74      0.00
   -6   -4    4      2.26      0.00
    6    3    6      0.46      0.00
    6    3    5      1.13      0.00
    6    3    4      1.86      0.00
    6    3    3      1.83      0.00
    6    3    2      2.15      0.00
    6    3    1      2.95      0.00
    6    3    0      3.09      0.00
   -6   -3    1      3.59      0.00
   -6   -3    2      3.64      0.00
   -6   -3    3      4.06      0.00
   -6   -3    4      3.90      0.00
   -6   -3    5      3.84      0.00
    6    2    7      0.46      0.00
    6    2    6      0.92      0.00
    6    2    5      1.55      0.00
    6    2    4      2.40      0.00
    6    2    3      3.71      0.00
    6    2    2      3.71      0.00
    6    2    1      3.84      0.00
    6    2    0      4.00      0.00
   -6   -2    1      3.89      0.00
   -6   -2    2      3.57      0.00
   -6   -2    3      3.29      0.00
   -6   -2    4      3.25      0.00
   -6   -2    5      3.11      0.00
    6    1    7      1.33      0.00
    6    1    6      2.51      0.00
    6    1    5      3.48      0.00
    6    1    4      3.86      0.00
    6    1    3      4.33      0.00
    6    1    2      5.41      0.00
    6    1    1      5.14      0.00
    6    1    0      4.79      0.00
   -6   -1    1      4.56      0.00
   -6   -1    2      4.53      0.00
   -6   -1    3      3.81      0.00
   -6   -1    4      3.99      0.00
   -6   -1    5      3.45      0.00
    6    0    8      1.70      0.00
    6    0    7      2.42      0.00
    6    0    6      3.27      0.00
    6    0    5      3.71      0.00
    6    0    4      4.41      0.00
    6    0    3      3.84      0.00
    6    0    2      3.26      0.00
    6    0    1      2.91      0.00
    6    0    0      2.39      0.00
   -6    0    1      1.36      0.00
   -6    0    2      1.72      0.00
   -6    0    3      1.22      0.00
   -6    0    4      0.92      0.00
   -6    0    5      1.08      0.00
    6   -1    8      1.90      0.00
    6   -1    7      3.25      0.00
    6   -1    6      3.93      0.00
    6   -1    5      3.99      0.00
    6   -1    4      3.81      0.00
    6   -1    3      4.04      0.00
    6   -1    2      2.87      0.00
    6   -1    1      1.32      0.00
   -6    1    0      0.59      0.00
   -6    1    1      0.41      0.00
   -6    1    2     -0.59      0.00
   -6    1    3      0.55      0.00
   -6    1    4     -0.68      0.00
   -6    1    5     -0.17      0.00
    6   -2    9      2.19      0.00
    6   -2    8      2.98      0.00
    6   -2    7      3.97      0.00
    6   -2    6      4.19      0.00
    6   -2    5      4.25      0.00
    6   -2    4      2.97      0.00
    6   -2    3      1.65      0.00
    6   -2    2      0.38      0.00
    6   -2    1     -0.94      0.00
   -6    2    0     -2.84      0.00
   -6    2    1     -2.21      0.00
   -6    2    2     -2.66      0.00
   -6    2    3     -2.71      0.00
   -6    2    4     -1.82      0.00
    6   -3    9      1.88      0.00
    6   -3    8      3.22      0.00
    6   -3    7      3.79      0.00
    6   -3    6      3.67      0.00
    6   -3    5      2.98      0.00
    6   -3    4      2.09      0.00
    6   -3    3     -0.35      0.00
    6   -3    2     -2.96      0.00
    6   -3    1     -4.76      0.00
   -6    3    0     -5.61      0.00
   -6    3    1     -6.73      0.00
   -6    3    2     -5.06      0.00
   -6    3    3     -6.04      0.00
   -6    3    4     -4.66      0.00
    6   -4    9      1.61      0.00
    6   -4    8      2.63      0.00
    6   -4    7      3.08      0.00
    6   -4    6      3.04      0.00
    6   -4    5      1.65      0.00
    6   -4    4      0.31      0.00
    6   -4    3     -1.45      0.00
    6   -4    2     -3.73      0.00
    6   -4    1     -6.20      0.00
   -6    4    0     -6.49      0.00
   -6    4    1     -7.18      0.00
   -6    4    2     -7.02      0.00
   -6    4    3     -5.93      0.00
   -6    4    4     -5.75      0.00
    6   -5    9      2.10      0.00
    6   -5    8      2.75      0.00
    6   -5    7      2.92      0.00
    6   -5    6      2.42      0.00
    6   -5    5      1.19      0.00
    6   -5    4     -1.48      0.00
    6   -5    3     -3.87      0.00
    6   -5    2     -6.26      0.00
    6   -5    1     -8.21      0.00
   -6    5    0     -9.59      0.00
   -6    5    1     -8.66      0.00
   -6    5    2     -8.87      0.00
   -6    5    3     -6.90      0.00
    6   -6    9      1.27      0.00
    6   -6    8      2.14      0.00
    6   -6    7      2.17      0.00
    6   -6    6      1.20      0.00
    6   -6    5      0.26      0.00
    6   -6    4     -1.38      0.00
    6   -6    3     -3.84      0.00
    6   -6    2     -5.97      0.00
    6   -6    1     -7.43      0.00
   -6    6    0     -8.68      0.00
   -6    6    1     -8.47      0.00
   -6    6    2     -7.42      0.00
   -6    6    3     -6.28      0.00
    6   -7    9      0.85      0.00
    6   -7    8      1.46      0.00
    6   -7    7      1.69      0.00
    6   -7    6      0.82      0.00
    6   -7    5     -0.85      0.00
    6   -7    4     -2.09      0.00
    6   -7    3     -3.82      0.00
    6   -7    2     -5.61      0.00
    6   -7    1     -6.51      0.00
   -6    7    0     -6.61      0.00
   -6    7    1     -6.36      0.00
   -6    7    2     -4.65      0.00
    6   -8    9      1.25      0.00
    6   -8    8      1.29      0.00
    6   -8    7      1.15      0.00
    6   -8    6      0.83      0.00
    6   -8    5     -0.46      0.00
    6   -8    4     -2.14      0.00
    6   -8    3     -3.20      0.00
    6   -8    2     -4.54      0.00
    6   -8    1     -5.54      0.00
   -6    8    0     -5.45      0.00
   -6    8    1     -4.94      0.00
    6   -9    8      1.10      0.00
    6   -9    7      0.56      0.00
    6   -9    6     -0.09      0.00
    6   -9    5     -0.90      0.00
    6   -9    4     -2.26      0.00
    6   -9    3     -3.36      0.00
    6   -9    2     -3.74      0.00
    6   -9    1     -4.47      0.00
   -6    9    0     -4.50      0.00
   -6    9    1     -3.84      0.00
    6  -10    8      0.78      0.00
    6  -10    7      1.02      0.00
    6  -10    6      0.26      0.00
    6  -10    5     -0.47      0.00
    6  -10    4     -1.01      0.00
    6  -10    3     -1.90      0.00
    6  -10    2     -2.38      0.00
    6  -10    1     -2.64      0.00
   -6   10    0     -2.98      0.00
   -6   10    1     -2.58      0.00
    6  -11    6      0.19      0.00
    6  -11    5     -0.67      0.00
    6  -11    4     -1.03      0.00
    6  -11    3     -1.16      0.00
    6  -11    2     -1.76      0.00
    6  -11    1     -1.81      0.00
    6  -12    4     -0.42      0.00
    6  -12    3     -0.47      0.00
    6  -12    2     -0.72      0.00
    5    6    4      1.41      0.00
    5    6    3      1.79      0.00
    5    6    2      1.84      0.00
    5    6    1      2.49      0.00
    5    6    0      2.64      0.00
   -5   -6    1      2.92      0.00
   -5   -6    2      2.97      0.00
   -5   -6    3      3.49      0.00
    5    5    5      0.65      0.00
    5    5    4      0.97      0.00
    5    5    3      1.94      0.00
    5    5    2      2.67      0.00
    5    5    1      3.03      0.00
    5    5    0      3.72      0.00
   -5   -5    1      3.78      0.00
   -5   -5    2      3.82      0.00
   -5   -5    3      3.22      0.00
   -5   -5    4      3.10      0.00
    5    4    6      1.49      0.00
    5    4    5      2.10      0.00
    5    4    4      2.50      0.00
    5    4    3      2.45      0.00
    5    4    2      3.22      0.00
    5    4    1      3.59      0.00
    5    4    0      3.52      0.00
   -5   -4    1      3.45      0.00
   -5   -4    2      3.25      0.00
   -5   -4    3      3.13      0.00
   -5   -4    4      2.23      0.00
    5    3    7      1.05      0.00
    5    3    6      1.42      0.00
    5    3    5      2.02      0.00
    5    3    4      2.75      0.00
    5    3    3      3.20      0.00
    5    3    2      2.63      0.00
    5    3    1      2.87      0.00
    5    3    0      2.72      0.00
   -5   -3    1      2.30      0.00
   -5   -3    2      1.20      0.00
   -5   -3    3      0.59      0.00
   -5   -3    4     -0.61      0.00
    5    2    8      0.74      0.00
    5    2    7      1.54      0.00
    5    2    6      1.88      0.00
    5    2    5      2.19      0.00
    5    2    4      1.93      0.00
    5    2    3      2.26      0.00
    5    2    2      2.67      0.00
    5    2    1      2.45      0.00
    5    2    0      2.22      0.00
   -5   -2    1      1.94      0.00
   -5   -2    2      0.87      0.00
   -5   -2    3     -0.65      0.00
   -5   -2    4     -1.62      0.00
    5    1    8      0.95      0.00
    5    1    7      0.68      0.00
    5    1    6      0.86      0.00
    5    1    5      0.79      0.00
    5    1    4      0.76      0.00
    5    1    3     -0.28      0.00
    5    1    2     -0.17      0.00
    5    1    1      0.44      0.00
    5    1    0      0.45      0.00
   -5   -1    1     -1.13      0.00
   -5   -1    2     -1.69      0.00
   -5   -1    3     -4.28      0.00
   -5   -1    4     -5.20      0.00
    5    0    9     -0.27      0.00
    5    0    8     -0.05      0.00
    5    0    7     -0.33      0.00
    5    0    6     -0.30      0.00
    5    0    5     -0.54      0.00
    5    0    4     -0.40      0.00
    5    0    3      0.00      0.00
    5    0    2     -0.14      0.00
    5    0    1     -0.60      0.00
    5    0    0     -0.14      0.00
   -5    0    1     -1.53      0.00
   -5    0    2     -3.32      0.00
   -5    0    3     -3.92      0.00
   -5    0    4     -6.81      0.00
    5   -1    9     -0.18      0.00
    5   -1    8     -1.02      0.00
    5   -1    7     -1.12      0.00
    5   -1    6     -1.31      0.00
    5   -1    5     -1.01      0.00
    5   -1    4     -1.43      0.00
    5   -1    3     -0.93      0.00
    5   -1    2      0.21      0.00
    5   -1    1      0.67      0.00
   -5    1    0     -1.17      0.00
   -5    1    1     -1.19      0.00
   -5    1    2     -4.56      0.00
   -5    1    3     -4.96      0.00
   -5    1    4     -6.44      0.00
    5   -2   10     -1.25      0.00
    5   -2    9     -1.51      0.00
    5   -2    8     -2.37      0.00
    5   -2    7     -2.68      0.00
    5   -2    6     -2.85      0.00
    5   -2    5     -2.49      0.00
    5   -2    4     -1.93      0.00
    5   -2    3     -1.57      0.00
    5   -2    2     -1.17      0.00
    5   -2    1      0.75      0.00
   -5    2    0      0.47      0.00
   -5    2    1     -0.91      0.00
   -5    2    2     -1.18      0.00
   -5    2    3     -4.65      0.00
   -5    2    4     -4.48      0.00
    5   -3   10     -1.74      0.00
    5   -3    9     -3.07      0.00
    5   -3    8     -3.58      0.00
    5   -3    7     -3.94      0.00
    5   -3    6     -3.38      0.00
    5   -3    5     -3.02      0.00
    5   -3    4     -1.65      0.00
    5   -3    3      0.06      0.00
    5   -3    2      1.76      0.00
    5   -3    1      1.72      0.00
   -5    3    0      3.03      0.00
   -5    3    1      0.35      0.00
   -5    3    2     -0.04      0.00
   -5    3    3     -1.77      0.00
    5   -4   10     -1.59      0.00
    5   -4    9     -2.97      0.00
    5   -4    8     -3.77      0.00
    5   -4    7     -4.03      0.00
    5   -4    6     -3.51      0.00
    5   -4    5     -2.86      0.00
    5   -4    4     -2.19      0.00
    5   -4    3     -0.78      0.00
    5   -4    2      1.74      0.00
    5   -4    1      2.83      0.00
   -5    4    0      2.47      0.00
   -5    4    1      2.16      0.00
   -5    4    2     -0.76      0.00
   -5    4    3     -0.44      0.00
    5   -5   10     -2.54      0.00
    5   -5    9     -3.41      0.00
    5   -5    8     -4.11      0.00
    5   -5    7     -3.55      0.00
    5   -5    6     -2.47      0.00
    5   -5    5     -0.50      0.00
    5   -5    4      1.09      0.00
    5   -5    3      2.86      0.00
    5   -5    2      4.13      0.00
    5   -5    1      5.56      0.00
   -5    5    0      4.14      0.00
   -5    5    1      3.44      0.00
   -5    5    2      1.56      0.00
    5   -6   10     -2.40      0.00
    5   -6    9     -3.61      0.00
    5   -6    8     -3.87      0.00
    5   -6    7     -3.19      0.00
    5   -6    6     -1.86      0.00
    5   -6    5     -0.17      0.00
    5   -6    4      2.23      0.00
    5   -6    3      4.50      0.00
    5   -6    2      6.32      0.00
    5   -6    1      7.20      0.00
   -5    6    0      7.02      0.00
   -5    6    1      5.18      0.00
   -5    6    2      4.39      0.00
    5   -7   10     -1.53      0.00
    5   -7    9     -2.51      0.00
    5   -7    8     -2.68      0.00
    5   -7    7     -1.65      0.00
    5   -7    6      0.04      0.00
    5   -7    5      1.59      0.00
    5   -7    4      3.32      0.00
    5   -7    3      5.05      0.00
    5   -7    2      6.19      0.00
    5   -7    1      6.56      0.00
   -5    7    0      6.62      0.00
   -5    7    1      5.40      0.00
    5   -8   10     -1.45      0.00
    5   -8    9     -1.75      0.00
    5   -8    8     -1.89      0.00
    5   -8    7     -1.35      0.00
    5   -8    6      0.15      0.00
    5   -8    5      2.04      0.00
    5   -8    4      3.52      0.00
    5   -8    3      4.96      0.00
    5   -8    2      5.97      0.00
    5   -8    1      6.14      0.00
   -5    8    0      5.93      0.00
   -5    8    1      5.07      0.00
    5   -9    9     -0.97      0.00
    5   -9    8     -0.47      0.00
    5   -9    7      0.04      0.00
    5   -9    6      1.12      0.00
    5   -9    5      2.61      0.00
    5   -9    4      3.79      0.00
    5   -9    3      4.29      0.00
    5   -9    2      4.98      0.00
    5   -9    1      5.11      0.00
   -5    9    0      4.73      0.00
   -5    9    1      4.16      0.00
    5  -10    9     -0.18      0.00
    5  -10    8     -0.30      0.00
    5  -10    7      0.52      0.00
    5  -10    6      1.38      0.00
    5  -10    5      2.48      0.00
    5  -10    4      3.46      0.00
    5  -10    3      3.84      0.00
    5  -10    2      3.92      0.00
    5  -10    1      4.17      0.00
   -5   10    0      3.57      0.00
   -5   10    1      2.98      0.00
    5  -11    7      0.44      0.00
    5  -11    6      1.42      0.00
    5  -11    5      2.01      0.00
    5  -11    4      2.48      0.00
    5  -11    3      2.97      0.00
    5  -11    2      2.77      0.00
    5  -11    1      2.55      0.00
    5  -12    6      0.85      0.00
    5  -12    5      1.28      0.00
    5  -12    4      1.39      0.00
    5  -12    3      1.70      0.00
    4    7    4      0.69      0.00
    4    7    3      0.32      0.00
    4    7    2     -0.15      0.00
    4    7    1     -0.72      0.00
    4    7    0     -1.90      0.00
   -4   -7    1     -2.49      0.00
   -4   -7    2     -3.17      0.00
    4    6    5     -0.25      0.00
    4    6    4     -0.43      0.00
    4    6    3     -0.54      0.00
    4    6    2     -1.67      0.00
    4    6    1     -2.45      0.00
    4    6    0     -3.08      0.00
   -4   -6    1     -3.90      0.00
   -4   -6    2     -4.57      0.00
   -4   -6    3     -5.20      0.00
    4    5    6     -0.12      0.00
    4    5    5     -0.48      0.00
    4    5    4     -1.36      0.00
    4    5    3     -2.53      0.00
    4    5    2     -3.21      0.00
    4    5    1     -4.75      0.00
    4    5    0     -5.69      0.00
   -4   -5    1     -6.17      0.00
   -4   -5    2     -6.06      0.00
   -4   -5    3     -6.08      0.00
    4    4    7     -1.25      0.00
    4    4    6     -1.62      0.00
    4    4    5     -2.30      0.00
    4    4    4     -2.95      0.00
    4    4    3     -4.52      0.00
    4    4    2     -6.34      0.00
    4    4    1     -7.35      0.00
    4    4    0     -8.55      0.00
   -4   -4    1     -9.14      0.00
   -4   -4    2     -9.25      0.00
   -4   -4    3     -8.22      0.00
   -4   -4    8     -3.02      0.00
   -4   -4    9     -2.06      0.00
    4    3    8     -1.11      0.00
    4    3    7     -1.70      0.00
    4    3    6     -2.98      0.00
    4    3    5     -4.21      0.00
    4    3    4     -5.72      0.00
    4    3    3     -6.20      0.00
    4    3    2     -7.73      0.00
    4    3    1     -9.47      0.00
    4    3    0    -10.28      0.00
   -4   -3    1     -9.41      0.00
   -4   -3    2     -8.94      0.00
   -4   -3    3     -7.53      0.00
   -4   -3    6     -2.63      0.00
   -4   -3    7     -2.00      0.00
   -4   -3    8     -1.25      0.00
   -4   -3    9     -0.93      0.00
    4    2    9     -0.80      0.00
    4    2    8     -1.99      0.00
    4    2    7     -3.08      0.00
    4    2    6     -4.50      0.00
    4    2    5     -5.85      0.00
    4    2    4     -7.36      0.00
    4    2    3     -9.39      0.00
    4    2    2    -10.23      0.00
    4    2    1    -10.76      0.00
    4    2    0    -11.34      0.00
   -4   -2    1    -10.66      0.00
   -4   -2    2     -7.84      0.00
   -4   -2    3     -6.97      0.00
   -4   -2    4     -3.98      0.00
   -4   -2    5     -2.48      0.00
   -4   -2    6      0.03      0.00
   -4   -2    7      0.98      0.00
   -4   -2    8      1.87      0.00
   -4   -2    9      1.77      0.00
    4    1    9     -2.06      0.00
    4    1    8     -2.69      0.00
    4    1    7     -4.17      0.00
    4    1    6     -5.36      0.00
    4    1    5     -7.03      0.00
    4    1    4     -7.73      0.00
    4    1    3     -9.27      0.00
    4    1    2    -11.52      0.00
    4    1    1    -12.45      0.00
    4    1    0     -9.63      0.00
   -4   -1    1     -8.25      0.00
   -4   -1    2     -4.57      0.00
   -4   -1    3     -1.49      0.00
   -4   -1    4      0.49      0.00
   -4   -1    5      3.29      0.00
   -4   -1    6      3.11      0.00
   -4   -1    7      3.82      0.00
   -4   -1    8      2.73      0.00
   -4   -1    9      3.57      0.00
    4    0   10     -0.99      0.00
    4    0    9     -2.08      0.00
    4    0    8     -3.02      0.00
    4    0    7     -4.11      0.00
    4    0    6     -5.33      0.00
    4    0    5     -6.64      0.00
    4    0    4     -8.70      0.00
    4    0    3     -9.83      0.00
    4    0    2    -10.22      0.00
    4    0    1    -11.46      0.00
    4    0    0    -10.64      0.00
   -4    0    1     -5.83      0.00
   -4    0    2     -4.51      0.00
   -4    0    3      0.51      0.00
   -4    0    4      2.19      0.00
   -4    0    5      6.09      0.00
   -4    0    6      7.37      0.00
   -4    0    7      7.26      0.00
    4   -1   10     -1.70      0.00
    4   -1    9     -2.17      0.00
    4   -1    8     -3.36      0.00
    4   -1    7     -4.23      0.00
    4   -1    6     -5.86      0.00
    4   -1    5     -6.95      0.00
    4   -1    4     -8.68      0.00
    4   -1    3    -10.72      0.00
    4   -1    2    -11.59      0.00
    4   -1    1     -7.95      0.00
   -4    1    0     -6.57      0.00
   -4    1    1     -1.81      0.00
   -4    1    2      2.04      0.00
   -4    1    3      3.92      0.00
   -4    1    4      7.58      0.00
   -4    1    5      7.48      0.00
    4   -2   10     -1.53      0.00
    4   -2    9     -1.87      0.00
    4   -2    8     -2.33      0.00
    4   -2    7     -3.07      0.00
    4   -2    6     -4.11      0.00
    4   -2    5     -5.73      0.00
    4   -2    4     -6.67      0.00
    4   -2    3     -7.41      0.00
    4   -2    2     -9.31      0.00
    4   -2    1     -9.38      0.00
   -4    2    0     -4.55      0.00
   -4    2    1     -2.95      0.00
   -4    2    2      2.81      0.00
   -4    2    3      4.36      0.00
    4   -3   11     -0.16      0.00
    4   -3   10      0.00      0.00
    4   -3    9     -0.32      0.00
    4   -3    8     -0.42      0.00
    4   -3    7     -1.69      0.00
    4   -3    6     -2.84      0.00
    4   -3    5     -4.60      0.00
    4   -3    4     -6.05      0.00
    4   -3    3     -7.26      0.00
    4   -3    2     -6.06      0.00
    4   -3    1     -6.76      0.00
   -4    3    0     -3.70      0.00
   -4    3    1     -0.19      0.00
   -4    3    2      2.04      0.00
   -4    3    3      5.85      0.00
    4   -4   11     -0.28      0.00
    4   -4   10      0.50      0.00
    4   -4    9      1.00      0.00
    4   -4    8      1.00      0.00
    4   -4    7      0.48      0.00
    4   -4    6     -0.64      0.00
    4   -4    5     -1.14      0.00
    4   -4    4     -2.18      0.00
    4   -4    3     -3.97      0.00
    4   -4    2     -5.22      0.00
    4   -4    1     -3.09      0.00
   -4    4    0     -1.98      0.00
   -4    4    1      2.74      0.00
   -4    4    2      4.25      0.00
    4   -5   11      0.62      0.00
    4   -5   10      1.15      0.00
    4   -5    9      1.96      0.00
    4   -5    8      1.43      0.00
    4   -5    7      0.48      0.00
    4   -5    6     -0.93      0.00
    4   -5    5     -1.62      0.00
    4   -5    4     -2.06      0.00
    4   -5    3     -2.27      0.00
    4   -5    2     -3.29      0.00
    4   -5    1     -2.10      0.00
   -4    5    0      0.03      0.00
   -4    5    1      2.31      0.00
   -4    5    2      5.04      0.00
    4   -6   11      1.60      0.00
    4   -6   10      2.53      0.00
    4   -6    9      2.90      0.00
    4   -6    8      2.68      0.00
    4   -6    7      1.35      0.00
    4   -6    6      0.02      0.00
    4   -6    5     -1.74      0.00
    4   -6    4     -3.00      0.00
    4   -6    3     -3.95      0.00
    4   -6    2     -3.71      0.00
    4   -6    1     -3.08      0.00
   -4    6    0     -0.65      0.00
   -4    6    1      0.65      0.00
    4   -7   11      1.47      0.00
    4   -7   10      2.45      0.00
    4   -7    9      2.61      0.00
    4   -7    8      1.91      0.00
    4   -7    7      0.74      0.00
    4   -7    6     -0.54      0.00
    4   -7    5     -1.53      0.00
    4   -7    4     -2.48      0.00
    4   -7    3     -2.86      0.00
    4   -7    2     -2.73      0.00
    4   -7    1     -2.40      0.00
   -4    7    0     -1.42      0.00
   -4    7    1     -0.37      0.00
    4   -8   10      1.98      0.00
    4   -8    9      2.30      0.00
    4   -8    8      1.75      0.00
    4   -8    7      0.37      0.00
    4   -8    6     -1.35      0.00
    4   -8    5     -2.69      0.00
    4   -8    4     -3.34      0.00
    4   -8    3     -3.45      0.00
    4   -8    2     -2.91      0.00
    4   -8    1     -2.31      0.00
   -4    8    0     -1.70      0.00
   -4    8    1     -0.61      0.00
    4   -9   10      1.49      0.00
    4   -9    9      1.25      0.00
    4   -9    8      0.98      0.00
    4   -9    7     -0.06      0.00
    4   -9    6     -1.37      0.00
    4   -9    5     -2.49      0.00
    4   -9    4     -2.96      0.00
    4   -9    3     -3.13      0.00
    4   -9    2     -2.95      0.00
    4   -9    1     -2.40      0.00
   -4    9    0     -1.85      0.00
   -4    9    1     -1.02      0.00
    4  -10    9      0.56      0.00
    4  -10    8     -0.01      0.00
    4  -10    7     -0.64      0.00
    4  -10    6     -1.78      0.00
    4  -10    5     -2.59      0.00
    4  -10    4     -3.06      0.00
    4  -10    3     -3.21      0.00
    4  -10    2     -3.31      0.00
    4  -10    1     -2.63      0.00
   -4   10    0     -2.07      0.00
    4  -11    8     -0.31      0.00
    4  -11    7     -0.81      0.00
    4  -11    6     -1.20      0.00
    4  -11    5     -1.87      0.00
    4  -11    4     -2.36      0.00
    4  -11    3     -2.42      0.00
    4  -11    2     -2.51      0.00
    4  -11    1     -2.22      0.00
    4  -12    7     -0.93      0.00
    4  -12    6     -1.16      0.00
    4  -12    5     -1.37      0.00
    4  -12    4     -1.87      0.00
    4  -12    3     -2.10      0.00
    3    8    3     -1.07      0.00
    3    8    2     -1.02      0.00
    3    8    1     -1.34      0.00
    3    8    0     -1.27      0.00
    3    7    5     -1.01      0.00
    3    7    4     -1.25      0.00
    3    7    3     -1.30      0.00
    3    7    2     -1.48      0.00
    3    7    1     -0.80      0.00
    3    7    0     -0.74      0.00
   -3   -7    1     -0.61      0.00
   -3   -7    2     -0.63      0.00
    3    6    6     -0.74      0.00
    3    6    5     -1.15      0.00
    3    6    4     -1.59      0.00
    3    6    3     -1.21      0.00
    3    6    2     -0.91      0.00
    3    6    1     -0.92      0.00
    3    6    0     -0.13      0.00
   -3   -6    1      0.44      0.00
   -3   -6    2      0.92      0.00
    3    5    7     -1.10      0.00
    3    5    6     -1.10      0.00
    3    5    5     -1.05      0.00
    3    5    4     -0.71      0.00
    3    5    3     -1.02      0.00
    3    5    2     -0.19      0.00
    3    5    1      0.73      0.00
    3    5    0      1.01      0.00
   -3   -5    1      1.08      0.00
   -3   -5    2      1.46      0.00
    3    4    8     -0.61      0.00
    3    4    7     -0.87      0.00
    3    4    6     -0.72      0.00
    3    4    5     -0.32      0.00
    3    4    4      0.64      0.00
    3    4    3      2.19      0.00
    3    4    2      2.57      0.00
    3    4    1      3.67      0.00
    3    4    0      4.70      0.00
   -3   -4    1      5.02      0.00
   -3   -4    2      3.97      0.00
   -3   -4    3      4.91      0.00
   -3   -4    4      5.21      0.00
   -3   -4    5      5.24      0.00
   -3   -4    6      5.08      0.00
   -3   -4    7      4.94      0.00
    3    3    9     -0.41      0.00
    3    3    8     -0.61      0.00
    3    3    7      0.06      0.00
    3    3    6      0.85      0.00
    3    3    5      2.18      0.00
    3    3    4      2.65      0.00
    3    3    3      4.16      0.00
    3    3    2      6.50      0.00
    3    3    1      7.28      0.00
    3    3    0      6.06      0.00
   -3   -3    1      6.04      0.00
   -3   -3    2      5.64      0.00
   -3   -3    3      4.25      0.00
   -3   -3    4      5.38      0.00
   -3   -3    5      5.17      0.00
   -3   -3    6      6.20      0.00
   -3   -3    7      5.91      0.00
   -3   -3    8      6.00      0.00
   -3   -3    9      4.63      0.00
    3    2    9     -0.11      0.00
    3    2    8      0.53      0.00
    3    2    7      1.57      0.00
    3    2    6      3.14      0.00
    3    2    5      4.84      0.00
    3    2    4      7.28      0.00
    3    2    3      7.99      0.00
    3    2    2      8.75      0.00
    3    2    1     10.24      0.00
    3    2    0     10.62      0.00
   -3   -2    1      7.06      0.00
   -3   -2    2      8.24      0.00
   -3   -2    3      7.25      0.00
   -3   -2    4      6.70      0.00
   -3   -2    5      5.55      0.00
   -3   -2    6      4.50      0.00
   -3   -2    7      4.66      0.00
   -3   -2    8      4.20      0.00
   -3   -2    9      4.30      0.00
    3    1   10      0.65      0.00
    3    1    9      1.06      0.00
    3    1    8      2.41      0.00
    3    1    7      3.97      0.00
    3    1    6      6.26      0.00
    3    1    5      7.92      0.00
    3    1    4     10.26      0.00
    3    1    3     13.20      0.00
    3    1    2     14.17      0.00
    3    1    1     10.86      0.00
    3    1    0      9.88      0.00
   -3   -1    1      7.38      0.00
   -3   -1    2      2.82      0.00
   -3   -1    3      3.90      0.00
   -3   -1    4      2.23      0.00
   -3   -1    5      3.69      0.00
   -3   -1    6      2.47      0.00
   -3   -1    7      3.36      0.00
   -3   -1    8      2.65      0.00
   -3   -1    9      2.74      0.00
    3    0   10      1.07      0.00
    3    0    9      2.21      0.00
    3    0    8      3.47      0.00
    3    0    7      5.38      0.00
    3    0    6      7.65      0.00
    3    0    5     11.04      0.00
    3    0    4     13.28      0.00
    3    0    3     15.57      0.00
    3    0    2     18.72      0.00
    3    0    1     19.98      0.00
    3    0    0     13.35      0.00
   -3    0    1     12.36      0.00
   -3    0    2      7.54      0.00
   -3    0    3      4.44      0.00
   -3    0    4      1.75      0.00
   -3    0    5     -0.58      0.00
   -3    0    6      0.22      0.00
   -3    0    7     -0.10      0.00
   -3    0    8      1.22      0.00
   -3    0    9      0.24      0.00
    3   -1   11      0.99      0.00
    3   -1   10      1.90      0.00
    3   -1    9      3.47      0.00
    3   -1    8      5.13      0.00
    3   -1    7      7.73      0.00
    3   -1    6     10.28      0.00
    3   -1    5     13.63      0.00
    3   -1    4     17.02      0.00
    3   -1    3     18.97      0.00
    3   -1    2     16.26      0.00
    3   -1    1     15.32      0.00
   -3    1    0     11.01      0.00
   -3    1    1      2.78      0.00
   -3    1    2      2.14      0.00
   -3    1    3     -1.10      0.00
   -3    1    4     -0.12      0.00
   -3    1    5     -2.98      0.00
   -3    1    6     -2.59      0.00
   -3    1    7     -2.80      0.00
    3   -2   11      1.92      0.00
    3   -2   10      3.05      0.00
    3   -2    9      4.32      0.00
    3   -2    8      6.13      0.00
    3   -2    7      8.35      0.00
    3   -2    6     11.64      0.00
    3   -2    5     14.02      0.00
    3   -2    4     16.66      0.00
    3   -2    3     19.27      0.00
    3   -2    2     19.90      0.00
    3   -2    1     11.65      0.00
   -3    2    0      7.25      0.00
   -3    2    1     -0.93      0.00
   -3    2    2     -5.69      0.00
   -3    2    3     -7.69      0.00
   -3    2    4     -8.39      0.00
   -3    2    5     -6.34      0.00
    3   -3   11      1.76      0.00
    3   -3   10      2.93      0.00
    3   -3    9      4.02      0.00
    3   -3    8      6.38      0.00
    3   -3    7      9.03      0.00
    3   -3    6     12.29      0.00
    3   -3    5     14.92      0.00
    3   -3    4     16.57      0.00
    3   -3    3     15.85      0.00
    3   -3    2     15.80      0.00
    3   -3    1     12.01      0.00
   -3    3    0      3.29      0.00
   -3    3    1     -0.09      0.00
   -3    3    2     -4.67      0.00
   -3    3    3     -4.75      0.00
    3   -4   12      1.15      0.00
    3   -4   11      1.47      0.00
    3   -4   10      2.13      0.00
    3   -4    9      3.15      0.00
    3   -4    8      4.50      0.00
    3   -4    7      7.15      0.00
    3   -4    6      9.14      0.00
    3   -4    5     11.57      0.00
    3   -4    4     13.32      0.00
    3   -4    3     14.24      0.00
    3   -4    2     10.04      0.00
    3   -4    1      6.86      0.00
   -3    4    0      0.18      0.00
   -3    4    1     -4.69      0.00
    3   -5   12      1.18      0.00
    3   -5   11      1.56      0.00
    3   -5   10      1.58      0.00
    3   -5    9      2.62      0.00
    3   -5    8      3.91      0.00
    3   -5    7      5.47      0.00
    3   -5    6      6.72      0.00
    3   -5    5      7.22      0.00
    3   -5    4      7.60      0.00
    3   -5    3      8.06      0.00
    3   -5    2      6.87      0.00
    3   -5    1      2.76      0.00
   -3    5    0     -0.19      0.00
   -3    5    1     -4.00      0.00
    3   -6   12      0.43      0.00
    3   -6   11      0.65      0.00
    3   -6   10      0.84      0.00
    3   -6    9      0.99      0.00
    3   -6    8      2.34      0.00
    3   -6    7      3.65      0.00
    3   -6    6      5.35      0.00
    3   -6    5      6.20      0.00
    3   -6    4      6.27      0.00
    3   -6    3      4.93      0.00
    3   -6    2      3.28      0.00
    3   -6    1      0.22      0.00
   -3    6    0     -2.38      0.00
   -3    6    1     -5.19      0.00
    3   -7   11     -0.19      0.00
    3   -7   10      0.07      0.00
    3   -7    9      0.43      0.00
    3   -7    8      0.80      0.00
    3   -7    7      1.77      0.00
    3   -7    6      2.45      0.00
    3   -7    5      3.17      0.00
    3   -7    4      2.97      0.00
    3   -7    3      2.01      0.00
    3   -7    2      0.51      0.00
    3   -7    1     -1.31      0.00
   -3    7    0     -3.03      0.00
   -3    7    1     -3.97      0.00
    3   -8   11     -0.50      0.00
    3   -8   10     -0.73      0.00
    3   -8    9     -0.38      0.00
    3   -8    8      0.42      0.00
    3   -8    7      1.53      0.00
    3   -8    6      2.61      0.00
    3   -8    5      2.72      0.00
    3   -8    4      2.24      0.00
    3   -8    3      0.83      0.00
    3   -8    2     -0.74      0.00
    3   -8    1     -2.08      0.00
   -3    8    0     -3.53      0.00
   -3    8    1     -3.96      0.00
    3   -9   11     -0.76      0.00
    3   -9   10     -0.77      0.00
    3   -9    9     -0.90      0.00
    3   -9    8     -0.39      0.00
    3   -9    7      0.36      0.00
    3   -9    6      1.14      0.00
    3   -9    5      1.55      0.00
    3   -9    4      1.29      0.00
    3   -9    3      0.80      0.00
    3   -9    2     -0.23      0.00
    3   -9    1     -1.18      0.00
   -3    9    0     -2.14      0.00
   -3    9    1     -2.57      0.00
    3  -10   10     -0.53      0.00
    3  -10    9     -0.31      0.00
    3  -10    8     -0.24      0.00
    3  -10    7      0.22      0.00
    3  -10    6      0.36      0.00
    3  -10    5      0.54      0.00
    3  -10    4      0.61      0.00
    3  -10    3      0.48      0.00
    3  -10    2     -0.07      0.00
    3  -10    1     -0.45      0.00
   -3   10    0     -0.91      0.00
    3  -11    9      0.07      0.00
    3  -11    8     -0.03      0.00
    3  -11    7     -0.30      0.00
    3  -11    6     -0.15      0.00
    3  -11    5     -0.13      0.00
    3  -11    4      0.01      0.00
    3  -11    3      0.31      0.00
    3  -11    2      0.30      0.00
    3  -12    7      0.46      0.00
    3  -12    6      0.42      0.00
    3  -12    5      0.67      0.00
    3  -12    4      0.58      0.00
    2    8    4      0.07      0.00
    2    8    3      0.20      0.00
    2    8    2      0.83      0.00
    2    8    1      1.34      0.00
    2    8    0      1.30      0.00
   -2   -8    1      1.53      0.00
    2    7    6     -0.18      0.00
    2    7    5      0.07      0.00
    2    7    4      0.42      0.00
    2    7    3      1.27      0.00
    2    7    2      1.53      0.00
    2    7    1      2.29      0.00
    2    7    0      3.11      0.00
   -2   -7    1      3.69      0.00
    2    6    7      0.05      0.00
    2    6    6      0.42      0.00
    2    6    5      0.91      0.00
    2    6    4      1.26      0.00
    2    6    3      1.84      0.00
    2    6    2      3.02      0.00
    2    6    1      3.12      0.00
    2    6    0      3.40      0.00
   -2   -6    1      4.35      0.00
   -2   -6    7      3.63      0.00
   -2   -6    8      2.88      0.00
    2    5    8      0.82      0.00
    2    5    7      0.83      0.00
    2    5    6      1.19      0.00
    2    5    5      1.77      0.00
    2    5    4      3.10      0.00
    2    5    3      3.51      0.00
    2    5    2      3.45      0.00
    2    5    1      4.61      0.00
    2    5    0      5.65      0.00
   -2   -5    1      6.35      0.00
   -2   -5    6      4.02      0.00
   -2   -5    7      2.18      0.00
   -2   -5    8      0.43      0.00
    2    4    9      1.08      0.00
    2    4    8      1.55      0.00
    2    4    7      1.98      0.00
    2    4    6      2.23      0.00
    2    4    5      2.45      0.00
    2    4    4      2.36      0.00
    2    4    3      3.69      0.00
    2    4    2      3.83      0.00
    2    4    1      3.61      0.00
    2    4    0      4.84      0.00
   -2   -4    1      7.68      0.00
   -2   -4    5      4.84      0.00
   -2   -4    6      3.22      0.00
   -2   -4    7      0.86      0.00
    2    3    9      1.57      0.00
    2    3    8      1.83      0.00
    2    3    7      1.95      0.00
    2    3    6      1.99      0.00
    2    3    5      2.59      0.00
    2    3    4      2.29      0.00
    2    3    3      1.21      0.00
    2    3    2      2.54      0.00
    2    3    1      5.24      0.00
    2    3    0      6.40      0.00
   -2   -3    1      7.80      0.00
   -2   -3    2     11.26      0.00
   -2   -3    3      8.02      0.00
   -2   -3    4      6.40      0.00
   -2   -3    5      3.21      0.00
   -2   -3    6      0.55      0.00
   -2   -3    7     -2.49      0.00
    2    2   10      1.39      0.00
    2    2    9      1.51      0.00
    2    2    8      1.71      0.00
    2    2    7      1.42      0.00
    2    2    6      1.00      0.00
    2    2    5      0.00      0.00
    2    2    4      0.85      0.00
    2    2    3      0.69      0.00
    2    2    2     -0.48      0.00
    2    2    1     -0.48      0.00
    2    2    0      4.26      0.00
   -2   -2    1      2.40      0.00
   -2   -2    2      2.35      0.00
   -2   -2    3      3.92      0.00
   -2   -2    4      1.88      0.00
   -2   -2    5      1.53      0.00
   -2   -2    6     -1.69      0.00
   -2   -2    7     -3.31      0.00
   -2   -2    8     -5.90      0.00
   -2   -2    9     -5.78      0.00
   -2   -2   10     -6.38      0.00
    2    1   11      0.90      0.00
    2    1   10      1.04      0.00
    2    1    9      0.86      0.00
    2    1    8      0.25      0.00
    2    1    7     -0.61      0.00
    2    1    6     -1.15      0.00
    2    1    5     -2.17      0.00
    2    1    4     -3.20      0.00
    2    1    3     -1.89      0.00
    2    1    2      1.42      0.00
    2    1    1      1.58      0.00
    2    1    0      2.03      0.00
   -2   -1    1      7.70      0.00
   -2   -1    2      2.42      0.00
   -2   -1    3      1.36      0.00
   -2   -1    4     -0.94      0.00
   -2   -1    5     -1.48      0.00
   -2   -1    6     -3.25      0.00
   -2   -1    7     -5.09      0.00
   -2   -1    8     -5.88      0.00
   -2   -1    9     -6.41      0.00
    2    0   11      1.06      0.00
    2    0   10      0.72      0.00
    2    0    9      0.37      0.00
    2    0    8     -0.58      0.00
    2    0    7     -1.86      0.00
    2    0    6     -3.94      0.00
    2    0    5     -4.60      0.00
    2    0    4     -6.53      0.00
    2    0    3     -9.45      0.00
    2    0    2    -11.93      0.00
    2    0    1     -6.52      0.00
    2    0    0     -7.67      0.00
   -2    0    1     -5.07      0.00
   -2    0    2     -0.07      0.00
   -2    0    3     -1.62      0.00
   -2    0    4     -0.31      0.00
   -2    0    5     -2.48      0.00
   -2    0    6     -2.35      0.00
   -2    0    7     -5.32      0.00
   -2    0    8     -5.74      0.00
   -2    0    9     -6.48      0.00
    2   -1   11      0.64      0.00
    2   -1   10      0.21      0.00
    2   -1    9     -0.80      0.00
    2   -1    8     -2.61      0.00
    2   -1    7     -4.62      0.00
    2   -1    6     -7.08      0.00
    2   -1    5     -9.20      0.00
    2   -1    4    -10.24      0.00
    2   -1    3    -10.48      0.00
    2   -1    2    -13.32      0.00
    2   -1    1    -14.37      0.00
   -2    1    0     -6.26      0.00
   -2    1    1     -8.77      0.00
   -2    1    2     -6.70      0.00
   -2    1    3     -6.19      0.00
   -2    1    4     -4.08      0.00
   -2    1    5     -3.58      0.00
   -2    1    6     -4.03      0.00
   -2    1    7     -3.84      0.00
    2   -2   12      0.20      0.00
    2   -2   11     -0.23      0.00
    2   -2   10     -1.14      0.00
    2   -2    9     -2.72      0.00
    2   -2    8     -4.63      0.00
    2   -2    7     -7.64      0.00
    2   -2    6     -9.41      0.00
    2   -2    5    -12.01      0.00
    2   -2    4    -14.36      0.00
    2   -2    3    -16.68      0.00
    2   -2    2    -11.44      0.00
    2   -2    1     -9.54      0.00
   -2    2    0     -3.17      0.00
   -2    2    1      5.10      0.00
   -2    2    2      4.64      0.00
   -2    2    3      4.72      0.00
   -2    2    4      1.87      0.00
   -2    2    5      1.96      0.00
    2   -3   12     -0.27      0.00
    2   -3   11     -0.82      0.00
    2   -3   10     -1.94      0.00
    2   -3    9     -4.40      0.00
    2   -3    8     -7.32      0.00
    2   -3    7    -10.31      0.00
    2   -3    6    -12.68      0.00
    2   -3    5    -13.84      0.00
    2   -3    4    -15.09      0.00
    2   -3    3    -17.13      0.00
    2   -3    2    -17.30      0.00
    2   -3    1     -8.85      0.00
   -2    3    0     -6.45      0.00
   -2    3    1     -1.25      0.00
   -2    3    2      1.38      0.00
   -2    3    3      3.49      0.00
    2   -4   12     -0.03      0.00
    2   -4   11     -1.08      0.00
    2   -4   10     -2.68      0.00
    2   -4    9     -4.57      0.00
    2   -4    8     -8.05      0.00
    2   -4    7    -10.77      0.00
    2   -4    6    -13.54      0.00
    2   -4    5    -14.88      0.00
    2   -4    4    -15.71      0.00
    2   -4    3    -12.90      0.00
    2   -4    2    -11.01      0.00
    2   -4    1     -6.07      0.00
   -2    4    0      0.76      0.00
   -2    4    1      2.73      0.00
    2   -5   12     -0.60      0.00
    2   -5   11     -1.37      0.00
    2   -5   10     -3.23      0.00
    2   -5    9     -5.24      0.00
    2   -5    8     -7.02      0.00
    2   -5    7     -9.00      0.00
    2   -5    6     -9.76      0.00
    2   -5    5    -10.58      0.00
    2   -5    4    -10.79      0.00
    2   -5    3    -10.39      0.00
    2   -5    2     -6.43      0.00
    2   -5    1     -4.23      0.00
   -2    5    0     -0.65      0.00
   -2    5    1      1.91      0.00
    2   -6   12     -1.23      0.00
    2   -6   11     -2.09      0.00
    2   -6   10     -3.03      0.00
    2   -6    9     -5.07      0.00
    2   -6    8     -6.85      0.00
    2   -6    7     -8.54      0.00
    2   -6    6     -9.33      0.00
    2   -6    5     -8.84      0.00
    2   -6    4     -7.26      0.00
    2   -6    3     -5.36      0.00
    2   -6    2     -2.82      0.00
    2   -6    1      0.18      0.00
   -2    6    0      2.38      0.00
   -2    6    1      3.49      0.00
    2   -7   12     -0.98      0.00
    2   -7   11     -2.05      0.00
    2   -7   10     -2.88      0.00
    2   -7    9     -3.34      0.00
    2   -7    8     -4.53      0.00
    2   -7    7     -5.35      0.00
    2   -7    6     -6.10      0.00
    2   -7    5     -5.85      0.00
    2   -7    4     -4.70      0.00
    2   -7    3     -2.88      0.00
    2   -7    2     -0.71      0.00
    2   -7    1      1.39      0.00
   -2    7    0      3.03      0.00
   -2    7    1      4.75      0.00
    2   -8   12     -0.68      0.00
    2   -8   11     -1.13      0.00
    2   -8   10     -1.93      0.00
    2   -8    9     -2.63      0.00
    2   -8    8     -3.20      0.00
    2   -8    7     -3.99      0.00
    2   -8    6     -3.87      0.00
    2   -8    5     -3.36      0.00
    2   -8    4     -2.01      0.00
    2   -8    3     -0.33      0.00
    2   -8    2      1.28      0.00
    2   -8    1      3.05      0.00
   -2    8    0      3.76      0.00
   -2    8    1      3.96      0.00
    2   -9   11     -0.65      0.00
    2   -9   10     -0.75      0.00
    2   -9    9     -1.16      0.00
    2   -9    8     -1.60      0.00
    2   -9    7     -1.92      0.00
    2   -9    6     -2.19      0.00
    2   -9    5     -1.78      0.00
    2   -9    4     -1.28      0.00
    2   -9    3     -0.10      0.00
    2   -9    2      1.11      0.00
    2   -9    1      2.25      0.00
   -2    9    0      2.85      0.00
    2  -10   10     -0.62      0.00
    2  -10    9     -0.72      0.00
    2  -10    8     -0.97      0.00
    2  -10    7     -0.80      0.00
    2  -10    6     -0.53      0.00
    2  -10    5     -0.24      0.00
    2  -10    4      0.34      0.00
    2  -10    3      1.01      0.00
    2  -10    2      1.49      0.00
    2  -10    1      1.98      0.00
    2  -11    9     -0.26      0.00
    2  -11    8     -0.04      0.00
    2  -11    7     -0.02      0.00
    2  -11    6      0.24      0.00
    2  -11    5      0.43      0.00
    2  -11    4      0.53      0.00
    2  -11    3      0.81      0.00
    2  -11    2      1.12      0.00
    2  -12    7     -0.33      0.00
    2  -12    6     -0.41      0.00
    2  -12    5     -0.14      0.00
    2  -12    4      0.26      0.00
   -1  -12    5     -0.15      0.00
    1   11    0      0.17      0.00
   -1  -11    1      0.62      0.00
   -1  -11    2      0.39      0.00
   -1  -11    3      0.36      0.00
   -1  -11    4      0.48      0.00
   -1  -11    5      0.20      0.00
   -1  -11    6      0.38      0.00
   -1  -11    7      0.13      0.00
    1   10    1      1.28      0.00
    1   10    0      1.35      0.00
   -1  -10    1      1.05      0.00
   -1  -10    2      1.18      0.00
   -1  -10    3      0.45      0.00
   -1  -10    4      0.28      0.00
   -1  -10    5     -0.02      0.00
   -1  -10    6     -0.36      0.00
   -1  -10    7     -0.50      0.00
    1    9    4      0.45      0.00
    1    9    3      0.79      0.00
    1    9    2      1.27      0.00
    1    9    1      0.94      0.00
    1    9    0      0.92      0.00
   -1   -9    1      0.51      0.00
   -1   -9    2      0.01      0.00
   -1   -9    3     -0.55      0.00
   -1   -9    4     -1.20      0.00
   -1   -9    5     -1.25      0.00
   -1   -9    6     -1.20      0.00
   -1   -9    7     -1.25      0.00
    1    8    5      0.66      0.00
    1    8    4      1.03      0.00
    1    8    3      0.98      0.00
    1    8    2      0.68      0.00
    1    8    1      0.74      0.00
    1    8    0      0.29      0.00
   -1   -8    1     -0.33      0.00
   -1   -8    2     -1.19      0.00
   -1   -8    5     -2.60      0.00
   -1   -8    6     -2.59      0.00
   -1   -8    7     -2.36      0.00
    1    7    7      0.95      0.00
    1    7    6      1.18      0.00
    1    7    5      1.27      0.00
    1    7    4      1.01      0.00
    1    7    3      0.98      0.00
    1    7    2      0.35      0.00
    1    7    1     -0.84      0.00
    1    7    0     -1.71      0.00
   -1   -7    1     -2.87      0.00
   -1   -7    2     -4.32      0.00
   -1   -7    6     -4.24      0.00
   -1   -7    7     -3.56      0.00
   -1   -7    8     -2.97      0.00
    1    6    8      0.95      0.00
    1    6    7      1.13      0.00
    1    6    6      1.36      0.00
    1    6    5      1.32      0.00
    1    6    4      0.85      0.00
    1    6    3     -0.33      0.00
    1    6    2     -0.73      0.00
    1    6    1     -1.63      0.00
    1    6    0     -4.14      0.00
   -1   -6    1     -6.37      0.00
   -1   -6    5     -7.82      0.00
   -1   -6    6     -7.09      0.00
   -1   -6    7     -6.28      0.00
   -1   -6    8     -5.10      0.00
    1    5    9      0.65      0.00
    1    5    8      1.18      0.00
    1    5    7      1.27      0.00
    1    5    6      0.65      0.00
    1    5    5     -0.46      0.00
    1    5    4     -1.18      0.00
    1    5    3     -1.79      0.00
    1    5    2     -4.37      0.00
    1    5    1     -6.48      0.00
    1    5    0     -8.64      0.00
   -1   -5    1    -11.49      0.00
   -1   -5    5    -10.50      0.00
   -1   -5    6     -8.27      0.00
   -1   -5    7     -6.11      0.00
    1    4    9      0.52      0.00
    1    4    8      0.35      0.00
    1    4    7      0.10      0.00
    1    4    6     -0.57      0.00
    1    4    5     -1.57      0.00
    1    4    4     -3.96      0.00
    1    4    3     -5.15      0.00
    1    4    2     -6.30      0.00
    1    4    1     -9.78      0.00
    1    4    0    -14.17      0.00
   -1   -4    1    -14.97      0.00
   -1   -4    4    -15.22      0.00
   -1   -4    5    -13.73      0.00
   -1   -4    6    -10.39      0.00
   -1   -4    7     -7.35      0.00
    1    3   10      0.16      0.00
    1    3    9     -0.06      0.00
    1    3    8     -0.33      0.00
    1    3    7     -1.27      0.00
    1    3    6     -2.49      0.00
    1    3    5     -3.36      0.00
    1    3    4     -4.34      0.00
    1    3    3     -8.61      0.00
    1    3    2    -12.94      0.00
    1    3    1    -16.52      0.00
    1    3    0    -20.53      0.00
   -1   -3    1    -26.83      0.00
   -1   -3    2    -22.92      0.00
   -1   -3    3    -20.61      0.00
   -1   -3    4    -17.85      0.00
   -1   -3    5    -13.27      0.00
   -1   -3    6     -9.25      0.00
    1    2   11     -0.52      0.00
    1    2   10     -0.55      0.00
    1    2    9     -1.07      0.00
    1    2    8     -1.67      0.00
    1    2    7     -2.35      0.00
    1    2    6     -2.96      0.00
    1    2    5     -5.19      0.00
    1    2    4     -6.28      0.00
    1    2    3     -7.80      0.00
    1    2    2    -11.63      0.00
    1    2    1    -19.20      0.00
    1    2    0    -20.64      0.00
   -1   -2    1    -22.36      0.00
   -1   -2    3    -19.71      0.00
   -1   -2    4    -17.05      0.00
   -1   -2    5    -11.90      0.00
   -1   -2    6     -7.88      0.00
    1    1   11     -0.80      0.00
    1    1   10     -1.29      0.00
    1    1    9     -1.49      0.00
    1    1    8     -2.00      0.00
    1    1    7     -2.61      0.00
    1    1    6     -3.25      0.00
    1    1    5     -4.97      0.00
    1    1    4    -10.26      0.00
    1    1    3    -15.70      0.00
    1    1    2    -19.86      0.00
    1    1    1    -23.48      0.00
    1    1    0    -32.43      0.00
   -1   -1    1    -25.42      0.00
   -1   -1    2    -20.73      0.00
   -1   -1    3    -16.58      0.00
   -1   -1    4    -10.27      0.00
   -1   -1    5     -6.89      0.00
   -1   -1    6     -2.70      0.00
   -1   -1    7     -0.58      0.00
   -1   -1    8      2.52      0.00
   -1   -1    9      3.24      0.00
   -1   -1   10      4.40      0.00
    1    0   12     -1.29      0.00
    1    0   11     -1.50      0.00
    1    0   10     -1.78      0.00
    1    0    9     -2.11      0.00
    1    0    8     -2.38      0.00
    1    0    7     -2.21      0.00
    1    0    6     -3.71      0.00
    1    0    5     -4.62      0.00
    1    0    4     -7.06      0.00
    1    0    3    -10.85      0.00
    1    0    2    -19.83      0.00
    1    0    1    -22.84      0.00
    1    0    0    -26.13      0.00
   -1    0    1    -32.10      0.00
   -1    0    2    -21.81      0.00
   -1    0    3    -16.42      0.00
   -1    0    4     -9.97      0.00
   -1    0    5     -6.12      0.00
   -1    0    6     -0.41      0.00
   -1    0    7      2.98      0.00
   -1    0    8      4.89      0.00
   -1    0    9      5.54      0.00
   -1    0   10      5.08      0.00
   -1    0   11      4.58      0.00
    1   -1   12     -1.45      0.00
    1   -1   11     -2.29      0.00
    1   -1   10     -2.57      0.00
    1   -1    9     -2.33      0.00
    1   -1    8     -1.74      0.00
    1   -1    7     -1.23      0.00
    1   -1    6     -1.46      0.00
    1   -1    5     -3.93      0.00
    1   -1    4     -5.12      0.00
    1   -1    3     -5.17      0.00
    1   -1    2     -4.61      0.00
    1   -1    1    -12.85      0.00
   -1    1    0     -8.11      0.00
   -1    1    1     -6.78      0.00
   -1    1    2     -6.36      0.00
   -1    1    3     -1.95      0.00
   -1    1    4     -0.51      0.00
   -1    1    5      1.44      0.00
   -1    1    6      1.85      0.00
   -1    1    7      4.72      0.00
   -1    1   11      3.81      0.00
    1   -2   12     -1.71      0.00
    1   -2   11     -1.84      0.00
    1   -2   10     -1.86      0.00
    1   -2    9     -1.72      0.00
    1   -2    8     -0.28      0.00
    1   -2    7      0.15      0.00
    1   -2    6      0.85      0.00
    1   -2    5      0.01      0.00
    1   -2    4     -0.77      0.00
    1   -2    3     -4.68      0.00
    1   -2    2     -5.38      0.00
    1   -2    1     -7.90      0.00
   -1    2    0    -15.39      0.00
   -1    2    1     -9.23      0.00
   -1    2    2     -6.36      0.00
   -1    2    3     -2.99      0.00
   -1    2    4     -1.48      0.00
   -1    2   11      3.80      0.00
    1   -3   12     -1.71      0.00
    1   -3   11     -1.83      0.00
    1   -3   10     -0.99      0.00
    1   -3    9      0.24      0.00
    1   -3    8      1.22      0.00
    1   -3    7      2.47      0.00
    1   -3    6      2.14      0.00
    1   -3    5      3.08      0.00
    1   -3    4      4.23      0.00
    1   -3    3      6.27      0.00
    1   -3    2      1.27      0.00
    1   -3    1      2.24      0.00
   -1    3    0     -0.40      0.00
   -1    3    2     -2.91      0.00
   -1    3    3     -1.41      0.00
   -1    3   11      2.34      0.00
    1   -4   13     -1.23      0.00
    1   -4   12     -1.23      0.00
    1   -4   11     -0.92      0.00
    1   -4   10     -0.24      0.00
    1   -4    9      2.11      0.00
    1   -4    8      4.15      0.00
    1   -4    7      6.00      0.00
    1   -4    6      6.54      0.00
    1   -4    5      6.20      0.00
    1   -4    4      4.73      0.00
    1   -4    3      4.38      0.00
    1   -4    2      3.22      0.00
    1   -4    1     -1.75      0.00
   -1    4    0     -0.42      0.00
   -1    4    1     -0.34      0.00
   -1    4    2     -0.18      0.00
    1   -5   13     -1.24      0.00
    1   -5   12     -1.08      0.00
    1   -5   11      0.02      0.00
    1   -5   10      1.30      0.00
    1   -5    9      2.31      0.00
    1   -5    8      4.49      0.00
    1   -5    7      5.63      0.00
    1   -5    6      6.73      0.00
    1   -5    5      6.61      0.00
    1   -5    4      6.31      0.00
    1   -5    3      3.53      0.00
    1   -5    2      2.67      0.00
    1   -5    1      0.67      0.00
   -1    5    0     -1.74      0.00
   -1    5    1     -2.00      0.00
   -1    5    2     -0.41      0.00
    1   -6   12     -0.14      0.00
    1   -6   11      0.67      0.00
    1   -6   10      2.53      0.00
    1   -6    9      4.23      0.00
    1   -6    8      5.70      0.00
    1   -6    7      7.06      0.00
    1   -6    6      6.85      0.00
    1   -6    5      5.80      0.00
    1   -6    4      4.30      0.00
    1   -6    3      2.79      0.00
    1   -6    2      0.54      0.00
    1   -6    1     -0.15      0.00
   -1    6    0     -0.21      0.00
   -1    6    1     -0.32      0.00
    1   -7   12      0.89      0.00
    1   -7   11      1.66      0.00
    1   -7   10      2.32      0.00
    1   -7    9      3.80      0.00
    1   -7    8      4.98      0.00
    1   -7    7      5.95      0.00
    1   -7    6      6.36      0.00
    1   -7    5      5.72      0.00
    1   -7    4      4.51      0.00
    1   -7    3      2.96      0.00
    1   -7    2      1.41      0.00
    1   -7    1      0.01      0.00
   -1    7    0     -0.96      0.00
   -1    7    1     -0.35      0.00
    1   -8   12      0.80      0.00
    1   -8   11      1.90      0.00
    1   -8   10      2.73      0.00
    1   -8    9      3.18      0.00
    1   -8    8      3.99      0.00
    1   -8    7      3.98      0.00
    1   -8    6      3.63      0.00
    1   -8    5      2.97      0.00
    1   -8    4      1.99      0.00
    1   -8    3      1.03      0.00
    1   -8    2     -0.15      0.00
    1   -8    1     -0.60      0.00
   -1    8    0     -0.94      0.00
    1   -9   11      1.04      0.00
    1   -9   10      1.75      0.00
    1   -9    9      2.33      0.00
    1   -9    8      2.56      0.00
    1   -9    7      2.93      0.00
    1   -9    6      2.63      0.00
    1   -9    5      2.21      0.00
    1   -9    4      1.36      0.00
    1   -9    3      0.43      0.00
    1   -9    2     -0.43      0.00
    1   -9    1     -0.85      0.00
   -1    9    0     -1.06      0.00
    1  -10   11      0.73      0.00
    1  -10   10      1.18      0.00
    1  -10    9      1.77      0.00
    1  -10    8      1.97      0.00
    1  -10    7      1.71      0.00
    1  -10    6      1.45      0.00
    1  -10    5      0.80      0.00
    1  -10    4      0.08      0.00
    1  -10    3     -0.42      0.00
    1  -10    2     -0.84      0.00
    1  -10    1     -1.21      0.00
    1  -11    9      0.45      0.00
    1  -11    8      0.80      0.00
    1  -11    7      0.81      0.00
    1  -11    6      0.53      0.00
    1  -11    5      0.19      0.00
    1  -11    4     -0.25      0.00
    1  -11    3     -0.57      0.00
    1  -12    7      0.09      0.00
    1  -12    6     -0.02      0.00
    1  -12    5     -0.32      0.00
    0  -12    2     -0.24      0.00
    0  -12    3      0.55      0.00
    0  -12    6      0.80      0.00
    0  -12    7      0.53      0.00
    0   11    1      0.06      0.00
    0   11    0     -0.30      0.00
    0  -11    8     -0.58      0.00
    0   10    3     -0.39      0.00
    0   10    2     -0.21      0.00
    0   10    1     -0.36      0.00
    0    9    5     -0.24      0.00
    0    9    4     -0.40      0.00
    0    9    3     -0.75      0.00
    0    9    2     -0.55      0.00
    0    9    1     -0.63      0.00
    0    9    0     -0.62      0.00
    0   -9    1     -0.42      0.00
    0   -9    2     -0.12      0.00
    0   -9    3      0.13      0.00
    0   -9    9     -0.95      0.00
    0    8    6     -0.27      0.00
    0    8    5     -0.47      0.00
    0    8    4     -0.60      0.00
    0    8    3     -0.75      0.00
    0    8    2     -1.29      0.00
    0    8    1     -1.24      0.00
    0    8    0     -0.79      0.00
    0   -8    1     -0.39      0.00
    0   -8    2     -0.10      0.00
    0   -8    3      0.12      0.00
    0   -8    4     -0.10      0.00
    0   -8    5     -0.31      0.00
    0   -8    6     -0.63      0.00
    0   -8    7     -0.66      0.00
    0   -8    9     -1.15      0.00
    0    7    7     -1.15      0.00
    0    7    6     -1.40      0.00
    0    7    5     -1.64      0.00
    0    7    4     -2.03      0.00
    0    7    3     -2.02      0.00
    0    7    2     -1.49      0.00
    0    7    1     -1.34      0.00
    0    7    0     -0.55      0.00
    0   -7    1      0.93      0.00
    0   -7    2      1.27      0.00
    0   -7    3      0.65      0.00
    0   -7    4     -0.10      0.00
    0   -7    5     -0.70      0.00
    0   -7    6     -1.17      0.00
    0   -7    7     -1.35      0.00
    0   -7    9     -0.26      0.00
    0    6    8     -1.43      0.00
    0    6    7     -2.28      0.00
    0    6    6     -2.70      0.00
    0    6    5     -2.65      0.00
    0    6    4     -2.34      0.00
    0    6    3     -2.47      0.00
    0    6    2     -1.89      0.00
    0    6    1      0.67      0.00
    0    6    0      2.26      0.00
    0   -6    1      3.17      0.00
    0   -6    2      3.88      0.00
    0   -6    3      4.12      0.00
    0   -6    4      2.81      0.00
    0   -6    5      2.08      0.00
    0   -6    6      1.31      0.00
    0   -6    7      0.76      0.00
    0    5    9     -2.26      0.00
    0    5    8     -3.12      0.00
    0    5    7     -3.17      0.00
    0    5    6     -3.13      0.00
    0    5    5     -2.92      0.00
    0    5    4     -2.36      0.00
    0    5    3      0.22      0.00
    0    5    2      1.86      0.00
    0    5    1      4.11      0.00
    0    5    0      7.42      0.00
    0   -5    1      9.81      0.00
    0   -5    2      8.03      0.00
    0   -5    3      6.72      0.00
    0   -5    4      5.74      0.00
    0   -5    5      3.48      0.00
    0   -5    6      2.43      0.00
    0    4   10     -2.26      0.00
    0    4    9     -3.15      0.00
    0    4    8     -3.76      0.00
    0    4    7     -3.73      0.00
    0    4    6     -2.92      0.00
    0    4    5     -1.25      0.00
    0    4    4     -0.25      0.00
    0    4    3      1.23      0.00
    0    4    2      5.21      0.00
    0    4    1      8.33      0.00
    0    4    0      9.58      0.00
    0   -4    1     11.10      0.00
    0   -4    2     14.07      0.00
    0   -4    3     10.41      0.00
    0   -4    4      9.69      0.00
    0   -4    5      7.89      0.00
    0   -4    6      5.84      0.00
    0    3   11     -2.04      0.00
    0    3   10     -2.85      0.00
    0    3    9     -3.57      0.00
    0    3    8     -3.36      0.00
    0    3    7     -2.95      0.00
    0    3    6     -2.08      0.00
    0    3    5     -0.43      0.00
    0    3    4      4.36      0.00
    0    3    3      7.71      0.00
    0    3    2     11.64      0.00
    0    3    1     16.25      0.00
    0    3    0     22.48      0.00
    0   -3    1     19.13      0.00
    0   -3    2     17.11      0.00
    0   -3    3     16.50      0.00
    0   -3    4     11.37      0.00
    0   -3    5      9.97      0.00
    0   -3    6      7.52      0.00
    0    2   11     -1.88      0.00
    0    2   10     -2.63      0.00
    0    2    9     -2.66      0.00
    0    2    8     -2.21      0.00
    0    2    7     -1.40      0.00
    0    2    6      0.41      0.00
    0    2    5      1.59      0.00
    0    2    4      4.24      0.00
    0    2    3      9.93      0.00
    0    2    2     17.08      0.00
    0    2    1     22.46      0.00
    0    2    0     27.75      0.00
    0   -2    1     35.37      0.00
    0   -2    2     26.81      0.00
    0   -2    3     22.82      0.00
    0   -2    4     17.98      0.00
    0   -2    5     12.68      0.00
    0   -2    8      3.13      0.00
    0   -2    9      2.24      0.00
    0   -2   10      2.17      0.00
    0    1   12     -1.09      0.00
    0    1   11     -1.29      0.00
    0    1   10     -1.68      0.00
    0    1    9     -1.56      0.00
    0    1    8     -1.17      0.00
    0    1    7     -0.07      0.00
    0    1    6      2.00      0.00
    0    1    5      7.50      0.00
    0    1    4     11.66      0.00
    0    1    3     17.73      0.00
    0    1    2     24.47      0.00
    0    1    1     36.57      0.00
    0   -1    1     33.43      0.00
    0   -1    2     31.66      0.00
    0   -1    3     20.02      0.00
    0   -1    4     15.34      0.00
    0   -1    5     10.50      0.00
    0   -1    6      7.79      0.00
    0   -1    7      3.72      0.00
    0   -1    8      2.35      0.00
    0   -1    9      1.11      0.00
    0   -1   10      0.75      0.00
    0    0   12     -0.50      0.00
    0    0   11     -1.13      0.00
    0    0   10     -0.94      0.00
    0    0    9     -0.24      0.00
    0    0    8      0.32      0.00
    0    0    7      2.23      0.00
    0    0    6      4.49      0.00
    0    0    5      9.66      0.00
    0    0    4     17.88      0.00
    0    0    3     28.76      0.00
    0    0    2     39.11      0.00
    0    0    1     48.53      0.00
    0   -1   12      0.71      0.00
    0   -1   11      0.76      0.00
    0   -2   13      1.06      0.00
    0   -2   12      0.93      0.00
    0   -2   11      1.37      0.00
    0   -2    7      4.58      0.00
    0   -2    6      7.83      0.00
    0   -3   13      1.72      0.00
    0   -3   12      1.90      0.00
    0   -3   11      1.90      0.00
    0   -3   10      2.39      0.00
    0   -3    9      3.90      0.00
    0   -3    8      4.36      0.00
    0   -3    7      6.37      0.00
    0   -4   13      1.47      0.00
    0   -4   12      2.10      0.00
    0   -4   11      2.48      0.00
    0   -4   10      2.17      0.00
    0   -4    9      2.33      0.00
    0   -4    8      2.96      0.00
    0   -4    7      3.67      0.00
    0   -5   13      1.83      0.00
    0   -5   12      1.90      0.00
    0   -5   11      2.07      0.00
    0   -5   10      2.73      0.00
    0   -5    9      2.18      0.00
    0   -5    8      2.15      0.00
    0   -5    7      1.93      0.00
    0   -6   13      1.88      0.00
    0   -6   12      1.79      0.00
    0   -6   11      1.22      0.00
    0   -6   10      1.02      0.00
    0   -6    9      1.18      0.00
    0   -6    8      0.47      0.00
    0   -7   13      0.86      0.00
    0   -7   12      0.93      0.00
    0   -7   11      0.73      0.00
    0   -7   10      0.12      0.00
    0   -7    8     -0.61      0.00
    0   -8   12     -0.23      0.00
    0   -8   11     -0.57      0.00
    0   -8   10     -0.71      0.00
    0   -8    8     -1.03      0.00
    0   -9   12      0.05      0.00
    0   -9   11     -0.39      0.00
    0   -9   10     -0.76      0.00
    0   -9    8     -1.43      0.00
    0   -9    7     -1.30      0.00
    0   -9    6     -0.95      0.00
    0   -9    5     -0.61      0.00
    0   -9    4     -0.17      0.00
    0  -10   11     -0.14      0.00
    0  -10   10     -0.60      0.00
    0  -10    9     -0.90      0.00
    0  -10    8     -0.86      0.00
    0  -10    7     -1.04      0.00
    0  -10    6     -0.83      0.00
    0  -10    5     -0.41      0.00
    0  -10    4     -0.23      0.00
    0  -10    3     -0.17      0.00
    0  -10    2     -0.20      0.00
    0  -11    9     -0.35      0.00
    0  -11    7     -0.47      0.00
    0  -11    6     -0.34      0.00
    0  -11    5     -0.08      0.00
    0  -11    4      0.28      0.00
    0  -11    3     -0.24      0.00
    0  -12    5      0.78      0.00
    0  -12    4      0.72      0.00
   -1   10    4     -0.50      0.00
   -1   10    3     -1.33      0.00
   -1   10    2     -1.48      0.00
   -1   10    1     -1.70      0.00
   -1   10    0     -1.22      0.00
   -1    9    5     -0.34      0.00
   -1    9    4     -0.59      0.00
   -1    9    3     -1.14      0.00
   -1    9    2     -1.31      0.00
   -1    9    1     -1.14      0.00
   -1    8    7     -0.43      0.00
   -1    8    6     -0.88      0.00
   -1    8    5     -1.23      0.00
   -1    8    4     -1.37      0.00
   -1    8    3     -1.02      0.00
   -1    8    2     -1.10      0.00
   -1    8    1     -1.27      0.00
   -1    7    8      0.10      0.00
   -1    7    7     -0.09      0.00
   -1    7    6     -0.25      0.00
   -1    7    5     -0.38      0.00
   -1    7    4     -0.55      0.00
   -1    7    3     -0.71      0.00
   -1    7    2     -0.27      0.00
   -1    6    9      0.04      0.00
   -1    6    8      0.51      0.00
   -1    6    7      0.58      0.00
   -1    6    6      0.38      0.00
   -1    6    5      0.49      0.00
   -1    6    4      0.73      0.00
   -1    6    3      0.62      0.00
   -1    6    2     -0.76      0.00
   -1    5   10      0.81      0.00
   -1    5    9      1.31      0.00
   -1    5    8      1.52      0.00
   -1    5    7      1.97      0.00
   -1    5    6      2.02      0.00
   -1    5    5      1.85      0.00
   -1    5    4      0.53      0.00
   -1    5    3      0.41      0.00
   -1    4   10      2.14      0.00
   -1    4    9      2.89      0.00
   -1    4    8      3.25      0.00
   -1    4    7      3.10      0.00
   -1    4    6      2.90      0.00
   -1    4    5      2.59      0.00
   -1    4    4      1.92      0.00
   -1    4    3     -0.54      0.00
   -1    3   10      3.53      0.00
   -1    3    9      4.41      0.00
   -1    3    8      5.11      0.00
   -1    3    7      4.88      0.00
   -1    3    6      4.06      0.00
   -1    3    5      1.12      0.00
   -1    3    4      0.27      0.00
   -1    3    1     -4.01      0.00
   -1    2   12      2.02      0.00
   -1    2   10      4.74      0.00
   -1    2    9      5.24      0.00
   -1    2    8      5.40      0.00
   -1    2    7      5.01      0.00
   -1    2    6      4.18      0.00
   -1    2    5      2.38      0.00
   -1    1   12      2.41      0.00
   -1    1   10      5.20      0.00
   -1    1    9      5.90      0.00
   -1    1    8      5.37      0.00
   -1    0   12      3.61      0.00
   -1   -1   13      1.37      0.00
   -1   -1   12      2.62      0.00
   -1   -1   11      4.02      0.00
   -1   -2   13      1.43      0.00
   -1   -2   12      2.00      0.00
   -1   -2   11      2.49      0.00
   -1   -2   10      3.04      0.00
   -1   -2    9      2.50      0.00
   -1   -2    8      0.42      0.00
   -1   -2    7     -2.45      0.00
   -1   -2    2    -26.33      0.00
   -1   -3   13      0.54      0.00
   -1   -3   12      1.35      0.00
   -1   -3   11      1.41      0.00
   -1   -3   10      0.20      0.00
   -1   -3    9     -0.37      0.00
   -1   -3    8     -2.62      0.00
   -1   -3    7     -5.15      0.00
   -1   -4   13     -0.44      0.00
   -1   -4   12     -0.13      0.00
   -1   -4   11      0.07      0.00
   -1   -4   10     -0.64      0.00
   -1   -4    9     -2.55      0.00
   -1   -4    8     -4.00      0.00
   -1   -4    3    -17.84      0.00
   -1   -4    2    -15.90      0.00
   -1   -5   13     -0.90      0.00
   -1   -5   12     -1.24      0.00
   -1   -5   11     -1.86      0.00
   -1   -5   10     -2.36      0.00
   -1   -5    9     -3.56      0.00
   -1   -5    8     -4.87      0.00
   -1   -5    4    -11.95      0.00
   -1   -5    3    -13.00      0.00
   -1   -5    2    -14.25      0.00
   -1   -6   13     -1.40      0.00
   -1   -6   12     -1.48      0.00
   -1   -6   11     -2.03      0.00
   -1   -6   10     -3.16      0.00
   -1   -6    9     -3.81      0.00
   -1   -6    4     -8.48      0.00
   -1   -6    3     -8.00      0.00
   -1   -6    2     -7.39      0.00
   -1   -7   13     -1.58      0.00
   -1   -7   12     -1.71      0.00
   -1   -7   11     -2.01      0.00
   -1   -7   10     -2.59      0.00
   -1   -7    9     -3.09      0.00
   -1   -7    5     -4.56      0.00
   -1   -7    4     -5.01      0.00
   -1   -7    3     -5.16      0.00
   -1   -8   12     -1.10      0.00
   -1   -8   11     -1.37      0.00
   -1   -8   10     -1.61      0.00
   -1   -8    9     -2.03      0.00
   -1   -8    8     -2.47      0.00
   -1   -8    4     -2.28      0.00
   -1   -8    3     -1.79      0.00
   -1   -9   11     -1.14      0.00
   -1   -9   10     -1.19      0.00
   -1   -9    9     -0.93      0.00
   -1   -9    8     -1.01      0.00
   -1  -10   11     -0.85      0.00
   -1  -10   10     -1.09      0.00
   -1  -10    9     -1.17      0.00
   -1  -10    8     -0.79      0.00
    1   10    2      1.12      0.00
   -1  -11    9     -0.34      0.00
   -1  -11    8     -0.22      0.00
   -2   11    2      0.59      0.00
   -2   11    1      0.54      0.00
   -2   11    0      0.67      0.00
    2  -11    1      0.59      0.00
   -2   10    4      1.61      0.00
   -2   10    3      1.64      0.00
   -2   10    2      2.17      0.00
   -2   10    1      2.21      0.00
   -2   10    0      2.31      0.00
   -2    9    6      0.47      0.00
   -2    9    5      0.99      0.00
   -2    9    4      1.64      0.00
   -2    9    3      2.21      0.00
   -2    9    2      2.41      0.00
   -2    9    1      2.88      0.00
   -2    8    7      1.17      0.00
   -2    8    6      1.82      0.00
   -2    8    5      2.44      0.00
   -2    8    4      2.67      0.00
   -2    8    3      3.36      0.00
   -2    8    2      3.99      0.00
   -2    7    8      0.75      0.00
   -2    7    7      1.66      0.00
   -2    7    6      2.65      0.00
   -2    7    5      3.46      0.00
   -2    7    4      3.99      0.00
   -2    7    3      4.15      0.00
   -2    7    2      4.49      0.00
   -2    6    9      0.67      0.00
   -2    6    8      1.49      0.00
   -2    6    7      2.39      0.00
   -2    6    6      2.95      0.00
   -2    6    5      3.75      0.00
   -2    6    4      4.33      0.00
   -2    6    3      5.31      0.00
   -2    6    2      4.10      0.00
   -2    5   10      0.64      0.00
   -2    5    9      1.06      0.00
   -2    5    8      1.48      0.00
   -2    5    7      2.25      0.00
   -2    5    6      2.78      0.00
   -2    5    5      3.59      0.00
   -2    5    4      3.76      0.00
   -2    5    3      4.08      0.00
   -2    5    2      4.49      0.00
   -2    4   11     -0.02      0.00
   -2    4   10      0.25      0.00
   -2    4    9      0.71      0.00
   -2    4    8      1.23      0.00
   -2    4    7      1.39      0.00
   -2    4    6      2.25      0.00
   -2    4    5      2.74      0.00
   -2    4    4      4.57      0.00
   -2    4    3      3.30      0.00
   -2    4    2      3.84      0.00
   -2    3   11     -0.30      0.00
   -2    3   10     -0.90      0.00
   -2    3    9     -1.12      0.00
   -2    3    8     -0.64      0.00
   -2    3    7     -0.44      0.00
   -2    3    6      0.91      0.00
   -2    3    5      1.46      0.00
   -2    3    4      2.66      0.00
   -2    2   12     -1.45      0.00
   -2    2   11     -1.90      0.00
   -2    2   10     -2.30      0.00
   -2    2    9     -2.79      0.00
   -2    2    8     -3.09      0.00
   -2    2    7     -2.15      0.00
   -2    2    6     -1.23      0.00
   -2    1   12     -1.71      0.00
   -2    1   11     -3.33      0.00
   -2    1   10     -4.06      0.00
   -2    1    9     -3.88      0.00
   -2    1    8     -4.54      0.00
   -2    0   13     -2.05      0.00
   -2    0   12     -3.19      0.00
   -2    0   11     -4.41      0.00
   -2    0   10     -5.76      0.00
   -2   -1   13     -2.40      0.00
   -2   -1   12     -4.42      0.00
   -2   -1   11     -5.45      0.00
   -2   -1   10     -5.48      0.00
   -2   -2   13     -2.55      0.00
   -2   -2   12     -4.16      0.00
   -2   -2   11     -5.67      0.00
   -2   -3   13     -2.80      0.00
   -2   -3   12     -3.84      0.00
   -2   -3   11     -4.37      0.00
   -2   -3   10     -5.03      0.00
   -2   -3    9     -4.77      0.00
   -2   -3    8     -3.93      0.00
   -2   -4   13     -2.21      0.00
   -2   -4   12     -3.30      0.00
   -2   -4   11     -3.62      0.00
   -2   -4   10     -2.86      0.00
   -2   -4    9     -2.54      0.00
   -2   -4    8     -0.86      0.00
   -2   -4    4      6.60      0.00
   -2   -4    3      6.62      0.00
   -2   -4    2      7.07      0.00
   -2   -5   13     -1.14      0.00
   -2   -5   12     -1.88      0.00
   -2   -5   11     -1.85      0.00
   -2   -5   10     -1.12      0.00
   -2   -5    9     -0.17      0.00
   -2   -5    5      5.71      0.00
   -2   -5    4      6.94      0.00
   -2   -5    3      8.23      0.00
   -2   -5    2      7.13      0.00
   -2   -6   13     -0.59      0.00
   -2   -6   12     -0.64      0.00
   -2   -6   11     -0.31      0.00
   -2   -6   10      0.57      0.00
   -2   -6    9      1.78      0.00
   -2   -6    6      4.62      0.00
   -2   -6    5      5.33      0.00
   -2   -6    4      5.34      0.00
   -2   -6    3      5.53      0.00
   -2   -6    2      5.44      0.00
   -2   -7   13      0.25      0.00
   -2   -7   12      0.52      0.00
   -2   -7   11      1.07      0.00
   -2   -7   10      1.45      0.00
   -2   -7    9      1.77      0.00
   -2   -7    8      2.51      0.00
   -2   -7    7      3.44      0.00
   -2   -7    6      4.04      0.00
   -2   -7    5      4.77      0.00
   -2   -7    4      5.14      0.00
   -2   -7    3      4.75      0.00
   -2   -7    2      4.25      0.00
   -2   -8   12      1.02      0.00
   -2   -8   11      1.75      0.00
   -2   -8   10      2.36      0.00
   -2   -8    9      2.66      0.00
   -2   -8    8      2.69      0.00
   -2   -8    7      2.98      0.00
   -2   -8    6      3.16      0.00
   -2   -8    5      2.94      0.00
   -2   -8    4      2.65      0.00
   -2   -8    3      2.34      0.00
   -2   -8    2      1.70      0.00
   -2   -9   11      1.29      0.00
   -2   -9   10      1.65      0.00
   -2   -9    9      1.99      0.00
   -2   -9    8      2.26      0.00
   -2   -9    7      2.36      0.00
   -2   -9    6      2.43      0.00
   -2   -9    5      2.40      0.00
   -2   -9    4      1.74      0.00
   -2   -9    3      1.13      0.00
   -2   -9    2      0.70      0.00
   -2   -9    1      0.34      0.00
    2    9    0      0.62      0.00
    2    9    1      0.33      0.00
    2    9    2      0.60      0.00
    2    9    3      0.32      0.00
   -2  -10   10      1.70      0.00
   -2  -10    9      1.85      0.00
   -2  -10    8      1.86      0.00
   -2  -10    7      1.72      0.00
   -2  -10    6      1.42      0.00
   -2  -10    5      0.91      0.00
   -2  -10    4      0.60      0.00
   -2  -10    3     -0.24      0.00
   -2  -10    2     -0.30      0.00
   -2  -10    1     -0.59      0.00
    2   10    0     -0.48      0.00
    2   10    1     -0.29      0.00
   -2  -11    8      0.66      0.00
   -2  -11    7      0.42      0.00
   -2  -11    6      0.37      0.00
   -2  -11    5      0.06      0.00
   -2  -11    4     -0.11      0.00
   -2  -11    3     -0.22      0.00
   -2  -11    2     -0.46      0.00
   -3   11    3     -0.30      0.00
   -3   11    2      0.17      0.00
   -3   11    1      0.01      0.00
   -3   11    0      0.12      0.00
    3  -11    1     -0.09      0.00
   -3   10    5     -1.02      0.00
   -3   10    4     -0.60      0.00
   -3   10    3     -0.92      0.00
   -3   10    2     -1.11      0.00
   -3   10    1     -1.12      0.00
   -3    9    6     -0.51      0.00
   -3    9    5     -0.93      0.00
   -3    9    4     -1.54      0.00
   -3    9    3     -1.73      0.00
   -3    9    2     -2.43      0.00
   -3    8    7     -0.68      0.00
   -3    8    6     -1.44      0.00
   -3    8    5     -1.88      0.00
   -3    8    4     -2.66      0.00
   -3    8    3     -3.43      0.00
   -3    8    2     -3.78      0.00
   -3    7    8     -1.13      0.00
   -3    7    7     -2.18      0.00
   -3    7    6     -3.06      0.00
   -3    7    5     -3.79      0.00
   -3    7    4     -4.52      0.00
   -3    7    3     -5.04      0.00
   -3    7    2     -5.39      0.00
   -3    6    9     -0.88      0.00
   -3    6    8     -1.89      0.00
   -3    6    7     -3.18      0.00
   -3    6    6     -4.92      0.00
   -3    6    5     -6.00      0.00
   -3    6    4     -7.17      0.00
   -3    6    3     -6.73      0.00
   -3    6    2     -6.43      0.00
   -3    5   10     -0.70      0.00
   -3    5    9     -1.74      0.00
   -3    5    8     -3.16      0.00
   -3    5    7     -4.36      0.00
   -3    5    6     -5.61      0.00
   -3    5    5     -7.07      0.00
   -3    5    4     -7.59      0.00
   -3    5    3     -8.09      0.00
   -3    5    2     -5.34      0.00
   -3    4   11     -0.61      0.00
   -3    4   10     -1.58      0.00
   -3    4    9     -2.75      0.00
   -3    4    8     -4.04      0.00
   -3    4    7     -6.14      0.00
   -3    4    6     -6.86      0.00
   -3    4    5     -8.49      0.00
   -3    4    4     -7.91      0.00
   -3    4    3     -8.72      0.00
   -3    4    2     -7.71      0.00
   -3    3   11     -0.97      0.00
   -3    3   10     -2.04      0.00
   -3    3    9     -3.53      0.00
   -3    3    8     -4.41      0.00
   -3    3    7     -5.58      0.00
   -3    3    6     -6.91      0.00
   -3    3    5     -7.16      0.00
   -3    3    4     -7.70      0.00
   -3    2   12     -0.62      0.00
   -3    2   11     -1.14      0.00
   -3    2   10     -1.59      0.00
   -3    2    9     -2.31      0.00
   -3    2    8     -4.01      0.00
   -3    2    7     -4.18      0.00
   -3    2    6     -6.36      0.00
   -3    1   12     -0.11      0.00
   -3    1   11     -0.71      0.00
   -3    1   10     -1.63      0.00
   -3    1    9     -1.59      0.00
   -3    1    8     -2.02      0.00
   -3    0   13     -0.21      0.00
   -3    0   12      0.20      0.00
   -3    0   11      0.78      0.00
   -3    0   10      0.94      0.00
   -3   -1   13      0.90      0.00
   -3   -1   12      1.26      0.00
   -3   -1   11      1.53      0.00
   -3   -1   10      2.32      0.00
   -3   -2   13      1.26      0.00
   -3   -2   12      2.44      0.00
   -3   -2   11      3.12      0.00
   -3   -2   10      3.07      0.00
   -3   -3   13      1.67      0.00
   -3   -3   12      2.98      0.00
   -3   -3   11      3.81      0.00
   -3   -3   10      4.27      0.00
   -3   -4   13      2.59      0.00
   -3   -4   12      3.73      0.00
   -3   -4   11      4.30      0.00
   -3   -4   10      4.45      0.00
   -3   -4    9      4.34      0.00
   -3   -4    8      4.60      0.00
   -3   -5   13      2.76      0.00
   -3   -5   12      3.66      0.00
   -3   -5   11      4.02      0.00
   -3   -5   10      4.22      0.00
   -3   -5    9      4.37      0.00
   -3   -5    8      4.06      0.00
   -3   -5    7      3.56      0.00
   -3   -5    6      2.94      0.00
   -3   -5    5      2.46      0.00
   -3   -5    4      1.83      0.00
   -3   -5    3      1.94      0.00
   -3   -6   13      1.90      0.00
   -3   -6   12      2.93      0.00
   -3   -6   11      2.73      0.00
   -3   -6   10      2.48      0.00
   -3   -6    9      2.38      0.00
   -3   -6    8      2.18      0.00
   -3   -6    7      1.83      0.00
   -3   -6    6      1.55      0.00
   -3   -6    5      1.64      0.00
   -3   -6    4      1.40      0.00
   -3   -6    3      0.95      0.00
   -3   -7   12      1.30      0.00
   -3   -7   11      1.90      0.00
   -3   -7   10      1.68      0.00
   -3   -7    9      1.52      0.00
   -3   -7    8      1.11      0.00
   -3   -7    7      0.59      0.00
   -3   -7    6      0.07      0.00
   -3   -7    5     -0.36      0.00
   -3   -7    4     -0.30      0.00
   -3   -7    3     -0.44      0.00
   -3   -8   12     -0.08      0.00
   -3   -8   11     -0.30      0.00
   -3   -8   10     -0.12      0.00
   -3   -8    9     -0.22      0.00
   -3   -8    8     -0.15      0.00
   -3   -8    7     -0.22      0.00
   -3   -8    6     -0.31      0.00
   -3   -8    5     -0.34      0.00
   -3   -8    4     -0.68      0.00
   -3   -8    3     -0.56      0.00
   -3   -8    2     -0.84      0.00
   -3   -8    1     -0.97      0.00
   -3   -9   11     -0.30      0.00
   -3   -9   10     -0.54      0.00
   -3   -9    9     -0.53      0.00
   -3   -9    8     -0.76      0.00
   -3   -9    7     -0.86      0.00
   -3   -9    6     -1.17      0.00
   -3   -9    5     -1.20      0.00
   -3   -9    4     -1.00      0.00
   -3   -9    3     -1.07      0.00
   -3   -9    2     -0.85      0.00
   -3   -9    1     -1.33      0.00
    3    9    0     -1.36      0.00
    3    9    1     -1.86      0.00
    3    9    2     -1.52      0.00
   -3  -10    9     -0.87      0.00
   -3  -10    8     -0.83      0.00
   -3  -10    7     -1.07      0.00
   -3  -10    6     -0.92      0.00
   -3  -10    5     -1.06      0.00
   -3  -10    4     -0.62      0.00
   -3  -10    3     -0.42      0.00
   -3  -10    2     -0.15      0.00
   -3  -10    1     -0.23      0.00
    3   10    0     -0.54      0.00
   -3  -11    6     -0.68      0.00
   -3  -11    5     -0.42      0.00
   -4   12    0     -1.12      0.00
    4  -12    1     -1.59      0.00
    4  -12    2     -1.71      0.00
   -4   11    3     -0.89      0.00
   -4   11    2     -0.73      0.00
   -4   11    1     -0.99      0.00
   -4   11    0     -1.42      0.00
   -4   10    5     -0.74      0.00
   -4   10    4     -0.87      0.00
   -4   10    3     -0.86      0.00
   -4   10    2     -1.25      0.00
   -4   10    1     -1.47      0.00
   -4    9    6     -0.20      0.00
   -4    9    5      0.04      0.00
   -4    9    4     -0.38      0.00
   -4    9    3     -0.23      0.00
   -4    9    2     -0.45      0.00
   -4    8    7      0.13      0.00
   -4    8    6      0.07      0.00
   -4    8    5      0.24      0.00
   -4    8    4      0.41      0.00
   -4    8    3      0.27      0.00
   -4    8    2     -0.08      0.00
   -4    7    9      0.60      0.00
   -4    7    8      0.78      0.00
   -4    7    7      0.93      0.00
   -4    7    6      1.21      0.00
   -4    7    5      1.52      0.00
   -4    7    4      1.30      0.00
   -4    7    3      1.31      0.00
   -4    7    2      0.22      0.00
   -4    6    9      0.41      0.00
   -4    6    8      1.33      0.00
   -4    6    7      2.46      0.00
   -4    6    6      3.02      0.00
   -4    6    5      3.82      0.00
   -4    6    4      4.09      0.00
   -4    6    3      3.76      0.00
   -4    6    2      3.06      0.00
   -4    5   10      0.37      0.00
   -4    5    9      0.96      0.00
   -4    5    8      1.80      0.00
   -4    5    7      2.98      0.00
   -4    5    6      5.03      0.00
   -4    5    5      5.57      0.00
   -4    5    4      6.81      0.00
   -4    5    3      5.33      0.00
   -4    4   11      0.03      0.00
   -4    4   10      0.70      0.00
   -4    4    9      2.10      0.00
   -4    4    8      4.04      0.00
   -4    4    7      4.88      0.00
   -4    4    6      6.69      0.00
   -4    4    5      7.66      0.00
   -4    4    4      7.96      0.00
   -4    4    3      7.32      0.00
   -4    3   12      0.04      0.00
   -4    3   11      1.16      0.00
   -4    3   10      2.47      0.00
   -4    3    9      3.93      0.00
   -4    3    8      5.70      0.00
   -4    3    7      8.32      0.00
   -4    3    6      8.43      0.00
   -4    3    5      9.28      0.00
   -4    3    4      6.31      0.00
   -4    2   12      0.97      0.00
   -4    2   11      1.82      0.00
   -4    2   10      3.39      0.00
   -4    2    9      5.47      0.00
   -4    2    8      6.21      0.00
   -4    2    7      8.51      0.00
   -4    2    6      9.85      0.00
   -4    2    5     10.00      0.00
   -4    2    4      8.43      0.00
   -4    1   12      1.85      0.00
   -4    1   11      3.14      0.00
   -4    1   10      4.35      0.00
   -4    1    9      5.73      0.00
   -4    1    8      7.98      0.00
   -4    1    7      7.97      0.00
   -4    1    6      9.52      0.00
   -4    0   13      1.28      0.00
   -4    0   12      1.86      0.00
   -4    0   11      2.93      0.00
   -4    0   10      4.25      0.00
   -4    0    9      4.38      0.00
   -4    0    8      5.96      0.00
   -4   -1   13      1.42      0.00
   -4   -1   12      1.79      0.00
   -4   -1   11      2.24      0.00
   -4   -1   10      2.69      0.00
   -4   -2   13      0.79      0.00
   -4   -2   12      0.98      0.00
   -4   -2   11      1.29      0.00
   -4   -2   10      1.39      0.00
   -4   -3   13      0.23      0.00
   -4   -3   12      0.03      0.00
   -4   -3   11     -0.03      0.00
   -4   -3   10     -0.07      0.00
   -4   -3    5     -4.29      0.00
   -4   -3    4     -5.78      0.00
   -4   -4   13     -0.50      0.00
   -4   -4   12     -1.39      0.00
   -4   -4   11     -1.31      0.00
   -4   -4   10     -1.48      0.00
   -4   -4    7     -3.90      0.00
   -4   -4    6     -5.12      0.00
   -4   -4    5     -6.37      0.00
   -4   -4    4     -7.70      0.00
   -4   -5   13     -1.32      0.00
   -4   -5   12     -2.05      0.00
   -4   -5   11     -3.12      0.00
   -4   -5   10     -3.41      0.00
   -4   -5    9     -4.03      0.00
   -4   -5    8     -4.35      0.00
   -4   -5    7     -4.43      0.00
   -4   -5    6     -4.73      0.00
   -4   -5    5     -5.09      0.00
   -4   -5    4     -5.88      0.00
   -4   -6   13     -1.53      0.00
   -4   -6   12     -1.75      0.00
   -4   -6   11     -2.27      0.00
   -4   -6   10     -3.25      0.00
   -4   -6    9     -3.59      0.00
   -4   -6    8     -4.25      0.00
   -4   -6    7     -4.50      0.00
   -4   -6    6     -4.86      0.00
   -4   -6    5     -5.21      0.00
   -4   -6    4     -5.09      0.00
   -4   -7   12     -2.14      0.00
   -4   -7   11     -2.26      0.00
   -4   -7   10     -2.99      0.00
   -4   -7    9     -3.64      0.00
   -4   -7    8     -3.61      0.00
   -4   -7    7     -3.81      0.00
   -4   -7    6     -3.65      0.00
   -4   -7    5     -3.82      0.00
   -4   -7    4     -3.83      0.00
   -4   -7    3     -3.31      0.00
   -4   -8   11     -1.31      0.00
   -4   -8   10     -1.53      0.00
   -4   -8    9     -2.43      0.00
   -4   -8    8     -3.02      0.00
   -4   -8    7     -3.03      0.00
   -4   -8    6     -3.22      0.00
   -4   -8    5     -2.60      0.00
   -4   -8    4     -2.32      0.00
   -4   -8    3     -1.75      0.00
   -4   -8    2     -1.12      0.00
   -4   -8    1     -0.82      0.00
    4    8    0     -0.40      0.00
    4    8    1     -0.33      0.00
    4    8    2      0.21      0.00
   -4   -9   10     -1.02      0.00
   -4   -9    9     -1.21      0.00
   -4   -9    8     -1.72      0.00
   -4   -9    7     -1.70      0.00
   -4   -9    6     -1.39      0.00
   -4   -9    5     -1.34      0.00
   -4   -9    4     -0.50      0.00
   -4   -9    3     -0.21      0.00
   -4   -9    2      0.41      0.00
   -4   -9    1      0.67      0.00
    4    9    0      1.19      0.00
   -4  -10    8     -0.56      0.00
   -4  -10    7     -0.85      0.00
   -4  -10    6     -0.50      0.00
   -4  -10    5     -0.27      0.00
   -4  -10    4     -0.16      0.00
   -4  -10    3      0.06      0.00
   -5   12    0      1.22      0.00
    5  -12    1      1.60      0.00
    5  -12    2      2.00      0.00
   -5   11    3      0.55      0.00
   -5   11    2      0.82      0.00
   -5   11    1      1.49      0.00
   -5   11    0      2.14      0.00
   -5   10    5      0.71      0.00
   -5   10    4      1.02      0.00
   -5   10    3      1.99      0.00
   -5   10    2      2.35      0.00
   -5    9    6     -0.36      0.00
   -5    9    5      0.58      0.00
   -5    9    4      1.21      0.00
   -5    9    3      2.03      0.00
   -5    9    2      3.09      0.00
   -5    8    7     -0.04      0.00
   -5    8    6      0.03      0.00
   -5    8    5      0.33      0.00
   -5    8    4      1.19      0.00
   -5    8    3      2.46      0.00
   -5    8    2      3.54      0.00
   -5    7    9     -0.08      0.00
   -5    7    8      0.01      0.00
   -5    7    7     -0.02      0.00
   -5    7    6      0.32      0.00
   -5    7    5      1.27      0.00
   -5    7    4      1.77      0.00
   -5    7    3      2.97      0.00
   -5    7    2      4.25      0.00
   -5    6    9     -0.29      0.00
   -5    6    8     -0.19      0.00
   -5    6    7      0.10      0.00
   -5    6    6      0.40      0.00
   -5    6    5      0.65      0.00
   -5    6    4      1.95      0.00
   -5    6    3      2.35      0.00
   -5    5   10      0.46      0.00
   -5    5    9      0.43      0.00
   -5    5    8      0.24      0.00
   -5    5    7     -0.41      0.00
   -5    5    6      0.18      0.00
   -5    5    5     -0.66      0.00
   -5    5    4     -0.09      0.00
   -5    5    3      0.25      0.00
   -5    4   11      0.66      0.00
   -5    4   10      0.28      0.00
   -5    4    9      0.22      0.00
   -5    4    8      0.32      0.00
   -5    4    7     -0.32      0.00
   -5    4    6     -1.59      0.00
   -5    4    5     -1.34      0.00
   -5    4    4     -2.23      0.00
   -5    3   11      0.41      0.00
   -5    3   10     -0.21      0.00
   -5    3    9     -1.06      0.00
   -5    3    8     -2.66      0.00
   -5    3    7     -2.51      0.00
   -5    3    6     -4.18      0.00
   -5    3    5     -3.61      0.00
   -5    3    4     -3.41      0.00
   -5    2   12      0.28      0.00
   -5    2   11     -0.47      0.00
   -5    2   10     -1.10      0.00
   -5    2    9     -1.69      0.00
   -5    2    8     -3.31      0.00
   -5    2    7     -5.67      0.00
   -5    2    6     -5.90      0.00
   -5    2    5     -6.90      0.00
   -5    1   12     -0.54      0.00
   -5    1   11     -1.54      0.00
   -5    1   10     -2.64      0.00
   -5    1    9     -4.24      0.00
   -5    1    8     -4.20      0.00
   -5    1    7     -6.36      0.00
   -5    1    6     -6.93      0.00
   -5    1    5     -7.47      0.00
   -5    0   13     -0.46      0.00
   -5    0   12     -1.52      0.00
   -5    0   11     -2.57      0.00
   -5    0   10     -3.71      0.00
   -5    0    9     -5.14      0.00
   -5    0    8     -7.02      0.00
   -5    0    7     -7.09      0.00
   -5    0    6     -8.36      0.00
   -5    0    5     -6.86      0.00
   -5   -1   13     -1.00      0.00
   -5   -1   12     -2.06      0.00
   -5   -1   11     -3.27      0.00
   -5   -1   10     -4.49      0.00
   -5   -1    9     -4.51      0.00
   -5   -1    8     -5.69      0.00
   -5   -1    7     -6.46      0.00
   -5   -1    6     -6.90      0.00
   -5   -1    5     -6.54      0.00
   -5   -2   13     -1.36      0.00
   -5   -2   12     -2.06      0.00
   -5   -2   11     -3.46      0.00
   -5   -2   10     -4.49      0.00
   -5   -2    9     -5.25      0.00
   -5   -2    8     -4.80      0.00
   -5   -2    7     -5.14      0.00
   -5   -2    6     -4.29      0.00
   -5   -2    5     -3.54      0.00
   -5   -3   13     -1.43      0.00
   -5   -3   12     -2.26      0.00
   -5   -3   11     -2.77      0.00
   -5   -3   10     -3.31      0.00
   -5   -3    9     -3.43      0.00
   -5   -3    8     -3.49      0.00
   -5   -3    7     -3.26      0.00
   -5   -3    6     -2.82      0.00
   -5   -3    5     -1.81      0.00
   -5   -4   13     -1.25      0.00
   -5   -4   12     -2.21      0.00
   -5   -4   11     -2.79      0.00
   -5   -4   10     -2.61      0.00
   -5   -4    9     -2.27      0.00
   -5   -4    8     -1.44      0.00
   -5   -4    7     -0.63      0.00
   -5   -4    6      0.44      0.00
   -5   -4    5      1.59      0.00
   -5   -5   13     -0.85      0.00
   -5   -5   12     -0.52      0.00
   -5   -5   11     -1.09      0.00
   -5   -5   10     -0.60      0.00
   -5   -5    9      0.12      0.00
   -5   -5    8      0.47      0.00
   -5   -5    7      1.22      0.00
   -5   -5    6      1.68      0.00
   -5   -5    5      2.60      0.00
   -5   -6   12     -0.74      0.00
   -5   -6   11     -0.18      0.00
   -5   -6   10     -0.13      0.00
   -5   -6    9      1.23      0.00
   -5   -6    8      2.18      0.00
   -5   -6    7      2.74      0.00
   -5   -6    6      3.48      0.00
   -5   -6    5      3.49      0.00
   -5   -6    4      3.87      0.00
   -5   -7   11      0.39      0.00
   -5   -7   10      1.28      0.00
   -5   -7    9      1.62      0.00
   -5   -7    8      2.69      0.00
   -5   -7    7      3.02      0.00
   -5   -7    6      3.42      0.00
   -5   -7    5      3.98      0.00
   -5   -7    4      3.53      0.00
   -5   -7    3      3.58      0.00
   -5   -7    2      2.82      0.00
   -5   -7    1      2.07      0.00
    5    7    0      1.33      0.00
    5    7    1      0.84      0.00
    5    7    2      0.69      0.00
   -5   -8   10      1.22      0.00
   -5   -8    9      2.23      0.00
   -5   -8    8      2.53      0.00
   -5   -8    7      3.33      0.00
   -5   -8    6      3.22      0.00
   -5   -8    5      3.36      0.00
   -5   -8    4      3.29      0.00
   -5   -8    3      2.48      0.00
   -5   -8    2      2.31      0.00
   -5   -8    1      1.70      0.00
    5    8    0      1.38      0.00
    5    8    1      0.80      0.00
   -5   -9    9      1.18      0.00
   -5   -9    8      1.53      0.00
   -5   -9    7      1.56      0.00
   -5   -9    6      2.18      0.00
   -5   -9    5      1.68      0.00
   -5   -9    4      1.57      0.00
   -5   -9    3      1.15      0.00
   -5   -9    2      0.63      0.00
    6  -12    1     -1.07      0.00
   -6   11    3     -0.35      0.00
   -6   11    2     -1.10      0.00
   -6   11    1     -1.38      0.00
   -6   11    0     -1.73      0.00
   -6   10    5      0.30      0.00
   -6   10    4     -0.78      0.00
   -6   10    3     -1.27      0.00
   -6   10    2     -1.93      0.00
   -6    9    6      0.62      0.00
   -6    9    5      0.14      0.00
   -6    9    4     -0.69      0.00
   -6    9    3     -1.93      0.00
   -6    9    2     -3.08      0.00
   -6    8    7      0.98      0.00
   -6    8    6      1.01      0.00
   -6    8    5      0.22      0.00
   -6    8    4     -0.99      0.00
   -6    8    3     -1.91      0.00
   -6    8    2     -3.60      0.00
   -6    7    8      0.30      0.00
   -6    7    7      0.04      0.00
   -6    7    6     -0.42      0.00
   -6    7    5     -0.82      0.00
   -6    7    4     -1.87      0.00
   -6    7    3     -3.59      0.00
   -6    6    9     -0.14      0.00
   -6    6    8     -0.04      0.00
   -6    6    7     -0.57      0.00
   -6    6    6     -1.33      0.00
   -6    6    5     -3.36      0.00
   -6    6    4     -4.08      0.00
   -6    5   10     -0.12      0.00
   -6    5    9     -0.07      0.00
   -6    5    8     -0.42      0.00
   -6    5    7     -1.43      0.00
   -6    5    6     -2.07      0.00
   -6    5    5     -3.63      0.00
   -6    5    4     -5.94      0.00
   -6    4   11     -0.12      0.00
   -6    4   10     -1.08      0.00
   -6    4    9     -1.33      0.00
   -6    4    8     -1.87      0.00
   -6    4    7     -1.96      0.00
   -6    4    6     -3.85      0.00
   -6    4    5     -3.72      0.00
   -6    3   11     -0.87      0.00
   -6    3   10     -1.10      0.00
   -6    3    9     -1.46      0.00
   -6    3    8     -2.35      0.00
   -6    3    7     -2.29      0.00
   -6    3    6     -3.00      0.00
   -6    3    5     -4.59      0.00
   -6    2   12     -0.85      0.00
   -6    2   11     -1.87      0.00
   -6    2   10     -1.91      0.00
   -6    2    9     -1.89      0.00
   -6    2    8     -1.04      0.00
   -6    2    7     -1.97      0.00
   -6    2    6     -0.77      0.00
   -6    2    5     -2.03      0.00
   -6    1   12     -1.10      0.00
   -6    1   11     -1.27      0.00
   -6    1   10     -1.44      0.00
   -6    1    9     -1.84      0.00
   -6    1    8     -1.31      0.00
   -6    1    7     -0.83      0.00
   -6    1    6     -1.25      0.00
   -6    0   12     -1.11      0.00
   -6    0   11     -0.49      0.00
   -6    0   10      0.03      0.00
   -6    0    9      0.88      0.00
   -6    0    8      0.27      0.00
   -6    0    7      1.31      0.00
   -6    0    6      0.93      0.00
   -6   -1   13     -0.46      0.00
   -6   -1   12     -0.11      0.00
   -6   -1   11      0.25      0.00
   -6   -1   10      0.89      0.00
   -6   -1    9      1.46      0.00
   -6   -1    8      2.21      0.00
   -6   -1    7      2.24      0.00
   -6   -1    6      3.44      0.00
   -6   -2   13     -0.11      0.00
   -6   -2   12      0.70      0.00
   -6   -2   11      1.58      0.00
   -6   -2   10      2.26      0.00
   -6   -2    9      2.43      0.00
   -6   -2    8      2.88      0.00
   -6   -2    7      3.06      0.00
   -6   -2    6      2.98      0.00
   -6   -3   13      0.59      0.00
   -6   -3   12      0.77      0.00
   -6   -3   11      1.87      0.00
   -6   -3   10      2.39      0.00
   -6   -3    9      2.90      0.00
   -6   -3    8      3.35      0.00
   -6   -3    7      3.92      0.00
   -6   -3    6      4.13      0.00
   -6   -4   12      2.18      0.00
   -6   -4   11      2.57      0.00
   -6   -4   10      3.44      0.00
   -6   -4    9      3.27      0.00
   -6   -4    8      3.26      0.00
   -6   -4    7      3.11      0.00
   -6   -4    6      2.81      0.00
   -6   -4    5      2.74      0.00
   -6   -5   12      1.47      0.00
   -6   -5   11      2.12      0.00
   -6   -5   10      2.17      0.00
   -6   -5    9      2.73      0.00
   -6   -5    8      2.36      0.00
   -6   -5    7      2.36      0.00
   -6   -5    6      1.84      0.00
   -6   -5    5      1.43      0.00
   -6   -6   11      1.78      0.00
   -6   -6   10      1.40      0.00
   -6   -6    9      0.90      0.00
   -6   -6    8      0.90      0.00
   -6   -6    7      0.27      0.00
   -6   -6    6      0.33      0.00
   -6   -6    5     -0.09      0.00
   -6   -6    4      0.09      0.00
   -6   -6    3      0.63      0.00
   -6   -7   10      0.87      0.00
   -6   -7    9      0.24      0.00
   -6   -7    8      0.08      0.00
   -6   -7    7     -0.03      0.00
   -6   -7    6     -0.75      0.00
   -6   -7    5     -0.45      0.00
   -6   -7    4     -0.73      0.00
   -6   -7    3     -0.28      0.00
   -6   -7    2      0.28      0.00
   -6   -7    1      0.21      0.00
    6    7    0      0.42      0.00
    6    7    1      0.15      0.00
   -6   -8    9     -0.24      0.00
   -6   -8    8     -0.81      0.00
   -6   -8    7     -0.79      0.00
   -6   -8    6     -1.04      0.00
   -6   -8    5     -1.45      0.00
   -6   -8    4     -0.86      0.00
   -6   -8    3     -1.17      0.00
   -6   -8    2     -0.84      0.00
   -7   11    2      0.42      0.00
   -7   11    1      0.69      0.00
   -7   10    4      0.19      0.00
   -7   10    3      0.42      0.00
   -7   10    2      0.83      0.00
   -7    9    6     -0.22      0.00
   -7    9    5      0.11      0.00
   -7    9    4      0.77      0.00
   -7    9    3      1.19      0.00
   -7    9    2      1.50      0.00
   -7    8    7     -0.62      0.00
   -7    8    6     -0.13      0.00
   -7    8    5      0.28      0.00
   -7    8    4      0.46      0.00
   -7    8    3      1.33      0.00
   -7    7    8      0.07      0.00
   -7    7    7     -0.22      0.00
   -7    7    6     -0.05      0.00
   -7    7    5      0.35      0.00
   -7    7    4      1.31      0.00
   -7    6    9     -0.53      0.00
   -7    6    8     -0.39      0.00
   -7    6    7     -0.06      0.00
   -7    6    6      0.79      0.00
   -7    6    5      0.99      0.00
   -7    6    4      2.54      0.00
   -7    5   10     -0.66      0.00
   -7    5    9     -0.35      0.00
   -7    5    8     -0.66      0.00
   -7    5    7     -0.19      0.00
   -7    5    6      0.82      0.00
   -7    5    5      3.21      0.00
   -7    4   10     -0.03      0.00
   -7    4    9      0.28      0.00
   -7    4    8      0.39      0.00
   -7    4    7      1.35      0.00
   -7    4    6      1.55      0.00
   -7    4    5      3.69      0.00
   -7    3   11      0.10      0.00
   -7    3   10      1.08      0.00
   -7    3    9      1.19      0.00
   -7    3    8      1.75      0.00
   -7    3    7      2.38      0.00
   -7    3    6      4.58      0.00
   -7    2   11      1.24      0.00
   -7    2   10      1.82      0.00
   -7    2    9      1.97      0.00
   -7    2    8      2.67      0.00
   -7    2    7      2.52      0.00
   -7    2    6      3.99      0.00
   -7    1   12      1.13      0.00
   -7    1   11      2.48      0.00
   -7    1   10      2.72      0.00
   -7    1    9      3.20      0.00
   -7    1    8      3.13      0.00
   -7    1    7      4.22      0.00
   -7    1    6      3.52      0.00
   -7    0   12      1.67      0.00
   -7    0   11      2.41      0.00
   -7    0   10      2.89      0.00
   -7    0    9      3.30      0.00
   -7    0    8      3.26      0.00
   -7    0    7      3.67      0.00
   -7    0    6      4.59      0.00
   -7   -1   12      2.12      0.00
   -7   -1   11      2.40      0.00
   -7   -1   10      2.87      0.00
   -7   -1    9      2.73      0.00
   -7   -1    8      2.82      0.00
   -7   -1    7      1.86      0.00
   -7   -1    6      1.71      0.00
   -7   -2   12      1.11      0.00
   -7   -2   11      1.80      0.00
   -7   -2   10      1.76      0.00
   -7   -2    9      1.92      0.00
   -7   -2    8      1.58      0.00
   -7   -2    7      1.36      0.00
   -7   -2    6      0.44      0.00
   -7   -3   12      1.15      0.00
   -7   -3   11      1.38      0.00
   -7   -3   10      1.61      0.00
   -7   -3    9      0.97      0.00
   -7   -3    8      0.25      0.00
   -7   -3    7     -0.82      0.00
   -7   -3    6     -1.35      0.00
   -7   -4   12      0.37      0.00
   -7   -4   11     -0.02      0.00
   -7   -4   10      0.19      0.00
   -7   -4    9      0.03      0.00
   -7   -4    8     -0.89      0.00
   -7   -4    7     -1.59      0.00
   -7   -4    6     -2.40      0.00
   -7   -5   11      0.18      0.00
   -7   -5   10     -0.68      0.00
   -7   -5    9     -0.94      0.00
   -7   -5    8     -1.85      0.00
   -7   -5    7     -2.64      0.00
   -7   -5    6     -2.87      0.00
   -7   -5    5     -3.22      0.00
   -7   -6   10      0.04      0.00
   -7   -6    9     -0.77      0.00
   -7   -6    8     -1.00      0.00
   -7   -6    7     -1.71      0.00
   -7   -6    6     -1.89      0.00
   -7   -6    5     -2.06      0.00
   -7   -6    4     -2.61      0.00
   -7   -6    3     -2.06      0.00
   -7   -6    2     -1.95      0.00
   -7   -6    1     -1.45      0.00
    7    6    0     -0.76      0.00
   -7   -7    9     -0.62      0.00
   -7   -7    8     -1.23      0.00
   -7   -7    7     -1.05      0.00
   -7   -7    6     -1.43      0.00
   -7   -7    5     -1.33      0.00
   -7   -7    4     -1.53      0.00
   -7   -7    3     -1.86      0.00
   -7   -7    2     -1.12      0.00
   -8   10    3      0.19      0.00
   -8   10    2      0.25      0.00
   -8    9    5     -0.40      0.00
   -8    9    4     -0.27      0.00
   -8    9    3     -0.20      0.00
   -8    8    6     -0.12      0.00
   -8    8    5     -0.36      0.00
   -8    8    4     -0.81      0.00
   -8    7    7      0.14      0.00
   -8    7    6     -0.22      0.00
   -8    7    5     -0.61      0.00
   -8    7    4     -0.34      0.00
   -8    6    8      0.19      0.00
   -8    6    7      0.32      0.00
   -8    6    6      0.11      0.00
   -8    6    5     -0.47      0.00
   -8    5    9      1.24      0.00
   -8    5    8      0.88      0.00
   -8    5    7      0.64      0.00
   -8    5    6     -0.12      0.00
   -8    5    5      0.25      0.00
   -8    4   10      0.48      0.00
   -8    4    9      0.38      0.00
   -8    4    8      0.76      0.00
   -8    4    7      0.60      0.00
   -8    4    6     -0.12      0.00
   -8    3   10      0.93      0.00
   -8    3    9      0.48      0.00
   -8    3    8      0.30      0.00
   -8    3    7     -0.59      0.00
   -8    3    6     -0.31      0.00
   -8    2   11      0.29      0.00
   -8    2   10      0.02      0.00
   -8    2    9      0.27      0.00
   -8    2    8     -0.28      0.00
   -8    2    7     -1.11      0.00
   -8    2    6     -2.55      0.00
   -8    1   11     -0.14      0.00
   -8    1   10     -0.74      0.00
   -8    1    9     -0.99      0.00
   -8    1    8     -1.64      0.00
   -8    1    7     -1.63      0.00
   -8    1    6     -2.65      0.00
   -8    0   11     -1.18      0.00
   -8    0   10     -1.34      0.00
   -8    0    9     -2.30      0.00
   -8    0    8     -2.88      0.00
   -8    0    7     -3.90      0.00
   -8   -1   11     -1.69      0.00
   -8   -1   10     -2.62      0.00
   -8   -1    9     -3.13      0.00
   -8   -1    8     -3.56      0.00
   -8   -1    7     -3.71      0.00
   -8   -2   11     -1.02      0.00
   -8   -2   10     -2.23      0.00
   -8   -2    9     -3.14      0.00
   -8   -2    8     -3.64      0.00
   -8   -2    7     -3.64      0.00
   -8   -3   11     -1.65      0.00
   -8   -3   10     -2.00      0.00
   -8   -3    9     -2.82      0.00
   -8   -3    8     -2.81      0.00
   -8   -3    7     -2.51      0.00
   -8   -3    6     -1.80      0.00
   -8   -4   10     -2.03      0.00
   -8   -4    9     -2.17      0.00
   -8   -4    8     -2.43      0.00
   -8   -4    7     -1.82      0.00
   -8   -4    6     -1.33      0.00
   -8   -5   10     -0.67      0.00
   -8   -5    9     -0.81      0.00
   -8   -5    8     -0.18      0.00
   -8   -5    7      0.02      0.00
   -8   -5    6      0.54      0.00
   -8   -5    5      0.82      0.00
   -8   -5    4      1.62      0.00
   -8   -5    3      2.08      0.00
   -8   -5    2      1.79      0.00
   -8   -5    1      1.83      0.00
    8    5    0      1.51      0.00
   -8   -6    8      0.09      0.00
   -8   -6    7      0.62      0.00
   -8   -6    6      0.82      0.00
   -8   -6    5      1.35      0.00
   -8   -6    4      1.28      0.00
   -8   -6    3      1.38      0.00
   -9    9    4      0.03      0.00
   -9    9    3      0.07      0.00
   -9    8    5      0.32      0.00
   -9    8    4      0.38      0.00
   -9    7    7     -0.29      0.00
   -9    7    6     -0.34      0.00
   -9    7    5     -0.19      0.00
   -9    6    8     -0.55      0.00
   -9    6    7     -0.02      0.00
   -9    6    6      0.29      0.00
   -9    6    5      0.32      0.00
   -9    5    8     -0.92      0.00
   -9    5    7     -1.01      0.00
   -9    5    6     -0.97      0.00
   -9    4    9     -1.56      0.00
   -9    4    8     -1.21      0.00
   -9    4    7     -1.03      0.00
   -9    4    6     -0.80      0.00
   -9    3   10     -1.32      0.00
   -9    3    9     -1.72      0.00
   -9    3    8     -2.05      0.00
   -9    3    7     -1.88      0.00
   -9    3    6     -1.38      0.00
   -9    2   10     -2.01      0.00
   -9    2    9     -1.92      0.00
   -9    2    8     -2.02      0.00
   -9    2    7     -1.61      0.00
   -9    1   10     -1.01      0.00
   -9    1    9     -1.66      0.00
   -9    1    8     -1.42      0.00
   -9    1    7     -1.32      0.00
   -9    0   10     -0.72      0.00
   -9    0    9     -0.82      0.00
   -9    0    8     -0.69      0.00
   -9    0    7     -0.49      0.00
   -9   -1   10      0.01      0.00
   -9   -1    9      0.50      0.00
   -9   -1    8      0.37      0.00
   -9   -1    7      0.57      0.00
   -9   -2   10      0.70      0.00
   -9   -2    9      0.97      0.00
   -9   -2    8      1.79      0.00
   -9   -2    7      1.87      0.00
   -9   -3    9      1.11      0.00
   -9   -3    8      1.25      0.00
   -9   -3    7      1.67      0.00
   -9   -4    8      1.91      0.00
   -9   -4    7      1.86      0.00
   -9   -4    6      1.69      0.00
   -9   -4    5      1.25      0.00
   -9   -4    4      0.86      0.00
   -9   -5    6      0.99      0.00
   -9   -5    5      0.72      0.00
  -10    7    5     -0.12      0.00
  -10    6    6     -0.33      0.00
  -10    5    7      0.31      0.00
  -10    5    6      0.06      0.00
  -10    4    8      0.84      0.00
  -10    4    7      1.11      0.00
  -10    4    6      1.28      0.00
  -10    3    8      1.15      0.00
  -10    3    7      1.40      0.00
  -10    2    9      1.74      0.00
  -10    2    8      2.60      0.00
  -10    2    7      2.86      0.00
  -10    1    9      1.44      0.00
  -10    1    8      2.55      0.00
  -10    1    7      3.18      0.00
  -10    0    9      1.87      0.00
  -10    0    8      1.94      0.00
  -10    0    7      2.72      0.00
  -10   -1    8      2.09      0.00
  -10   -1    7      2.30      0.00
  -10   -2    8      0.71      0.00
  -10   -2    7      1.01      0.00
  -13    0    7     -2.95      0.00
   11    0    0      0.20      0.00
  -11    1    0     -0.53      0.00
    0    1    0     35.23      0.00
   11    1    0      0.01      0.00
  -12    2    0     -0.16      0.00
  -11    2    0      0.08      0.00
   10    2    0     -0.37      0.00
  -12    3    0      0.12      0.00
   10    3    0     -0.33      0.00
  -12    4    0     -0.16      0.00
    9    4    0      0.54      0.00
  -12    5    0     -0.19      0.00
    9    5    0      0.01      0.00
  -12    6    0      0.14      0.00
    8    6    0      0.73      0.00
  -12    7    0     -0.07      0.00
  -11    7    0      0.32      0.00
    7    7    0     -0.57      0.00
  -11    8    0      0.25      0.00
    6    8    0     -0.15      0.00
  -11    9    0      0.15      0.00
  -10    9    0      0.07      0.00
    5    9    0     -0.02      0.00
  -10   10    0     -0.57      0.00
    0   10    0     -0.30      0.00
    4   10    0      0.29      0.00
  -10   11    0      0.17      0.00
   -9   11    0      0.26      0.00
   -1   11    0     -0.42      0.00
    2   11    0      0.07      0.00
    3   11    0     -0.34      0.00
   -9   12    0      0.06      0.00
   -8   12    0     -0.02      0.00
   -7   12    0      0.13      0.00
   -6   12    0     -0.98      0.00
   -3   12    0      0.02      0.00
   -2   12    0      0.26      0.00
   -1   12    0      0.07      0.00
    0   12    0     -0.15      0.00
    1   12    0      0.21      0.00
   -2  -12    1     -0.40      0.00
   -1  -12    1      0.24      0.00
    0  -12    1     -0.15      0.00
    1  -12    1      0.25      0.00
    2  -12    1      0.49      0.00
    3  -12    1      0.34      0.00
    7  -12    1      0.09      0.00
    8  -12    1      0.22      0.00
    9  -12    1      0.02      0.00
   -3  -11    1     -0.04      0.00
   -2  -11    1      0.03      0.00
    0  -11    1     -0.25      0.00
    1  -11    1     -0.24      0.00
    9  -11    1     -0.21      0.00
   10  -11    1      0.00      0.00
   -5  -10    1      0.20      0.00
   -4  -10    1      0.38      0.00
    0  -10    1     -0.69      0.00
   10  -10    1     -0.30      0.00
   -6   -9    1     -0.07      0.00
   -5   -9    1      0.20      0.00
   10   -9    1      0.06      0.00
   11   -9    1     -0.10      0.00
   -7   -8    1     -0.21      0.00
   -6   -8    1     -0.47      0.00
   11   -8    1      0.11      0.00
   -8   -7    1      0.30      0.00
   -7   -7    1     -0.98      0.00
   11   -7    1      0.41      0.00
   -8   -6    1      0.72      0.00
   11   -6    1     -0.12      0.00
   12   -6    1     -0.18      0.00
   -9   -5    1     -0.14      0.00
   11   -5    1      0.06      0.00
   12   -5    1     -0.11      0.00
  -10   -4    1     -0.39      0.00
   11   -4    1     -0.05      0.00
   12   -4    1      0.18      0.00
  -10   -3    1     -0.25      0.00
   11   -3    1      0.01      0.00
   12   -3    1     -0.13      0.00
  -11   -2    1     -0.03      0.00
   11   -2    1      0.15      0.00
  -11   -1    1     -0.22      0.00
   11   -1    1     -0.12      0.00
  -11    0    1     -0.06      0.00
   11    0    1      0.25      0.00
  -12    1    1      0.24      0.00
  -11    1    1     -1.16      0.00
   10    1    1      0.36      0.00
  -12    2    1     -0.40      0.00
   10    2    1     -0.27      0.00
  -12    3    1      0.22      0.00
    9    3    1      0.65      0.00
   10    3    1     -0.32      0.00
  -12    4    1      0.30      0.00
    9    4    1      0.33      0.00
  -12    5    1     -0.34      0.00
    8    5    1      1.05      0.00
  -12    6    1     -0.05      0.00
    7    6    1     -0.48      0.00
    8    6    1      0.45      0.00
  -12    7    1      0.23      0.00
  -11    7    1      0.70      0.00
    7    7    1     -0.15      0.00
  -11    8    1      0.18      0.00
    6    8    1      0.01      0.00
  -11    9    1      0.08      0.00
  -10    9    1      0.07      0.00
    4    9    1      1.13      0.00
    5    9    1      0.04      0.00
  -10   10    1     -0.47      0.00
   -7   10    1      0.99      0.00
    3   10    1     -0.38      0.00
    4   10    1      0.43      0.00
  -10   11    1     -0.28      0.00
   -9   11    1      0.21      0.00
   -8   11    1      0.05      0.00
   -1   11    1     -0.52      0.00
    1   11    1      0.06      0.00
    2   11    1      0.32      0.00
   -8   12    1      0.18      0.00
   -7   12    1      0.22      0.00
   -6   12    1     -0.65      0.00
   -5   12    1      0.79      0.00
   -4   12    1     -0.65      0.00
   -3   12    1     -0.33      0.00
   -2   12    1      0.20      0.00
   -1   12    1      0.05      0.00
    0   12    1     -0.08      0.00
    1   12    1      0.09      0.00
   -2  -12    2     -0.52      0.00
   -1  -12    2      0.08      0.00
    1  -12    2     -0.23      0.00
    2  -12    2      0.34      0.00
    3  -12    2      0.51      0.00
    7  -12    2     -0.10      0.00
    8  -12    2      0.22      0.00
    9  -12    2     -0.06      0.00
   -4  -11    2      0.05      0.00
   -3  -11    2     -0.12      0.00
    0  -11    2     -0.22      0.00
    1  -11    2     -0.02      0.00
    9  -11    2     -0.18      0.00
   10  -11    2      0.06      0.00
   -5  -10    2      0.33      0.00
   -4  -10    2      0.15      0.00
   10  -10    2     -0.44      0.00
   -6   -9    2     -0.36      0.00
   10   -9    2      0.11      0.00
   11   -9    2      0.05      0.00
   -7   -8    2     -0.44      0.00
   11   -8    2     -0.07      0.00
   -8   -7    2      0.39      0.00
   11   -7    2      0.19      0.00
   -9   -6    2     -0.07      0.00
   -8   -6    2      1.27      0.00
   11   -6    2      0.00      0.00
   -9   -5    2      0.03      0.00
   11   -5    2      0.23      0.00
  -10   -4    2     -0.27      0.00
   11   -4    2     -0.11      0.00
  -10   -3    2     -0.22      0.00
   11   -3    2      0.08      0.00
  -11   -2    2     -0.39      0.00
   11   -2    2      0.30      0.00
  -11   -1    2     -0.42      0.00
   11   -1    2     -0.06      0.00
  -12    0    2      0.05      0.00
  -11    0    2     -0.52      0.00
   10    0    2     -0.18      0.00
   11    0    2      0.34      0.00
  -12    1    2      0.32      0.00
   10    1    2      0.06      0.00
  -12    2    2     -0.05      0.00
   10    2    2     -0.36      0.00
  -12    3    2     -0.05      0.00
    9    3    2      0.53      0.00
  -12    4    2      0.14      0.00
    8    4    2      0.45      0.00
    9    4    2      0.20      0.00
  -12    5    2     -0.05      0.00
    8    5    2      0.67      0.00
  -12    6    2     -0.03      0.00
    7    6    2     -0.05      0.00
  -12    7    2     -0.05      0.00
  -11    7    2      0.60      0.00
    6    7    2      0.04      0.00
  -11    8    2      0.40      0.00
    5    8    2      0.70      0.00
  -11    9    2     -0.09      0.00
  -10    9    2     -0.26      0.00
    4    9    2      0.79      0.00
  -10   10    2     -0.32      0.00
   -9   10    2      0.23      0.00
    2   10    2     -0.35      0.00
    3   10    2     -0.29      0.00
   -9   11    2      0.13      0.00
   -8   11    2      0.05      0.00
   -1   11    2     -0.34      0.00
    0   11    2      0.18      0.00
    1   11    2     -0.22      0.00
    2   11    2      0.20      0.00
   -8   12    2      0.00      0.00
   -7   12    2      0.10      0.00
   -6   12    2     -0.39      0.00
   -5   12    2      0.66      0.00
   -4   12    2      0.15      0.00
   -3   12    2     -0.32      0.00
   -2   12    2      0.09      0.00
   -1   12    2      0.07      0.00
    0   12    2     -0.22      0.00
   -3  -12    3      0.56      0.00
   -2  -12    3     -0.34      0.00
   -1  -12    3      0.20      0.00
    1  -12    3     -0.26      0.00
    2  -12    3      0.16      0.00
    3  -12    3      0.27      0.00
    7  -12    3     -0.14      0.00
    8  -12    3      0.24      0.00
   -4  -11    3      0.26      0.00
   -3  -11    3      0.06      0.00
    8  -11    3      0.68      0.00
    9  -11    3     -0.23      0.00
   -5  -10    3      0.50      0.00
    9  -10    3     -0.60      0.00
   10  -10    3     -0.32      0.00
   -7   -9    3      0.03      0.00
   -6   -9    3     -0.39      0.00
   10   -9    3     -0.03      0.00
   -7   -8    3     -0.39      0.00
   10   -8    3      0.39      0.00
   11   -8    3     -0.13      0.00
   -8   -7    3      0.40      0.00
   11   -7    3      0.12      0.00
   -9   -6    3     -0.24      0.00
   11   -6    3     -0.05      0.00
  -10   -5    3     -0.51      0.00
   -9   -5    3      0.19      0.00
   11   -5    3      0.00      0.00
  -10   -4    3     -0.10      0.00
   11   -4    3      0.20      0.00
  -11   -3    3      0.15      0.00
  -10   -3    3     -0.05      0.00
   11   -3    3      0.02      0.00
  -11   -2    3     -0.61      0.00
   11   -2    3      0.11      0.00
  -11   -1    3     -0.30      0.00
   10   -1    3      0.35      0.00
  -12    0    3      0.34      0.00
   10    0    3     -0.20      0.00
  -12    1    3     -0.12      0.00
   10    1    3     -0.08      0.00
  -12    2    3     -0.24      0.00
    9    2    3      0.79      0.00
  -12    3    3      0.33      0.00
    9    3    3      0.27      0.00
  -12    4    3     -0.04      0.00
    8    4    3      0.56      0.00
  -12    5    3     -0.34      0.00
    7    5    3     -0.82      0.00
  -12    6    3      0.02      0.00
    6    6    3     -0.82      0.00
    7    6    3     -0.07      0.00
  -12    7    3      0.13      0.00
  -11    7    3      0.61      0.00
    5    7    3      0.32      0.00
    6    7    3     -0.20      0.00
  -11    8    3      0.14      0.00
    4    8    3      0.04      0.00
    5    8    3      0.44      0.00
  -11    9    3      0.01      0.00
  -10    9    3     -0.21      0.00
    3    9    3     -0.97      0.00
    4    9    3      0.46      0.00
  -10   10    3     -0.40      0.00
   -9   10    3      0.00      0.00
    1   10    3      0.76      0.00
    2   10    3     -0.29      0.00
   -9   11    3      0.11      0.00
   -8   11    3      0.20      0.00
   -7   11    3      0.57      0.00
   -2   11    3      0.04      0.00
   -1   11    3     -0.11      0.00
    0   11    3      0.25      0.00
    1   11    3     -0.19      0.00
   -7   12    3      0.14      0.00
   -6   12    3     -0.54      0.00
   -5   12    3     -0.15      0.00
   -4   12    3      0.10      0.00
   -3   12    3     -0.32      0.00
   -2   12    3      0.23      0.00
   -3  -12    4      0.25      0.00
   -2  -12    4     -0.37      0.00
   -1  -12    4     -0.29      0.00
    1  -12    4     -0.22      0.00
    7  -12    4     -0.32      0.00
    8  -12    4      0.00      0.00
   -4  -11    4      0.26      0.00
   -3  -11    4     -0.28      0.00
    8  -11    4      0.75      0.00
    9  -11    4     -0.16      0.00
   -6  -10    4     -0.22      0.00
   -5  -10    4      0.55      0.00
    9  -10    4     -0.51      0.00
   10  -10    4     -0.19      0.00
   -7   -9    4     -0.36      0.00
   -6   -9    4     -0.75      0.00
   10   -9    4     -0.29      0.00
   -8   -8    4      0.03      0.00
   -7   -8    4     -0.46      0.00
   10   -8    4      0.45      0.00
   -8   -7    4      0.90      0.00
   10   -7    4      0.11      0.00
   11   -7    4     -0.31      0.00
   -9   -6    4     -0.13      0.00
   10   -6    4      0.89      0.00
   11   -6    4      0.31      0.00
  -10   -5    4     -0.33      0.00
   -9   -5    4      0.32      0.00
   10   -5    4      0.89      0.00
   11   -5    4     -0.02      0.00
  -10   -4    4      0.10      0.00
   10   -4    4      0.14      0.00
   11   -4    4     -0.17      0.00
  -11   -3    4     -0.01      0.00
   10   -3    4      0.30      0.00
  -11   -2    4     -0.74      0.00
   10   -2    4      0.18      0.00
  -11   -1    4     -0.54      0.00
   10   -1    4     -0.21      0.00
  -12    0    4      0.26      0.00
    9    0    4      0.56      0.00
   10    0    4     -0.32      0.00
  -12    1    4      0.44      0.00
    9    1    4      0.37      0.00
  -12    2    4     -0.60      0.00
    9    2    4      0.41      0.00
  -12    3    4      0.06      0.00
    8    3    4      0.57      0.00
  -12    4    4      0.10      0.00
    7    4    4     -0.76      0.00
    8    4    4      0.30      0.00
  -12    5    4     -0.16      0.00
    7    5    4     -0.12      0.00
  -12    6    4      0.16      0.00
  -11    6    4      0.25      0.00
    6    6    4     -0.31      0.00
  -12    7    4      0.03      0.00
  -11    7    4      0.26      0.00
    5    7    4      0.32      0.00
  -11    8    4      0.24      0.00
  -10    8    4     -0.46      0.00
    3    8    4     -0.46      0.00
    4    8    4      0.08      0.00
  -11    9    4     -0.12      0.00
  -10    9    4     -0.31      0.00
    2    9    4      0.23      0.00
    3    9    4     -0.33      0.00
  -10   10    4     -0.21      0.00
   -9   10    4      0.11      0.00
   -8   10    4      0.29      0.00
    0   10    4     -0.25      0.00
    1   10    4      0.37      0.00
    2   10    4     -0.33      0.00
   -8   11    4     -0.07      0.00
   -7   11    4      0.12      0.00
   -6   11    4     -0.07      0.00
   -5   11    4      0.59      0.00
   -4   11    4     -0.10      0.00
   -3   11    4      0.14      0.00
   -2   11    4     -0.08      0.00
   -1   11    4      0.01      0.00
    0   11    4     -0.03      0.00
   -6   12    4      0.07      0.00
   -5   12    4     -0.07      0.00
   -4   12    4      0.07      0.00
   -3  -12    5      0.04      0.00
   -2  -12    5      0.00      0.00
    6  -12    5     -0.07      0.00
    7  -12    5     -0.14      0.00
    8  -12    5     -0.10      0.00
   -5  -11    5     -0.29      0.00
   -4  -11    5      0.24      0.00
    8  -11    5      0.47      0.00
    9  -11    5     -0.09      0.00
   -6  -10    5     -0.06      0.00
   -5  -10    5      0.91      0.00
    9  -10    5     -0.16      0.00
   -7   -9    5     -0.07      0.00
   -6   -9    5     -0.65      0.00
    9   -9    5     -1.30      0.00
   10   -9    5     -0.59      0.00
   -8   -8    5      0.08      0.00
   -7   -8    5     -0.85      0.00
   10   -8    5      0.06      0.00
   -9   -7    5      0.01      0.00
   -8   -7    5      0.55      0.00
   10   -7    5      0.36      0.00
   -9   -6    5     -0.17      0.00
   10   -6    5     -0.19      0.00
  -10   -5    5     -0.52      0.00
   10   -5    5      0.25      0.00
  -10   -4    5      0.38      0.00
   10   -4    5      0.23      0.00
  -11   -3    5     -0.03      0.00
   10   -3    5     -0.49      0.00
  -11   -2    5     -0.67      0.00
   10   -2    5     -0.04      0.00
  -12   -1    5     -0.17      0.00
  -11   -1    5     -0.38      0.00
    9   -1    5      0.48      0.00
  -12    0    5      0.16      0.00
    9    0    5      0.33      0.00
  -12    1    5      0.25      0.00
    8    1    5      0.27      0.00
    9    1    5     -0.08      0.00
  -12    2    5      0.00      0.00
    8    2    5      0.23      0.00
  -12    3    5      0.10      0.00
    7    3    5     -1.00      0.00
    8    3    5      0.52      0.00
  -12    4    5      0.01      0.00
    7    4    5     -0.22      0.00
  -12    5    5     -0.27      0.00
    6    5    5     -0.04      0.00
  -12    6    5      0.51      0.00
  -11    6    5      0.47      0.00
    5    6    5      0.74      0.00
  -11    7    5     -0.01      0.00
    4    7    5      0.49      0.00
  -11    8    5      0.22      0.00
  -10    8    5     -0.39      0.00
    2    8    5     -0.22      0.00
    3    8    5     -0.14      0.00
  -10    9    5     -0.33      0.00
   -9    9    5      0.06      0.00
    1    9    5     -0.11      0.00
    2    9    5      0.00      0.00
   -9   10    5      0.10      0.00
   -8   10    5      0.21      0.00
   -7   10    5      0.13      0.00
   -2   10    5      0.74      0.00
   -1   10    5     -0.23      0.00
    0   10    5     -0.25      0.00
   -8   11    5      0.23      0.00
   -7   11    5      0.08      0.00
   -6   11    5     -0.08      0.00
   -5   11    5     -0.26      0.00
   -4   11    5     -0.36      0.00
   -3   11    5      0.03      0.00
   -2   11    5      0.04      0.00
   -3  -12    6     -0.18      0.00
   -2  -12    6     -0.02      0.00
   -1  -12    6     -0.19      0.00
    6  -12    6      0.13      0.00
    7  -12    6     -0.03      0.00
   -5  -11    6     -0.24      0.00
   -4  -11    6      0.01      0.00
    7  -11    6     -0.65      0.00
    8  -11    6      0.23      0.00
   -6  -10    6     -0.38      0.00
   -5  -10    6      0.66      0.00
    8  -10    6      0.97      0.00
    9  -10    6      0.00      0.00
   -7   -9    6     -0.16      0.00
   -6   -9    6     -0.43      0.00
    9   -9    6     -0.20      0.00
   -8   -8    6      0.25      0.00
   -7   -8    6     -0.29      0.00
    9   -8    6     -1.34      0.00
   -9   -7    6      0.14      0.00
   -8   -7    6      0.48      0.00
    9   -7    6     -1.57      0.00
   10   -7    6      0.13      0.00
   -9   -6    6     -0.05      0.00
    9   -6    6     -1.02      0.00
   10   -6    6     -0.03      0.00
  -10   -5    6     -0.56      0.00
    9   -5    6     -1.04      0.00
   10   -5    6     -0.37      0.00
  -10   -4    6      0.52      0.00
    9   -4    6     -0.74      0.00
   10   -4    6      0.00      0.00
  -11   -3    6      0.12      0.00
    9   -3    6      0.19      0.00
  -11   -2    6     -1.06      0.00
    9   -2    6      0.03      0.00
  -11   -1    6     -0.24      0.00
    9   -1    6      0.13      0.00
  -12    0    6      1.19      0.00
  -11    0    6     -0.04      0.00
    8    0    6     -0.06      0.00
    9    0    6      0.27      0.00
  -12    1    6      0.46      0.00
    8    1    6      0.41      0.00
  -12    2    6     -0.49      0.00
    7    2    6     -0.69      0.00
    8    2    6     -0.02      0.00
  -12    3    6      0.16      0.00
    7    3    6     -0.40      0.00
  -12    4    6      0.23      0.00
    6    4    6      0.03      0.00
  -12    5    6     -0.19      0.00
  -11    5    6      0.70      0.00
    5    5    6      0.46      0.00
    6    5    6      0.03      0.00
  -11    6    6      0.30      0.00
    4    6    6     -0.27      0.00
    5    6    6      0.07      0.00
  -11    7    6      0.05      0.00
  -10    7    6      0.04      0.00
    3    7    6     -0.65      0.00
    4    7    6      0.21      0.00
  -10    8    6     -0.48      0.00
   -9    8    6      0.05      0.00
    1    8    6      0.29      0.00
    2    8    6     -0.26      0.00
  -10    9    6     -0.23      0.00
   -9    9    6      0.33      0.00
   -8    9    6     -0.16      0.00
   -1    9    6      0.10      0.00
    0    9    6      0.10      0.00
    1    9    6     -0.16      0.00
   -8   10    6      0.07      0.00
   -7   10    6     -0.40      0.00
   -6   10    6      0.36      0.00
   -5   10    6      0.36      0.00
   -4   10    6      0.12      0.00
   -3   10    6     -0.43      0.00
   -2   10    6      0.55      0.00
   -1   10    6      0.12      0.00
   -5   11    6     -0.06      0.00
   -3  -12    7     -0.23      0.00
   -2  -12    7      0.18      0.00
   -1  -12    7     -0.34      0.00
    5  -12    7      0.22      0.00
    6  -12    7      0.12      0.00
    7  -12    7     -0.13      0.00
   -5  -11    7     -0.10      0.00
   -4  -11    7      0.20      0.00
   -3  -11    7     -0.60      0.00
    6  -11    7      0.67      0.00
    7  -11    7     -0.48      0.00
    8  -11    7      0.03      0.00
   -6  -10    7     -0.03      0.00
   -5  -10    7      0.70      0.00
    7  -10    7     -1.17      0.00
    8  -10    7      0.46      0.00
   -7   -9    7     -0.20      0.00
   -6   -9    7     -0.63      0.00
    8   -9    7      0.97      0.00
    9   -9    7      0.24      0.00
   -8   -8    7      0.03      0.00
   -7   -8    7     -0.50      0.00
    8   -8    7      1.70      0.00
    9   -8    7     -0.31      0.00
   -9   -7    7      0.01      0.00
   -8   -7    7      0.43      0.00
    9   -7    7     -0.76      0.00
   -9   -6    7      0.01      0.00
    9   -6    7     -0.62      0.00
  -10   -5    7     -0.27      0.00
   -9   -5    7      1.07      0.00
    9   -5    7     -0.30      0.00
  -10   -4    7      0.46      0.00
    9   -4    7     -0.32      0.00
  -11   -3    7      0.02      0.00
  -10   -3    7      0.94      0.00
    9   -3    7      0.03      0.00
  -11   -2    7     -0.22      0.00
    8   -2    7     -0.12      0.00
    9   -2    7      0.23      0.00
  -11   -1    7     -0.59      0.00
    8   -1    7     -0.18      0.00
  -12    0    7      0.35      0.00
  -11    0    7      0.08      0.00
    8    0    7     -0.11      0.00
  -12    1    7      0.92      0.00
  -11    1    7     -0.61      0.00
    7    1    7     -0.73      0.00
  -12    2    7     -0.26      0.00
  -11    2    7     -0.34      0.00
    7    2    7      0.07      0.00
  -12    3    7     -0.26      0.00
  -11    3    7      0.36      0.00
    6    3    7      0.18      0.00
  -12    4    7      0.06      0.00
  -11    4    7      0.24      0.00
    5    4    7      0.63      0.00
    6    4    7     -0.01      0.00
  -11    5    7      0.77      0.00
    4    5    7     -0.14      0.00
    5    5    7      0.30      0.00
  -11    6    7      0.16      0.00
  -10    6    7     -0.52      0.00
    3    6    7     -0.15      0.00
    4    6    7      0.12      0.00
  -11    7    7     -0.03      0.00
  -10    7    7      0.29      0.00
    2    7    7     -0.04      0.00
    3    7    7     -0.20      0.00
  -10    8    7     -0.48      0.00
   -9    8    7     -0.32      0.00
   -8    8    7     -0.11      0.00
    0    8    7      0.05      0.00
    1    8    7      0.14      0.00
   -9    9    7      0.30      0.00
   -8    9    7      0.01      0.00
   -7    9    7     -0.20      0.00
   -6    9    7      1.12      0.00
   -5    9    7     -0.21      0.00
   -4    9    7     -0.06      0.00
   -3    9    7     -0.11      0.00
   -2    9    7     -0.27      0.00
   -1    9    7      0.11      0.00
    0    9    7     -0.03      0.00
   -7   10    7     -0.19      0.00
   -6   10    7      0.22      0.00
   -5   10    7     -0.29      0.00
   -4   10    7     -0.01      0.00
   -3   10    7     -0.44      0.00
   -3  -12    8     -0.31      0.00
   -2  -12    8      0.27      0.00
   -1  -12    8     -0.39      0.00
    0  -12    8      0.51      0.00
    1  -12    8      0.03      0.00
    2  -12    8     -0.37      0.00
    3  -12    8      0.60      0.00
    4  -12    8     -0.38      0.00
    5  -12    8      0.04      0.00
    6  -12    8      0.32      0.00
   -4  -11    8     -0.06      0.00
   -3  -11    8     -0.50      0.00
    5  -11    8     -0.24      0.00
    6  -11    8      0.64      0.00
    7  -11    8     -0.53      0.00
   -6  -10    8     -0.07      0.00
   -5  -10    8      0.67      0.00
    7  -10    8     -0.71      0.00
    8  -10    8      0.26      0.00
   -7   -9    8     -0.03      0.00
   -6   -9    8      0.00      0.00
    7   -9    8     -0.90      0.00
    8   -9    8      0.21      0.00
   -8   -8    8      0.17      0.00
   -7   -8    8     -0.35      0.00
    8   -8    8      0.71      0.00
   -8   -7    8      0.34      0.00
    8   -7    8      0.83      0.00
   -9   -6    8     -0.10      0.00
    8   -6    8      0.46      0.00
    9   -6    8     -0.03      0.00
  -10   -5    8     -0.27      0.00
   -9   -5    8      0.93      0.00
    8   -5    8      0.29      0.00
  -10   -4    8      0.52      0.00
    8   -4    8      0.31      0.00
  -11   -3    8      0.00      0.00
  -10   -3    8      0.49      0.00
    8   -3    8     -0.17      0.00
  -11   -2    8      0.00      0.00
    8   -2    8     -0.22      0.00
  -11   -1    8      0.40      0.00
    7   -1    8     -0.41      0.00
    8   -1    8      0.18      0.00
  -11    0    8      0.06      0.00
    7    0    8     -0.26      0.00
  -12    1    8      0.04      0.00
  -11    1    8     -0.67      0.00
    6    1    8      0.49      0.00
    7    1    8     -0.53      0.00
  -12    2    8     -0.18      0.00
  -11    2    8      0.12      0.00
    6    2    8     -0.18      0.00
  -11    3    8      0.60      0.00
    5    3    8      0.57      0.00
  -11    4    8     -0.06      0.00
    4    4    8     -0.48      0.00
    5    4    8      0.26      0.00
  -11    5    8      0.53      0.00
  -10    5    8      0.75      0.00
    3    5    8     -0.67      0.00
    4    5    8     -0.30      0.00
  -11    6    8      0.29      0.00
  -10    6    8     -0.60      0.00
    2    6    8     -0.28      0.00
    3    6    8     -0.29      0.00
  -10    7    8     -0.16      0.00
   -9    7    8     -0.31      0.00
   -8    7    8      0.56      0.00
    0    7    8     -0.75      0.00
    1    7    8      0.30      0.00
   -9    8    8      0.00      0.00
   -8    8    8      0.21      0.00
   -7    8    8     -0.56      0.00
   -6    8    8      0.46      0.00
   -5    8    8     -0.23      0.00
   -4    8    8     -0.22      0.00
   -3    8    8     -0.37      0.00
   -2    8    8      0.37      0.00
   -1    8    8     -0.37      0.00
    0    8    8      0.06      0.00
   -7    9    8     -0.36      0.00
   -6    9    8      0.57      0.00
   -5    9    8     -0.26      0.00
   -4    9    8      0.00      0.00
   -3    9    8      0.46      0.00
   -2    9    8     -0.38      0.00
   -3  -12    9     -0.14      0.00
   -2  -12    9      0.33      0.00
   -1  -12    9     -0.50      0.00
    0  -12    9      0.47      0.00
    1  -12    9      0.08      0.00
    2  -12    9     -0.36      0.00
    3  -12    9      0.41      0.00
    4  -12    9     -0.19      0.00
    5  -12    9     -0.27      0.00
   -4  -11    9      0.01      0.00
   -3  -11    9     -0.43      0.00
   -2  -11    9      0.76      0.00
    4  -11    9      0.02      0.00
    5  -11    9     -0.28      0.00
    6  -11    9      0.87      0.00
   -5  -10    9      0.23      0.00
   -4  -10    9     -0.66      0.00
    6  -10    9      0.38      0.00
    7  -10    9     -0.64      0.00
   -7   -9    9     -0.25      0.00
   -6   -9    9     -0.11      0.00
    6   -9    9      0.51      0.00
    7   -9    9     -0.33      0.00
   -7   -8    9     -0.11      0.00
    7   -8    9     -0.66      0.00
    8   -8    9      0.21      0.00
   -8   -7    9      0.40      0.00
    7   -7    9     -0.52      0.00
    8   -7    9      0.15      0.00
   -9   -6    9      0.23      0.00
   -8   -6    9     -0.33      0.00
    7   -6    9     -0.10      0.00
    8   -6    9      0.17      0.00
   -9   -5    9      0.40      0.00
    7   -5    9     -0.36      0.00
    8   -5    9      0.05      0.00
  -10   -4    9      0.03      0.00
   -9   -4    9      1.69      0.00
    7   -4    9     -0.61      0.00
    8   -4    9     -0.17      0.00
  -10   -3    9      0.63      0.00
    7   -3    9     -0.12      0.00
  -11   -2    9      0.29      0.00
  -10   -2    9     -0.10      0.00
    7   -2    9     -0.25      0.00
  -11   -1    9     -0.08      0.00
  -10   -1    9      1.30      0.00
    6   -1    9      0.70      0.00
    7   -1    9     -0.57      0.00
  -11    0    9      0.57      0.00
    6    0    9      0.38      0.00
  -11    1    9     -0.29      0.00
    5    1    9      0.81      0.00
    6    1    9      0.46      0.00
  -11    2    9     -0.29      0.00
    5    2    9      0.62      0.00
  -11    3    9      0.67      0.00
  -10    3    9      1.29      0.00
    4    3    9     -0.57      0.00
  -11    4    9      0.11      0.00
  -10    4    9      0.53      0.00
    3    4    9     -0.54      0.00
    4    4    9     -0.27      0.00
  -10    5    9      0.17      0.00
   -9    5    9     -0.84      0.00
    2    5    9      0.47      0.00
    3    5    9     -0.19      0.00
  -10    6    9     -0.25      0.00
   -9    6    9      0.11      0.00
   -8    6    9      0.45      0.00
    0    6    9     -0.79      0.00
    1    6    9      0.65      0.00
   -9    7    9     -0.46      0.00
   -8    7    9      0.00      0.00
   -7    7    9     -0.19      0.00
   -6    7    9     -0.03      0.00
   -3    7    9     -0.24      0.00
   -2    7    9      0.15      0.00
   -1    7    9      0.14      0.00
    0    7    9      0.01      0.00
   -8    8    9      0.21      0.00
   -7    8    9     -0.01      0.00
   -6    8    9      0.31      0.00
   -5    8    9      0.09      0.00
   -4    8    9      0.04      0.00
   -3    8    9      0.04      0.00
   -2    8    9      0.20      0.00
   -2  -12   10      0.18      0.00
   -1  -12   10     -0.47      0.00
    0  -12   10      0.20      0.00
    1  -12   10     -0.04      0.00
    2  -12   10     -0.21      0.00
    3  -12   10      0.24      0.00
    4  -12   10      0.16      0.00
   -4  -11   10      0.01      0.00
   -3  -11   10     -0.27      0.00
   -2  -11   10      0.67      0.00
   -1  -11   10     -0.37      0.00
    0  -11   10      0.05      0.00
    1  -11   10      0.23      0.00
    2  -11   10     -0.17      0.00
    3  -11   10      0.13      0.00
    4  -11   10     -0.02      0.00
    5  -11   10     -0.56      0.00
   -5  -10   10      0.23      0.00
   -4  -10   10     -0.20      0.00
   -3  -10   10     -0.74      0.00
    4  -10   10      0.42      0.00
    5  -10   10      0.09      0.00
    6  -10   10      0.41      0.00
   -6   -9   10     -0.04      0.00
   -5   -9   10      0.49      0.00
    5   -9   10     -0.54      0.00
    6   -9   10      0.11      0.00
   -7   -8   10     -0.09      0.00
   -6   -8   10     -0.29      0.00
    6   -8   10      0.39      0.00
    7   -8   10     -0.26      0.00
   -8   -7   10     -0.01      0.00
   -7   -7   10     -0.32      0.00
    6   -7   10      0.29      0.00
    7   -7   10      0.07      0.00
   -9   -6   10      0.09      0.00
   -8   -6   10     -0.28      0.00
    6   -6   10      0.29      0.00
    7   -6   10     -0.13      0.00
   -9   -5   10      0.42      0.00
    6   -5   10      0.90      0.00
    7   -5   10      0.05      0.00
  -10   -4   10     -0.18      0.00
   -9   -4   10      0.81      0.00
    6   -4   10      1.16      0.00
    7   -4   10      0.01      0.00
  -10   -3   10      0.11      0.00
   -9   -3   10      0.63      0.00
    6   -3   10      0.64      0.00
    7   -3   10     -0.55      0.00
  -10   -2   10      0.10      0.00
    6   -2   10      0.61      0.00
  -11   -1   10     -0.01      0.00
  -10   -1   10      0.40      0.00
    5   -1   10      0.24      0.00
    6   -1   10      0.57      0.00
  -11    0   10     -0.06      0.00
  -10    0   10      0.90      0.00
    5    0   10      0.23      0.00
  -11    1   10      0.19      0.00
  -10    1   10      1.04      0.00
    4    1   10     -1.17      0.00
    5    1   10      0.12      0.00
  -11    2   10      0.10      0.00
  -10    2   10      0.85      0.00
    3    2   10     -0.29      0.00
    4    2   10     -0.44      0.00
  -10    3   10      0.25      0.00
    2    3   10      0.87      0.00
    3    3   10     -0.26      0.00
  -10    4   10      0.50      0.00
   -9    4   10     -0.36      0.00
    1    4   10      0.30      0.00
    2    4   10      0.52      0.00
  -10    5   10      0.10      0.00
   -9    5   10     -0.79      0.00
   -8    5   10      0.26      0.00
    0    5   10     -1.18      0.00
    1    5   10      0.35      0.00
   -9    6   10     -0.04      0.00
   -8    6   10      0.43      0.00
   -7    6   10      0.10      0.00
   -6    6   10      0.22      0.00
   -5    6   10      0.08      0.00
   -4    6   10      0.12      0.00
   -3    6   10     -0.08      0.00
   -2    6   10      0.37      0.00
   -1    6   10     -0.20      0.00
    0    6   10     -0.21      0.00
   -8    7   10      0.17      0.00
   -7    7   10      0.00      0.00
   -6    7   10     -0.25      0.00
   -5    7   10     -0.32      0.00
   -4    7   10      0.26      0.00
   -3    7   10      0.06      0.00
   -2    7   10     -0.23      0.00
    0  -12   11      0.07      0.00
    1  -12   11     -0.12      0.00
    2  -12   11     -0.08      0.00
   -3  -11   11     -0.21      0.00
   -2  -11   11      0.25      0.00
   -1  -11   11     -0.40      0.00
    0  -11   11      0.20      0.00
    1  -11   11     -0.11      0.00
    2  -11   11     -0.15      0.00
    3  -11   11      0.18      0.00
    4  -11   11      0.15      0.00
   -5  -10   11     -0.12      0.00
   -4  -10   11      0.02      0.00
   -3  -10   11     -0.42      0.00
   -2  -10   11      1.27      0.00
    2  -10   11     -0.28      0.00
    3  -10   11     -0.43      0.00
    4  -10   11      0.19      0.00
    5  -10   11      0.06      0.00
   -6   -9   11      0.09      0.00
   -5   -9   11      0.31      0.00
   -4   -9   11     -0.43      0.00
    4   -9   11      1.10      0.00
    5   -9   11     -0.24      0.00
   -7   -8   11      0.19      0.00
   -6   -8   11      0.16      0.00
   -5   -8   11      0.25      0.00
    4   -8   11      1.47      0.00
    5   -8   11     -0.55      0.00
    6   -8   11     -0.01      0.00
   -7   -7   11     -0.25      0.00
   -6   -7   11      0.45      0.00
    5   -7   11     -0.69      0.00
    6   -7   11     -0.41      0.00
   -8   -6   11     -0.48      0.00
   -7   -6   11     -0.18      0.00
    5   -6   11     -0.94      0.00
    6   -6   11      0.10      0.00
   -9   -5   11     -0.21      0.00
   -8   -5   11     -0.22      0.00
    5   -5   11     -1.23      0.00
    6   -5   11     -0.03      0.00
   -9   -4   11      0.58      0.00
   -8   -4   11     -0.81      0.00
    5   -4   11     -1.11      0.00
    6   -4   11      0.19      0.00
  -10   -3   11      0.12      0.00
   -9   -3   11      0.04      0.00
    5   -3   11     -0.59      0.00
    6   -3   11      0.59      0.00
  -10   -2   11     -0.34      0.00
   -9   -2   11     -0.03      0.00
    4   -2   11     -0.71      0.00
    5   -2   11     -0.33      0.00
  -10   -1   11      0.12      0.00
   -9   -1   11      0.36      0.00
    4   -1   11     -0.96      0.00
    5   -1   11     -0.13      0.00
  -10    0   11      0.33      0.00
   -9    0   11     -0.92      0.00
    3    0   11      0.47      0.00
    4    0   11     -0.60      0.00
  -10    1   11     -0.23      0.00
   -9    1   11     -0.66      0.00
    3    1   11      0.12      0.00
    4    1   11     -0.46      0.00
  -10    2   11      0.37      0.00
   -9    2   11     -0.57      0.00
    2    2   11      0.62      0.00
    3    2   11     -0.12      0.00
  -10    3   11     -0.01      0.00
   -9    3   11     -0.85      0.00
   -8    3   11      0.10      0.00
    1    3   11      0.16      0.00
    2    3   11      0.46      0.00
   -9    4   11     -0.23      0.00
   -8    4   11      0.30      0.00
   -7    4   11      0.29      0.00
   -1    4   11      1.13      0.00
    0    4   11     -1.15      0.00
    1    4   11      0.35      0.00
   -9    5   11      0.06      0.00
   -8    5   11      0.43      0.00
   -7    5   11     -0.28      0.00
   -6    5   11     -0.22      0.00
   -5    5   11      0.03      0.00
   -4    5   11     -0.16      0.00
   -3    5   11     -0.32      0.00
   -2    5   11      0.23      0.00
   -1    5   11      0.27      0.00
    0    5   11     -0.43      0.00
   -7    6   11     -0.11      0.00
   -6    6   11     -0.10      0.00
   -5    6   11     -0.01      0.00
   -4    6   11     -0.08      0.00
   -3    6   11      0.14      0.00
   -2    6   11      0.20      0.00
   -1  -11   12     -0.19      0.00
    0  -11   12      0.25      0.00
    1  -11   12     -0.20      0.00
    2  -11   12     -0.16      0.00
   -4  -10   12     -0.01      0.00
   -3  -10   12     -0.16      0.00
   -2  -10   12      0.53      0.00
   -1  -10   12     -0.59      0.00
    0  -10   12      0.10      0.00
    1  -10   12      0.31      0.00
    2  -10   12     -0.03      0.00
    3  -10   12     -0.33      0.00
   -5   -9   12     -0.03      0.00
   -4   -9   12     -0.27      0.00
   -3   -9   12      0.09      0.00
   -2   -9   12      1.00      0.00
   -1   -9   12     -0.79      0.00
    1   -9   12      0.54      0.00
    2   -9   12     -0.47      0.00
    3   -9   12     -0.63      0.00
    4   -9   12      0.70      0.00
   -6   -8   12      0.30      0.00
   -5   -8   12      0.35      0.00
   -4   -8   12     -0.60      0.00
    3   -8   12     -0.22      0.00
    4   -8   12      0.72      0.00
    5   -8   12     -0.01      0.00
   -7   -7   12      0.25      0.00
   -6   -7   12      0.51      0.00
   -5   -7   12      0.14      0.00
    3   -7   12      0.03      0.00
    4   -7   12      0.66      0.00
    5   -7   12      0.02      0.00
   -8   -6   12      0.23      0.00
   -7   -6   12     -0.17      0.00
   -6   -6   12      0.85      0.00
    4   -6   12      0.45      0.00
    5   -6   12     -0.46      0.00
   -8   -5   12     -0.31      0.00
   -7   -5   12     -0.07      0.00
    4   -5   12      0.15      0.00
    5   -5   12     -0.15      0.00
   -9   -4   12     -0.31      0.00
   -8   -4   12     -0.14      0.00
    4   -4   12     -0.16      0.00
    5   -4   12     -0.41      0.00
   -9   -3   12      0.15      0.00
   -8   -3   12     -0.53      0.00
    3   -3   12      0.86      0.00
    4   -3   12     -0.31      0.00
   -9   -2   12     -0.37      0.00
   -8   -2   12     -0.58      0.00
    3   -2   12      1.00      0.00
    4   -2   12     -0.31      0.00
   -9   -1   12     -0.01      0.00
   -8   -1   12     -0.79      0.00
    2   -1   12      0.81      0.00
    3   -1   12      0.25      0.00
    4   -1   12     -0.32      0.00
   -9    0   12     -0.17      0.00
   -8    0   12     -0.30      0.00
    2    0   12      0.53      0.00
    3    0   12      0.12      0.00
   -9    1   12     -0.25      0.00
   -8    1   12     -0.41      0.00
    1    1   12     -0.74      0.00
    2    1   12      0.79      0.00
   -9    2   12     -0.32      0.00
   -8    2   12      0.16      0.00
   -7    2   12      0.98      0.00
    0    2   12     -0.95      0.00
    1    2   12      0.04      0.00
   -9    3   12      0.13      0.00
   -8    3   12      0.48      0.00
   -7    3   12     -0.08      0.00
   -6    3   12     -0.62      0.00
   -5    3   12      0.35      0.00
   -3    3   12     -0.85      0.00
   -2    3   12     -0.02      0.00
   -1    3   12      1.35      0.00
    0    3   12     -0.90      0.00
   -8    4   12     -0.16      0.00
   -7    4   12     -0.37      0.00
   -6    4   12     -0.09      0.00
   -5    4   12      0.44      0.00
   -4    4   12     -0.32      0.00
   -3    4   12      0.00      0.00
   -2    4   12      0.21      0.00
   -1    4   12      0.40      0.00
   -6    5   12      0.15      0.00
   -5    5   12     -0.01      0.00
   -4    5   12     -0.03      0.00
   -3    5   12      0.04      0.00
   -2  -10   13      0.03      0.00
   -1  -10   13     -0.26      0.00
    0  -10   13      0.08      0.00
    1  -10   13     -0.06      0.00
   -4   -9   13     -0.32      0.00
   -3   -9   13     -0.07      0.00
   -2   -9   13      0.40      0.00
   -1   -9   13     -0.46      0.00
    0   -9   13      0.32      0.00
    1   -9   13      0.32      0.00
    2   -9   13     -0.15      0.00
   -5   -8   13      0.09      0.00
   -4   -8   13     -0.43      0.00
   -3   -8   13      0.20      0.00
   -2   -8   13      0.78      0.00
   -1   -8   13     -0.67      0.00
    0   -8   13      0.31      0.00
    1   -8   13      0.10      0.00
    2   -8   13     -0.57      0.00
    3   -8   13     -0.07      0.00
   -6   -7   13     -0.04      0.00
   -5   -7   13      0.57      0.00
   -4   -7   13     -1.03      0.00
   -3   -7   13      0.98      0.00
    1   -7   13      0.12      0.00
    2   -7   13     -0.49      0.00
    3   -7   13      0.24      0.00
   -7   -6   13      0.16      0.00
   -6   -6   13      0.70      0.00
   -5   -6   13     -0.39      0.00
    1   -6   13     -0.26      0.00
    2   -6   13     -0.49      0.00
    3   -6   13      0.53      0.00
    4   -6   13      0.13      0.00
   -7   -5   13      0.34      0.00
   -6   -5   13      0.44      0.00
    2   -5   13     -0.29      0.00
    3   -5   13      0.54      0.00
   -8   -4   13      0.08      0.00
   -7   -4   13     -0.12      0.00
   -6   -4   13      1.12      0.00
    2   -4   13      0.21      0.00
    3   -4   13      0.60      0.00
   -8   -3   13     -0.35      0.00
   -7   -3   13      0.89      0.00
    1   -3   13     -0.91      0.00
    2   -3   13      0.15      0.00
    3   -3   13      0.42      0.00
   -8   -2   13      0.30      0.00
   -7   -2   13      0.74      0.00
    1   -2   13     -1.20      0.00
    2   -2   13     -0.05      0.00
    3   -2   13      0.17      0.00
   -8   -1   13     -0.28      0.00
   -7   -1   13      0.83      0.00
    0   -1   13      0.25      0.00
    1   -1   13     -1.06      0.00
    2   -1   13      0.58      0.00
   -8    0   13     -0.04      0.00
   -7    0   13      0.95      0.00
   -6    0   13     -0.65      0.00
   -1    0   13      1.75      0.00
    0    0   13     -0.11      0.00
    1    0   13     -0.43      0.00
   -8    1   13      0.24      0.00
   -7    1   13      0.44      0.00
   -6    1   13     -0.73      0.00
   -5    1   13     -0.14      0.00
   -4    1   13      0.55      0.00
   -3    1   13     -0.54      0.00
   -2    1   13     -0.64      0.00
   -1    1   13      1.41      0.00
    0    1   13     -0.28      0.00
    1    1   13     -0.55      0.00
   -8    2   13     -0.03      0.00
   -7    2   13     -0.05      0.00
   -6    2   13     -0.49      0.00
   -5    2   13      0.24      0.00
   -4    2   13      0.32      0.00
   -3    2   13     -0.10      0.00
   -2    2   13     -0.34      0.00
   -1    2   13      0.86      0.00
    0    2   13     -0.49      0.00
   -7    3   13     -0.28      0.00
   -6    3   13     -0.05      0.00
   -5    3   13      0.45      0.00
   -4    3   13      0.05      0.00
   -3    3   13     -0.42      0.00
   -2    3   13      0.14      0.00
    0    0    0      0.00      0.00
# SQUEEZE RESULTS
# Note: Data are Listed for all Voids in the P1 Unit Cell
# i.e. Centre of Gravity, Solvent Accessible Volume,
# Recovered number of Electrons in the Void and
# Details about the Squeezed Material
loop_
  _platon_squeeze_void_nr
  _platon_squeeze_void_average_x
  _platon_squeeze_void_average_y
  _platon_squeeze_void_average_z
  _platon_squeeze_void_volume
  _platon_squeeze_void_count_electrons
  _platon_squeeze_void_content
   1  0.099  0.311  0.629        16         2 ' '
   2  0.500  0.000  0.000       128        49 ' '
   3  0.346  0.389  0.966         9         3 ' '
   4  0.654  0.610  0.033         9         3 ' '
   5  0.901  0.689  0.371        15         2 ' '
_platon_squeeze_details
(replace by semicolon in column 1 when used as .sqf)
TITL dm-aj-53_mo_a.res in P-1
CELL    9.6348   10.7198   11.5837    105.64    103.13    104.69
SPGR P-1
# Solvent Accessible Volume =     180.2
# Electrons Found in S.A.V. =      60.0
# Note: Atoms in Void as Cxxx and Qxxx all others
C101 0.325 0.066 0.013 !      12.66 eA-3
C102 0.600 0.999 0.050 !       9.02 eA-3
Q103 0.832 0.503 0.935 !       1.38 eA-3
Q104 0.891 0.360 0.468 !       1.16 eA-3
Q105 0.213 0.592 0.892 !       1.12 eA-3
Q106 0.623 0.313 0.908 !       1.12 eA-3
Q107 0.139 0.159 0.359 !       1.11 eA-3
Q108 0.039 0.596 0.689 !       1.08 eA-3
Q109 0.553 0.422 0.141 !       1.07 eA-3
Q110 0.955 0.907 0.862 !       1.05 eA-3
Q111 0.333 0.220 0.831 !       1.01 eA-3
Q112 0.291 0.371 0.501 !       0.93 eA-3
Q113 0.848 0.408 0.830 !       0.87 eA-3
Q114 0.126 0.271 0.954 !       0.85 eA-3
Q115 0.983 0.843 0.050 !       0.83 eA-3
Q116 0.025 0.710 0.015 !       0.83 eA-3
Q117 0.336 0.604 0.812 !       0.83 eA-3
Q118 0.724 0.391 0.013 !       0.82 eA-3
Q119 0.040 0.874 0.532 !       0.76 eA-3
Q120 0.895 0.966 0.263 !       0.76 eA-3
Q121 0.148 0.203 0.283 !       0.74 eA-3
Q122 0.420 0.657 0.824 !       0.74 eA-3
Q123 0.829 0.548 0.075 !       0.72 eA-3
Q124 0.494 0.392 0.986 !       0.72 eA-3
Q125 0.347 0.591 0.016 !       0.71 eA-3
Q126 0.193 0.411 0.860 !       0.71 eA-3
Q127 0.538 0.423 0.048 !       0.70 eA-3
Q128 0.484 0.065 0.298 !       0.70 eA-3
C129 0.640 0.581 0.079 !       0.69 eA-3
Q130 0.500 0.501 0.000 !       0.69 eA-3
Q131 0.691 0.469 0.081 !       0.68 eA-3
Q132 0.098 0.062 0.002 !       0.68 eA-3
Q133 0.113 0.471 0.969 !       0.68 eA-3
Q134 0.297 0.875 0.199 !       0.68 eA-3
Q135 0.515 0.553 0.936 !       0.68 eA-3
C136 0.178 0.017 0.000 !       0.68 eA-3
Q137 0.059 0.265 0.029 !       0.68 eA-3
C138 0.347 0.068 0.921 !       0.67 eA-3
Q139 0.836 0.434 0.049 !       0.67 eA-3
Q140 0.539 0.654 0.703 !       0.66 eA-3
Q141 0.392 0.609 0.919 !       0.65 eA-3
Q142 0.440 0.503 0.922 !       0.65 eA-3
Q143 0.877 0.810 0.813 !       0.65 eA-3
Q144 0.195 0.094 0.001 !       0.64 eA-3
Q145 0.852 0.862 0.060 !       0.63 eA-3
Q146 0.795 0.748 0.095 !       0.63 eA-3
Q147 0.409 0.467 0.804 !       0.62 eA-3
Q148 0.694 0.833 0.903 !       0.62 eA-3
Q149 0.678 0.609 0.204 !       0.61 eA-3
Q150 0.171 0.295 0.515 !       0.60 eA-3
Q151 0.384 0.188 0.073 !       0.60 eA-3
Q152 0.651 0.202 0.890 !       0.59 eA-3
Q153 0.380 0.763 0.155 !       0.58 eA-3
C154 0.259 0.030 0.094 !       0.58 eA-3
Q155 0.870 0.625 0.093 !       0.58 eA-3
Q156 0.787 0.639 0.253 !       0.57 eA-3
Q157 0.754 0.893 0.903 !       0.57 eA-3
Q158 0.361 0.298 0.940 !       0.57 eA-3
Q159 0.748 0.543 0.191 !       0.56 eA-3
Q160 0.552 0.642 0.951 !       0.56 eA-3
Q161 0.244 0.310 0.985 !       0.56 eA-3
Q162 0.430 0.611 0.701 !       0.55 eA-3
Q163 0.871 0.908 0.714 !       0.55 eA-3
Q164 0.596 0.659 0.029 !       0.55 eA-3
Q165 0.926 0.531 0.954 !       0.55 eA-3
Q166 0.857 0.358 0.344 !       0.55 eA-3
Q167 0.245 0.217 0.954 !       0.54 eA-3
Q168 0.178 0.969 0.110 !       0.54 eA-3
C169 0.629 0.611 0.018 !       0.54 eA-3
Q170 0.191 0.532 0.142 !       0.54 eA-3
Q171 0.284 0.358 0.738 !       0.53 eA-3
Q172 0.980 0.467 0.516 !       0.53 eA-3
Q173 0.058 0.999 0.218 !       0.53 eA-3
Q174 0.022 0.550 0.987 !       0.53 eA-3
Q175 0.117 0.486 0.831 !       0.52 eA-3
Q176 0.496 0.313 0.002 !       0.52 eA-3
Q177 0.930 0.941 0.076 !       0.52 eA-3
Q178 0.938 0.934 0.186 !       0.51 eA-3
Q179 0.283 0.174 0.733 !       0.51 eA-3
Q180 0.265 0.654 0.825 !       0.50 eA-3
(replace by semicolon in column 1 when used as .sqf)
;
_shelx_shelxl_version_number     2014/7
_olex2_submission_special_instructions 'No special instructions were received'
_oxdiff_exptl_absorpt_empirical_details
;
Empirical correction (ABSPACK) includes:
- Absorption correction using spherical harmonics
- Frame scaling
- Detector area scaling
;
_oxdiff_exptl_absorpt_empirical_full_max 1.433
_oxdiff_exptl_absorpt_empirical_full_min 0.837
loop_
_space_group_symop_operation_xyz
'x, y, z'
'-x, -y, -z'
loop_
_atom_site_label
_atom_site_type_symbol
_atom_site_fract_x
_atom_site_fract_y
_atom_site_fract_z
_atom_site_U_iso_or_equiv
_atom_site_adp_type
_atom_site_occupancy
_atom_site_site_symmetry_order
_atom_site_calc_flag
Pd00 Pd 0.39100(4) 0.66247(3) 0.44691(3) 0.01723(16) Uani 1 1 d
C002 C 0.2429(5) 0.3645(5) 0.3988(5) 0.0224(10) Uani 1 1 d
O003 O 0.4046(5) 0.6665(5) 0.0925(4) 0.0512(13) Uani 1 1 d
C004 C 0.2630(5) 0.4672(5) 0.3444(4) 0.0180(10) Uani 1 1 d
C006 C 0.2127(6) 0.5392(5) 0.1529(5) 0.0245(11) Uani 1 1 d
C008 C 0.1630(6) 0.2285(5) 0.3244(5) 0.0280(12) Uani 1 1 d
N009 N 0.5495(5) 0.8623(4) 0.5389(4) 0.0218(9) Uani 1 1 d
C00A C 0.4280(6) 0.6390(7) 0.7014(5) 0.0341(13) Uani 1 1 d
C00B C 0.2001(5) 0.4285(5) 0.2127(4) 0.0193(10) Uani 1 1 d
C00C C 0.8533(7) 1.0446(6) 0.4358(6) 0.0375(14) Uani 1 1 d
N00D N 0.4610(5) 0.6914(4) 0.3019(4) 0.0205(9) Uani 1 1 d
C00E C 0.3725(6) 0.6357(5) 0.1795(5) 0.0250(11) Uani 1 1 d
C00F C 0.3889(7) 0.6224(9) 0.8048(6) 0.0462(17) Uani 1 1 d
C00G C 0.5837(6) 0.9481(5) 0.6561(5) 0.0279(12) Uani 1 1 d
C00H C 0.1422(7) 0.6178(8) 0.7041(6) 0.0451(17) Uani 1 1 d
N00I N 0.3285(5) 0.6432(5) 0.6006(4) 0.0219(9) Uani 1 1 d
C00J C 0.7983(6) 1.1052(5) 0.6412(6) 0.0331(13) Uani 1 1 d
C00K C 0.7653(6) 1.0168(5) 0.5137(5) 0.0287(12) Uani 1 1 d
C00L C 0.6854(6) 0.8314(6) 0.2668(5) 0.0345(13) Uani 1 1 d
C00M C 0.1011(6) 0.1918(5) 0.1937(5) 0.0303(12) Uani 1 1 d
C00N C 0.7072(7) 1.0702(6) 0.7102(5) 0.0354(14) Uani 1 1 d
C00O C 0.8135(7) 0.9529(7) 0.3150(6) 0.0395(14) Uani 1 1 d
C00P C 0.1202(6) 0.2915(5) 0.1372(5) 0.0243(11) Uani 1 1 d
C00Q C 0.2440(7) 0.6114(9) 0.8074(6) 0.0517(19) Uani 1 1 d
C00R C 0.1875(6) 0.6331(6) 0.6033(5) 0.0300(12) Uani 1 1 d
C00S C 0.0490(8) 0.2463(6) -0.0063(5) 0.0429(16) Uani 1 1 d
C00U C 0.6375(6) 0.8953(5) 0.4672(5) 0.0228(10) Uani 1 1 d
C00V C 0.5947(6) 0.8019(5) 0.3401(5) 0.0246(11) Uani 1 1 d
loop_
_atom_site_aniso_label
_atom_site_aniso_U_11
_atom_site_aniso_U_22
_atom_site_aniso_U_33
_atom_site_aniso_U_23
_atom_site_aniso_U_13
_atom_site_aniso_U_12
Pd00 0.0184(2) 0.0207(2) 0.0122(2) 0.00662(16) 0.00401(15) 0.00569(16)
C002 0.017(2) 0.029(3) 0.029(3) 0.017(2) 0.009(2) 0.011(2)
O003 0.050(3) 0.064(3) 0.018(2) 0.018(2) 0.0061(18) -0.015(2)
C004 0.015(2) 0.023(2) 0.019(2) 0.010(2) 0.0061(18) 0.0083(19)
C006 0.027(3) 0.022(3) 0.017(2) 0.008(2) -0.001(2) 0.000(2)
C008 0.020(3) 0.028(3) 0.041(3) 0.020(2) 0.009(2) 0.009(2)
N009 0.024(2) 0.022(2) 0.017(2) 0.0063(17) 0.0008(16) 0.0108(18)
C00A 0.030(3) 0.061(4) 0.019(3) 0.018(3) 0.009(2) 0.021(3)
C00B 0.017(2) 0.022(2) 0.018(2) 0.007(2) 0.0063(18) 0.0059(19)
C00C 0.030(3) 0.033(3) 0.046(4) 0.022(3) 0.005(3) 0.002(2)
N00D 0.019(2) 0.023(2) 0.017(2) 0.0088(17) 0.0041(16) 0.0025(17)
C00E 0.032(3) 0.022(3) 0.017(2) 0.008(2) 0.006(2) 0.004(2)
C00F 0.039(3) 0.090(5) 0.024(3) 0.029(3) 0.013(3) 0.031(4)
C00G 0.030(3) 0.026(3) 0.022(3) 0.002(2) -0.001(2) 0.013(2)
C00H 0.030(3) 0.085(5) 0.033(3) 0.028(3) 0.019(3) 0.025(3)
N00I 0.020(2) 0.032(2) 0.017(2) 0.0088(18) 0.0063(16) 0.0125(18)
C00J 0.034(3) 0.019(3) 0.036(3) 0.005(2) -0.003(2) 0.009(2)
C00K 0.024(3) 0.024(3) 0.032(3) 0.012(2) -0.003(2) 0.006(2)
C00L 0.030(3) 0.041(3) 0.031(3) 0.018(3) 0.011(2) 0.004(3)
C00M 0.033(3) 0.023(3) 0.035(3) 0.012(2) 0.009(2) 0.009(2)
C00N 0.038(3) 0.027(3) 0.030(3) 0.001(2) -0.005(3) 0.016(3)
C00O 0.036(3) 0.043(4) 0.038(3) 0.021(3) 0.011(3) 0.003(3)
C00P 0.027(3) 0.022(3) 0.021(3) 0.005(2) 0.005(2) 0.008(2)
C00Q 0.038(4) 0.101(6) 0.030(3) 0.034(4) 0.020(3) 0.026(4)
C00R 0.023(3) 0.047(3) 0.024(3) 0.013(2) 0.009(2) 0.015(2)
C00S 0.062(4) 0.024(3) 0.022(3) 0.001(2) -0.003(3) 0.002(3)
C00U 0.023(3) 0.022(3) 0.023(3) 0.010(2) 0.003(2) 0.009(2)
C00V 0.030(3) 0.021(3) 0.021(3) 0.011(2) 0.005(2) 0.007(2)
loop_
_atom_type_symbol
_atom_type_description
_atom_type_scat_dispersion_real
_atom_type_scat_dispersion_imag
_atom_type_scat_source
C C 0.0033 0.0016 'International Tables Vol C Tables 4.2.6.8 and 6.1.1.4'
N N 0.0061 0.0033 'International Tables Vol C Tables 4.2.6.8 and 6.1.1.4'
O O 0.0106 0.0060 'International Tables Vol C Tables 4.2.6.8 and 6.1.1.4'
Pd Pd -0.9988 1.0072 'International Tables Vol C Tables 4.2.6.8 and 6.1.1.4'
loop_
_geom_angle_atom_site_label_1
_geom_angle_atom_site_label_2
_geom_angle_atom_site_label_3
_geom_angle
C004 Pd00 N009 170.96(17)
C004 Pd00 N00D 92.40(18)
C004 Pd00 N00I 90.68(18)
N00D Pd00 N009 80.26(16)
N00D Pd00 N00I 176.88(15)
N00I Pd00 N009 96.63(17)
C008 C002 C004 120.6(5)
C002 C004 Pd00 121.8(4)
C002 C004 C00B 118.4(5)
C00B C004 Pd00 119.7(3)
C00B C006 C00E 116.4(4)
C002 C008 C00M 120.3(5)
C00G N009 Pd00 129.7(4)
C00G N009 C00U 118.8(5)
C00U N009 Pd00 111.0(3)
N00I C00A C00F 122.3(5)
C004 C00B C006 119.2(4)
C00P C00B C004 121.2(4)
C00P C00B C006 119.5(4)
C00O C00C C00K 119.3(5)
C00E N00D Pd00 124.2(3)
C00E N00D C00V 120.5(4)
C00V N00D Pd00 113.3(3)
O003 C00E C006 118.2(4)
O003 C00E N00D 125.3(5)
N00D C00E C006 116.1(4)
C00A C00F C00Q 119.4(5)
N009 C00G C00N 123.1(5)
C00R C00H C00Q 119.7(5)
C00A N00I Pd00 120.7(3)
C00R N00I Pd00 121.0(3)
C00R N00I C00A 118.3(4)
C00N C00J C00K 119.7(5)
C00C C00K C00J 123.5(5)
C00C C00K C00U 119.8(5)
C00U C00K C00J 116.7(5)
C00V C00L C00O 120.8(5)
C00P C00M C008 120.3(5)
C00J C00N C00G 119.5(5)
C00C C00O C00L 121.5(5)
C00B C00P C00S 122.4(5)
C00M C00P C00B 119.2(5)
C00M C00P C00S 118.3(5)
C00F C00Q C00H 118.2(5)
N00I C00R C00H 122.1(5)
N009 C00U C00K 122.4(5)
N009 C00U C00V 117.1(4)
C00K C00U C00V 120.5(5)
N00D C00V C00U 115.3(5)
C00L C00V N00D 126.6(5)
C00L C00V C00U 118.0(5)
loop_
_geom_bond_atom_site_label_1
_geom_bond_atom_site_label_2
_geom_bond_distance
Pd00 C004 1.999(5)
Pd00 N009 2.104(4)
Pd00 N00D 2.015(4)
Pd00 N00I 2.048(4)
C002 C004 1.403(7)
C002 C008 1.382(8)
O003 C00E 1.220(6)
C004 C00B 1.406(7)
C006 C00B 1.521(7)
C006 C00E 1.530(7)
C008 C00M 1.397(8)
N009 C00G 1.329(7)
N009 C00U 1.365(7)
C00A C00F 1.377(8)
C00A N00I 1.351(7)
C00B C00P 1.393(7)
C00C C00K 1.410(9)
C00C C00O 1.377(9)
N00D C00E 1.353(6)
N00D C00V 1.394(7)
C00F C00Q 1.379(9)
C00G C00N 1.396(8)
C00H C00Q 1.395(9)
C00H C00R 1.371(8)
N00I C00R 1.343(7)
C00J C00K 1.435(8)
C00J C00N 1.365(9)
C00K C00U 1.417(7)
C00L C00O 1.418(8)
C00L C00V 1.388(8)
C00M C00P 1.392(7)
C00P C00S 1.532(7)
C00U C00V 1.436(7)
loop_
_geom_torsion_atom_site_label_1
_geom_torsion_atom_site_label_2
_geom_torsion_atom_site_label_3
_geom_torsion_atom_site_label_4
_geom_torsion
Pd00 C004 C00B C006 -8.3(6)
Pd00 C004 C00B C00P 175.0(4)
Pd00 N009 C00G C00N 170.3(4)
Pd00 N009 C00U C00K -171.8(4)
Pd00 N009 C00U C00V 8.8(5)
Pd00 N00D C00E O003 169.1(5)
Pd00 N00D C00E C006 -3.4(6)
Pd00 N00D C00V C00L 166.8(5)
Pd00 N00D C00V C00U -15.4(5)
Pd00 N00I C00R C00H 178.9(5)
C002 C004 C00B C006 176.5(4)
C002 C004 C00B C00P -0.3(7)
C002 C008 C00M C00P 0.5(8)
C004 C002 C008 C00M -0.1(8)
C004 C00B C00P C00M 0.7(8)
C004 C00B C00P C00S 179.3(5)
C006 C00B C00P C00M -176.0(5)
C006 C00B C00P C00S 2.6(8)
C008 C002 C004 Pd00 -175.2(4)
C008 C002 C004 C00B 0.0(7)
C008 C00M C00P C00B -0.8(8)
C008 C00M C00P C00S -179.5(6)
N009 C00G C00N C00J 0.2(8)
N009 C00U C00V N00D 4.0(6)
N009 C00U C00V C00L -178.0(5)
C00A C00F C00Q C00H 0.0(13)
C00A N00I C00R C00H -0.5(9)
C00B C006 C00E O003 138.4(6)
C00B C006 C00E N00D -48.6(7)
C00C C00K C00U N009 179.1(5)
C00C C00K C00U C00V -1.5(7)
C00E C006 C00B C004 55.9(6)
C00E C006 C00B C00P -127.3(5)
C00E N00D C00V C00L -28.6(8)
C00E N00D C00V C00U 149.2(5)
C00F C00A N00I Pd00 -178.2(6)
C00F C00A N00I C00R 1.2(9)
C00G N009 C00U C00K 0.9(7)
C00G N009 C00U C00V -178.5(4)
N00I C00A C00F C00Q -1.0(12)
C00J C00K C00U N009 -0.3(7)
C00J C00K C00U C00V 179.1(5)
C00K C00C C00O C00L 0.3(9)
C00K C00J C00N C00G 0.5(8)
C00K C00U C00V N00D -175.5(4)
C00K C00U C00V C00L 2.5(7)
C00N C00J C00K C00C -179.8(5)
C00N C00J C00K C00U -0.4(7)
C00O C00C C00K C00J 179.4(5)
C00O C00C C00K C00U 0.0(8)
C00O C00L C00V N00D 175.6(5)
C00O C00L C00V C00U -2.2(8)
C00Q C00H C00R N00I -0.5(11)
C00R C00H C00Q C00F 0.7(12)
C00U N009 C00G C00N -0.9(7)
C00V N00D C00E O003 6.3(9)
C00V N00D C00E C006 -166.2(5)
C00V C00L C00O C00C 0.8(9)
