#------------------------------------------------------------------------------
#$Date: 2017-02-03 22:09:46 +0200 (Fri, 03 Feb 2017) $
#$Revision: 191229 $
#$URL: file:///home/coder/svn-repositories/cod/cif/4/51/40/4514014.cif $
#------------------------------------------------------------------------------
#
# This file is available in the Crystallography Open Database (COD),
# http://www.crystallography.net/
#
# All data on this site have been placed in the public domain by the
# contributors.
#
data_4514014
loop_
_publ_author_name
'Tom\'as-Mendivil, Eder'
'Heinrich, Cl\'ement F.'
'Ortuno, Jean-Claude'
'Starck, J\'er\^ome'
'Michelet, V\'eronique'
_publ_section_title
;
 Gold-Catalyzed Access to 1H-Isochromenes: Reaction Development and
 Mechanistic Insight
;
_journal_issue                   1
_journal_name_full               'ACS Catalysis'
_journal_page_first              380
_journal_paper_doi               10.1021/acscatal.6b02636
_journal_volume                  7
_journal_year                    2017
_chemical_formula_moiety         'C15 H12 Au Cl2 N O2, C H Cl3'
_chemical_formula_sum            'C16 H13 Au Cl5 N O2'
_chemical_formula_weight         625.49
_space_group_crystal_system      triclinic
_space_group_IT_number           2
_space_group_name_Hall           '-P 1'
_space_group_name_H-M_alt        'P -1'
_symmetry_space_group_name_Hall  '-P 1'
_symmetry_space_group_name_H-M   'P -1'
_atom_sites_solution_hydrogens   geom
_atom_sites_solution_primary     iterative
_atom_sites_solution_secondary   difmap
_audit_creation_method           SHELXL-2014/7
_cell_angle_alpha                76.336(2)
_cell_angle_beta                 87.282(2)
_cell_angle_gamma                65.557(2)
_cell_formula_units_Z            2
_cell_length_a                   8.2785(5)
_cell_length_b                   8.9703(5)
_cell_length_c                   14.5673(8)
_cell_measurement_reflns_used    9920
_cell_measurement_temperature    200(2)
_cell_measurement_theta_max      68
_cell_measurement_theta_min      3
_cell_volume                     955.40(10)
_computing_cell_refinement       'Bruker SAINT'
_computing_data_collection       'Bruker APEX2'
_computing_data_reduction        'Bruker SAINT'
_computing_molecular_graphics    'DIAMOND (Brandenburg, 2006)'
_computing_publication_material  'WinGX publication routines (Farrugia, 2012)'
_computing_structure_refinement  'SHELXL-2014/7 (Sheldrick, 2014)'
_computing_structure_solution    'SUPERFLIP (Palatinus & Chapuis,2007)'
_diffrn_ambient_temperature      200(2)
_diffrn_measured_fraction_theta_full 0.976
_diffrn_measured_fraction_theta_max 0.970
_diffrn_measurement_device_type  'Bruker APEX-II CCD'
_diffrn_measurement_method       '\f and \w scans'
_diffrn_radiation_monochromator  'multi layer miror'
_diffrn_radiation_type           CuK\a
_diffrn_radiation_wavelength     1.5418
_diffrn_reflns_av_R_equivalents  0.0429
_diffrn_reflns_av_unetI/netI     0.0291
_diffrn_reflns_Laue_measured_fraction_full 0.976
_diffrn_reflns_Laue_measured_fraction_max 0.970
_diffrn_reflns_limit_h_max       9
_diffrn_reflns_limit_h_min       -9
_diffrn_reflns_limit_k_max       10
_diffrn_reflns_limit_k_min       -10
_diffrn_reflns_limit_l_max       17
_diffrn_reflns_limit_l_min       -17
_diffrn_reflns_number            14931
_diffrn_reflns_point_group_measured_fraction_full 0.976
_diffrn_reflns_point_group_measured_fraction_max 0.970
_diffrn_reflns_theta_full        67.680
_diffrn_reflns_theta_max         68.327
_diffrn_reflns_theta_min         3.127
_diffrn_source                   'micro focus sealed tube'
_exptl_absorpt_coefficient_mu    21.002
_exptl_absorpt_correction_T_max  0.43
_exptl_absorpt_correction_T_min  0.28
_exptl_absorpt_correction_type   multi-scan
_exptl_crystal_colour            orange
_exptl_crystal_density_diffrn    2.174
_exptl_crystal_density_method    'not measured'
_exptl_crystal_description       stick
_exptl_crystal_F_000             592
_exptl_crystal_size_max          0.17
_exptl_crystal_size_mid          0.06
_exptl_crystal_size_min          0.04
_refine_diff_density_max         2.149
_refine_diff_density_min         -0.917
_refine_diff_density_rms         0.157
_refine_ls_extinction_method     none
_refine_ls_goodness_of_fit_ref   1.078
_refine_ls_hydrogen_treatment    constr
_refine_ls_matrix_type           full
_refine_ls_number_parameters     227
_refine_ls_number_reflns         3397
_refine_ls_number_restraints     0
_refine_ls_restrained_S_all      1.078
_refine_ls_R_factor_all          0.0305
_refine_ls_R_factor_gt           0.0299
_refine_ls_shift/su_max          0.000
_refine_ls_shift/su_mean         0.000
_refine_ls_structure_factor_coef Fsqd
_refine_ls_weighting_details
'w=1/[\s^2^(Fo^2^)+(0.0581P)^2^+0.2722P] where P=(Fo^2^+2Fc^2^)/3'
_refine_ls_weighting_scheme      calc
_refine_ls_wR_factor_gt          0.0767
_refine_ls_wR_factor_ref         0.0773
_reflns_Friedel_coverage         0.000
_reflns_number_gt                3303
_reflns_number_total             3397
_reflns_threshold_expression     'I > 2\s(I)'
_cod_data_source_file            cs6b02636_si_002.cif
_cod_data_source_block           shelx
_cod_database_code               4514014
_shelx_shelxl_version_number     2014/7
_shelx_space_group_comment
;
The symmetry employed for this shelxl refinement is uniquely defined
by the following loop, which should always be used as a source of
symmetry information in preference to the above space-group names.
They are only intended as comments.
;
_exptl_absorpt_special_details
;
SADABS, Bruker AXS Inc., Madison, 
Wisconsin, USA. 
;
_shelx_res_file
;
 
    shelx.res created by SHELXL-2014/7
 
TITL ET553
CELL  1.54180   8.2785   8.9703  14.5673   76.336   87.282   65.557
ZERR     2.00   0.0005   0.0005   0.0008    0.002    0.002    0.002
LATT   1
SFAC  C  H CL Au N O
UNIT  32 26 10 2 2 4
MERG   2
FMAP   2
PLAN   40
ACTA
BOND   $H
L.S.   8
TEMP   -73.00
WGHT    0.058100    0.272200
FVAR       0.10966
AU1   4    0.055577    0.757214    0.101398    11.00000    0.02698    0.02337 =
         0.02726   -0.00377    0.00486   -0.00958
C1    1    0.019288    0.723929   -0.097688    11.00000    0.03519    0.04401 =
         0.02845   -0.00239   -0.00072   -0.01432
AFIX  43
H1    2   -0.077677    0.831752   -0.108164    11.00000   -1.20000
AFIX   0
C2    1    0.060382    0.636669   -0.168033    11.00000    0.04280    0.05581 =
         0.02738   -0.00445    0.00159   -0.02386
AFIX  43
H2    2   -0.007711    0.684775   -0.226612    11.00000   -1.20000
AFIX   0
C3    1    0.199075    0.480981   -0.153460    11.00000    0.04699    0.05098 =
         0.02903   -0.01223    0.01234   -0.02940
AFIX  43
H3    2    0.227248    0.420103   -0.201520    11.00000   -1.20000
AFIX   0
C4    1    0.298719    0.412426   -0.067469    11.00000    0.03769    0.03437 =
         0.03058   -0.00741    0.01087   -0.02207
AFIX  43
H4    2    0.395468    0.304375   -0.055870    11.00000   -1.20000
AFIX   0
C5    1    0.253679    0.505106    0.000565    11.00000    0.02839    0.02685 =
         0.02693    0.00097    0.00570   -0.01753
C6    1    0.344945    0.455638    0.092419    11.00000    0.02710    0.02356 =
         0.02889   -0.00180    0.00583   -0.01183
C7    1    0.288982    0.556673    0.153587    11.00000    0.02302    0.02135 =
         0.02568   -0.00121    0.00372   -0.00924
C8    1    0.402081    0.509689    0.239015    11.00000    0.02875    0.03114 =
         0.02980   -0.00416    0.00664   -0.01857
C9    1    0.530794    0.343315    0.263144    11.00000    0.03359    0.03263 =
         0.02981   -0.00112    0.00743   -0.01893
C10   1    0.540085    0.222803    0.205145    11.00000    0.02695    0.02785 =
         0.03240   -0.00081    0.00493   -0.01086
AFIX  13
H10   2    0.663401    0.131890    0.211578    11.00000   -1.20000
AFIX   0
C11   1    0.442929    0.008843    0.205416    11.00000    0.04998    0.03758 =
         0.05191   -0.01357    0.00537   -0.02237
AFIX 137
H11A  2    0.421504    0.043622    0.136477    11.00000   -1.50000
H11B  2    0.357802   -0.036305    0.233721    11.00000   -1.50000
H11C  2    0.564160   -0.078316    0.221707    11.00000   -1.50000
AFIX   0
C12   1    0.398047    0.620172    0.293481    11.00000    0.04352    0.03949 =
         0.03503   -0.00836    0.00608   -0.02625
AFIX  43
H12   2    0.312901    0.734115    0.277736    11.00000   -1.20000
AFIX   0
C13   1    0.517878    0.563816    0.370283    11.00000    0.04947    0.05324 =
         0.03892   -0.01648    0.00351   -0.02905
AFIX  43
H13   2    0.513266    0.639910    0.407003    11.00000   -1.20000
AFIX   0
C14   1    0.643404    0.400121    0.394565    11.00000    0.04669    0.05937 =
         0.03311   -0.00058   -0.00276   -0.03022
AFIX  43
H14   2    0.723281    0.362632    0.448240    11.00000   -1.20000
AFIX   0
C15   1    0.651912    0.290536    0.339748    11.00000    0.03480    0.04569 =
         0.03256    0.00150   -0.00010   -0.01944
AFIX  43
H15   2    0.741179    0.178347    0.354537    11.00000   -1.20000
AFIX   0
C16   1    0.245009    0.198859    0.435170    11.00000    0.04887    0.05493 =
         0.02867   -0.00665    0.00494   -0.03268
AFIX  13
H16   2    0.355044    0.177271    0.399105    11.00000   -1.20000
AFIX   0
N1    5    0.115061    0.658078   -0.014208    11.00000    0.03158    0.02928 =
         0.02368   -0.00616    0.00662   -0.01478
O1    6    0.493645    0.307958    0.107219    11.00000    0.03164    0.02685 =
         0.02978   -0.00249    0.00651   -0.00852
O2    6    0.421472    0.151384    0.240994    11.00000    0.04038    0.02950 =
         0.03427   -0.00509    0.00863   -0.02124
CL1   3   -0.215210    0.976256    0.029843    11.00000    0.03087    0.03311 =
         0.04254   -0.00527    0.00225   -0.00646
CL2   3   -0.018330    0.840399    0.238360    11.00000    0.04723    0.04974 =
         0.03550   -0.01753    0.00555   -0.00187
CL3   3    0.098845    0.409053    0.393879    11.00000    0.06414    0.05340 =
         0.05694   -0.01045    0.00865   -0.02553
CL4   3    0.305423    0.153640    0.556501    11.00000    0.11834    0.09455 =
         0.03557   -0.00276   -0.01285   -0.06543
CL5   3    0.151919    0.062281    0.417056    11.00000    0.06366    0.06233 =
         0.05645   -0.00542   -0.00517   -0.04169
HKLF    4
 
REM  ET553
REM R1 =  0.0299 for    3303 Fo > 4sig(Fo)  and  0.0305 for all    3397 data
REM    227 parameters refined using      0 restraints
 
END
 
WGHT      0.0582      0.2592
 
REM Highest difference peak  2.149,  deepest hole -0.917,  1-sigma level  0.157
Q1    1   0.1612  0.6657  0.1168  11.00000  0.05    2.15
Q2    1  -0.0401  0.8515  0.0873  11.00000  0.05    2.01
Q3    1   0.0343  0.6589  0.1125  11.00000  0.05    1.43
Q4    1   0.1004  0.8414  0.0971  11.00000  0.05    1.43
Q5    1   0.0597  0.7582  0.0437  11.00000  0.05    1.17
Q6    1   0.0642  0.7567  0.1633  11.00000  0.05    0.79
Q7    1   0.1928  0.1809  0.5600  11.00000  0.05    0.64
Q8    1  -0.0022  0.5564  0.0717  11.00000  0.05    0.59
Q9    1   0.2397 -0.0256  0.4300  11.00000  0.05    0.58
Q10   1  -0.0891  1.0154 -0.1136  11.00000  0.05    0.55
Q11   1   0.0101  0.9572 -0.0410  11.00000  0.05    0.55
Q12   1   0.1595  0.2586 -0.2047  11.00000  0.05    0.52
Q13   1  -0.1948  0.8399  0.0313  11.00000  0.05    0.52
Q14   1  -0.2735  1.2083 -0.0161  11.00000  0.05    0.50
Q15   1   0.1959  0.7627 -0.0312  11.00000  0.05    0.49
Q16   1   0.2632  0.8074  0.1798  11.00000  0.05    0.48
Q17   1   0.1996  0.5826 -0.0147  11.00000  0.05    0.43
Q18   1  -0.2266  1.1133 -0.1093  11.00000  0.05    0.43
Q19   1  -0.0796  0.7576  0.2344  11.00000  0.05    0.42
Q20   1   0.1402  0.4174  0.4410  11.00000  0.05    0.42
Q21   1   0.6042  0.5012  0.3684  11.00000  0.05    0.41
Q22   1  -0.0451  0.6148  0.0014  11.00000  0.05    0.41
Q23   1   0.0102  0.5018  0.3779  11.00000  0.05    0.41
Q24   1   0.1224  0.3642 -0.0928  11.00000  0.05    0.40
Q25   1   0.1656  0.3268 -0.1347  11.00000  0.05    0.40
Q26   1   0.0943  0.1010  0.4594  11.00000  0.05    0.39
Q27   1  -0.1843  0.9640  0.1051  11.00000  0.05    0.38
Q28   1   0.1718  0.3098  0.3998  11.00000  0.05    0.37
Q29   1  -0.2413  0.8967  0.0499  11.00000  0.05    0.37
Q30   1  -0.2195  1.1240  0.0038  11.00000  0.05    0.36
Q31   1  -0.0027  0.7446  0.2497  11.00000  0.05    0.34
Q32   1   0.0542  0.3376  0.4105  11.00000  0.05    0.34
Q33   1  -0.1418  0.7384 -0.0024  11.00000  0.05    0.33
Q34   1   0.3219  0.2357  0.5315  11.00000  0.05    0.33
Q35   1   0.4638  0.1676  0.5766  11.00000  0.05    0.33
Q36   1   0.4242  0.0982  0.2160  11.00000  0.05    0.32
Q37   1   0.0794  0.7522  0.2604  11.00000  0.05    0.32
Q38   1  -0.0151  0.7812  0.1475  11.00000  0.05    0.32
Q39   1   0.2005  0.2636 -0.0282  11.00000  0.05    0.32
Q40   1   0.1218  0.5414  0.0309  11.00000  0.05    0.31
;
_shelx_res_checksum              53468
_shelx_hkl_file
;
  -4   0   0   12.65    0.94
  -6   0   0    8.34    0.52
  -6   0   0   10.34    0.52
  -6   0   0    7.95    0.70
  -6   0   0    9.60    0.66
  -6   0   0    9.17    0.69
  -7   0   0   26.60    1.32
  -7   0   0   22.80    1.29
  -7   0   0   25.25    1.06
  -8   0   0   17.08    0.89
  -8   0   0   16.41    0.73
  -8   0   0   13.46    0.92
  -9   0   0    8.71    0.39
  -9   0   0    9.02    0.50
  -8   1   0    2.72    0.27
  -8   1   0    2.28    0.38
  -8   1   0    2.67    0.34
  -7   1   0   12.46    0.81
  -7   1   0   12.74    0.62
  -7   1   0   12.51    0.85
  -7   1   0   12.92    0.68
  -7   1   0   12.37    0.77
  -6   1   0   28.78    1.29
  -6   1   0   27.67    1.36
  -6   1   0   29.03    1.12
  -6   1   0   27.19    1.19
  -6   1   0   27.89    1.46
  -5   1   0   20.99    1.25
  -5   1   0   22.45    1.53
  -5   1   0   19.11    1.05
  -5   1   0   21.49    1.15
  -5   1   0   21.52    0.84
  -5   1   0   20.95    1.16
  -5   1   0   22.34    0.97
  -5   1   0   20.22    0.92
  -4   1   0   59.40    2.68
  -3   1   0  154.35    5.60
   0   1   0    3.47    0.17
  -1  -1   0   21.09    0.77
  -1  -1   0   21.84    0.77
  -1  -1   0   21.91    0.77
   1   1   0   21.92    0.77
   1   1   0   20.58    0.75
   1   1   0   21.63    0.77
  -2  -1   0   32.74    1.16
  -2  -1   0   33.68    1.16
  -2  -1   0   33.58    1.16
   2   1   0   33.79    1.19
  -3  -1   0  110.57    3.76
  -3  -1   0  109.72    3.76
  -3  -1   0  117.85    3.76
  -4  -1   0  151.97    5.20
  -4  -1   0  159.99    5.20
  -6  -1   0   59.83    2.09
  -6  -1   0   53.96    2.13
  -6  -1   0   57.08    2.32
  -6  -1   0   56.88    2.35
  -7  -1   0   18.20    0.99
  -7  -1   0   22.31    1.13
  -7  -1   0   21.28    0.93
  -7  -1   0   19.32    1.20
  -8  -1   0    0.63    0.18
  -8  -1   0    0.51    0.20
  -8  -1   0    0.37    0.24
  -9  -1   0    0.89    0.24
  -9  -1   0    0.89    0.15
  -9  -1   0    0.69    0.17
  -8   2   0   15.28    0.78
  -8   2   0   16.92    0.66
  -7   2   0   12.31    0.77
  -7   2   0   13.13    0.85
  -7   2   0   14.14    0.72
  -7   2   0   13.16    0.62
  -7   2   0   14.41    0.83
  -6   2   0    6.62    0.61
  -6   2   0    6.73    0.48
  -6   2   0    7.06    0.65
  -6   2   0    6.78    0.40
  -6   2   0    7.26    0.60
  -6   2   0    7.01    0.52
  -5   2   0    4.45    0.38
  -5   2   0    4.88    0.39
  -5   2   0    4.48    0.29
  -5   2   0    4.87    0.75
  -5   2   0    4.45    0.50
  -5   2   0    4.59    0.52
  -5   2   0    4.14    0.42
  -5   2   0    4.15    0.48
  -4   2   0   15.33    0.89
  -4   2   0   15.57    1.16
  -3   2   0   61.10    2.63
   0   2   0  119.34    3.99
  -1  -2   0  376.45   12.52
  -1  -2   0  388.05   12.54
   1   2   0  374.98   12.40
   1   2   0  398.04   12.41
   1   2   0  364.21   12.37
  -2  -2   0  216.98    7.14
  -2  -2   0  216.54    7.14
   2   2   0  212.47    7.15
   2   2   0  221.21    7.17
  -3  -2   0  118.56    4.07
  -3  -2   0  123.58    4.07
   3   2   0  112.61    3.81
  -4  -2   0    7.50    0.40
  -4  -2   0    6.54    0.38
  -5  -2   0   13.88    0.65
  -5  -2   0   13.21    0.63
  -6  -2   0    7.68    0.46
  -6  -2   0    7.54    0.56
  -6  -2   0    7.40    0.65
  -6  -2   0    7.17    0.50
  -6  -2   0    7.22    0.71
  -6  -2   0    7.23    0.35
  -7  -2   0   15.95    0.90
  -7  -2   0   16.32    0.79
  -7  -2   0   16.68    0.65
  -7  -2   0   15.15    0.85
  -7  -2   0   16.87    1.10
  -8  -2   0   14.92    0.68
  -8  -2   0   11.28    1.01
  -8  -2   0   12.95    0.74
  -8  -2   0   15.21    0.94
  -8  -2   0   13.90    0.56
  -9  -2   0   16.08    0.62
  -9  -2   0   17.17    0.85
  -9  -2   0   16.31    0.68
  -7   3   0    5.77    0.45
  -7   3   0    5.68    0.35
  -6   3   0   25.10    1.31
  -6   3   0   25.57    1.27
  -6   3   0   24.61    1.31
  -6   3   0   23.98    1.11
  -6   3   0   26.08    1.14
  -6   3   0   24.44    0.98
  -5   3   0   37.52    1.56
  -5   3   0   37.51    1.68
  -5   3   0   33.91    1.69
  -5   3   0   38.07    1.37
  -5   3   0   36.98    1.74
  -5   3   0   36.47    1.79
  -5   3   0   39.04    2.32
  -5   3   0   34.78    2.24
  -5   3   0   37.43    1.50
  -4   3   0   43.43    1.92
  -4   3   0   38.02    1.79
  -4   3   0   44.02    2.36
  -4   3   0   38.89    2.41
  -4   3   0   44.20    1.82
  -4   3   0   41.70    1.71
  -4   3   0   45.17    1.66
  -4   3   0   44.66    1.54
  -4   3   0   43.32    1.86
  -3   3   0   20.88    1.33
  -2   3   0   76.46    3.17
   0   3   0    5.44    0.34
  -1  -3   0  127.04    4.24
   1   3   0  127.87    4.31
   1   3   0  120.40    4.30
   1   3   0  137.50    4.38
  -2  -3   0  141.10    4.86
  -2  -3   0  150.43    4.89
   2   3   0  153.60    5.13
   2   3   0  152.86    5.14
  -3  -3   0  419.22   13.77
  -3  -3   0  419.73   13.78
   3   3   0  441.66   14.53
  -4  -3   0  159.05    5.38
  -4  -3   0  160.09    5.40
  -5  -3   0   87.49    3.06
  -5  -3   0   84.96    3.04
  -6  -3   0   25.38    1.24
  -6  -3   0   25.09    0.97
  -6  -3   0   29.68    1.37
  -6  -3   0   26.26    1.06
  -7  -3   0   43.79    1.88
  -7  -3   0   48.02    2.02
  -7  -3   0   42.86    1.74
  -7  -3   0   44.47    1.68
  -7  -3   0   43.27    1.57
  -8  -3   0    0.33    0.15
  -8  -3   0    0.42    0.19
  -8  -3   0    0.18    0.16
  -8  -3   0    0.26    0.22
  -8  -3   0    0.21    0.10
  -9  -3   0    0.65    0.19
  -9  -3   0    0.93    0.23
  -9  -3   0    0.75    0.18
  -9  -3   0    0.68    0.16
  -9  -3   0    0.66    0.13
  -6   4   0    3.72    0.34
  -6   4   0    3.87    0.53
  -6   4   0    4.71    0.47
  -6   4   0    3.84    0.28
  -5   4   0    0.65    0.27
  -5   4   0    0.79    0.29
  -5   4   0    0.68    0.24
  -5   4   0    0.75    0.24
  -5   4   0    0.81    0.19
  -5   4   0    0.85    0.15
  -5   4   0    0.74    0.44
  -4   4   0    2.87    0.40
  -4   4   0    2.70    0.60
  -4   4   0    2.40    0.26
  -4   4   0    2.50    0.36
  -4   4   0    2.77    0.39
  -4   4   0    2.28    0.43
  -4   4   0    2.71    0.78
  -4   4   0    2.35    0.39
  -4   4   0    2.86    0.23
  -3   4   0    3.96    0.39
  -3   4   0    4.63    0.43
  -3   4   0    4.88    0.33
  -3   4   0    4.60    0.87
  -3   4   0    4.62    0.27
  -3   4   0    4.76    0.52
  -3   4   0    4.08    0.38
  -3   4   0    4.36    0.65
  -3   4   0    4.38    0.44
  -2   4   0   36.70    1.97
  -2   4   0   36.41    1.66
   1   4   0   96.62    3.37
   1   4   0  101.89    3.47
   1   4   0   95.67    3.36
  -2  -4   0   10.76    0.53
   2   4   0   10.21    0.57
   2   4   0   10.35    0.53
   2   4   0   10.23    0.53
  -3  -4   0    9.68    0.53
   3   4   0    9.73    0.55
  -4  -4   0   49.76    1.89
   4   4   0   44.34    1.71
  -5  -4   0    1.26    0.23
  -6  -4   0   31.60    1.23
  -6  -4   0   32.04    1.17
  -6  -4   0   34.80    1.45
  -6  -4   0   30.46    1.12
  -6  -4   0   33.02    1.49
  -6  -4   0   31.52    1.11
  -7  -4   0   54.47    1.98
  -7  -4   0   53.75    1.92
  -7  -4   0   53.18    2.26
  -7  -4   0   57.85    2.24
  -8  -4   0   40.93    1.68
  -8  -4   0   46.93    1.88
  -8  -4   0   45.02    1.90
  -8  -4   0   44.00    1.63
  -8  -4   0   45.23    1.58
  -9  -4   0   18.53    0.74
  -9  -4   0   19.01    0.89
  -9  -4   0   16.24    0.76
  -9  -4   0   17.53    0.90
  -9  -4   0   18.63    0.70
  -5   5   0   31.60    1.27
  -5   5   0   33.24    1.41
  -5   5   0   31.53    2.09
  -5   5   0   30.84    1.54
  -5   5   0   31.11    1.17
  -5   5   0   32.31    1.48
  -4   5   0   45.46    1.57
  -4   5   0   42.13    1.67
  -4   5   0   43.80    1.80
  -4   5   0   44.83    1.94
  -4   5   0   39.95    2.46
  -4   5   0   43.16    1.99
  -4   5   0   43.11    1.87
  -4   5   0   43.17    2.81
  -3   5   0   30.78    1.41
  -3   5   0   30.53    1.56
  -3   5   0   31.83    1.37
  -3   5   0   31.31    1.25
  -3   5   0   31.11    1.14
  -3   5   0   31.24    1.50
  -3   5   0   28.55    1.94
  -3   5   0   27.72    2.23
  -2   5   0    4.25    0.89
  -2   5   0    4.57    0.43
  -2   5   0    5.11    0.56
  -2   5   0    4.55    0.33
  -2   5   0    4.45    0.69
  -2   5   0    5.53    0.51
  -2   5   0    4.21    0.38
  -1   5   0    2.04    0.35
  -1   5   0    1.76    0.16
   0   5   0   19.05    0.83
   1   5   0   25.02    1.04
   1   5   0   25.49    1.04
   1   5   0   24.37    1.15
   2   5   0   15.05    0.79
   2   5   0   14.07    0.70
   2   5   0   14.53    0.71
   3   5   0   98.93    3.56
   3   5   0  101.83    3.59
  -4  -5   0  165.16    5.73
   4   5   0  160.12    5.52
  -5  -5   0   84.73    2.92
  -5  -5   0   86.76    3.09
  -5  -5   0   87.45    3.19
  -5  -5   0   89.67    3.38
  -5  -5   0   84.65    2.95
  -5  -5   0   93.48    3.23
  -6  -5   0   13.38    0.54
  -6  -5   0   13.40    0.53
  -6  -5   0   14.08    0.60
  -6  -5   0   14.50    0.89
  -6  -5   0   14.79    0.79
  -6  -5   0   13.45    0.62
  -6  -5   0   13.92    0.56
   6   5   0   11.89    0.48
  -7  -5   0    8.32    0.45
  -7  -5   0    8.24    0.67
  -7  -5   0    8.37    0.42
  -7  -5   0    7.47    0.37
  -7  -5   0    9.17    0.61
  -8  -5   0    1.94    0.23
  -8  -5   0    2.16    0.33
  -8  -5   0    1.89    0.20
  -8  -5   0    2.22    0.37
  -9  -5   0    0.30    0.16
  -9  -5   0    0.18    0.13
  -9  -5   0    0.35    0.18
  -9  -5   0    0.34    0.20
  -9  -5   0    0.42    0.13
  -5   6   0    1.09    0.37
  -4   6   0    1.41    0.36
  -4   6   0    1.86    0.78
  -4   6   0    1.61    0.39
  -4   6   0    1.65    0.37
  -3   6   0   28.26    2.29
  -3   6   0   28.30    1.44
  -3   6   0   27.51    1.48
  -3   6   0   29.57    1.28
  -2   6   0   22.38    1.93
  -2   6   0   18.14    2.09
  -2   6   0   21.28    1.26
  -2   6   0   22.82    1.09
  -2   6   0   23.63    1.26
  -2   6   0   21.50    1.01
  -1   6   0   43.95    1.98
  -1   6   0   44.17    2.05
  -1   6   0   47.18    2.72
   0   6   0   32.13    1.17
   0   6   0   28.53    1.40
   0   6   0   29.76    1.53
   0   6   0   29.59    1.91
   1   6   0   79.99    2.78
   1   6   0   77.22    2.69
   1   6   0   74.16    3.11
   2   6   0   39.98    2.02
   2   6   0   46.95    1.71
   3   6   0    0.16    0.13
   3   6   0    0.11    0.22
   3   6   0    0.26    0.26
  -4  -6   0   20.13    0.90
  -4  -6   0   20.07    0.76
   4   6   0   18.64    1.18
   4   6   0   17.39    0.70
   4   6   0   18.36    0.69
   4   6   0   21.51    1.19
   4   6   0   18.59    0.71
   4   6   0   19.22    0.95
  -5  -6   0   37.63    1.40
  -5  -6   0   38.84    1.36
  -5  -6   0   37.34    1.33
  -5  -6   0   37.90    1.70
   5   6   0   34.90    1.25
   5   6   0   35.03    1.75
   5   6   0   36.46    1.75
   5   6   0   34.71    1.22
  -6  -6   0   17.56    1.03
  -6  -6   0   16.77    0.74
  -6  -6   0   17.35    0.66
  -6  -6   0   17.21    0.67
  -6  -6   0   16.80    0.70
  -6  -6   0   16.96    0.69
  -6  -6   0   17.60    0.89
   6   6   0   16.38    0.63
   6   6   0   15.60    0.65
   6   6   0   16.81    1.12
  -7  -6   0   39.03    1.77
  -7  -6   0   39.11    1.44
  -7  -6   0   37.89    1.60
  -7  -6   0   39.21    1.33
  -7  -6   0   38.60    1.39
  -7  -6   0   37.02    1.31
  -7  -6   0   38.38    1.35
   7   6   0   37.28    1.34
   7   6   0   37.68    1.32
  -8  -6   0   23.71    1.21
  -8  -6   0   23.52    0.90
  -8  -6   0   23.95    0.94
  -8  -6   0   23.64    1.09
   8   6   0   23.64    1.34
   8   6   0   24.53    0.89
  -9  -6   0   22.62    1.09
  -9  -6   0   24.57    0.90
  -9  -6   0   23.03    0.94
  -9  -6   0   22.87    1.01
  -9  -6   0   23.24    0.86
   9   6   0   22.27    1.20
  -3   7   0   15.15    1.04
  -3   7   0   18.12    1.78
  -3   7   0   16.39    0.98
  -2   7   0    6.38    0.60
  -2   7   0    6.54    1.14
  -2   7   0    5.61    0.68
  -1   7   0    2.43    0.50
  -1   7   0    2.25    0.44
  -1   7   0    2.38    0.70
   0   7   0    0.36    0.21
   0   7   0    0.40    0.16
   0   7   0    0.56    0.41
   0   7   0    0.30    0.10
   0   7   0    0.57    0.35
   1   7   0   37.18    1.34
   1   7   0   38.14    1.48
   1   7   0   41.18    1.82
   1   7   0   36.27    1.96
   2   7   0   32.47    1.55
   2   7   0   29.89    1.20
   2   7   0   26.18    1.67
   2   7   0   28.78    1.06
   3   7   0   20.04    0.74
   3   7   0   18.69    1.37
   3   7   0   20.46    1.21
   3   7   0   20.70    0.78
   3   7   0   19.64    0.75
  -4  -7   0   24.07    0.90
   4   7   0   22.09    0.80
   4   7   0   21.55    0.84
   4   7   0   21.81    1.31
   4   7   0   21.47    0.79
   4   7   0   22.06    0.82
   4   7   0   21.71    1.43
  -5  -7   0   54.46    1.94
  -5  -7   0   56.32    1.91
  -5  -7   0   55.06    1.98
   5   7   0   49.84    1.71
   5   7   0   50.93    2.34
   5   7   0   50.67    1.73
   5   7   0   50.90    2.29
   5   7   0   48.08    1.72
  -6  -7   0   34.26    1.18
  -6  -7   0   31.52    1.19
  -6  -7   0   33.94    1.43
  -6  -7   0   33.71    1.21
  -6  -7   0   31.88    1.55
  -6  -7   0   32.58    1.26
   6   7   0   30.55    1.12
   6   7   0   31.37    1.13
   6   7   0   29.82    1.62
   6   7   0   31.02    1.67
   6   7   0   31.66    1.10
  -7  -7   0   15.21    0.93
  -7  -7   0   15.66    0.60
  -7  -7   0   15.04    0.81
  -7  -7   0   15.45    0.59
  -7  -7   0   15.33    0.68
  -7  -7   0   15.66    0.62
   7   7   0   14.36    0.60
   7   7   0   13.86    1.03
   7   7   0   14.54    0.57
  -8  -7   0    0.48    0.18
  -8  -7   0    0.50    0.14
  -8  -7   0    0.60    0.10
  -8  -7   0    0.55    0.22
   8   7   0    0.59    0.13
   8   7   0    0.58    0.14
   8   7   0    0.55    0.33
  -9  -7   0    3.21    0.30
  -9  -7   0    3.54    0.25
  -9  -7   0    3.55    0.30
  -9  -7   0    2.91    0.36
   9   7   0    3.07    0.29
   9   7   0    3.00    0.25
  -2   8   0   26.51    1.29
  -2   8   0   28.26    1.54
  -2   8   0   31.58    1.95
  -1   8   0   47.66    2.25
  -1   8   0   42.90    1.93
  -1   8   0   51.87    2.62
   0   8   0   28.96    1.05
   0   8   0   28.88    1.71
   0   8   0   30.28    1.94
   1   8   0    7.68    0.38
   1   8   0    8.69    0.70
   1   8   0    7.18    0.92
   2   8   0    5.33    0.86
   2   8   0    5.43    0.33
   2   8   0    5.73    0.60
   3   8   0    1.16    0.52
   3   8   0    1.09    0.35
   3   8   0    1.14    0.16
  -4  -8   0    1.24    0.17
   4   8   0    0.91    0.48
   4   8   0    1.12    0.17
   4   8   0    0.64    0.13
   4   8   0    0.41    0.28
  -5  -8   0   11.78    0.52
  -5  -8   0   12.37    0.58
  -5  -8   0   12.15    0.55
   5   8   0   11.26    0.46
   5   8   0   10.86    0.47
   5   8   0   11.67    1.02
   5   8   0   10.44    0.44
   5   8   0   10.39    0.87
   5   8   0   10.66    0.49
  -6  -8   0   27.66    1.01
  -6  -8   0   27.02    1.05
  -6  -8   0   26.23    1.00
  -6  -8   0   28.15    0.98
  -6  -8   0   25.57    1.18
   6   8   0   22.09    1.28
   6   8   0   24.22    0.90
   6   8   0   24.15    0.86
   6   8   0   25.20    1.46
   6   8   0   24.15    0.88
  -7  -8   0   30.04    1.30
  -7  -8   0   30.63    1.10
  -7  -8   0   31.55    1.17
  -7  -8   0   31.91    1.13
  -7  -8   0   31.74    1.09
   7   8   0   28.99    1.03
   7   8   0   27.46    1.01
   7   8   0   28.03    1.00
   7   8   0   28.48    1.51
  -8  -8   0   24.31    0.80
  -8  -8   0   23.53    0.87
  -8  -8   0   19.91    1.07
  -8  -8   0   21.55    0.95
   8   8   0   21.33    1.22
   8   8   0   21.60    0.82
   8   8   0   22.67    0.80
   8   8   0   23.76    0.83
  -9  -8   0    5.09    0.32
   9   8   0    5.30    0.27
   0   9   0    1.81    0.53
   1   9   0    5.75    0.31
   1   9   0    6.66    0.95
   2   9   0   35.38    1.91
   2   9   0   32.63    1.57
   2   9   0   34.41    1.22
   3   9   0   38.67    1.97
   3   9   0   36.91    1.31
   3   9   0   35.00    1.71
   4   9   0   48.68    2.17
   4   9   0   49.92    2.32
   4   9   0   49.30    1.71
  -5  -9   0   14.33    0.57
  -5  -9   0   14.66    0.60
  -5  -9   0   13.38    0.62
   5   9   0   12.35    1.00
   5   9   0   11.37    0.82
   5   9   0   11.19    0.48
  -6  -9   0    2.67    0.25
  -6  -9   0    2.98    0.25
  -6  -9   0    2.58    0.31
  -6  -9   0    2.77    0.26
  -6  -9   0    3.15    0.25
   6   9   0    2.84    0.25
   6   9   0    2.84    0.56
   6   9   0    2.14    0.36
  -7  -9   0   -0.02    0.12
  -7  -9   0    0.15    0.12
  -7  -9   0    0.11    0.10
  -7  -9   0    0.29    0.15
  -7  -9   0    0.21    0.10
   7   9   0    0.16    0.34
   7   9   0    0.02    0.13
   7   9   0   -0.01    0.10
  -8  -9   0    0.08    0.10
  -8  -9   0    0.00    0.08
   8   9   0   -0.06    0.08
   8   9   0    0.00    0.09
   8   9   0    0.08    0.10
   2  10   0    3.68    0.21
   2  10   0    4.71    0.64
   2  10   0    2.92    0.35
   3  10   0    0.04    0.15
   3  10   0    0.26    0.33
   3  10   0    0.13    0.10
  -4 -10   0    2.47    0.24
   4  10   0    1.91    0.36
   4  10   0    1.69    0.16
   4  10   0    2.53    0.49
  -5 -10   0    4.93    0.37
  -5 -10   0    5.70    0.32
  -5 -10   0    5.11    0.30
   5  10   0    3.28    0.40
   5  10   0    4.73    0.63
  -6 -10   0    4.22    0.26
  -6 -10   0    3.87    0.26
  -6 -10   0    3.86    0.23
  -6 -10   0    3.87    0.33
   6  10   0    2.15    0.31
  -6 -10   1    1.51    0.13
  -6 -10   1    1.58    0.17
   5  10  -1    0.34    0.19
  -5 -10   1    0.64    0.13
  -5 -10   1    0.46    0.12
   4  10  -1    0.11    0.29
   4  10  -1    0.04    0.09
   4  10  -1   -0.09    0.15
  -4 -10   1    0.15    0.12
   3  10  -1    5.50    0.62
   3  10  -1    4.67    0.43
   3  10  -1    5.17    0.26
   2  10  -1   11.22    0.43
   7   9  -1   26.54    0.92
   7   9  -1   25.07    1.56
  -7  -9   1   28.77    1.00
  -7  -9   1   25.28    1.09
  -7  -9   1   28.64    0.97
  -7  -9   1   27.64    1.03
  -7  -9   1   28.52    0.98
   6   9  -1   22.60    1.25
   6   9  -1   19.41    1.06
  -6  -9   1   28.78    0.99
  -6  -9   1   27.88    1.01
  -6  -9   1   27.52    1.04
  -6  -9   1   25.25    1.12
  -6  -9   1   28.27    1.03
   5   9  -1   20.04    1.23
   5   9  -1   17.95    1.06
   5   9  -1   17.71    0.69
  -5  -9   1   21.37    1.01
  -5  -9   1   23.72    0.93
  -5  -9   1   24.44    0.90
  -5  -9   1   24.01    0.87
   4   9  -1   38.35    1.81
   4   9  -1   39.62    1.92
   4   9  -1   39.10    1.37
   3   9  -1   11.00    1.00
   3   9  -1   10.05    0.79
   3   9  -1   10.61    0.47
   2   9  -1    1.74    0.18
   2   9  -1    1.57    0.36
   2   9  -1    1.85    0.55
   1   9  -1    0.68    0.45
   1   9  -1    0.41    0.11
   0   9  -1    0.85    0.45
   8   8  -1    8.66    0.42
   8   8  -1    9.48    0.39
  -8  -8   1    8.61    0.49
  -8  -8   1    9.38    0.39
  -8  -8   1    9.38    0.44
   7   8  -1    7.87    0.40
   7   8  -1    7.60    0.76
   7   8  -1    8.16    0.37
   7   8  -1    8.29    0.38
  -7  -8   1    8.67    0.42
  -7  -8   1    8.95    0.39
  -7  -8   1    9.06    0.39
  -7  -8   1    7.76    0.50
  -7  -8   1    8.74    0.44
   6   8  -1    7.62    0.38
   6   8  -1    7.14    0.67
   6   8  -1    8.32    0.35
   6   8  -1    7.84    0.37
   6   8  -1    8.43    0.82
  -6  -8   1    9.09    0.43
  -6  -8   1    8.47    0.55
  -6  -8   1    9.25    0.47
  -6  -8   1    8.65    0.41
  -6  -8   1    9.48    0.45
   5   8  -1    1.81    0.17
   5   8  -1    1.61    0.41
   5   8  -1    1.77    0.49
   5   8  -1    1.70    0.18
   5   8  -1    1.58    0.14
  -5  -8   1    2.11    0.22
  -5  -8   1    2.51    0.25
  -5  -8   1    1.86    0.19
   4   8  -1    5.12    0.80
   4   8  -1    4.43    0.29
   4   8  -1    3.81    0.54
   4   8  -1    3.98    0.26
  -4  -8   1    5.27    0.32
   3   8  -1   22.44    1.30
   3   8  -1   22.66    0.86
   3   8  -1   22.74    1.52
   2   8  -1   15.56    0.64
   2   8  -1   16.14    1.02
   2   8  -1   15.36    1.25
   1   8  -1   34.21    1.59
   1   8  -1   31.32    1.83
   1   8  -1   32.73    1.17
   1   8  -1   32.96    1.30
   0   8  -1   36.74    1.95
   0   8  -1   37.65    1.33
   0   8  -1   39.19    2.23
   0   8  -1   38.25    1.44
  -1   8  -1   32.94    1.78
  -1   8  -1   35.33    2.11
  -2   8  -1    6.56    1.02
  -2   8  -1    6.31    0.72
  -2   8  -1    4.72    0.53
   9   7  -1    4.15    0.27
  -9  -7   1    4.14    0.26
  -9  -7   1    3.70    0.37
  -9  -7   1    3.90    0.31
  -9  -7   1    3.78    0.29
   8   7  -1    6.85    0.36
   8   7  -1    7.28    0.35
   8   7  -1    5.91    0.84
  -8  -7   1    6.72    0.38
  -8  -7   1    6.57    0.54
  -8  -7   1    6.70    0.46
  -8  -7   1    6.79    0.31
   7   7  -1   16.61    1.12
   7   7  -1   17.18    0.68
   7   7  -1   16.94    0.65
  -7  -7   1   17.35    0.88
  -7  -7   1   17.98    1.02
  -7  -7   1   18.30    0.69
  -7  -7   1   17.96    0.67
  -7  -7   1   18.57    0.77
  -7  -7   1   18.59    0.71
   6   7  -1   55.38    2.47
   6   7  -1   57.20    1.92
   6   7  -1   53.91    2.42
   6   7  -1   53.95    1.91
   6   7  -1   57.25    1.89
  -6  -7   1   63.39    2.11
  -6  -7   1   62.09    2.36
  -6  -7   1   60.94    2.19
  -6  -7   1   62.74    2.14
  -6  -7   1   59.73    2.51
  -6  -7   1   61.21    2.13
   5   7  -1   25.05    1.41
   5   7  -1   25.28    0.89
   5   7  -1   24.65    0.91
   5   7  -1   23.40    1.43
   5   7  -1   24.55    0.90
  -5  -7   1   27.12    1.09
  -5  -7   1   28.59    1.02
  -5  -7   1   27.44    1.05
   4   7  -1   39.53    1.39
   4   7  -1   39.07    1.93
   4   7  -1   38.41    2.00
   4   7  -1   39.36    1.37
   4   7  -1   38.14    1.34
   4   7  -1   39.67    1.36
  -4  -7   1   43.63    1.54
   3   7  -1   36.24    1.29
   3   7  -1   36.10    1.97
   3   7  -1   34.92    1.78
   3   7  -1   36.17    1.26
   2   7  -1   17.45    1.06
   2   7  -1   15.38    0.64
   2   7  -1   15.38    0.75
   2   7  -1   14.68    1.19
   1   7  -1    4.52    0.30
   1   7  -1    5.07    0.72
   1   7  -1    5.99    0.60
   1   7  -1    5.06    0.39
   0   7  -1    4.03    0.64
   0   7  -1    3.60    0.25
   0   7  -1    4.03    0.83
   0   7  -1    4.36    0.35
  -1   7  -1   11.67    0.95
  -1   7  -1   10.74    0.78
  -1   7  -1   11.93    0.59
  -1   7  -1   11.92    1.32
  -2   7  -1   31.32    2.23
  -2   7  -1   28.29    1.42
  -2   7  -1   25.63    1.47
  -3   7  -1   14.99    1.01
  -3   7  -1   18.44    1.82
  -3   7  -1   15.54    0.96
   9   6  -1   25.76    0.93
  -9  -6   1   22.16    0.90
  -9  -6   1   22.48    1.07
  -9  -6   1   22.26    0.86
  -9  -6   1   23.07    0.87
  -9  -6   1   23.01    0.98
   8   6  -1   25.63    1.42
   8   6  -1   27.30    0.96
  -8  -6   1   27.32    1.34
  -8  -6   1   27.71    1.02
  -8  -6   1   27.97    1.21
  -8  -6   1   27.50    1.07
   7   6  -1    4.85    0.28
   7   6  -1    4.29    0.31
   7   6  -1    4.57    0.67
  -7  -6   1    5.27    0.55
  -7  -6   1    5.52    0.37
  -7  -6   1    5.41    0.27
  -7  -6   1    5.59    0.28
  -7  -6   1    5.25    0.45
  -7  -6   1    5.04    0.33
   6   6  -1    0.06    0.28
   6   6  -1    0.88    0.13
   6   6  -1    0.10    0.11
  -6  -6   1    0.15    0.10
  -6  -6   1    0.12    0.11
  -6  -6   1    0.05    0.16
  -6  -6   1    0.00    0.13
  -6  -6   1    0.29    0.10
  -6  -6   1    0.20    0.10
   5   6  -1    7.16    0.73
   5   6  -1    7.05    0.33
   5   6  -1    6.74    0.36
   5   6  -1    7.15    0.69
   5   6  -1    7.04    0.36
  -5  -6   1    7.64    0.36
  -5  -6   1    7.53    0.42
  -5  -6   1    7.29    0.61
  -5  -6   1    7.63    0.39
   4   6  -1   39.07    1.35
   4   6  -1   39.76    1.37
   4   6  -1   39.19    1.33
   4   6  -1   36.33    1.33
   4   6  -1   38.71    1.89
  -4  -6   1   42.90    1.50
  -4  -6   1   41.26    1.47
   3   6  -1   74.30    2.45
   3   6  -1   75.74    2.97
   3   6  -1   65.48    2.99
   3   6  -1   68.39    2.41
   3   6  -1   73.29    2.41
   3   6  -1   70.88    2.40
   3   6  -1   75.86    2.70
   2   6  -1   86.84    3.02
   2   6  -1   89.05    3.39
   2   6  -1   88.21    2.90
   2   6  -1   79.33    3.44
   2   6  -1   87.14    3.11
   1   6  -1   46.43    2.18
   1   6  -1   50.28    1.71
   1   6  -1   52.50    1.83
   0   6  -1   19.86    0.81
   0   6  -1   18.13    1.14
   0   6  -1   19.04    1.53
  -1   6  -1    9.09    1.18
  -1   6  -1    9.15    0.48
  -1   6  -1    8.66    0.77
  -1   6  -1    8.41    0.69
  -2   6  -1    3.89    0.33
  -2   6  -1    3.75    0.55
  -2   6  -1    4.22    0.41
  -2   6  -1    3.77    0.74
  -2   6  -1    3.97    0.51
  -2   6  -1    4.13    1.03
  -2   6  -1    4.13    0.44
  -3   6  -1   11.06    0.74
  -3   6  -1   11.85    0.84
  -3   6  -1   11.26    0.72
  -3   6  -1   10.45    1.20
  -3   6  -1   11.63    1.57
  -3   6  -1   11.22    0.85
  -4   6  -1    2.20    0.44
  -4   6  -1    2.02    0.41
  -4   6  -1    2.19    0.86
  -9  -5   1    7.71    0.57
  -9  -5   1    8.17    0.42
  -9  -5   1    7.62    0.49
  -9  -5   1    7.75    0.39
  -9  -5   1    7.52    0.44
  -8  -5   1   18.57    0.74
  -8  -5   1   18.33    0.79
  -8  -5   1   19.39    1.05
  -8  -5   1   18.03    0.93
  -7  -5   1   44.23    1.78
  -7  -5   1   40.62    1.47
  -7  -5   1   42.52    1.53
  -7  -5   1   43.72    1.92
  -7  -5   1   42.39    1.58
   6   5  -1   69.81    2.40
   6   5  -1   72.66    2.43
  -6  -5   1   79.83    2.71
  -6  -5   1   77.17    2.67
  -6  -5   1   84.53    2.99
  -6  -5   1   77.74    2.78
  -6  -5   1   81.55    3.15
  -6  -5   1   80.55    2.70
  -6  -5   1   80.29    2.74
   5   5  -1   97.10    3.21
   5   5  -1   90.92    3.12
  -5  -5   1  102.45    3.53
  -5  -5   1  102.64    3.51
  -5  -5   1  111.33    3.96
  -5  -5   1  101.82    3.58
  -5  -5   1  109.71    3.75
  -5  -5   1  106.00    3.80
   4   5  -1   42.40    1.72
   3   5  -1   98.60    3.53
   3   5  -1   95.51    3.44
   2   5  -1   13.93    0.71
   2   5  -1   15.70    0.87
   2   5  -1   14.49    0.71
   1   5  -1    0.33    0.13
   1   5  -1    0.33    0.18
   1   5  -1    0.42    0.13
   0   5  -1   18.10    0.80
  -1   5  -1    8.46    0.46
  -1   5  -1    8.79    0.50
  -1   5  -1    8.78    1.06
  -1   5  -1    8.84    0.69
  -1   5  -1    8.93    0.63
  -2   5  -1   62.00    2.21
  -2   5  -1   65.20    2.65
  -2   5  -1   62.68    2.18
  -2   5  -1   64.47    2.28
  -2   5  -1   64.62    3.18
  -2   5  -1   64.15    2.57
  -2   5  -1   63.91    2.41
  -2   5  -1   59.65    2.35
  -2   5  -1   58.09    3.39
  -3   5  -1   53.31    2.31
  -3   5  -1   52.17    1.95
  -3   5  -1   52.68    1.84
  -3   5  -1   48.80    2.76
  -3   5  -1   51.53    2.11
  -3   5  -1   48.88    3.19
  -3   5  -1   53.06    2.25
  -3   5  -1   54.31    2.09
  -4   5  -1   33.34    1.47
  -4   5  -1   33.50    1.22
  -4   5  -1   34.36    1.60
  -4   5  -1   30.10    2.05
  -4   5  -1   33.10    1.52
  -4   5  -1   32.37    1.62
  -4   5  -1   31.80    1.31
  -4   5  -1   33.51    2.44
  -5   5  -1    6.86    0.64
  -5   5  -1    7.72    0.70
  -5   5  -1    7.15    1.08
  -5   5  -1    6.72    0.66
  -9  -4   1    9.47    0.52
  -9  -4   1   10.82    0.62
  -9  -4   1   10.22    0.65
  -9  -4   1   10.98    0.51
  -9  -4   1   11.38    0.47
  -8  -4   1    4.21    0.33
  -8  -4   1    4.13    0.43
  -8  -4   1    3.68    0.44
  -8  -4   1    3.28    0.33
  -8  -4   1    3.93    0.28
  -7  -4   1    2.35    0.24
  -7  -4   1    2.32    0.27
  -7  -4   1    2.61    0.40
  -7  -4   1    3.08    0.39
  -6  -4   1    1.56    0.13
  -6  -4   1    1.39    0.17
  -6  -4   1    1.50    0.14
  -6  -4   1    1.69    0.30
  -6  -4   1    1.55    0.31
  -6  -4   1    1.48    0.21
  -5  -4   1    0.64    0.17
   4   4  -1  116.62    4.09
  -4  -4   1  115.99    4.04
   3   4  -1  124.34    4.28
  -3  -4   1  122.65    4.22
   2   4  -1  120.49    4.21
   2   4  -1  125.80    4.22
   1   4  -1  115.37    4.03
   1   4  -1  117.14    4.18
   1   4  -1  123.07    4.05
   0   4  -1  294.35    9.68
   0   4  -1  292.32    9.82
  -2   4  -1   11.15    0.98
  -2   4  -1   11.36    0.76
  -3   4  -1    0.15    0.15
  -3   4  -1    0.24    0.37
  -3   4  -1    0.21    0.08
  -3   4  -1    0.02    0.11
  -3   4  -1    0.13    0.14
  -3   4  -1    0.12    0.17
  -3   4  -1    0.14    0.16
  -3   4  -1    0.12    0.09
  -3   4  -1    0.17    0.09
  -3   4  -1    0.09    0.21
  -4   4  -1    1.44    0.62
  -4   4  -1    0.90    0.29
  -4   4  -1    0.81    0.41
  -4   4  -1    0.95    0.25
  -4   4  -1    1.08    0.33
  -4   4  -1    0.94    0.28
  -4   4  -1    1.02    0.19
  -4   4  -1    1.09    0.15
  -5   4  -1    3.78    0.33
  -5   4  -1    3.17    0.43
  -5   4  -1    3.33    0.68
  -5   4  -1    3.45    0.52
  -5   4  -1    3.72    0.52
  -5   4  -1    3.81    0.26
  -5   4  -1    3.97    0.80
  -5   4  -1    3.47    0.41
  -6   4  -1   10.43    0.48
  -6   4  -1    9.88    0.55
  -6   4  -1   10.48    0.85
  -6   4  -1    9.99    0.80
  -9  -3   1    0.99    0.14
  -9  -3   1    1.09    0.23
  -9  -3   1    1.13    0.24
  -9  -3   1    1.00    0.18
  -8  -3   1   13.95    0.73
  -8  -3   1   13.68    0.59
  -8  -3   1   14.93    0.87
  -8  -3   1   14.11    0.83
  -8  -3   1   13.97    0.68
  -7  -3   1   46.87    2.02
  -7  -3   1   51.91    2.12
  -7  -3   1   46.52    1.88
  -7  -3   1   47.49    1.71
  -7  -3   1   50.11    1.84
  -6  -3   1  118.17    4.12
  -6  -3   1  124.33    4.23
  -6  -3   1  130.24    4.52
  -6  -3   1  121.07    4.46
  -5  -3   1  137.43    4.80
  -5  -3   1  141.93    4.83
  -4  -3   1   79.21    2.84
  -4  -3   1   82.25    2.85
   3   3  -1   35.61    1.37
  -3  -3   1   34.59    1.31
  -3  -3   1   34.02    1.29
   2   3  -1    4.97    0.33
   2   3  -1    5.17    0.33
  -2  -3   1    4.00    0.29
  -2  -3   1    4.89    0.29
   1   3  -1   29.18    1.08
   1   3  -1   27.36    1.06
  -1  -3   1   28.67    1.05
   0   3  -1   86.17    3.02
  -3   3  -1   36.78    1.65
  -3   3  -1   37.00    2.00
  -4   3  -1   40.67    1.54
  -4   3  -1   42.21    2.28
  -4   3  -1   37.05    1.44
  -4   3  -1   38.11    1.61
  -4   3  -1   40.84    1.84
  -4   3  -1   40.78    1.42
  -4   3  -1   36.91    2.35
  -4   3  -1   39.07    1.74
  -4   3  -1   37.13    1.72
  -4   3  -1   39.30    1.72
  -5   3  -1   27.87    1.98
  -5   3  -1   31.38    1.36
  -5   3  -1   31.65    1.29
  -5   3  -1   31.77    1.52
  -5   3  -1   30.48    2.01
  -5   3  -1   28.65    1.52
  -5   3  -1   30.10    1.58
  -5   3  -1   30.35    1.47
  -5   3  -1   30.67    1.15
  -6   3  -1   10.33    0.60
  -6   3  -1   10.20    0.81
  -6   3  -1   10.70    0.51
  -6   3  -1   10.44    0.81
  -6   3  -1   11.95    0.69
  -7   3  -1    0.04    0.11
  -7   3  -1    0.10    0.15
  -9  -2   1   23.91    0.89
  -9  -2   1   26.05    1.11
  -9  -2   1   24.46    0.96
  -8  -2   1   15.22    0.71
  -8  -2   1   12.80    0.80
  -8  -2   1   14.00    0.58
  -8  -2   1   14.44    0.90
  -7  -2   1   11.00    0.72
  -7  -2   1   12.46    0.79
  -7  -2   1   12.91    0.54
  -7  -2   1   13.01    0.70
  -7  -2   1   12.87    0.77
  -7  -2   1   13.22    0.92
  -6  -2   1   13.66    0.55
  -6  -2   1   13.53    0.81
  -6  -2   1   13.02    0.77
  -6  -2   1   12.84    0.86
  -6  -2   1   13.26    0.68
  -5  -2   1    8.27    0.47
  -5  -2   1    8.27    0.47
  -4  -2   1   29.56    1.10
  -4  -2   1   27.25    1.09
   3   2  -1  125.57    4.24
  -3  -2   1  126.84    4.34
  -3  -2   1  131.49    4.34
   2   2  -1  902.09   29.78
   2   2  -1  923.60   29.80
  -2  -2   1 1000.00   32.29
  -2  -2   1  975.36   32.28
   1   2  -1  264.17    8.47
   1   2  -1  247.05    8.46
   1   2  -1  261.95    8.44
  -1  -2   1  262.10    8.68
  -1  -2   1  268.79    8.76
   0   2  -1  194.96    6.47
  -3   2  -1    1.34    0.32
  -4   2  -1    8.52    0.52
  -4   2  -1    9.44    0.67
  -4   2  -1    9.85    0.90
  -5   2  -1   58.35    2.49
  -5   2  -1   59.82    2.45
  -5   2  -1   56.85    2.20
  -5   2  -1   61.91    3.01
  -5   2  -1   60.53    2.20
  -5   2  -1   57.26    2.34
  -5   2  -1   51.17    2.36
  -5   2  -1   59.63    2.04
  -5   2  -1   53.28    2.05
  -6   2  -1   19.01    0.81
  -6   2  -1   19.25    1.11
  -6   2  -1   18.84    1.13
  -6   2  -1   19.74    1.15
  -6   2  -1   19.70    0.95
  -6   2  -1   19.85    0.96
  -7   2  -1   13.22    0.60
  -7   2  -1   12.83    0.76
  -7   2  -1   14.44    0.86
  -7   2  -1   12.91    0.77
  -8   2  -1    6.26    0.42
  -8   2  -1    6.25    0.42
  -9  -1   1   14.79    0.74
  -9  -1   1   13.71    0.70
  -9  -1   1   14.49    0.61
  -8  -1   1   16.42    1.00
  -8  -1   1   16.12    0.91
  -8  -1   1   17.13    0.79
  -7  -1   1   15.65    0.81
  -7  -1   1   15.80    1.03
  -7  -1   1   16.22    0.94
  -7  -1   1   16.60    0.65
  -6  -1   1   19.23    1.06
  -6  -1   1   18.27    1.02
  -6  -1   1   18.15    0.85
  -5  -1   1   82.20    2.87
  -4  -1   1   36.44    1.31
  -4  -1   1   35.11    1.31
  -3  -1   1    2.64    0.19
  -3  -1   1    2.75    0.18
  -3  -1   1    2.68    0.19
   2   1  -1  115.67    3.66
   2   1  -1  104.53    3.63
  -2  -1   1  115.13    3.82
  -2  -1   1  114.87    3.82
   1   1  -1   12.04    0.49
   1   1  -1   12.35    0.49
   1   1  -1   12.61    0.49
  -1  -1   1   12.80    0.49
  -1  -1   1   11.50    0.49
  -1  -1   1   13.20    0.49
   0   1  -1   53.50    1.74
   0   1  -1   51.80    1.74
  -3   1  -1  261.84    9.09
  -4   1  -1   78.20    3.31
  -5   1  -1   29.39    1.19
  -5   1  -1   32.00    1.51
  -5   1  -1   32.87    1.31
  -5   1  -1   29.88    1.26
  -5   1  -1   32.52    1.91
  -5   1  -1   31.70    1.54
  -5   1  -1   31.77    1.16
  -5   1  -1   28.04    1.41
  -5   1  -1   31.01    1.40
  -6   1  -1    9.31    0.74
  -6   1  -1    9.91    0.49
  -6   1  -1    9.58    0.74
  -6   1  -1    9.83    0.63
  -6   1  -1    9.22    0.56
  -6   1  -1    9.44    0.71
  -6   1  -1    8.32    0.51
  -7   1  -1    9.16    0.61
  -7   1  -1    9.37    0.50
  -7   1  -1    9.50    0.66
  -7   1  -1   10.15    0.69
  -7   1  -1   10.16    0.73
  -8   1  -1    0.61    0.15
  -8   1  -1    0.57    0.24
  -9   0   1   13.33    0.56
  -9   0   1   14.50    0.68
  -8   0   1    4.52    0.53
  -8   0   1    5.29    0.41
  -8   0   1    5.50    0.48
  -7   0   1   20.75    0.95
  -7   0   1   21.65    1.17
  -7   0   1   19.88    1.15
  -6   0   1    0.95    0.26
  -6   0   1    1.40    0.29
  -6   0   1    1.03    0.19
  -1   0   1  288.82    9.11
  -1   0   1  275.43    9.12
  -1   0   1  267.72    9.11
  -1   0   1  284.43    9.13
   0   0  -1  202.94    6.70
   0   0  -1  207.94    6.71
   0   0   1  203.69    6.69
   0   0   1  206.42    6.70
   1   0   1   72.52    2.40
  -4   0  -1    1.33    0.31
  -5   0  -1   10.34    0.95
  -6   0  -1   34.50    1.56
  -6   0  -1   36.16    1.66
  -6   0  -1   33.58    1.39
  -6   0  -1   36.56    1.56
  -6   0  -1   35.96    1.34
  -6   0  -1   33.10    1.39
  -7   0  -1   26.53    1.35
  -7   0  -1   23.71    1.14
  -7   0  -1   27.27    1.34
  -7   0  -1   24.85    1.29
  -7   0  -1   26.49    1.07
  -8   0  -1   29.63    1.12
  -8   0  -1   30.25    1.32
  -8   0  -1   26.32    1.36
  -9   0  -1    2.93    0.28
  -8   1   1   18.98    0.94
  -8   1   1   15.81    0.93
  -8   1   1   17.83    0.79
  -7   1   1   33.00    1.36
  -7   1   1   32.69    1.32
  -7   1   1   33.82    1.51
  -7   1   1   32.43    1.54
  -7   1   1   35.48    1.63
  -6   1   1   52.76    1.90
  -6   1   1   50.66    1.97
  -6   1   1   53.49    2.09
  -6   1   1   49.99    2.11
  -6   1   1   53.84    2.31
  -5   1   1   25.77    1.07
  -5   1   1   24.49    1.25
  -5   1   1   23.39    1.24
  -5   1   1   21.00    1.10
  -5   1   1   23.69    0.93
  -5   1   1   24.38    1.02
  -5   1   1   23.70    1.01
  -4   1   1   59.57    2.72
  -3   1   1   13.75    0.90
   0  -1  -1   11.96    0.44
   0  -1  -1   13.08    0.45
   0   1   1   11.11    0.40
   0   1   1   11.48    0.39
   0   1   1   10.90    0.40
  -1  -1  -1  414.63   13.87
  -1  -1  -1  431.59   13.85
  -1  -1  -1  425.63   13.84
   1   1   1  435.03   13.67
   1   1   1  401.09   13.62
  -2  -1  -1  357.92   11.21
  -2  -1  -1  340.16   11.21
  -2  -1  -1  328.19   11.19
   2   1   1  298.85    9.78
  -3  -1  -1  216.51    7.17
  -3  -1  -1  209.13    7.17
  -3  -1  -1  227.85    7.16
  -4  -1  -1  228.99    8.13
  -6  -1  -1    1.89    0.29
  -6  -1  -1    1.94    0.24
  -6  -1  -1    1.85    0.35
  -6  -1  -1    1.89    0.28
  -7  -1  -1    3.47    0.42
  -7  -1  -1    4.19    0.36
  -7  -1  -1    3.38    0.54
  -7  -1  -1    4.67    0.46
  -8  -1  -1    2.25    0.34
  -8  -1  -1    2.10    0.26
  -8  -1  -1    1.95    0.30
  -8  -1  -1    2.06    0.41
  -9  -1  -1    3.55    0.25
  -9  -1  -1    4.04    0.37
  -8   2   1    3.66    0.38
  -8   2   1    4.37    0.31
  -7   2   1    0.80    0.24
  -7   2   1    0.84    0.29
  -7   2   1    0.92    0.26
  -7   2   1    1.03    0.21
  -7   2   1    0.71    0.18
  -6   2   1    2.13    0.39
  -6   2   1    2.17    0.31
  -6   2   1    1.93    0.32
  -6   2   1    1.76    0.28
  -6   2   1    1.99    0.41
  -6   2   1    1.93    0.23
  -5   2   1    2.95    0.31
  -5   2   1    3.32    0.45
  -5   2   1    2.86    0.41
  -5   2   1    3.24    0.32
  -5   2   1    3.27    0.36
  -5   2   1    3.64    0.26
  -5   2   1    2.71    0.39
  -4   2   1   12.12    1.01
  -3   2   1    7.65    0.69
   0   2   1   26.22    0.92
  -1  -2  -1    9.40    0.39
  -1  -2  -1    8.84    0.38
   1   2   1   10.33    0.45
   1   2   1   10.69    0.44
   1   2   1   10.81    0.45
  -2  -2  -1  111.68    3.69
  -2  -2  -1  109.27    3.70
   2   2   1  106.95    3.55
   2   2   1  103.95    3.54
  -3  -2  -1    2.73    0.21
  -3  -2  -1    2.59    0.21
   3   2   1    2.56    0.22
  -4  -2  -1  101.97    3.51
  -4  -2  -1  103.51    3.50
  -5  -2  -1   42.88    1.60
  -5  -2  -1   42.81    1.61
  -6  -2  -1   60.30    2.11
  -6  -2  -1   53.39    2.42
  -6  -2  -1   58.93    2.19
  -6  -2  -1   59.69    2.00
  -7  -2  -1   25.66    1.05
  -7  -2  -1   26.21    0.93
  -7  -2  -1   23.32    1.13
  -7  -2  -1   23.19    1.37
  -8  -2  -1   26.97    1.23
  -8  -2  -1   29.51    1.15
  -8  -2  -1   29.95    1.46
  -8  -2  -1   28.94    1.04
  -9  -2  -1   20.79    0.80
  -9  -2  -1   20.42    0.74
  -9  -2  -1   21.20    0.97
  -9  -2  -1   17.87    1.00
  -7   3   1   23.38    0.95
  -7   3   1   23.34    1.08
  -7   3   1   25.15    1.04
  -6   3   1   51.65    2.11
  -6   3   1   49.11    1.81
  -6   3   1   51.87    2.17
  -6   3   1   50.74    2.20
  -6   3   1   49.68    1.96
  -6   3   1   50.03    1.97
  -5   3   1   55.63    1.90
  -5   3   1   52.94    2.33
  -5   3   1   53.59    2.03
  -5   3   1   54.06    2.30
  -5   3   1   55.61    2.20
  -5   3   1   48.05    2.20
  -5   3   1   49.48    2.81
  -5   3   1   53.46    2.07
  -4   3   1   59.58    2.26
  -4   3   1   62.97    2.21
  -4   3   1   59.86    2.35
  -4   3   1   60.13    2.94
  -4   3   1   61.73    2.08
  -4   3   1   52.84    2.32
  -4   3   1   55.63    3.03
  -4   3   1   61.65    2.43
  -4   3   1   60.47    2.47
  -3   3   1    0.23    0.18
  -2   3   1    5.09    0.55
  -1  -3  -1  213.13    7.03
   1   3   1  236.65    7.62
   1   3   1  234.04    7.60
   1   3   1  220.66    7.60
  -2  -3  -1  142.18    4.89
  -2  -3  -1  150.86    4.91
   2   3   1  149.67    4.97
   2   3   1  146.13    4.97
  -3  -3  -1   61.68    2.19
  -3  -3  -1   62.94    2.20
   3   3   1   62.80    2.24
  -4  -3  -1   15.70    0.68
  -4  -3  -1   14.15    0.67
  -5  -3  -1   51.91    1.91
  -5  -3  -1   50.21    1.90
  -6  -3  -1   14.38    0.66
  -6  -3  -1   14.86    0.91
  -6  -3  -1   14.20    0.58
  -6  -3  -1   14.31    0.81
  -7  -3  -1    2.62    0.35
  -7  -3  -1    2.96    0.24
  -7  -3  -1    2.51    0.28
  -7  -3  -1    2.53    0.37
  -7  -3  -1    2.66    0.46
  -8  -3  -1    5.19    0.43
  -8  -3  -1    5.31    0.47
  -8  -3  -1    5.45    0.37
  -8  -3  -1    5.27    0.31
  -8  -3  -1    5.52    0.56
  -9  -3  -1   12.24    0.54
  -9  -3  -1   12.68    0.51
  -9  -3  -1   11.32    0.59
  -9  -3  -1   12.83    0.70
  -6   4   1    0.44    0.19
  -6   4   1    0.49    0.18
  -6   4   1    0.51    0.24
  -6   4   1    0.41    0.13
  -5   4   1   29.20    1.43
  -5   4   1   29.06    1.46
  -5   4   1   30.00    1.33
  -5   4   1   30.26    1.42
  -5   4   1   28.37    2.00
  -5   4   1   29.77    1.54
  -5   4   1   29.94    1.13
  -5   4   1   29.73    1.25
  -4   4   1   36.55    2.21
  -4   4   1   35.23    1.64
  -4   4   1   37.37    1.66
  -4   4   1   36.62    1.76
  -4   4   1   34.61    2.38
  -4   4   1   37.32    1.47
  -4   4   1   38.10    1.67
  -4   4   1   37.63    1.35
  -4   4   1   36.38    1.56
  -3   4   1   37.32    1.55
  -3   4   1   38.89    1.67
  -3   4   1   38.42    2.12
  -3   4   1   39.09    1.36
  -3   4   1   39.34    1.47
  -3   4   1   36.88    1.61
  -3   4   1   35.22    1.57
  -3   4   1   35.32    2.31
  -3   4   1   39.98    1.76
  -2   4   1   29.98    1.68
   0   4   1   94.23    3.20
   1   4   1    6.07    0.39
   1   4   1    5.39    0.34
   1   4   1    6.45    0.36
  -2  -4  -1    0.23    0.11
   2   4   1    0.19    0.12
   2   4   1    0.28    0.13
   2   4   1    0.18    0.12
  -3  -4  -1    3.30    0.29
   3   4   1    3.19    0.32
  -4  -4  -1  100.19    3.51
   4   4   1  102.09    3.63
  -5  -4  -1  112.86    3.97
  -6  -4  -1  121.66    4.06
  -6  -4  -1  111.22    3.73
  -6  -4  -1  108.13    3.78
  -6  -4  -1  110.32    4.08
  -6  -4  -1  107.95    3.68
  -6  -4  -1  108.87    3.66
  -7  -4  -1   85.04    3.13
  -7  -4  -1   82.91    3.16
  -7  -4  -1   78.84    2.78
  -7  -4  -1   80.72    2.85
  -8  -4  -1   19.91    1.06
  -8  -4  -1   21.43    0.86
  -8  -4  -1   21.59    1.07
  -8  -4  -1   20.68    0.80
  -8  -4  -1   19.64    0.91
  -9  -4  -1    2.87    0.25
  -9  -4  -1    2.93    0.24
  -9  -4  -1    2.81    0.35
  -9  -4  -1    2.59    0.30
  -9  -4  -1    3.03    0.36
  -5   5   1   15.50    0.82
  -5   5   1   14.97    0.73
  -5   5   1   15.31    0.64
  -5   5   1   15.37    0.88
  -5   5   1   14.72    0.95
  -5   5   1   14.90    1.42
  -4   5   1    8.92    1.23
  -4   5   1    9.87    0.71
  -4   5   1   10.01    0.46
  -4   5   1    9.46    0.55
  -4   5   1    8.91    1.06
  -4   5   1   10.06    0.79
  -4   5   1    9.30    0.70
  -4   5   1    9.78    0.65
  -3   5   1   10.04    1.33
  -3   5   1   10.28    0.47
  -3   5   1   10.46    0.81
  -3   5   1   10.32    0.74
  -3   5   1   10.43    0.57
  -3   5   1    9.24    0.64
  -3   5   1    9.33    0.63
  -3   5   1    9.45    1.03
  -3   5   1   10.29    0.69
  -2   5   1    1.28    0.18
  -2   5   1    0.96    0.22
  -2   5   1    1.00    0.13
  -2   5   1    1.16    0.52
  -2   5   1    1.19    0.30
  -2   5   1    1.07    0.39
  -2   5   1    1.22    0.31
  -2   5   1    0.99    0.23
  -1   5   1   14.02    0.86
  -1   5   1   13.32    1.05
   0   5   1   29.41    1.16
   1   5   1   24.00    1.01
   1   5   1   24.89    1.01
   2   5   1   89.14    3.15
   2   5   1   87.83    3.13
   2   5   1   88.92    3.18
   3   5   1   83.49    2.96
   3   5   1   79.75    2.93
  -4  -5  -1   45.11    1.78
   4   5   1   41.96    1.69
  -5  -5  -1   27.69    1.36
  -5  -5  -1   26.71    1.21
  -6  -5  -1    0.21    0.15
  -6  -5  -1    0.09    0.10
  -6  -5  -1    0.11    0.07
  -6  -5  -1    0.59    0.14
  -6  -5  -1    0.07    0.15
  -6  -5  -1    0.24    0.09
  -6  -5  -1    0.03    0.07
   6   5   1    0.09    0.09
  -7  -5  -1    1.30    0.27
  -7  -5  -1    0.90    0.29
  -7  -5  -1    0.77    0.16
  -7  -5  -1    0.99    0.16
  -7  -5  -1    0.93    0.12
  -8  -5  -1    6.73    0.59
  -8  -5  -1    7.21    0.37
  -8  -5  -1    6.62    0.40
  -8  -5  -1    7.30    0.55
  -8  -5  -1    6.99    0.46
  -9  -5  -1    6.62    0.43
  -9  -5  -1    7.19    0.55
  -9  -5  -1    7.22    0.50
  -9  -5  -1    7.22    0.38
  -9  -5  -1    6.97    0.36
  -5   6   1    5.72    0.54
  -4   6   1   39.52    2.61
  -4   6   1   41.20    1.65
  -4   6   1   37.97    1.80
  -4   6   1   41.24    1.79
  -3   6   1   69.60    2.78
  -3   6   1   70.65    2.58
  -3   6   1   67.13    2.83
  -3   6   1   65.23    3.71
  -2   6   1   79.16    3.14
  -2   6   1   78.83    4.06
  -2   6   1   81.40    2.89
  -2   6   1   74.12    3.16
  -1   6   1   40.78    1.94
  -1   6   1   40.72    2.48
  -1   6   1   42.72    1.88
   0   6   1   10.56    1.07
   0   6   1   10.72    0.80
   0   6   1   10.74    0.74
   1   6   1    2.33    0.29
   1   6   1    2.25    0.43
   1   6   1    2.20    0.29
   2   6   1   18.11    0.82
   2   6   1   14.86    1.08
   3   6   1    4.06    0.60
   3   6   1    4.80    0.42
   4   6   1   26.64    1.00
   4   6   1   28.17    1.14
   4   6   1   29.73    1.49
   4   6   1   28.93    1.28
   4   6   1   27.86    0.99
   4   6   1   28.67    1.53
  -5  -6  -1   43.62    1.55
  -5  -6  -1   44.29    1.59
  -5  -6  -1   43.81    1.52
  -5  -6  -1   44.21    1.91
   5   6   1   40.77    1.42
   5   6   1   38.71    1.44
   5   6   1   41.27    1.95
   5   6   1   45.79    2.00
  -6  -6  -1   31.97    1.20
  -6  -6  -1   32.89    1.24
  -6  -6  -1   31.75    1.17
  -6  -6  -1   33.36    1.19
  -6  -6  -1   32.48    1.56
  -6  -6  -1   34.61    1.43
  -6  -6  -1   32.40    1.15
   6   6   1   29.32    1.08
   6   6   1   30.12    1.06
  -7  -6  -1   24.76    0.94
  -7  -6  -1   25.45    1.30
  -7  -6  -1   25.37    0.88
  -7  -6  -1   24.07    0.98
  -7  -6  -1   23.49    0.90
  -7  -6  -1   24.67    1.15
   7   6   1   25.22    0.94
   7   6   1   24.46    0.91
  -8  -6  -1   35.53    1.31
  -8  -6  -1   36.99    1.36
  -8  -6  -1   37.46    1.65
  -8  -6  -1   36.47    1.52
   8   6   1   39.09    1.37
  -9  -6  -1   17.82    0.70
  -9  -6  -1   16.96    0.90
  -9  -6  -1   17.43    0.67
  -9  -6  -1   17.51    0.83
  -9  -6  -1   17.14    0.75
   9   6   1   16.63    1.02
  -4   7   1    4.27    0.47
  -3   7   1    1.12    0.65
  -3   7   1    0.90    0.34
  -3   7   1    0.84    0.31
  -3   7   1    0.59    0.28
  -2   7   1    2.19    0.71
  -2   7   1    1.99    0.44
  -2   7   1    1.95    0.42
  -1   7   1    4.55    0.92
  -1   7   1    4.30    0.65
  -1   7   1    4.18    0.51
   0   7   1   23.50    1.69
   0   7   1   22.06    1.39
   0   7   1   20.22    1.16
   0   7   1   21.85    0.82
   1   7   1   34.18    1.25
   1   7   1   32.27    1.86
   1   7   1   36.02    1.49
   1   7   1   38.69    1.71
   2   7   1   68.45    3.24
   2   7   1   74.57    2.48
   2   7   1   76.06    2.99
   3   7   1   66.71    2.85
   3   7   1   72.60    2.31
   3   7   1   68.93    2.34
   3   7   1   66.39    3.09
   3   7   1   67.06    2.31
  -4  -7  -1   10.51    0.48
  -4  -7  -1   11.78    0.54
   4   7   1    9.75    0.42
   4   7   1    9.82    0.82
   4   7   1   10.78    0.98
   4   7   1    9.77    0.43
   4   7   1    9.81    0.44
   4   7   1   11.07    0.47
  -5  -7  -1   13.57    0.57
  -5  -7  -1   12.23    0.54
  -5  -7  -1   13.08    0.60
   5   7   1   11.44    0.51
   5   7   1   12.56    1.00
   5   7   1   12.55    0.96
   5   7   1   10.77    0.48
   5   7   1   11.52    0.48
  -6  -7  -1   -0.01    0.09
  -6  -7  -1    0.07    0.14
  -6  -7  -1    0.17    0.19
  -6  -7  -1    0.05    0.10
  -6  -7  -1   -0.02    0.09
  -6  -7  -1    0.03    0.11
   6   7   1   -0.09    0.12
   6   7   1    0.14    0.11
   6   7   1    0.18    0.11
   6   7   1    0.01    0.30
  -7  -7  -1    4.06    0.27
  -7  -7  -1    3.65    0.23
  -7  -7  -1    3.58    0.24
  -7  -7  -1    3.90    0.40
  -7  -7  -1    3.65    0.29
  -7  -7  -1    3.77    0.45
   7   7   1    3.14    0.27
   7   7   1    3.50    0.26
   7   7   1    3.49    0.65
  -8  -7  -1   25.67    1.24
  -8  -7  -1   25.71    0.98
  -8  -7  -1   25.23    0.90
  -8  -7  -1   25.92    1.14
   8   7   1   26.56    0.97
   8   7   1   25.22    1.39
   8   7   1   27.06    0.95
  -9  -7  -1   15.98    0.76
  -9  -7  -1   17.47    0.66
  -9  -7  -1   16.09    0.84
  -9  -7  -1   16.72    0.72
   9   7   1   16.51    1.00
   9   7   1   17.64    0.65
  -2   8   1   23.89    1.71
  -2   8   1   20.86    1.09
  -2   8   1   20.95    1.33
  -1   8   1   32.43    1.55
  -1   8   1   37.42    2.15
  -1   8   1   35.17    1.86
   0   8   1   19.99    1.52
   0   8   1   19.85    1.40
   0   8   1   20.11    0.74
   0   8   1   17.05    1.06
   1   8   1    5.10    0.31
   1   8   1    6.06    0.61
   1   8   1    5.34    0.86
   2   8   1    0.03    0.41
   2   8   1   -0.14    0.11
   2   8   1    0.03    0.22
   3   8   1   14.17    0.98
   3   8   1   13.84    0.59
   3   8   1   13.95    1.28
  -4  -8  -1    4.43    0.29
   4   8   1    3.23    0.22
   4   8   1    3.41    0.68
   4   8   1    3.22    0.27
   4   8   1    3.11    0.25
   4   8   1    3.20    0.54
  -5  -8  -1   45.53    1.67
  -5  -8  -1   46.01    1.64
  -5  -8  -1   45.93    1.60
   5   8   1   38.71    1.37
   5   8   1   38.57    1.41
   5   8   1   40.97    2.07
   5   8   1   39.85    1.40
   5   8   1   41.09    1.95
   5   8   1   40.79    1.39
  -6  -8  -1   40.25    1.67
  -6  -8  -1   41.39    1.46
  -6  -8  -1   40.87    1.51
  -6  -8  -1   41.63    1.47
  -6  -8  -1   41.84    1.44
   6   8   1   38.20    1.30
   6   8   1   38.22    1.32
   6   8   1   38.16    1.33
   6   8   1   38.39    1.89
   6   8   1   34.99    1.74
  -7  -8  -1   16.36    0.60
  -7  -8  -1   16.45    0.62
  -7  -8  -1   16.12    0.64
  -7  -8  -1   15.28    0.81
  -7  -8  -1   15.71    0.68
   7   8   1   15.36    0.61
   7   8   1   15.35    0.60
   7   8   1   14.72    1.04
   7   8   1   14.48    0.58
  -8  -8  -1    8.99    0.38
  -8  -8  -1    8.73    0.53
  -8  -8  -1    9.29    0.43
  -8  -8  -1    8.94    0.60
   8   8   1    9.18    0.41
   8   8   1    8.69    0.42
   8   8   1    8.44    0.40
   8   8   1    8.35    0.80
  -9  -8  -1    3.09    0.27
  -9  -8  -1    3.75    0.27
   9   8   1    3.39    0.24
  -1   9   1   18.94    1.25
   0   9   1   35.13    1.24
   0   9   1   35.99    1.95
   1   9   1   26.49    1.40
   1   9   1   27.65    0.99
   1   9   1   28.73    1.77
   2   9   1   18.83    1.41
   2   9   1   18.81    0.72
   2   9   1   18.16    1.05
   3   9   1   31.57    1.15
   3   9   1   30.92    1.55
   3   9   1   32.73    1.83
   4   9   1    3.91    0.52
   4   9   1    4.02    0.28
   4   9   1    4.24    0.75
  -5  -9  -1    1.57    0.17
  -5  -9  -1    1.69    0.22
  -5  -9  -1    1.47    0.18
   5   9   1    1.10    0.12
   5   9   1    1.37    0.46
   5   9   1    1.05    0.15
   5   9   1    0.93    0.31
  -6  -9  -1    0.09    0.11
  -6  -9  -1    0.08    0.11
  -6  -9  -1    0.11    0.11
  -6  -9  -1    0.15    0.16
  -6  -9  -1    0.20    0.11
   6   9   1   -0.14    0.11
   6   9   1    0.16    0.20
   6   9   1   -0.02    0.09
   6   9   1    0.04    0.36
  -7  -9  -1    2.62    0.19
  -7  -9  -1    2.81    0.27
  -7  -9  -1    2.70    0.23
  -7  -9  -1    3.05    0.32
  -7  -9  -1    2.45    0.21
   7   9   1    2.37    0.49
   7   9   1    2.30    0.16
   7   9   1    2.75    0.23
   7   9   1    2.15    0.20
  -8  -9  -1    2.21    0.20
  -8  -9  -1    2.40    0.18
  -8  -9  -1    2.41    0.25
   8   9   1    2.49    0.20
   8   9   1    2.26    0.19
   2  10   1    0.18    0.36
   2  10   1    0.07    0.16
   2  10   1    0.19    0.10
   3  10   1    5.91    0.31
   3  10   1    7.13    0.84
   3  10   1    5.57    0.51
  -4 -10  -1   32.03    1.18
   4  10   1   20.93    1.11
   4  10   1   22.89    0.84
   4  10   1   26.19    1.37
  -5 -10  -1   14.41    0.56
  -5 -10  -1   13.93    0.59
  -5 -10  -1   13.85    0.69
   5  10   1   10.01    0.45
   5  10   1    9.56    0.67
   5  10   1   11.93    0.88
  -6 -10  -1   28.04    1.13
  -6 -10  -1   29.12    1.03
  -6 -10  -1   27.79    1.01
  -6 -10  -1   28.54    0.99
  -6 -10  -1   28.00    1.04
   6  10   1   19.21    0.97
   6  10   1   23.14    1.17
   5  10  -2    9.09    0.56
  -5 -10   2   14.40    0.58
   4  10  -2    8.70    0.36
   4  10  -2    8.71    0.57
  -4 -10   2   13.99    0.58
   3  10  -2   14.04    0.50
   3  10  -2   12.46    0.69
  -3 -10   2   21.19    0.80
  -7  -9   2   23.10    0.82
  -7  -9   2   23.71    0.84
  -7  -9   2   22.74    0.87
  -7  -9   2   22.93    0.81
   6   9  -2    5.86    0.53
  -6  -9   2    8.45    0.39
  -6  -9   2    8.13    0.42
  -6  -9   2    8.50    0.40
  -6  -9   2    8.50    0.43
   5   9  -2   13.46    0.89
   5   9  -2   13.59    0.54
   5   9  -2   14.63    0.99
  -5  -9   2   18.22    0.70
  -5  -9   2   17.99    0.73
  -5  -9   2   18.74    0.77
   4   9  -2    1.57    0.39
   4   9  -2    1.28    0.16
   4   9  -2    1.63    0.46
   3   9  -2   10.72    0.96
   3   9  -2   10.10    0.77
   3   9  -2   10.82    0.47
   2   9  -2    0.14    0.11
   2   9  -2   -0.08    0.38
   2   9  -2    0.10    0.22
   1   9  -2    2.45    0.21
   1   9  -2    2.42    0.52
   0   9  -2   10.01    0.83
   8   8  -2    0.08    0.10
   8   8  -2    0.19    0.11
   8   8  -2    0.13    0.12
  -8  -8   2   -0.06    0.11
  -8  -8   2    0.23    0.10
   7   8  -2    0.56    0.13
   7   8  -2    0.49    0.14
   7   8  -2    0.49    0.12
  -7  -8   2    0.71    0.14
  -7  -8   2    0.58    0.16
  -7  -8   2    0.58    0.12
  -7  -8   2    0.53    0.12
   6   8  -2    2.69    0.23
   6   8  -2    2.62    0.54
   6   8  -2    2.80    0.22
   6   8  -2    2.98    0.21
   6   8  -2    2.36    0.43
  -6  -8   2    3.28    0.33
  -6  -8   2    3.49    0.25
  -6  -8   2    3.55    0.27
  -6  -8   2    3.02    0.27
  -6  -8   2    3.36    0.26
   5   8  -2   17.52    0.72
   5   8  -2   19.78    0.68
   5   8  -2   19.26    1.25
   5   8  -2   18.90    0.70
   5   8  -2   16.89    1.10
  -5  -8   2   20.24    0.98
  -5  -8   2   21.78    0.89
  -5  -8   2   22.26    0.83
  -5  -8   2   22.69    0.86
   4   8  -2   43.39    1.55
   4   8  -2   42.06    2.04
   4   8  -2   46.31    2.20
  -4  -8   2   52.80    1.84
   3   8  -2   67.54    2.92
   3   8  -2   70.29    2.40
   3   8  -2   72.81    3.09
   2   8  -2   29.16    1.50
   2   8  -2   28.86    1.69
   2   8  -2   29.33    1.06
   1   8  -2   17.45    0.80
   1   8  -2   17.44    1.24
   1   8  -2   17.65    0.68
   1   8  -2   17.97    1.04
   0   8  -2    5.43    0.76
   0   8  -2    5.54    0.39
   0   8  -2    5.13    0.85
  -1   8  -2    6.65    1.07
  -1   8  -2    6.61    0.81
  -2   8  -2    0.12    0.29
  -2   8  -2    0.03    0.43
   9   7  -2    6.78    0.33
  -9  -7   2    7.09    0.34
  -9  -7   2    6.36    0.46
  -9  -7   2    6.61    0.36
   8   7  -2   18.04    0.71
   8   7  -2   18.28    0.69
  -8  -7   2   18.97    0.74
  -8  -7   2   17.87    0.94
  -8  -7   2   17.58    0.65
  -8  -7   2   16.84    0.81
   7   7  -2   43.10    1.45
   7   7  -2   39.84    1.47
   7   7  -2   43.17    1.48
  -7  -7   2   48.15    1.70
  -7  -7   2   46.58    1.59
  -7  -7   2   45.66    1.97
  -7  -7   2   47.02    1.60
  -7  -7   2   44.06    1.80
  -7  -7   2   47.84    1.63
   6   7  -2   45.13    1.51
   6   7  -2   43.40    1.53
   6   7  -2   44.94    1.54
   6   7  -2   44.02    2.06
   6   7  -2   41.03    1.98
  -6  -7   2   49.93    1.76
  -6  -7   2   50.87    1.73
  -6  -7   2   49.78    1.77
  -6  -7   2   51.12    1.82
  -6  -7   2   48.51    1.95
   5   7  -2   56.09    1.89
   5   7  -2   54.61    1.86
   5   7  -2   53.74    2.44
   5   7  -2   55.58    2.50
   5   7  -2   54.88    1.88
   5   7  -2   54.10    1.94
  -5  -7   2   60.70    2.36
  -5  -7   2   63.46    2.24
  -5  -7   2   63.33    2.19
  -5  -7   2   63.51    2.16
   4   7  -2   10.99    0.45
   4   7  -2   11.22    0.50
   4   7  -2   11.42    0.46
   4   7  -2   11.30    0.47
   4   7  -2   10.97    0.89
   4   7  -2   11.76    1.02
  -4  -7   2   12.48    0.54
   3   7  -2    1.10    0.35
   3   7  -2    1.42    0.15
   3   7  -2    1.28    0.17
   3   7  -2    1.34    0.47
   2   7  -2    2.86    0.33
   2   7  -2    3.09    0.49
   2   7  -2    2.54    0.24
   2   7  -2    2.77    0.57
   1   7  -2    8.45    0.51
   1   7  -2    8.39    0.41
   1   7  -2    9.06    0.74
   1   7  -2    8.25    0.87
   0   7  -2   29.78    1.68
   0   7  -2   33.68    1.27
   0   7  -2   30.57    1.13
   0   7  -2   31.99    2.11
  -1   7  -2   22.96    1.37
  -1   7  -2   23.20    1.24
  -1   7  -2   24.60    1.01
  -1   7  -2   26.86    1.97
  -2   7  -2   43.60    2.67
  -2   7  -2   39.24    1.78
  -2   7  -2   36.46    1.64
  -2   7  -2   37.66    1.86
  -3   7  -2    9.49    0.80
  -3   7  -2    9.35    0.83
  -3   7  -2   12.20    1.58
   9   6  -2    5.89    0.32
  -9  -6   2    5.41    0.29
  -9  -6   2    4.79    0.35
  -9  -6   2    5.02    0.34
  -9  -6   2    5.80    0.33
  -9  -6   2    5.54    0.47
   8   6  -2    1.42    0.16
   8   6  -2    1.35    0.17
  -8  -6   2    1.59    0.21
  -8  -6   2    1.44    0.25
  -8  -6   2    1.90    0.34
  -8  -6   2    1.78    0.18
   7   6  -2    3.14    0.24
   7   6  -2    3.17    0.27
  -7  -6   2    3.78    0.47
  -7  -6   2    3.58    0.37
  -7  -6   2    3.38    0.22
  -7  -6   2    3.58    0.30
  -7  -6   2    3.33    0.25
  -7  -6   2    3.30    0.27
  -7  -6   2    3.43    0.22
   6   6  -2   52.92    1.83
   6   6  -2   54.04    2.38
   6   6  -2   54.11    1.87
  -6  -6   2   58.11    2.05
  -6  -6   2   59.90    2.04
  -6  -6   2   60.07    2.14
  -6  -6   2   58.91    2.28
  -6  -6   2   59.49    2.07
  -6  -6   2   61.69    2.52
   5   6  -2   61.19    2.57
   5   6  -2   58.80    1.97
   5   6  -2   57.32    2.52
   5   6  -2   54.99    1.99
   5   6  -2   59.59    2.00
  -5  -6   2   66.36    2.47
  -5  -6   2   65.67    2.28
  -5  -6   2   65.43    2.66
  -5  -6   2   65.36    2.24
  -5  -6   2   66.44    2.33
   4   6  -2   18.80    0.74
   4   6  -2   18.94    0.72
   4   6  -2   21.95    1.24
   4   6  -2   18.99    0.70
   4   6  -2   19.27    0.73
   4   6  -2   18.33    1.17
  -4  -6   2   20.59    0.82
  -4  -6   2   21.28    0.79
   3   6  -2   44.10    1.64
   3   6  -2   42.23    1.47
   3   6  -2   42.17    1.45
   3   6  -2   43.22    1.50
   3   6  -2   44.47    1.47
   3   6  -2   39.87    2.00
   2   6  -2  116.35    3.93
   2   6  -2  106.32    4.46
   2   6  -2  119.76    3.95
   2   6  -2  127.67    4.51
   2   6  -2  122.54    4.08
   1   6  -2   52.47    1.87
   1   6  -2   52.35    1.76
   1   6  -2   45.86    2.20
   1   6  -2   52.80    2.21
   0   6  -2   40.15    1.39
   0   6  -2   37.38    1.86
   0   6  -2   39.71    2.43
   0   6  -2   41.13    1.50
  -1   6  -2    2.91    0.28
  -1   6  -2    3.11    0.86
  -1   6  -2    2.99    0.53
  -1   6  -2    2.40    0.41
  -2   6  -2    1.11    0.35
  -2   6  -2    0.08    0.35
  -2   6  -2    1.17    0.35
  -2   6  -2    0.89    0.17
  -2   6  -2    0.90    0.52
  -2   6  -2    1.54    0.72
  -3   6  -2    1.98    0.80
  -3   6  -2    2.18    0.37
  -3   6  -2    1.65    0.38
  -3   6  -2    1.55    0.27
  -3   6  -2    1.51    0.37
  -3   6  -2    1.80    0.64
  -4   6  -2    7.76    1.43
  -4   6  -2    8.33    0.78
  -4   6  -2    6.89    0.69
  -9  -5   2   26.18    0.99
  -9  -5   2   25.54    0.94
  -9  -5   2   25.67    1.19
  -9  -5   2   24.84    1.06
  -9  -5   2   26.11    1.19
  -8  -5   2   41.91    1.84
  -8  -5   2   41.69    1.55
  -8  -5   2   41.36    1.68
  -8  -5   2   41.64    1.49
   7   5  -2   33.45    1.19
  -7  -5   2   36.66    1.70
  -7  -5   2   36.11    1.32
  -7  -5   2   36.08    1.52
  -7  -5   2   35.45    1.37
  -7  -5   2   35.21    1.26
  -7  -5   2   36.22    1.23
   6   5  -2   32.01    1.17
   6   5  -2   32.16    1.14
  -6  -5   2   34.74    1.34
  -6  -5   2   36.33    1.68
  -6  -5   2   35.57    1.27
  -6  -5   2   35.25    1.24
  -6  -5   2   35.74    1.50
  -6  -5   2   35.90    1.26
  -6  -5   2   35.14    1.30
   5   5  -2   33.98    1.19
   5   5  -2   33.42    1.62
   5   5  -2   34.34    1.21
  -5  -5   2   36.92    1.30
  -5  -5   2   35.89    1.34
  -5  -5   2   37.82    1.34
  -5  -5   2   35.37    1.32
  -5  -5   2   37.69    1.38
  -5  -5   2   38.67    1.71
  -5  -5   2   39.51    1.53
   4   5  -2   21.64    1.04
   3   5  -2    1.59    0.27
   2   5  -2   29.29    1.22
   2   5  -2   29.20    1.23
   2   5  -2   30.91    1.47
   1   5  -2   96.63    3.34
   1   5  -2   94.00    3.32
   0   5  -2   85.98    3.35
   0   5  -2   89.61    3.07
  -1   5  -2   38.10    1.73
  -1   5  -2   40.40    1.46
  -1   5  -2   38.97    2.42
  -1   5  -2   41.73    1.83
  -2   5  -2   39.78    1.64
  -2   5  -2   40.85    1.83
  -2   5  -2   39.78    1.87
  -2   5  -2   40.01    1.54
  -2   5  -2   40.53    1.45
  -2   5  -2   40.49    1.49
  -2   5  -2   38.14    2.71
  -2   5  -2   40.64    2.41
  -2   5  -2   41.81    1.69
  -3   5  -2   22.35    2.15
  -3   5  -2   24.30    1.02
  -3   5  -2   21.99    1.69
  -3   5  -2   23.55    1.16
  -3   5  -2   23.41    1.32
  -3   5  -2   24.34    1.31
  -3   5  -2   24.31    0.92
  -3   5  -2   23.42    0.95
  -3   5  -2   24.68    1.17
  -4   5  -2   11.92    0.62
  -4   5  -2   11.69    1.49
  -4   5  -2   13.20    0.88
  -4   5  -2   10.69    1.16
  -4   5  -2   15.19    0.92
  -4   5  -2   12.35    0.81
  -4   5  -2   12.50    0.88
  -5   5  -2    0.46    0.31
  -5   5  -2    0.23    0.45
  -5   5  -2    0.71    0.40
  -9  -4   2    6.57    0.45
  -9  -4   2    7.21    0.52
  -9  -4   2    6.61    0.39
  -9  -4   2    6.86    0.35
  -8  -4   2    0.06    0.16
  -8  -4   2    0.26    0.18
  -8  -4   2    0.02    0.12
  -8  -4   2    0.00    0.10
  -8  -4   2    0.00    0.12
  -7  -4   2    1.42    0.30
  -7  -4   2    1.37    0.22
  -7  -4   2    1.82    0.36
  -7  -4   2    1.39    0.18
  -6  -4   2    0.37    0.08
  -6  -4   2    0.43    0.18
  -6  -4   2    0.38    0.08
  -6  -4   2    0.46    0.12
  -6  -4   2    0.34    0.14
  -6  -4   2    0.36    0.19
  -5  -4   2   74.01    2.74
   4   4  -2  319.07   10.67
  -4  -4   2  308.40   10.30
   3   4  -2  200.62    6.78
  -3  -4   2  194.44    6.57
   2   4  -2  147.79    4.93
   2   4  -2  142.02    4.93
   1   4  -2  105.36    3.56
   1   4  -2  104.51    3.56
   1   4  -2  101.17    3.79
   0   4  -2   47.99    1.93
   0   4  -2   49.96    1.77
  -2   4  -2    0.22    0.15
  -2   4  -2    0.51    0.40
  -2   4  -2    0.53    0.10
  -2   4  -2    0.15    0.12
  -2   4  -2    0.31    0.18
  -3   4  -2   24.54    1.26
  -3   4  -2   23.66    1.18
  -3   4  -2   25.54    1.72
  -3   4  -2   23.24    2.01
  -3   4  -2   25.50    1.04
  -3   4  -2   24.92    0.94
  -3   4  -2   25.63    1.34
  -3   4  -2   23.39    0.96
  -3   4  -2   23.86    1.14
  -4   4  -2   22.19    1.19
  -4   4  -2   22.51    1.27
  -4   4  -2   22.02    0.86
  -4   4  -2   21.97    0.96
  -4   4  -2   20.01    0.88
  -4   4  -2   21.94    1.10
  -4   4  -2   20.03    1.85
  -4   4  -2   22.96    1.22
  -4   4  -2   20.81    1.60
  -5   4  -2   17.00    1.02
  -5   4  -2   16.19    1.06
  -5   4  -2   16.04    0.77
  -5   4  -2   16.58    0.68
  -5   4  -2   15.27    1.35
  -5   4  -2   16.99    1.05
  -5   4  -2   17.91    1.00
  -5   4  -2   15.67    1.45
  -6   4  -2   14.29    0.59
  -6   4  -2   14.75    1.01
  -6   4  -2   13.71    0.67
  -9  -3   2    8.24    0.51
  -9  -3   2    8.74    0.55
  -9  -3   2    8.45    0.39
  -9  -3   2    8.17    0.45
  -8  -3   2   41.22    1.50
  -8  -3   2   42.12    1.60
  -8  -3   2   40.99    1.79
  -8  -3   2   44.10    1.79
  -7  -3   2   56.53    2.06
  -7  -3   2   52.83    1.91
  -7  -3   2   52.55    2.25
  -7  -3   2   57.45    2.27
  -6  -3   2   44.25    1.87
  -6  -3   2   39.57    1.46
  -6  -3   2   45.53    1.66
  -6  -3   2   44.07    1.83
  -6  -3   2   43.52    1.54
  -5  -3   2    0.80    0.18
  -4  -3   2   13.30    0.65
   3   3  -2    4.01    0.32
  -3  -3   2    3.84    0.29
   2   3  -2   36.74    1.34
   2   3  -2   34.36    1.33
  -2  -3   2   36.32    1.35
   1   3  -2   18.18    0.73
   1   3  -2   17.32    0.72
  -1  -3   2   20.38    0.80
   0   3  -2   97.06    3.32
   0   3  -2   99.74    3.45
  -1   3  -2  255.73    8.54
  -3   3  -2   60.25    2.79
  -3   3  -2   49.90    2.12
  -3   3  -2   59.30    2.58
  -3   3  -2   57.75    2.34
  -4   3  -2   35.37    1.64
  -4   3  -2   35.37    1.62
  -4   3  -2   31.95    2.20
  -4   3  -2   37.44    2.13
  -4   3  -2   35.62    1.28
  -4   3  -2   34.92    1.61
  -4   3  -2   36.64    1.71
  -4   3  -2   35.63    1.40
  -4   3  -2   34.27    1.32
  -4   3  -2   33.48    1.48
  -5   3  -2   14.46    0.61
  -5   3  -2   13.76    0.98
  -5   3  -2   13.63    0.98
  -5   3  -2   14.80    0.82
  -5   3  -2   15.31    1.33
  -5   3  -2   12.28    0.62
  -5   3  -2   14.06    0.72
  -5   3  -2   12.99    1.28
  -5   3  -2   13.29    0.89
  -6   3  -2    0.10    0.11
  -6   3  -2   -0.01    0.22
  -6   3  -2    0.17    0.10
  -6   3  -2    0.58    0.38
  -7   3  -2    5.66    0.32
  -7   3  -2    5.47    0.39
  -7   3  -2    7.14    0.62
  -9  -2   2   12.37    0.56
  -9  -2   2   11.95    0.49
  -9  -2   2   11.76    0.64
  -8  -2   2    0.64    0.12
  -8  -2   2    0.76    0.25
  -8  -2   2    0.61    0.21
  -8  -2   2    0.65    0.21
  -8  -2   2    0.47    0.19
  -7  -2   2    4.25    0.52
  -7  -2   2    4.18    0.28
  -7  -2   2    4.84    0.49
  -7  -2   2    4.06    0.44
  -7  -2   2    4.26    0.44
  -6  -2   2   23.85    0.90
  -6  -2   2   23.38    1.07
  -6  -2   2   24.51    1.22
  -6  -2   2   22.77    1.19
  -6  -2   2   24.81    1.19
  -5  -2   2   29.59    1.22
  -5  -2   2   30.53    1.21
  -4  -2   2   95.34    3.31
  -4  -2   2   96.83    3.31
   3   2  -2   34.68    1.30
  -3  -2   2   33.23    1.22
  -3  -2   2   32.62    1.23
   2   2  -2  514.29   16.74
   2   2  -2  509.81   16.72
  -2  -2   2  539.29   17.64
  -2  -2   2  535.14   17.57
   1   2  -2  155.79    5.16
   1   2  -2  157.62    5.14
   1   2  -2  153.79    5.15
  -1  -2   2  177.42    5.91
  -1  -2   2  181.79    5.93
   0   2  -2    0.54    0.08
   0   2  -2    0.51    0.09
   0   2  -2    0.58    0.13
   0   2  -2    0.51    0.08
  -1   2  -2   29.44    1.12
  -3   2  -2   20.91    1.30
  -4   2  -2   47.36    2.32
  -4   2  -2   45.05    1.92
  -4   2  -2   43.52    1.56
  -4   2  -2   45.42    1.88
  -4   2  -2   41.89    1.80
  -4   2  -2   42.41    1.71
  -4   2  -2   45.87    1.67
  -4   2  -2   38.43    1.83
  -4   2  -2   42.84    1.82
  -5   2  -2   26.93    1.44
  -5   2  -2   27.67    1.80
  -5   2  -2   26.81    1.33
  -5   2  -2   26.72    1.37
  -5   2  -2   27.52    1.02
  -5   2  -2   27.33    1.15
  -5   2  -2   25.24    1.06
  -5   2  -2   26.22    1.18
  -5   2  -2   22.78    1.35
  -6   2  -2   29.79    1.13
  -6   2  -2   30.20    1.32
  -6   2  -2   29.35    1.27
  -6   2  -2   29.66    1.49
  -6   2  -2   27.69    1.18
  -6   2  -2   29.79    1.54
  -6   2  -2   28.77    1.52
  -7   2  -2   10.16    0.49
  -7   2  -2    9.84    0.61
  -7   2  -2   10.83    0.78
  -9  -1   2    9.28    0.45
  -9  -1   2    8.35    0.52
  -9  -1   2    9.38    0.53
  -8  -1   2   32.63    1.18
  -8  -1   2   33.43    1.53
  -8  -1   2   34.37    1.36
  -8  -1   2   32.71    1.50
  -7  -1   2   13.30    0.90
  -7  -1   2   14.36    0.59
  -7  -1   2   15.44    0.92
  -7  -1   2   13.88    0.78
  -6  -1   2   51.63    2.11
  -6  -1   2   48.47    1.78
  -6  -1   2   50.48    1.95
  -6  -1   2   55.11    2.22
  -5  -1   2   54.02    2.00
  -5  -1   2   55.86    2.00
  -4  -1   2   31.85    1.19
  -4  -1   2   31.33    1.18
   3   1  -2    2.03    0.22
  -3  -1   2    2.06    0.18
  -3  -1   2    2.35    0.18
   2   1  -2   19.16    0.69
   2   1  -2   17.44    0.67
  -2  -1   2   20.34    0.73
  -2  -1   2   19.17    0.73
  -2  -1   2   18.68    0.72
   1   1  -2  430.35   13.69
   1   1  -2  406.67   13.69
  -1  -1   2  480.40   15.77
  -1  -1   2  490.92   15.78
  -1  -1   2  475.39   15.78
   0   1  -2  161.80    5.45
   0   1  -2  161.49    5.44
   0   1  -2  173.19    5.43
   0  -1   2  190.88    6.26
  -1   1  -2  198.78    6.57
  -3   1  -2  196.27    7.01
  -4   1  -2   21.29    1.32
  -5   1  -2    3.17    0.58
  -5   1  -2    3.08    0.38
  -5   1  -2    2.88    0.36
  -5   1  -2    3.47    0.32
  -5   1  -2    2.86    0.42
  -5   1  -2    3.24    0.30
  -5   1  -2    2.85    0.26
  -5   1  -2    3.17    0.44
  -5   1  -2    2.96    0.23
  -6   1  -2    1.42    0.26
  -6   1  -2    1.37    0.44
  -6   1  -2    1.09    0.30
  -6   1  -2    1.55    0.20
  -6   1  -2    1.43    0.28
  -6   1  -2    1.34    0.23
  -6   1  -2    1.66    0.39
  -7   1  -2    5.55    0.54
  -7   1  -2    4.68    0.41
  -7   1  -2    5.02    0.47
  -7   1  -2    5.34    0.52
  -7   1  -2    5.23    0.35
  -8   1  -2    5.30    0.32
  -8   1  -2    5.21    0.44
  -8   1  -2    5.01    0.43
  -9   0   2    0.32    0.14
  -9   0   2    0.11    0.16
  -9   0   2    0.18    0.12
  -8   0   2    0.34    0.23
  -8   0   2    0.09    0.15
  -8   0   2    0.25    0.19
  -7   0   2    2.63    0.40
  -7   0   2    2.24    0.39
  -7   0   2    2.29    0.33
  -6   0   2   19.88    1.14
  -6   0   2   19.30    1.00
  -6   0   2   19.63    0.88
  -2   0   2  110.84    3.86
  -2   0   2  119.17    3.85
  -2   0   2  120.17    3.87
   1   0  -2  123.92    4.17
   1   0  -2  130.43    4.18
  -1   0   2  147.12    4.74
  -1   0   2  145.89    4.74
  -1   0   2  140.68    4.74
   0   0  -2   38.51    1.34
   0   0  -2   40.92    1.34
   0   0   2   41.21    1.37
   0   0   2   40.37    1.37
  -1   0  -2   44.47    1.49
  -4   0  -2  121.82    4.65
  -5   0  -2  104.87    4.35
  -6   0  -2   48.83    1.94
  -6   0  -2   47.67    1.71
  -6   0  -2   45.91    1.79
  -6   0  -2   45.84    1.81
  -6   0  -2   47.52    2.04
  -6   0  -2   46.01    1.99
  -7   0  -2   49.74    2.02
  -7   0  -2   46.26    1.90
  -7   0  -2   48.82    2.07
  -7   0  -2   49.61    2.09
  -7   0  -2   49.38    1.79
  -8   0  -2    5.42    0.51
  -8   0  -2    5.61    0.33
  -8   0  -2    4.59    0.44
  -8   1   2   31.36    1.30
  -8   1   2   36.44    1.49
  -8   1   2   31.51    1.44
  -7   1   2   48.88    2.12
  -7   1   2   47.35    1.81
  -7   1   2   47.06    1.81
  -7   1   2   47.27    1.99
  -6   1   2   42.41    1.82
  -6   1   2   43.09    1.69
  -6   1   2   43.29    1.78
  -6   1   2   43.65    1.63
  -6   1   2   44.70    2.00
  -5   1   2    2.04    0.23
  -5   1   2    2.12    0.35
  -5   1   2    2.07    0.28
  -5   1   2    2.13    0.25
  -5   1   2    2.39    0.21
  -5   1   2    1.99    0.22
  -3   1   2    1.25    0.29
   0  -1  -2  307.43   10.23
   0  -1  -2  318.73   10.25
   0   1   2  323.78   10.45
   0   1   2  316.26   10.47
  -1  -1  -2  220.32    7.47
  -1  -1  -2  232.92    7.50
  -1  -1  -2  231.71    7.50
   1   1   2  227.26    7.31
   1   1   2  219.66    7.31
  -2  -1  -2   28.55    1.00
  -2  -1  -2   30.28    1.00
  -2  -1  -2   26.43    1.02
   2   1   2   25.07    0.91
  -3  -1  -2   42.18    1.42
  -3  -1  -2   39.54    1.43
  -4  -1  -2    0.43    0.22
  -6  -1  -2    2.07    0.23
  -6  -1  -2    2.38    0.40
  -6  -1  -2    2.03    0.29
  -6  -1  -2    1.75    0.29
  -7  -1  -2   17.43    0.90
  -7  -1  -2   18.79    1.09
  -7  -1  -2   18.17    0.79
  -7  -1  -2   16.90    0.97
  -8  -1  -2   11.91    0.70
  -8  -1  -2   13.07    0.83
  -8  -1  -2   12.68    0.74
  -8  -1  -2   13.16    0.60
  -9  -1  -2    8.56    0.50
  -9  -1  -2    8.25    0.38
  -8   2   2    0.54    0.20
  -8   2   2    0.42    0.18
  -8   2   2    0.25    0.15
  -7   2   2   14.05    0.90
  -7   2   2   13.50    0.79
  -7   2   2   13.21    0.67
  -7   2   2   13.26    0.66
  -6   2   2   20.40    1.22
  -6   2   2   20.20    1.00
  -6   2   2   19.94    0.86
  -6   2   2   20.99    0.96
  -6   2   2   20.44    1.10
  -5   2   2   31.39    1.16
  -5   2   2   27.97    1.38
  -5   2   2   30.34    1.36
  -5   2   2   29.84    1.49
  -5   2   2   30.00    1.28
  -5   2   2   31.41    1.29
  -5   2   2   30.95    1.30
  -5   2   2   31.30    1.53
  -4   2   2   35.62    1.99
  -3   2   2  217.91    7.81
   0   2   2    0.29    0.07
   0   2   2    0.17    0.05
  -1  -2  -2   32.97    1.15
  -1  -2  -2   31.43    1.15
   1   2   2   34.21    1.24
   1   2   2   35.57    1.24
  -2  -2  -2  100.88    3.43
  -2  -2  -2  103.97    3.44
   2   2   2   99.72    3.21
   2   2   2   89.35    3.18
  -3  -2  -2   65.12    2.28
  -3  -2  -2   66.91    2.27
   3   2   2   55.73    1.95
  -4  -2  -2  162.83    5.36
  -4  -2  -2  156.85    5.36
  -5  -2  -2  171.57    5.85
  -5  -2  -2  176.32    5.86
  -6  -2  -2   93.95    3.27
  -6  -2  -2   90.26    3.07
  -6  -2  -2   90.83    3.17
  -6  -2  -2   91.23    3.53
  -7  -2  -2   20.39    1.00
  -7  -2  -2   22.25    0.81
  -7  -2  -2   21.22    0.91
  -7  -2  -2   20.67    1.23
  -8  -2  -2   16.27    0.96
  -8  -2  -2   15.66    0.69
  -8  -2  -2   14.71    0.79
  -8  -2  -2   15.15    0.61
  -9  -2  -2    0.53    0.13
  -9  -2  -2    0.49    0.20
  -9  -2  -2    0.57    0.18
  -7   3   2   19.44    1.06
  -7   3   2   21.46    0.89
  -7   3   2   20.72    0.84
  -7   3   2   19.07    0.95
  -6   3   2   17.81    1.03
  -6   3   2   18.08    0.76
  -6   3   2   18.46    0.97
  -6   3   2   17.79    0.88
  -6   3   2   17.78    1.08
  -6   3   2   17.30    0.87
  -5   3   2   12.46    0.88
  -5   3   2   11.53    0.81
  -5   3   2   11.62    1.22
  -5   3   2   12.83    0.88
  -5   3   2   12.18    0.70
  -5   3   2   12.72    0.57
  -5   3   2   12.57    0.77
  -5   3   2   13.66    0.70
  -4   3   2    0.11    0.11
  -4   3   2    0.15    0.25
  -4   3   2    0.16    0.13
  -4   3   2    0.29    0.18
  -4   3   2    0.12    0.07
  -4   3   2    0.21    0.23
  -4   3   2    0.06    0.08
  -4   3   2    0.18    0.12
  -4   3   2    0.18    0.15
  -4   3   2    0.29    0.17
  -3   3   2   28.13    1.61
  -2   3   2   26.21    1.38
   0   3   2   15.65    0.60
   0   3   2   15.57    0.62
  -1  -3  -2   25.00    0.97
  -1  -3  -2   28.53    1.00
   1   3   2   31.45    1.13
   1   3   2   30.95    1.13
   1   3   2   30.43    1.14
  -2  -3  -2   99.18    3.38
  -2  -3  -2  100.30    3.39
   2   3   2  104.78    3.54
   2   3   2  102.65    3.52
  -3  -3  -2  133.17    4.54
  -3  -3  -2  135.60    4.53
   3   3   2  130.27    4.42
  -4  -3  -2   13.19    0.63
  -4  -3  -2   13.84    0.63
  -5  -3  -2    9.00    0.51
  -5  -3  -2    9.35    0.52
  -6  -3  -2    7.57    0.57
  -6  -3  -2    8.20    0.63
  -6  -3  -2    7.61    0.37
  -6  -3  -2    7.47    0.43
  -7  -3  -2   28.96    1.36
  -7  -3  -2   28.32    1.25
  -7  -3  -2   29.09    1.16
  -7  -3  -2   29.56    1.08
  -7  -3  -2   31.54    1.50
  -8  -3  -2   32.01    1.47
  -8  -3  -2   29.75    1.18
  -8  -3  -2   31.17    1.38
  -8  -3  -2   30.81    1.12
  -8  -3  -2   30.09    1.28
  -9  -3  -2   24.12    0.93
  -9  -3  -2   25.46    0.90
  -9  -3  -2   25.41    1.11
  -9  -3  -2   24.80    1.01
  -6   4   2   26.11    1.23
  -6   4   2   25.62    1.13
  -6   4   2   28.31    1.17
  -6   4   2   27.19    1.03
  -5   4   2   71.99    3.69
  -5   4   2   73.77    2.98
  -5   4   2   74.67    2.97
  -5   4   2   77.29    2.93
  -5   4   2   76.85    3.07
  -5   4   2   77.83    2.84
  -5   4   2   74.05    2.75
  -5   4   2   76.86    2.62
  -4   4   2   65.62    2.56
  -4   4   2   69.11    2.78
  -4   4   2   70.20    2.47
  -4   4   2   62.48    3.44
  -4   4   2   65.36    2.65
  -4   4   2   65.67    3.32
  -4   4   2   66.75    2.67
  -4   4   2   69.79    2.67
  -4   4   2   68.64    2.33
  -3   4   2   78.37    2.88
  -3   4   2   79.57    3.06
  -3   4   2   75.78    2.86
  -3   4   2   72.52    3.75
  -3   4   2   80.87    2.66
  -3   4   2   82.15    2.78
  -3   4   2   82.17    3.00
  -3   4   2   74.80    2.91
  -3   4   2   75.08    3.46
  -3   4   2   76.29    2.92
  -2   4   2   46.18    2.21
  -1   4   2   21.75    1.56
   0   4   2    6.72    0.37
   0   4   2    7.14    0.35
   1   4   2    4.33    0.29
   1   4   2    4.07    0.29
  -2  -4  -2  104.14    3.57
   2   4   2  101.60    3.43
   2   4   2   96.85    3.45
   2   4   2  102.17    3.46
  -3  -4  -2  213.23    7.14
   3   4   2  200.61    6.74
  -4  -4  -2   64.78    2.36
  -5  -4  -2   28.39    1.20
  -6  -4  -2   48.70    1.71
  -6  -4  -2   46.83    1.66
  -6  -4  -2   53.36    2.01
  -6  -4  -2   48.17    1.64
  -6  -4  -2   46.50    1.75
  -6  -4  -2   50.08    2.04
  -7  -4  -2   25.43    0.96
  -7  -4  -2   24.73    1.24
  -7  -4  -2   26.82    1.25
  -7  -4  -2   24.56    1.01
  -8  -4  -2    7.40    0.56
  -8  -4  -2    6.38    0.39
  -8  -4  -2    6.38    0.45
  -8  -4  -2    6.53    0.54
  -8  -4  -2    6.86    0.36
  -9  -4  -2    0.22    0.16
  -9  -4  -2    0.22    0.18
  -9  -4  -2    0.35    0.12
  -9  -4  -2    0.32    0.18
  -9  -4  -2    0.20    0.11
  -6   5   2    6.87    0.52
  -5   5   2    1.06    0.26
  -5   5   2    1.15    0.17
  -5   5   2    1.21    0.32
  -5   5   2    1.09    0.28
  -5   5   2    1.26    0.55
  -5   5   2    1.01    0.20
  -4   5   2    0.39    0.23
  -4   5   2    0.14    0.15
  -4   5   2    0.45    0.12
  -4   5   2    0.36    0.20
  -4   5   2    0.23    0.39
  -4   5   2    0.44    0.20
  -4   5   2    0.33    0.13
  -3   5   2    5.07    0.38
  -3   5   2    4.60    0.47
  -3   5   2    4.62    0.96
  -3   5   2    4.78    0.29
  -3   5   2    5.10    0.45
  -3   5   2    4.85    0.56
  -3   5   2    4.80    0.50
  -2   5   2   14.07    0.85
  -2   5   2   12.41    0.53
  -2   5   2   12.87    0.86
  -2   5   2   13.33    0.63
  -2   5   2   11.19    1.23
  -2   5   2   12.75    0.74
  -2   5   2   11.67    0.67
  -1   5   2   93.36    3.53
   0   5   2  165.49    5.57
   1   5   2  111.54    3.78
   1   5   2  107.48    3.77
   2   5   2    7.21    0.44
   2   5   2    7.20    0.45
   2   5   2    7.39    0.45
   3   5   2   19.51    0.89
  -4  -5  -2   13.76    0.72
   4   5   2   13.57    0.73
  -5  -5  -2    0.31    0.19
  -5  -5  -2    0.16    0.13
  -6  -5  -2   20.93    0.99
  -6  -5  -2   19.67    0.75
  -6  -5  -2   20.08    0.74
  -6  -5  -2   20.45    0.79
  -6  -5  -2   20.95    1.10
  -6  -5  -2   18.96    0.80
  -6  -5  -2   19.37    0.72
  -7  -5  -2   34.05    1.22
  -7  -5  -2   33.99    1.57
  -7  -5  -2   31.89    1.15
  -7  -5  -2   34.82    1.47
  -7  -5  -2   31.57    1.24
  -8  -5  -2   46.13    1.76
  -8  -5  -2   50.97    2.08
  -8  -5  -2   50.22    1.74
  -8  -5  -2   49.40    1.86
  -8  -5  -2   51.12    2.00
  -9  -5  -2   25.86    0.93
  -9  -5  -2   25.10    1.02
  -9  -5  -2   24.75    0.94
  -9  -5  -2   25.19    1.16
  -9  -5  -2   25.01    1.10
  -5   6   2   19.66    0.94
  -5   6   2   19.34    0.97
  -4   6   2   34.47    1.66
  -4   6   2   35.26    2.43
  -4   6   2   36.06    1.62
  -4   6   2   37.01    1.51
  -3   6   2   40.47    1.91
  -3   6   2   39.68    2.66
  -3   6   2   41.68    1.87
  -3   6   2   40.97    1.68
  -2   6   2   34.65    1.64
  -2   6   2   31.95    1.65
  -2   6   2   32.32    1.38
  -2   6   2   32.33    2.32
  -1   6   2    2.02    0.43
  -1   6   2    1.86    0.39
  -1   6   2    1.87    0.60
   0   6   2    0.19    0.18
   0   6   2    0.35    0.21
   0   6   2    0.25    0.28
   0   6   2    0.26    0.12
   1   6   2    0.33    0.23
   1   6   2   -0.03    0.13
   1   6   2   -0.05    0.13
   2   6   2    0.12    0.16
   2   6   2    0.22    0.25
   3   6   2   19.96    0.94
   3   6   2   18.80    1.27
   4   6   2  107.86    3.59
   4   6   2  103.11    3.61
   4   6   2  108.28    3.89
   4   6   2  107.40    4.21
   4   6   2  116.24    4.18
  -5  -6  -2   26.50    0.99
  -5  -6  -2   27.39    1.33
  -5  -6  -2   26.77    0.96
  -5  -6  -2   26.55    1.02
   5   6   2   26.63    1.37
   5   6   2   23.95    0.91
   5   6   2   24.38    0.89
  -6  -6  -2   62.94    2.19
  -6  -6  -2   63.60    2.26
  -6  -6  -2   65.63    2.46
  -6  -6  -2   66.29    2.64
  -6  -6  -2   63.70    2.17
  -6  -6  -2   64.48    2.21
  -6  -6  -2   64.35    2.22
   6   6   2   59.52    2.05
   6   6   2   59.33    2.02
  -7  -6  -2    8.39    0.44
  -7  -6  -2    8.19    0.39
  -7  -6  -2    8.78    0.43
  -7  -6  -2    8.08    0.66
  -7  -6  -2    8.35    0.36
  -7  -6  -2    8.49    0.58
   7   6   2    8.28    0.43
   7   6   2    8.28    0.39
  -8  -6  -2    5.47    0.52
  -8  -6  -2    5.54    0.45
  -8  -6  -2    5.67    0.32
  -8  -6  -2    5.84    0.35
   8   6   2    6.76    0.36
  -9  -6  -2    0.51    0.13
  -9  -6  -2    0.51    0.18
  -9  -6  -2    0.26    0.16
  -9  -6  -2    0.55    0.22
  -9  -6  -2    0.39    0.12
  -4   7   2    1.93    0.36
  -3   7   2   17.99    1.13
  -3   7   2   19.50    1.09
  -3   7   2   21.35    1.84
  -3   7   2   18.99    0.89
  -2   7   2   38.21    1.91
  -2   7   2   42.91    2.58
  -2   7   2   38.67    1.84
  -1   7   2   31.92    2.13
  -1   7   2   28.43    1.50
  -1   7   2   28.89    1.63
   0   7   2   57.77    2.45
   0   7   2   60.57    3.05
   0   7   2   56.36    2.64
   0   7   2   57.04    1.98
   1   7   2   86.34    3.83
   1   7   2   83.01    3.73
   1   7   2   99.45    3.53
   1   7   2   87.83    2.99
   2   7   2   45.61    1.55
   2   7   2   45.45    2.00
   2   7   2   41.19    2.33
   3   7   2    6.83    0.33
   3   7   2    6.65    0.34
   3   7   2    6.72    0.35
   3   7   2    6.04    0.86
   3   7   2    6.35    0.64
  -4  -7  -2    1.01    0.17
  -4  -7  -2    1.00    0.14
   4   7   2    0.87    0.12
   4   7   2    0.95    0.33
   4   7   2    1.10    0.42
   4   7   2    0.92    0.14
   4   7   2    0.74    0.14
   4   7   2    0.77    0.12
  -5  -7  -2   15.35    0.62
  -5  -7  -2   15.84    0.68
  -5  -7  -2   15.19    0.65
   5   7   2   13.85    0.56
   5   7   2   14.56    1.03
   5   7   2   13.85    0.58
   5   7   2   14.97    1.08
   5   7   2   13.52    0.57
  -6  -7  -2   13.58    0.88
  -6  -7  -2   13.80    0.55
  -6  -7  -2   14.42    0.79
  -6  -7  -2   13.78    0.59
  -6  -7  -2   13.17    0.57
  -6  -7  -2   13.54    0.61
   6   7   2   12.14    0.54
   6   7   2   13.40    0.52
   6   7   2   12.10    0.59
   6   7   2   12.91    1.03
  -7  -7  -2    7.74    0.55
  -7  -7  -2    6.45    0.31
  -7  -7  -2    6.45    0.35
  -7  -7  -2    6.56    0.59
  -7  -7  -2    6.82    0.39
  -7  -7  -2    6.84    0.32
   7   7   2    6.82    0.77
   7   7   2    6.68    0.36
   7   7   2    6.60    0.34
  -8  -7  -2   15.49    0.80
  -8  -7  -2   15.84    0.89
  -8  -7  -2   16.36    0.66
  -8  -7  -2   15.31    0.57
  -8  -7  -2   14.29    0.62
   8   7   2   15.83    1.06
   8   7   2   16.48    0.62
   8   7   2   15.40    0.64
  -9  -7  -2   11.01    0.52
  -9  -7  -2    9.56    0.43
  -9  -7  -2    9.48    0.62
  -9  -7  -2    9.39    0.54
  -9  -7  -2    9.13    0.41
   9   7   2    9.87    0.78
   9   7   2   11.25    0.46
  -2   8   2   14.90    1.39
  -2   8   2   11.95    0.80
  -2   8   2   12.83    1.03
  -1   8   2   11.17    0.99
  -1   8   2    9.75    0.72
  -1   8   2   10.89    1.17
   0   8   2    0.10    0.35
   0   8   2    0.07    0.17
   0   8   2    0.14    0.09
   0   8   2    0.20    0.36
   1   8   2    7.18    0.37
   1   8   2    6.87    1.00
   1   8   2    7.92    0.71
   2   8   2   47.05    2.66
   2   8   2   52.67    1.79
   2   8   2   53.35    2.29
   3   8   2   19.81    1.22
   3   8   2   20.63    1.61
   3   8   2   20.31    0.79
  -4  -8  -2   50.33    1.75
   4   8   2   47.79    1.58
   4   8   2   47.21    2.37
   4   8   2   44.90    1.62
   4   8   2   44.46    1.59
   4   8   2   45.46    2.14
  -5  -8  -2   29.29    1.15
  -5  -8  -2   30.34    1.12
  -5  -8  -2   30.50    1.09
   5   8   2   26.56    0.97
   5   8   2   26.61    1.01
   5   8   2   28.06    1.62
   5   8   2   27.57    1.50
   5   8   2   28.08    1.01
   5   8   2   28.40    1.00
  -6  -8  -2   23.74    0.90
  -6  -8  -2   24.07    0.94
  -6  -8  -2   23.47    0.87
  -6  -8  -2   22.97    1.10
  -6  -8  -2   24.17    0.91
   6   8   2   22.20    0.83
   6   8   2   19.94    1.19
   6   8   2   21.98    0.80
   6   8   2   22.68    0.82
   6   8   2   22.16    1.34
  -7  -8  -2   15.49    0.58
  -7  -8  -2   14.73    0.79
  -7  -8  -2   13.48    1.18
  -7  -8  -2   15.68    0.61
  -7  -8  -2   15.26    0.65
  -7  -8  -2   15.71    0.59
   7   8   2   14.33    0.57
   7   8   2   14.45    1.03
   7   8   2   14.34    0.59
   7   8   2   15.14    0.60
  -8  -8  -2    0.91    0.12
  -8  -8  -2    1.06    0.15
  -8  -8  -2    0.90    0.24
  -8  -8  -2    1.12    0.23
   8   8   2    0.71    0.13
   8   8   2    0.75    0.16
   8   8   2    0.86    0.38
   8   8   2    0.79    0.16
  -9  -8  -2    1.91    0.24
  -9  -8  -2    2.27    0.25
   9   8   2    2.25    0.25
   9   8   2    1.56    0.15
  -1   9   2   28.92    1.34
  -1   9   2   32.61    1.72
   0   9   2   25.67    1.69
   0   9   2   24.88    0.91
   1   9   2   17.04    0.67
   1   9   2   17.85    1.00
   1   9   2   17.71    1.46
   2   9   2   18.81    1.48
   2   9   2   17.65    1.03
   2   9   2   18.76    0.71
   3   9   2    5.96    0.61
   3   9   2    6.60    0.94
   3   9   2    5.97    0.34
  -4  -9  -2    3.18    0.32
   4   9   2    2.22    0.23
   4   9   2    2.10    0.45
   4   9   2    2.66    0.59
  -5  -9  -2    0.85    0.14
  -5  -9  -2    0.79    0.16
  -5  -9  -2    0.53    0.15
   5   9   2    0.85    0.42
   5   9   2    0.31    0.11
   5   9   2    0.38    0.13
   5   9   2    0.40    0.26
  -6  -9  -2   13.18    0.56
  -6  -9  -2   14.31    0.58
  -6  -9  -2   13.68    0.55
  -6  -9  -2   13.21    0.72
  -6  -9  -2   13.43    0.58
   6   9   2   12.57    0.50
   6   9   2   12.09    0.47
   6   9   2   10.01    0.76
   6   9   2   12.50    1.02
  -7  -9  -2   30.95    1.06
  -7  -9  -2   31.13    1.08
  -7  -9  -2   30.64    1.09
  -7  -9  -2   30.70    1.12
  -7  -9  -2   29.21    1.25
   7   9   2   28.37    1.50
   7   9   2   29.80    1.03
   7   9   2   27.65    0.99
   7   9   2   28.52    1.01
  -8  -9  -2   13.56    0.49
  -8  -9  -2   12.42    0.62
   8   9   2   12.57    0.84
   8   9   2   13.13    0.51
   8   9   2   12.89    0.48
   8   9   2   12.66    0.49
   1  10   2    6.88    0.32
   1  10   2    8.83    0.85
   2  10   2   10.49    1.00
   2  10   2    8.73    0.61
   2  10   2    9.78    0.41
   3  10   2   30.40    1.46
   3  10   2   34.06    1.19
   3  10   2   38.41    1.81
  -4 -10  -2   57.51    2.00
   4  10   2   41.06    1.84
   4  10   2   44.06    1.54
   4  10   2   49.20    2.10
  -5 -10  -2   20.52    0.74
  -5 -10  -2   17.84    0.78
  -5 -10  -2   20.08    0.90
  -5 -10  -2   19.99    0.77
   5  10   2   14.62    0.86
   5  10   2   17.23    1.09
   5  10   2   15.11    0.63
  -6 -10  -2    2.78    0.30
  -6 -10  -2    2.95    0.25
  -6 -10  -2    2.47    0.22
  -6 -10  -2    2.88    0.24
  -6 -10  -2    3.22    0.23
   6  10   2    1.78    0.33
   6  10   2    2.45    0.48
  -7 -10  -2    1.49    0.12
  -7 -10  -2    1.27    0.13
  -7 -10  -2    1.73    0.22
  -7 -10  -2    1.38    0.14
  -7  -9   3   13.23    0.52
  -7  -9   3   12.96    0.55
  -7  -9   3   13.28    0.49
  -7  -9   3   13.99    0.51
   6   9  -3    4.66    0.46
  -6  -9   3    7.11    0.35
  -6  -9   3    7.20    0.34
  -6  -9   3    6.69    0.36
  -6  -9   3    7.19    0.38
   5   9  -3    2.94    0.31
   5   9  -3    3.28    0.46
  -5  -9   3    5.19    0.32
  -5  -9   3    4.78    0.31
  -5  -9   3    4.84    0.33
   4   9  -3    0.12    0.11
   4   9  -3    0.06    0.21
  -4  -9   3   -0.07    0.12
   3   9  -3    0.95    0.40
   3   9  -3    0.89    0.30
   3   9  -3    0.89    0.15
   2   9  -3   22.99    1.17
   2   9  -3   24.73    1.35
   2   9  -3   24.70    0.88
   1   9  -3   16.52    1.04
   1   9  -3   15.78    0.60
   8   8  -3    6.05    0.32
   8   8  -3    5.99    0.29
   8   8  -3    6.06    0.27
  -8  -8   3    5.72    0.32
  -8  -8   3    6.19    0.28
   7   8  -3   12.52    0.51
   7   8  -3   12.72    0.49
   7   8  -3   12.87    0.53
  -7  -8   3   14.65    0.62
  -7  -8   3   13.67    0.54
  -7  -8   3   14.06    0.58
  -7  -8   3   13.89    0.55
   6   8  -3   16.32    1.01
   6   8  -3   18.96    0.67
   6   8  -3   18.63    0.69
  -6  -8   3   22.05    0.79
  -6  -8   3   21.36    0.82
  -6  -8   3   20.33    0.85
  -6  -8   3   20.81    0.81
   5   8  -3   31.78    1.16
   5   8  -3   30.21    1.57
   5   8  -3   34.63    1.14
  -5  -8   3   40.56    1.50
  -5  -8   3   41.02    1.44
  -5  -8   3   40.49    1.47
   4   8  -3   57.56    2.53
   4   8  -3   58.44    2.03
   4   8  -3   60.98    2.62
  -4  -8   3   75.83    2.59
   3   8  -3   27.06    1.45
   3   8  -3   27.14    1.55
   3   8  -3   26.46    0.99
   2   8  -3   13.34    0.55
   2   8  -3   12.83    0.91
   2   8  -3   13.55    1.08
   1   8  -3    1.66    0.16
   1   8  -3    1.29    0.22
   1   8  -3    1.50    0.34
   1   8  -3    1.75    0.48
   0   8  -3    0.44    0.38
   0   8  -3    0.69    0.19
   0   8  -3    0.48    0.12
   0   8  -3    0.68    0.40
  -1   8  -3    0.46    0.37
  -1   8  -3    0.61    0.17
  -1   8  -3    0.37    0.53
   9   7  -3   20.32    0.73
  -9  -7   3   20.10    0.75
   8   7  -3   22.62    0.82
   8   7  -3   21.21    0.82
   8   7  -3   21.73    0.80
  -8  -7   3   23.22    0.82
  -8  -7   3   21.77    1.07
  -8  -7   3   24.53    0.91
   7   7  -3   35.89    1.25
   7   7  -3   33.60    1.24
   7   7  -3   35.80    1.22
  -7  -7   3   40.69    1.48
  -7  -7   3   38.05    1.72
  -7  -7   3   39.90    1.37
  -7  -7   3   40.30    1.39
  -7  -7   3   41.10    1.41
   6   7  -3    1.60    0.17
   6   7  -3    2.06    0.17
   6   7  -3    1.61    0.39
   6   7  -3    1.94    0.20
  -6  -7   3    2.15    0.25
  -6  -7   3    2.37    0.19
  -6  -7   3    1.82    0.20
  -6  -7   3    1.88    0.19
   5   7  -3    0.50    0.29
   5   7  -3    0.22    0.11
   5   7  -3    0.12    0.12
   5   7  -3    0.32    0.11
   5   7  -3    0.34    0.22
  -5  -7   3    0.30    0.13
  -5  -7   3    0.32    0.12
  -5  -7   3    0.52    0.16
   4   7  -3   11.02    0.44
   4   7  -3   10.12    0.47
   4   7  -3   10.60    0.99
   4   7  -3   10.44    0.45
   4   7  -3   10.06    0.86
  -4  -7   3   13.30    0.57
   3   7  -3   23.14    1.46
   3   7  -3   23.50    0.90
   3   7  -3   23.74    1.37
   2   7  -3   40.99    2.14
   2   7  -3   44.93    1.74
   2   7  -3   48.96    2.14
   2   7  -3   46.33    1.60
   1   7  -3   27.16    1.60
   1   7  -3   27.93    1.18
   1   7  -3   28.45    1.05
   1   7  -3   31.34    1.52
   0   7  -3   40.98    1.55
   0   7  -3   41.57    2.46
   0   7  -3   39.80    1.42
   0   7  -3   39.81    2.00
  -1   7  -3   51.20    2.86
  -1   7  -3   44.71    2.14
  -1   7  -3   46.21    1.75
  -2   7  -3   16.45    0.75
  -2   7  -3   16.28    1.06
  -2   7  -3   19.24    1.77
  -2   7  -3   17.20    1.13
  -3   7  -3    2.82    0.88
  -3   7  -3    2.47    0.52
   9   6  -3    0.17    0.12
  -9  -6   3    0.29    0.15
  -9  -6   3    0.19    0.12
  -9  -6   3    0.22    0.18
   8   6  -3    0.30    0.12
   8   6  -3    0.31    0.13
  -8  -6   3    0.64    0.12
  -8  -6   3    0.45    0.15
  -8  -6   3    0.62    0.23
   7   6  -3    6.93    0.34
   7   6  -3    6.83    0.38
  -7  -6   3    7.88    0.44
  -7  -6   3    7.61    0.38
  -7  -6   3    7.73    0.65
  -7  -6   3    7.05    0.34
  -7  -6   3    7.52    0.34
   6   6  -3   47.54    1.62
   6   6  -3   46.71    1.65
  -6  -6   3   54.97    1.89
  -6  -6   3   55.10    2.35
  -6  -6   3   55.98    1.99
  -6  -6   3   53.87    1.91
  -6  -6   3   55.71    1.93
   5   6  -3   47.87    2.13
   5   6  -3   43.84    1.55
   5   6  -3   42.34    1.54
   5   6  -3   43.64    1.52
  -5  -6   3   48.49    1.75
  -5  -6   3   49.34    1.72
  -5  -6   3   49.58    2.63
  -5  -6   3   50.78    1.81
   4   6  -3   54.87    1.87
   4   6  -3   56.58    2.73
   4   6  -3   54.84    1.92
   4   6  -3   54.10    1.88
   4   6  -3   57.79    2.49
   4   6  -3   54.91    1.90
  -4  -6   3   62.30    2.12
  -4  -6   3   60.85    2.15
   3   6  -3   70.16    2.36
   3   6  -3   67.72    2.32
   3   6  -3   70.86    2.31
   3   6  -3   65.24    2.90
   3   6  -3   69.90    2.50
   3   6  -3   69.29    2.90
   2   6  -3   64.50    2.87
   2   6  -3   72.89    2.89
   2   6  -3   69.31    2.50
   2   6  -3   71.46    2.37
   1   6  -3   19.04    0.84
   1   6  -3   17.87    1.16
   1   6  -3   18.95    0.73
   1   6  -3   20.83    1.15
   0   6  -3    0.19    0.36
   0   6  -3    0.18    0.10
   0   6  -3    1.06    0.18
   0   6  -3    0.45    0.28
  -1   6  -3   30.50    1.20
  -1   6  -3   32.28    2.34
  -1   6  -3   29.79    1.49
  -1   6  -3   29.36    1.59
  -2   6  -3   14.41    0.96
  -2   6  -3   14.25    0.67
  -2   6  -3   15.44    1.75
  -2   6  -3   14.89    1.02
  -2   6  -3   14.19    1.51
  -3   6  -3   19.24    0.82
  -3   6  -3   20.22    2.11
  -3   6  -3   19.96    0.97
  -3   6  -3   19.90    1.17
  -3   6  -3   20.88    1.20
  -3   6  -3   18.19    1.63
  -4   6  -3    9.58    0.78
  -4   6  -3   10.58    1.59
  -9  -5   3   20.49    0.76
  -9  -5   3   20.70    0.80
  -9  -5   3   18.89    0.96
  -8  -5   3   22.13    1.02
  -8  -5   3   22.22    0.87
  -8  -5   3   24.02    0.94
  -8  -5   3   22.66    1.19
   7   5  -3   11.61    0.49
  -7  -5   3   13.26    0.88
  -7  -5   3   13.56    0.64
  -7  -5   3   13.63    0.59
  -7  -5   3   12.56    0.54
  -7  -5   3   13.27    0.50
  -7  -5   3   12.77    0.73
   6   5  -3   20.39    0.80
   6   5  -3   19.99    0.76
  -6  -5   3   21.48    1.05
  -6  -5   3   22.27    0.87
  -6  -5   3   21.66    0.81
  -6  -5   3   21.50    0.91
  -6  -5   3   22.25    0.83
  -6  -5   3   22.92    1.23
  -6  -5   3   22.55    0.85
   5   5  -3    0.36    0.10
   5   5  -3    0.12    0.20
   5   5  -3    0.35    0.10
  -5  -5   3    0.38    0.19
  -5  -5   3    0.31    0.10
  -5  -5   3    0.48    0.13
  -5  -5   3    0.37    0.09
  -5  -5   3    0.25    0.10
   4   5  -3   16.04    0.64
   4   5  -3   16.46    0.62
   4   5  -3   17.14    0.89
   3   5  -3   31.73    1.35
   2   5  -3   65.22    2.41
   1   5  -3  137.42    4.72
   1   5  -3  138.56    4.75
   0   5  -3   42.03    1.90
   0   5  -3   43.97    2.57
   0   5  -3   45.02    1.59
  -1   5  -3   33.51    2.32
  -1   5  -3   34.75    1.65
  -1   5  -3   33.62    1.28
  -2   5  -3   42.39    2.96
  -2   5  -3   42.96    1.94
  -2   5  -3   41.65    1.91
  -2   5  -3   41.57    1.55
  -2   5  -3   41.50    2.52
  -2   5  -3   40.59    1.75
  -2   5  -3   41.29    1.73
  -3   5  -3   22.48    1.12
  -3   5  -3   21.57    1.68
  -3   5  -3   23.17    0.94
  -3   5  -3   23.71    1.24
  -3   5  -3   20.43    2.16
  -3   5  -3   22.63    1.29
  -3   5  -3   24.33    1.30
  -4   5  -3    5.96    0.86
  -4   5  -3    6.67    1.24
  -4   5  -3    6.86    0.70
  -4   5  -3    5.77    0.36
  -4   5  -3    6.09    0.64
  -4   5  -3    6.83    0.60
  -5   5  -3    2.02    0.40
  -5   5  -3    1.75    0.61
  -9  -4   3    0.16    0.14
  -9  -4   3    0.11    0.13
  -9  -4   3    0.25    0.18
  -9  -4   3    0.18    0.12
  -8  -4   3    6.14    0.56
  -8  -4   3    7.27    0.43
  -8  -4   3    6.39    0.36
  -8  -4   3    6.97    0.50
  -7  -4   3   35.77    1.35
  -7  -4   3   37.53    1.59
  -7  -4   3   38.24    1.74
  -7  -4   3   36.19    1.42
  -6  -4   3   35.98    1.31
  -6  -4   3   36.62    1.24
  -6  -4   3   35.99    1.52
  -6  -4   3   35.89    1.68
  -6  -4   3   34.88    1.23
  -6  -4   3   36.06    1.37
  -6  -4   3   34.56    1.26
  -5  -4   3   45.58    1.63
  -5  -4   3   42.01    1.50
  -5  -4   3   43.85    1.58
  -5  -4   3   41.56    1.48
  -5  -4   3   43.54    1.89
  -5  -4   3   42.21    1.75
  -4  -4   3  154.08    5.34
   3   4  -3   66.42    2.44
   2   4  -3    0.85    0.18
   2   4  -3    0.68    0.17
   1   4  -3    0.32    0.12
   1   4  -3    0.40    0.13
   1   4  -3    0.44    0.23
   0   4  -3    0.69    0.13
   0   4  -3    0.58    0.21
  -2   4  -3   37.48    1.52
  -2   4  -3   36.20    1.50
  -2   4  -3   36.38    1.34
  -2   4  -3   36.68    1.63
  -2   4  -3   38.12    1.69
  -2   4  -3   31.11    2.36
  -2   4  -3   36.46    1.30
  -2   4  -3   36.13    1.37
  -3   4  -3   73.18    2.91
  -3   4  -3   75.20    2.97
  -3   4  -3   65.06    3.92
  -3   4  -3   76.16    3.55
  -3   4  -3   69.39    2.74
  -3   4  -3   71.67    2.80
  -3   4  -3   73.59    2.54
  -3   4  -3   71.25    2.49
  -3   4  -3   74.78    2.60
  -4   4  -3   43.26    1.85
  -4   4  -3   42.29    1.63
  -4   4  -3   41.95    1.89
  -4   4  -3   44.56    1.98
  -4   4  -3   43.19    1.99
  -4   4  -3   41.71    2.43
  -4   4  -3   42.54    1.53
  -4   4  -3   41.01    1.57
  -4   4  -3   40.17    2.76
  -5   4  -3   17.74    0.81
  -5   4  -3   18.34    1.55
  -5   4  -3   19.15    0.74
  -5   4  -3   18.63    1.13
  -5   4  -3   19.97    1.13
  -5   4  -3   16.52    0.76
  -5   4  -3   18.12    1.17
  -5   4  -3   17.76    1.43
  -6   4  -3    3.26    0.54
  -9  -3   3   14.86    0.78
  -9  -3   3   15.27    0.60
  -9  -3   3   15.62    0.65
  -9  -3   3   14.21    0.70
  -8  -3   3   14.58    0.87
  -8  -3   3   14.96    0.83
  -8  -3   3   15.56    0.64
  -8  -3   3   16.28    0.75
  -7  -3   3   20.29    1.13
  -7  -3   3   20.20    0.82
  -7  -3   3   20.86    1.07
  -7  -3   3   19.75    1.14
  -7  -3   3   22.58    0.97
  -6  -3   3   19.71    0.86
  -6  -3   3   18.67    1.04
  -6  -3   3   17.64    0.68
  -6  -3   3   18.40    0.96
  -6  -3   3   18.26    0.75
  -6  -3   3   18.73    1.04
  -5  -3   3    0.09    0.10
  -4  -3   3   13.13    0.66
   3   3  -3   69.47    2.49
  -3  -3   3   70.43    2.52
   2   3  -3   39.10    1.45
   2   3  -3   38.39    1.45
  -2  -3   3   41.78    1.55
   1   3  -3  203.18    6.74
   1   3  -3  202.38    6.73
   0   3  -3  299.96   10.14
   0   3  -3  307.07    9.97
  -1   3  -3  167.83    5.71
  -3   3  -3    0.98    0.24
  -3   3  -3    1.40    0.18
  -3   3  -3    0.87    0.25
  -3   3  -3    0.64    0.43
  -3   3  -3    1.17    0.23
  -3   3  -3    0.88    0.18
  -3   3  -3    0.86    0.34
  -3   3  -3    0.86    0.25
  -3   3  -3    0.76    0.11
  -4   3  -3    2.18    0.37
  -4   3  -3    2.15    0.69
  -4   3  -3    2.15    0.35
  -4   3  -3    2.42    0.57
  -4   3  -3    2.09    0.23
  -4   3  -3    2.51    0.26
  -4   3  -3    2.23    0.42
  -4   3  -3    2.15    0.41
  -4   3  -3    2.41    0.21
  -5   3  -3    1.24    0.37
  -5   3  -3    1.48    0.38
  -5   3  -3    1.13    0.48
  -5   3  -3    1.13    0.21
  -5   3  -3    1.07    0.36
  -5   3  -3    1.28    0.51
  -5   3  -3    1.18    0.36
  -5   3  -3    1.26    0.17
  -5   3  -3    0.92    0.17
  -6   3  -3    4.27    0.35
  -6   3  -3    4.12    0.33
  -6   3  -3    4.83    0.29
  -6   3  -3    4.10    0.64
  -7   3  -3   17.49    0.97
  -9  -2   3    2.21    0.24
  -9  -2   3    1.88    0.16
  -9  -2   3    1.88    0.26
  -9  -2   3    1.63    0.24
  -8  -2   3    1.46    0.29
  -8  -2   3    1.72    0.30
  -8  -2   3    1.78    0.18
  -8  -2   3    1.86    0.31
  -8  -2   3    1.79    0.28
  -7  -2   3   23.21    1.21
  -7  -2   3   22.22    1.06
  -7  -2   3   21.97    1.15
  -7  -2   3   23.14    0.88
  -7  -2   3   21.99    1.16
  -6  -2   3   62.55    2.13
  -6  -2   3   58.96    2.39
  -6  -2   3   56.85    2.29
  -6  -2   3   64.55    2.49
  -6  -2   3   62.36    2.51
  -5  -2   3   78.16    2.87
  -5  -2   3   81.76    2.87
  -4  -2   3    1.47    0.20
  -4  -2   3    1.21    0.18
   3   2  -3  105.54    3.61
  -3  -2   3  111.07    3.76
  -3  -2   3  109.31    3.76
   2   2  -3    6.15    0.34
   2   2  -3    6.13    0.34
  -2  -2   3    7.24    0.38
  -2  -2   3    6.94    0.36
  -2  -2   3    7.09    0.36
   1   2  -3   15.95    0.65
   1   2  -3   16.73    0.70
   1   2  -3   16.23    0.65
  -1  -2   3   18.65    0.71
  -1  -2   3   16.78    0.68
   0   2  -3   14.46    0.57
   0   2  -3   14.66    0.58
   0   2  -3   15.08    0.57
  -1   2  -3  109.44    3.74
  -3   2  -3   55.28    2.58
  -4   2  -3   89.95    3.00
  -4   2  -3   79.48    3.06
  -4   2  -3   85.54    2.87
  -4   2  -3   87.08    2.93
  -4   2  -3   87.32    3.30
  -4   2  -3   92.12    3.76
  -4   2  -3   84.11    3.21
  -4   2  -3   74.73    3.79
  -4   2  -3   77.40    3.23
  -4   2  -3   85.42    3.23
  -5   2  -3   80.34    2.89
  -5   2  -3   80.47    3.16
  -5   2  -3   77.30    3.15
  -5   2  -3   76.82    2.96
  -5   2  -3   81.60    3.27
  -5   2  -3   79.85    2.75
  -5   2  -3   83.21    3.76
  -5   2  -3   78.29    2.81
  -6   2  -3   36.52    1.81
  -6   2  -3   37.18    2.24
  -6   2  -3   36.13    1.34
  -6   2  -3   36.06    1.48
  -6   2  -3   35.05    1.41
  -7   2  -3    4.17    0.36
  -7   2  -3    4.17    0.37
  -7   2  -3    5.58    0.61
  -7   2  -3    4.60    0.29
  -9  -1   3   24.11    0.87
  -9  -1   3   24.86    1.01
  -9  -1   3   24.10    1.06
  -9  -1   3   26.47    0.96
  -8  -1   3   46.76    1.89
  -8  -1   3   44.98    1.92
  -8  -1   3   46.67    1.61
  -8  -1   3   46.49    1.79
  -7  -1   3    5.57    0.54
  -7  -1   3    4.55    0.49
  -7  -1   3    6.71    0.60
  -7  -1   3    6.31    0.34
  -6  -1   3   11.19    0.78
  -6  -1   3    9.77    0.66
  -6  -1   3   10.50    0.46
  -6  -1   3    9.76    0.61
  -5  -1   3    0.60    0.15
  -5  -1   3    0.65    0.15
  -4  -1   3   12.24    0.58
  -4  -1   3   12.78    0.58
  -3  -1   3   87.42    3.02
  -3  -1   3   89.47    3.02
   2   1  -3  187.30    6.44
   2   1  -3  203.86    6.46
  -2  -1   3  230.38    7.62
  -2  -1   3  231.35    7.61
   1   1  -3   19.33    0.71
   1   1  -3   18.59    0.71
  -1  -1   3   22.21    0.83
  -1  -1   3   22.01    0.82
   0   1  -3  149.33    4.87
   0   1  -3  146.44    4.87
   0  -1   3  142.18    4.86
   0  -1   3  153.15    4.87
  -1   1  -3   21.83    0.83
  -3   1  -3   12.19    0.87
  -4   1  -3    7.96    0.76
  -5   1  -3   51.09    2.04
  -5   1  -3   53.17    1.94
  -5   1  -3   55.97    2.72
  -5   1  -3   52.16    2.23
  -5   1  -3   53.86    2.24
  -5   1  -3   52.63    1.87
  -5   1  -3   54.81    2.35
  -5   1  -3   47.26    2.25
  -5   1  -3   56.80    2.04
  -6   1  -3   30.59    1.15
  -6   1  -3   30.32    1.50
  -6   1  -3   30.26    1.35
  -6   1  -3   30.34    1.32
  -6   1  -3   28.35    1.21
  -6   1  -3   29.76    1.54
  -6   1  -3   29.73    1.96
  -7   1  -3   17.70    0.97
  -7   1  -3   15.07    0.82
  -7   1  -3   14.03    0.75
  -7   1  -3   15.38    0.67
  -8   1  -3   10.07    0.57
  -8   1  -3   10.39    0.47
  -8   1  -3   11.52    0.63
  -9   0   3   10.49    0.47
  -8   0   3   14.83    0.84
  -8   0   3   14.30    0.80
  -8   0   3   13.23    0.73
  -7   0   3   20.21    0.99
  -7   0   3   22.04    1.18
  -7   0   3   21.26    1.10
  -6   0   3   28.87    1.32
  -6   0   3   31.84    1.56
  -6   0   3   29.31    1.23
  -5   0   3   61.62    2.42
  -4   0   3   77.22    2.67
  -3   0   3   81.39    2.72
  -3   0   3   78.78    2.72
   2   0  -3  121.47    4.03
  -2   0   3  125.30    4.15
  -2   0   3  119.63    4.13
  -2   0   3  126.31    4.15
  -2   0   3  128.18    4.15
   1   0  -3    0.21    0.09
   1   0  -3    0.21    0.08
  -1   0   3    0.47    0.11
  -1   0   3    0.14    0.08
  -1   0   3    0.41    0.10
  -1   0   3    0.23    0.08
   0   0  -3   22.40    0.82
   0   0  -3   22.02    0.82
   0   0  -3   23.98    0.82
   0   0   3   22.78    0.82
   0   0   3   22.97    0.83
  -1   0  -3   53.69    1.83
  -1   0  -3   53.78    1.82
  -1   0  -3   55.07    1.82
   1   0   3   48.07    1.62
  -3   0  -3  245.60    8.52
  -4   0  -3  142.08    5.33
  -5   0  -3   39.11    1.47
  -5   0  -3   37.17    1.75
  -5   0  -3   41.99    1.59
  -5   0  -3   40.52    2.09
  -5   0  -3   35.25    1.61
  -6   0  -3   18.77    0.87
  -6   0  -3   19.14    1.08
  -6   0  -3   16.35    0.91
  -6   0  -3   19.41    0.96
  -6   0  -3   17.74    1.03
  -6   0  -3   19.11    0.78
  -7   0  -3   14.45    0.77
  -7   0  -3   14.95    0.89
  -7   0  -3   14.67    0.89
  -7   0  -3   14.64    0.66
  -7   0  -3   14.08    0.85
  -8   0  -3    0.14    0.20
  -8   0  -3    0.25    0.19
  -8   0  -3    0.27    0.11
  -8   1   3   14.10    0.79
  -8   1   3   11.56    0.66
  -8   1   3   13.77    0.74
  -7   1   3   10.23    0.77
  -7   1   3    9.43    0.57
  -7   1   3    9.67    0.66
  -6   1   3    2.74    0.45
  -6   1   3    3.19    0.30
  -6   1   3    2.59    0.29
  -6   1   3    2.90    0.34
  -5   1   3    6.08    0.42
  -5   1   3    6.41    0.42
  -5   1   3    6.68    0.62
  -5   1   3    6.63    0.47
  -5   1   3    6.81    0.44
  -5   1   3    6.37    0.36
   1  -1  -3   64.94    2.19
  -1   1   3   61.79    2.14
  -1   1   3   63.50    2.15
  -1   1   3   66.47    2.15
   0  -1  -3   72.78    2.38
   0  -1  -3   69.55    2.38
   0   1   3   69.57    2.30
   0   1   3   66.27    2.29
   0   1   3   69.68    2.29
  -1  -1  -3   92.11    3.03
  -1  -1  -3   94.88    3.03
  -1  -1  -3   86.75    3.04
   1   1   3   85.18    2.85
   1   1   3   85.86    2.85
  -2  -1  -3    9.01    0.37
  -2  -1  -3    8.24    0.38
  -2  -1  -3    8.77    0.36
   2   1   3    7.95    0.36
  -3  -1  -3    1.05    0.13
  -3  -1  -3    1.12    0.12
  -4  -1  -3    0.42    0.21
  -5  -1  -3   12.36    1.00
  -6  -1  -3   43.02    1.85
  -6  -1  -3   46.41    1.62
  -6  -1  -3   43.84    1.71
  -6  -1  -3   41.35    1.85
  -6  -1  -3   46.18    1.88
  -7  -1  -3   51.35    1.87
  -7  -1  -3   51.43    2.17
  -7  -1  -3   51.54    2.01
  -7  -1  -3   52.02    2.13
  -8  -1  -3   67.32    2.53
  -8  -1  -3   71.06    2.40
  -8  -1  -3   68.94    2.66
  -9  -1  -3   15.01    0.69
  -9  -1  -3   15.05    0.80
  -8   2   3    9.84    0.58
  -8   2   3    7.81    0.47
  -8   2   3    9.46    0.53
  -7   2   3   49.05    1.96
  -7   2   3   47.29    1.82
  -7   2   3   49.79    1.84
  -7   2   3   50.29    2.15
  -6   2   3   72.20    2.79
  -6   2   3   70.57    2.98
  -6   2   3   71.32    2.66
  -6   2   3   72.29    2.62
  -6   2   3   69.87    2.51
  -5   2   3  108.60    3.75
  -5   2   3   97.94    3.86
  -5   2   3  109.59    3.75
  -5   2   3  109.34    3.77
  -5   2   3  105.59    3.60
  -5   2   3  104.06    4.05
  -3   2   3   41.92    2.05
  -1   2   3    3.71    0.20
   0  -2  -3  133.22    4.41
   0   2   3  126.68    4.13
   0   2   3  123.43    4.13
  -1  -2  -3   55.56    1.87
  -1  -2  -3   53.78    1.87
   1   2   3   53.06    1.81
   1   2   3   52.81    1.81
  -2  -2  -3   71.96    2.43
  -2  -2  -3   70.11    2.41
   2   2   3   63.76    2.28
   2   2   3   69.03    2.29
  -3  -2  -3  119.47    4.01
  -3  -2  -3  118.68    3.99
   3   2   3  106.74    3.63
  -4  -2  -3  114.65    3.93
  -4  -2  -3  117.02    3.92
  -5  -2  -3  102.46    3.54
  -5  -2  -3  102.50    3.54
  -6  -2  -3    6.91    0.46
  -6  -2  -3    6.69    0.40
  -6  -2  -3    6.87    0.33
  -6  -2  -3    7.58    0.60
  -7  -2  -3    0.18    0.09
  -7  -2  -3   -0.13    0.15
  -7  -2  -3    0.16    0.23
  -7  -2  -3   -0.05    0.11
  -8  -2  -3    0.47    0.24
  -8  -2  -3    0.36    0.19
  -8  -2  -3    0.32    0.13
  -9  -2  -3    1.63    0.14
  -9  -2  -3    1.49    0.25
  -9  -2  -3    1.58    0.22
  -7   3   3    0.68    0.21
  -7   3   3    0.60    0.20
  -7   3   3    0.74    0.27
  -7   3   3    0.53    0.17
  -6   3   3    0.66    0.19
  -6   3   3    0.70    0.18
  -6   3   3    0.79    0.15
  -6   3   3    0.58    0.26
  -5   3   3    2.21    0.32
  -5   3   3    1.83    0.26
  -5   3   3    2.08    0.38
  -5   3   3    1.83    0.58
  -5   3   3    1.85    0.30
  -5   3   3    1.81    0.20
  -5   3   3    1.91    0.39
  -5   3   3    2.36    0.45
  -4   3   3    8.93    0.41
  -4   3   3    8.75    0.57
  -4   3   3    8.69    0.64
  -4   3   3    7.14    0.92
  -4   3   3    8.45    0.54
  -4   3   3    8.56    0.49
  -4   3   3    7.75    0.58
  -4   3   3    8.57    0.59
  -4   3   3    7.97    0.61
  -3   3   3   47.10    2.32
  -2   3   3  154.52    5.65
   0   3   3   91.12    2.99
   0   3   3   87.25    3.00
  -1  -3  -3  190.77    6.32
   1   3   3  193.79    6.29
   1   3   3  187.05    6.30
  -2  -3  -3   81.02    2.81
  -2  -3  -3   82.82    2.82
   2   3   3   80.79    2.84
   2   3   3   83.74    2.84
  -3  -3  -3    1.33    0.18
  -3  -3  -3    1.59    0.19
   3   3   3    1.15    0.19
  -4  -3  -3   52.43    1.90
  -4  -3  -3   51.79    1.90
  -5  -3  -3   54.58    2.05
  -5  -3  -3   56.46    2.05
  -6  -3  -3   84.11    3.02
  -6  -3  -3   80.13    2.95
  -6  -3  -3   70.35    2.68
  -6  -3  -3   75.57    2.79
  -6  -3  -3   78.53    2.63
  -7  -3  -3   32.49    1.47
  -7  -3  -3   31.38    1.24
  -7  -3  -3   32.31    1.17
  -7  -3  -3   35.07    1.57
  -7  -3  -3   30.98    1.34
  -8  -3  -3   23.87    1.15
  -8  -3  -3   21.93    0.89
  -8  -3  -3   21.83    0.99
  -8  -3  -3   20.68    1.06
  -8  -3  -3   22.65    0.83
  -9  -3  -3   29.87    1.25
  -9  -3  -3   31.12    1.06
  -9  -3  -3   29.16    1.17
  -6   4   3   28.49    1.15
  -6   4   3   26.13    1.20
  -6   4   3   26.11    1.02
  -6   4   3   26.29    1.30
  -6   4   3   26.09    1.12
  -5   4   3   48.38    2.81
  -5   4   3   50.22    1.97
  -5   4   3   49.57    1.77
  -5   4   3   50.71    2.06
  -5   4   3   49.44    1.90
  -5   4   3   49.08    2.12
  -5   4   3   48.75    2.17
  -4   4   3   42.68    1.54
  -4   4   3   42.05    1.77
  -4   4   3   45.52    1.68
  -4   4   3   44.15    1.94
  -4   4   3   43.46    1.85
  -4   4   3   44.70    1.78
  -4   4   3   41.10    1.84
  -4   4   3   41.47    1.85
  -4   4   3   41.31    2.60
  -3   4   3   21.63    0.89
  -3   4   3   21.84    1.08
  -3   4   3   20.42    0.79
  -3   4   3   19.26    1.59
  -3   4   3   20.89    1.11
  -3   4   3   19.44    1.40
  -3   4   3   20.02    0.98
  -3   4   3   20.55    1.03
  -3   4   3   19.25    1.00
  -3   4   3   21.02    1.00
   0   4   3   32.33    1.17
   0   4   3   31.46    1.18
   1   4   3   37.01    1.35
   1   4   3   36.34    1.37
  -2  -4  -3   94.99    3.29
   2   4   3   93.98    3.22
   2   4   3   91.18    3.21
  -3  -4  -3   14.74    0.70
   3   4   3   13.59    0.67
  -4  -4  -3   56.10    2.08
  -5  -4  -3   17.15    0.82
  -6  -4  -3   36.67    1.43
  -6  -4  -3   40.31    1.40
  -6  -4  -3   42.17    1.68
  -6  -4  -3   37.57    1.35
  -6  -4  -3   40.19    1.71
  -7  -4  -3   14.82    0.67
  -7  -4  -3   15.21    0.77
  -7  -4  -3   15.53    0.91
  -7  -4  -3   15.50    0.88
  -7  -4  -3   15.23    0.63
  -8  -4  -3    0.74    0.13
  -8  -4  -3    0.94    0.21
  -8  -4  -3    0.66    0.23
  -8  -4  -3    0.76    0.16
  -8  -4  -3    0.62    0.21
  -9  -4  -3   14.15    0.76
  -9  -4  -3   13.42    0.71
  -9  -4  -3   14.43    0.56
  -9  -4  -3   12.81    0.64
  -6   5   3    0.15    0.17
  -5   5   3   15.37    0.85
  -5   5   3   14.73    0.63
  -5   5   3   14.64    0.73
  -5   5   3   15.88    0.82
  -4   5   3   37.39    1.72
  -4   5   3   42.78    1.63
  -4   5   3   40.57    1.72
  -4   5   3   39.82    2.63
  -4   5   3   43.04    1.91
  -4   5   3   43.55    1.83
  -4   5   3   41.87    1.49
  -3   5   3   46.44    2.91
  -3   5   3   50.60    2.04
  -3   5   3   51.54    2.22
  -3   5   3   51.62    1.80
  -3   5   3   52.36    2.18
  -3   5   3   53.04    1.94
  -2   5   3   93.59    3.54
  -2   5   3   89.19    3.10
  -2   5   3   83.31    4.20
  -2   5   3   93.83    3.23
  -2   5   3   98.44    3.55
  -2   5   3   93.98    3.33
  -2   5   3   90.87    3.30
  -1   5   3  127.54    4.64
   0   5   3   67.22    2.31
   0   5   3   63.16    2.32
   1   5   3   45.22    1.72
   1   5   3   46.88    1.72
   2   5   3    8.43    0.49
   2   5   3    8.01    0.48
   3   5   3    4.92    0.39
  -4  -5  -3    4.28    0.37
   4   5   3    3.59    0.36
  -5  -5  -3   26.48    0.97
  -5  -5  -3   27.36    1.32
  -5  -5  -3   28.79    1.22
  -5  -5  -3   27.08    1.00
  -5  -5  -3   27.46    1.18
  -6  -5  -3   40.04    1.43
  -6  -5  -3   42.59    1.67
  -6  -5  -3   41.45    1.79
  -6  -5  -3   38.10    1.45
  -6  -5  -3   40.20    1.38
  -6  -5  -3   38.46    1.36
  -6  -5  -3   39.42    1.40
  -7  -5  -3   55.28    2.14
  -7  -5  -3   51.91    1.91
  -7  -5  -3   56.95    2.28
  -7  -5  -3   50.61    1.81
  -7  -5  -3   55.06    1.89
  -8  -5  -3   21.13    1.01
  -8  -5  -3   18.91    0.81
  -8  -5  -3   19.76    1.06
  -8  -5  -3   20.27    0.91
  -8  -5  -3   21.13    0.79
  -9  -5  -3    9.15    0.61
  -9  -5  -3    9.48    0.51
  -9  -5  -3    9.31    0.42
  -9  -5  -3    9.00    0.55
  -5   6   3   10.46    0.61
  -5   6   3    9.90    0.63
  -4   6   3    4.70    0.53
  -4   6   3    4.81    1.04
  -4   6   3    4.96    0.49
  -4   6   3    5.65    0.47
  -3   6   3   14.05    0.96
  -3   6   3   14.75    0.62
  -3   6   3   14.21    0.79
  -3   6   3   15.13    1.57
  -3   6   3   14.81    0.93
  -2   6   3    1.69    0.38
  -2   6   3    1.50    0.28
  -2   6   3    1.63    0.37
  -2   6   3    1.25    0.57
  -1   6   3    1.71    0.59
  -1   6   3    2.02    0.43
  -1   6   3    1.87    0.42
   0   6   3   18.32    1.08
   0   6   3   16.65    0.66
   1   6   3   61.46    2.25
   1   6   3   64.35    2.28
   1   6   3   57.76    2.63
   2   6   3   74.58    2.55
   2   6   3   63.91    3.03
   3   6   3   98.12    4.12
   3   6   3  103.50    3.60
  -4  -6  -3   88.32    3.04
   4   6   3   79.94    2.75
   4   6   3   78.39    2.77
   4   6   3   82.73    3.05
   4   6   3   84.88    3.39
   4   6   3   87.92    3.32
  -5  -6  -3   28.71    1.04
  -5  -6  -3   27.43    1.06
  -5  -6  -3   26.74    1.02
  -5  -6  -3   29.31    1.39
  -5  -6  -3   28.72    1.01
   5   6   3   27.37    1.39
   5   6   3   26.94    0.95
   5   6   3   25.86    0.97
  -6  -6  -3    0.46    0.13
  -6  -6  -3    0.41    0.18
  -6  -6  -3    0.66    0.11
  -6  -6  -3    0.65    0.12
  -6  -6  -3    0.47    0.22
  -6  -6  -3    0.28    0.11
  -6  -6  -3    0.31    0.12
   6   6   3    0.35    0.13
   6   6   3    0.68    0.13
  -7  -6  -3    5.09    0.32
  -7  -6  -3    5.14    0.44
  -7  -6  -3    5.04    0.26
  -7  -6  -3    5.11    0.29
  -7  -6  -3    5.06    0.32
  -7  -6  -3    5.01    0.52
   7   6   3    5.32    0.30
  -8  -6  -3    0.01    0.10
  -8  -6  -3    0.15    0.18
  -8  -6  -3    0.17    0.14
  -8  -6  -3    0.41    0.13
  -8  -6  -3    0.14    0.15
  -9  -6  -3    5.12    0.39
  -9  -6  -3    5.40    0.41
  -9  -6  -3    5.58    0.48
  -9  -6  -3    5.54    0.31
  -4   7   3   12.38    0.75
  -4   7   3   11.33    0.72
  -3   7   3   44.98    2.68
  -3   7   3   39.43    1.80
  -3   7   3   39.34    1.58
  -3   7   3   38.59    1.83
  -2   7   3   47.30    1.88
  -2   7   3   43.12    2.08
  -2   7   3   48.27    2.78
  -2   7   3   43.32    2.03
  -1   7   3   41.88    2.00
  -1   7   3   46.66    2.63
  -1   7   3   42.47    2.11
   0   7   3   26.60    1.59
   0   7   3   28.46    1.02
   0   7   3   29.51    1.92
   0   7   3   26.97    1.45
   1   7   3    7.94    0.38
   1   7   3    9.61    0.73
   1   7   3    7.29    0.65
   1   7   3    7.58    0.89
   2   7   3    6.85    0.63
   2   7   3    5.42    0.90
   2   7   3    5.89    0.33
   3   7   3    0.04    0.09
   3   7   3    0.08    0.19
   3   7   3    0.46    0.46
   3   7   3    0.10    0.09
   3   7   3   -0.04    0.09
   3   7   3    0.18    0.10
  -4  -7  -3    4.96    0.29
  -4  -7  -3    5.52    0.32
   4   7   3    4.91    0.31
   4   7   3    5.13    0.30
   4   7   3    5.05    0.28
   4   7   3    5.41    0.77
   4   7   3    5.07    0.60
   4   7   3    4.57    0.27
  -5  -7  -3   33.13    1.19
  -5  -7  -3   33.62    1.23
  -5  -7  -3   33.79    1.25
   5   7   3   30.34    1.08
   5   7   3   30.08    1.11
   5   7   3   31.87    1.62
   5   7   3   32.10    1.68
   5   7   3   29.25    1.10
  -6  -7  -3    6.68    0.36
  -6  -7  -3    7.66    0.54
  -6  -7  -3    6.85    0.34
  -6  -7  -3    6.81    0.38
  -6  -7  -3    6.70    0.61
  -6  -7  -3    6.36    0.34
   6   7   3    6.69    0.77
   6   7   3    6.53    0.33
   6   7   3    6.38    0.35
  -7  -7  -3   28.15    0.99
  -7  -7  -3   27.97    1.08
  -7  -7  -3   27.77    1.02
  -7  -7  -3   28.85    1.01
  -7  -7  -3   28.55    1.28
  -7  -7  -3   28.92    1.40
   7   7   3   27.80    1.00
   7   7   3   27.31    1.50
   7   7   3   27.61    1.02
  -8  -7  -3   17.71    0.88
  -8  -7  -3   18.66    0.99
  -8  -7  -3   17.47    0.69
   8   7   3   18.83    0.71
   8   7   3   19.73    0.74
   8   7   3   17.84    1.13
  -9  -7  -3   19.28    0.73
  -9  -7  -3   19.15    0.87
  -9  -7  -3   19.80    0.95
  -9  -7  -3   21.19    0.83
   9   7   3   20.15    1.13
   9   7   3   22.60    0.78
  -3   8   3    0.35    0.23
  -2   8   3    1.82    0.49
  -2   8   3    2.02    0.66
  -2   8   3    1.42    0.36
  -1   8   3   11.40    0.79
  -1   8   3   13.02    1.26
  -1   8   3   11.51    1.02
   0   8   3   14.76    0.59
   0   8   3   14.52    1.24
   0   8   3   15.96    1.36
   0   8   3   12.98    0.88
   1   8   3   39.61    2.32
   1   8   3   36.42    1.76
   1   8   3   43.71    1.42
   2   8   3  108.86    5.04
   2   8   3  126.83    4.55
   2   8   3  123.29    4.01
   3   8   3   31.35    2.02
   3   8   3   28.48    1.07
   3   8   3   27.69    1.51
  -4  -8  -3   34.21    1.23
   4   8   3   33.34    1.12
   4   8   3   31.90    1.86
   4   8   3   31.06    1.15
   4   8   3   29.59    1.60
   4   8   3   30.88    1.12
  -5  -8  -3   21.70    0.89
  -5  -8  -3   22.63    0.84
  -5  -8  -3   22.87    0.88
   5   8   3   20.64    0.79
   5   8   3   19.81    0.84
   5   8   3   20.41    0.75
   5   8   3   21.53    1.37
   5   8   3   20.55    0.78
   5   8   3   20.00    1.21
  -6  -8  -3   10.69    0.50
  -6  -8  -3   10.97    0.49
  -6  -8  -3   10.81    0.47
  -6  -8  -3   11.79    0.69
  -6  -8  -3   11.39    0.52
   6   8   3   10.51    0.43
   6   8   3    9.64    0.46
   6   8   3    9.13    0.75
   6   8   3   10.41    0.91
   6   8   3   10.34    0.45
  -7  -8  -3    1.42    0.13
  -7  -8  -3    1.35    0.14
  -7  -8  -3    1.17    0.14
  -7  -8  -3    1.53    0.28
  -7  -8  -3    1.10    0.28
  -7  -8  -3    1.16    0.22
   7   8   3    1.17    0.15
   7   8   3    1.57    0.43
   7   8   3    1.15    0.17
   7   8   3    1.08    0.14
  -8  -8  -3    6.20    0.30
  -8  -8  -3    6.86    0.47
  -8  -8  -3    6.73    0.52
   8   8   3    7.05    0.37
   8   8   3    6.89    0.75
   8   8   3    7.39    0.38
   8   8   3    6.98    0.36
  -9  -8  -3    7.85    0.39
  -9  -8  -3    5.97    0.59
  -9  -8  -3    6.69    0.40
   9   8   3    7.23    0.34
  -1   9   3   23.92    1.10
  -1   9   3   25.82    1.51
   0   9   3   19.01    1.49
   0   9   3   20.58    0.73
   0   9   3   17.58    0.93
   1   9   3    7.44    0.36
   1   9   3    7.89    0.64
   1   9   3    7.26    1.07
   2   9   3    6.36    1.05
   2   9   3    6.20    0.32
   2   9   3    5.88    0.57
   3   9   3    4.16    0.52
   3   9   3    5.39    0.93
   3   9   3    4.92    0.30
  -4  -9  -3   11.10    0.49
   4   9   3    9.55    0.43
   4   9   3    9.98    1.03
   4   9   3    7.72    0.70
  -5  -9  -3   32.00    1.17
  -5  -9  -3   32.13    1.19
  -5  -9  -3   31.64    1.14
   5   9   3   29.88    1.61
   5   9   3   27.27    1.00
   5   9   3   27.54    0.98
   5   9   3   25.79    1.39
  -6  -9  -3   38.73    1.34
  -6  -9  -3   38.37    1.35
  -6  -9  -3   34.70    1.40
  -6  -9  -3   38.88    1.55
  -6  -9  -3   39.06    1.32
   6   9   3   35.99    1.21
   6   9   3   36.47    1.23
   6   9   3   30.22    1.56
   6   9   3   36.61    1.78
  -7  -9  -3   28.67    1.03
  -7  -9  -3   28.94    1.01
  -7  -9  -3   28.08    1.20
  -7  -9  -3   28.67    1.00
   7   9   3   27.82    0.98
   7   9   3   25.94    0.94
   7   9   3   27.08    1.43
   7   9   3   27.07    0.96
  -8  -9  -3    9.95    0.48
  -8  -9  -3    8.92    0.50
  -8  -9  -3    9.28    0.37
   8   9   3    9.29    0.37
   8   9   3    9.13    0.38
   8   9   3    8.81    0.72
   1  10   3   12.58    0.51
   1  10   3   15.48    1.07
   2  10   3   15.50    0.58
   2  10   3   13.79    0.79
   2  10   3   17.20    1.20
   3  10   3   32.87    1.56
   3  10   3   36.95    1.28
   3  10   3   40.40    1.92
  -4 -10  -3   23.51    0.91
   4  10   3   19.06    0.71
   4  10   3   21.00    1.27
   4  10   3   17.20    0.99
  -5 -10  -3    6.66    0.48
  -5 -10  -3    7.53    0.39
  -5 -10  -3    7.27    0.37
   5  10   3    4.83    0.50
   5  10   3    5.81    0.77
  -6 -10  -3    2.13    0.19
  -6 -10  -3    2.37    0.17
  -6 -10  -3    2.49    0.30
  -6 -10  -3    1.85    0.17
   6  10   3    1.67    0.43
   6  10   3    1.26    0.27
  -7 -10  -3    0.60    0.16
  -7 -10  -3    0.62    0.12
  -7 -10  -3    0.46    0.10
  -7 -10  -3    0.58    0.09
   6   9  -4    0.21    0.17
  -6  -9   4    0.28    0.12
  -6  -9   4    0.15    0.11
  -6  -9   4    0.22    0.10
  -6  -9   4    0.30    0.11
   5   9  -4   14.02    0.83
  -5  -9   4   18.60    0.74
  -5  -9   4   19.45    0.76
  -5  -9   4   19.83    0.73
   4   9  -4   16.10    0.92
   4   9  -4   16.14    0.62
  -4  -9   4   23.65    0.92
   3   9  -4   18.64    1.01
   3   9  -4   19.71    0.72
   2   9  -4   24.92    1.19
   2   9  -4   27.10    0.93
   1   9  -4   19.05    0.69
  -8  -8   4   22.82    0.84
   7   8  -4   20.32    0.75
   7   8  -4   20.32    0.73
  -7  -8   4   22.72    0.82
  -7  -8   4   23.10    0.89
  -7  -8   4   22.68    0.81
  -7  -8   4   23.42    0.85
   6   8  -4   20.25    0.68
   6   8  -4   19.66    0.71
   6   8  -4   16.11    0.99
  -6  -8   4   22.91    0.86
  -6  -8   4   23.28    0.84
  -6  -8   4   22.49    0.87
  -6  -8   4   22.33    0.90
   5   8  -4   10.30    0.78
  -5  -8   4   14.11    0.63
  -5  -8   4   13.81    0.58
  -5  -8   4   14.41    0.61
   4   8  -4   30.13    1.10
   4   8  -4   30.79    1.56
  -4  -8   4   39.95    1.42
   3   8  -4    6.70    0.66
   3   8  -4    6.36    0.34
   2   8  -4    3.16    0.48
   2   8  -4    3.03    0.61
   2   8  -4    3.55    0.25
   1   8  -4    6.52    0.45
   1   8  -4    7.29    0.35
   1   8  -4    6.76    0.76
   1   8  -4    6.68    0.60
   0   8  -4    5.09    0.82
   0   8  -4    4.65    0.28
   0   8  -4    4.87    0.38
   0   8  -4    5.00    0.71
  -1   8  -4   17.99    1.33
  -1   8  -4   15.47    1.04
  -1   8  -4   15.60    0.68
   8   7  -4    7.47    0.35
   8   7  -4    7.28    0.37
   8   7  -4    7.31    0.35
  -8  -7   4    8.48    0.41
  -8  -7   4    7.07    0.51
   7   7  -4    0.01    0.10
   7   7  -4    0.11    0.11
   7   7  -4    0.01    0.12
  -7  -7   4    0.29    0.14
  -7  -7   4    0.08    0.11
  -7  -7   4    0.09    0.10
  -7  -7   4    0.09    0.09
   6   7  -4    0.25    0.11
   6   7  -4    0.34    0.24
   6   7  -4    0.21    0.11
   6   7  -4    0.24    0.13
  -6  -7   4    0.38    0.12
  -6  -7   4    0.37    0.12
  -6  -7   4    0.37    0.11
  -6  -7   4    0.46    0.14
   5   7  -4    2.06    0.16
   5   7  -4    1.93    0.18
   5   7  -4    1.62    0.40
   5   7  -4    2.05    0.17
  -5  -7   4    2.64    0.26
  -5  -7   4    3.17    0.28
  -5  -7   4    2.96    0.23
   4   7  -4   20.25    1.28
   4   7  -4   23.11    0.78
   4   7  -4   22.24    0.80
   4   7  -4   20.68    0.83
  -4  -7   4   25.06    0.95
   3   7  -4   50.87    2.31
   3   7  -4   50.35    1.77
   2   7  -4   47.12    1.76
   2   7  -4   40.62    2.11
   2   7  -4   46.07    1.61
   2   7  -4   48.64    2.16
   1   7  -4   36.29    2.66
   1   7  -4   36.18    1.27
   1   7  -4   35.08    1.72
   1   7  -4   32.68    1.76
   1   7  -4   36.04    1.40
   0   7  -4   24.64    1.43
   0   7  -4   24.91    0.93
   0   7  -4   26.17    1.88
   0   7  -4   25.67    1.06
  -1   7  -4   17.69    0.79
  -1   7  -4   17.09    1.12
  -1   7  -4   18.25    1.62
  -2   7  -4    2.80    0.31
  -2   7  -4    2.96    0.57
  -2   7  -4    3.12    0.90
  -3   7  -4    0.04    0.56
   9   6  -4    5.54    0.29
  -9  -6   4    5.01    0.41
  -9  -6   4    5.45    0.30
   8   6  -4    3.76    0.26
   8   6  -4    3.48    0.27
  -8  -6   4    3.75    0.44
  -8  -6   4    4.18    0.32
   7   6  -4   18.84    0.74
   7   6  -4   18.35    0.70
  -7  -6   4   20.65    1.14
  -7  -6   4   21.54    0.88
  -7  -6   4   21.81    0.80
  -7  -6   4   21.30    0.77
  -7  -6   4   20.27    0.76
   6   6  -4   85.13    2.95
   6   6  -4   90.20    2.93
   6   6  -4   87.38    2.96
  -6  -6   4  101.93    3.57
  -6  -6   4  108.27    3.59
  -6  -6   4  106.36    3.55
  -6  -6   4  109.38    3.66
  -6  -6   4  106.03    4.02
   5   6  -4   51.06    2.36
   5   6  -4   52.53    1.78
   5   6  -4   52.06    1.80
   5   6  -4   53.30    1.81
  -5  -6   4   62.01    2.18
  -5  -6   4   62.61    2.22
  -5  -6   4   62.64    2.15
   4   6  -4    8.06    0.36
   4   6  -4    8.47    0.41
   4   6  -4    8.76    0.80
   4   6  -4    8.63    0.40
   4   6  -4    8.52    0.38
  -4  -6   4    9.65    0.48
  -4  -6   4    9.93    0.46
   3   6  -4    1.90    0.19
   3   6  -4    1.90    0.42
   3   6  -4    1.68    0.16
   3   6  -4    2.19    0.18
   3   6  -4    2.04    0.27
   2   6  -4    5.15    0.67
   2   6  -4    6.36    0.42
   2   6  -4    5.80    0.62
   2   6  -4    6.00    0.33
   1   6  -4   18.27    1.17
   1   6  -4   20.65    1.20
   1   6  -4   18.95    1.54
   1   6  -4   20.09    0.87
   1   6  -4   20.34    0.76
   0   6  -4   25.86    1.46
   0   6  -4   27.75    1.00
   0   6  -4   26.93    1.97
   0   6  -4   29.24    1.13
  -1   6  -4   47.50    2.98
  -1   6  -4   41.68    2.03
  -1   6  -4   44.94    1.68
  -2   6  -4   43.31    1.58
  -2   6  -4   37.75    2.64
  -2   6  -4   46.04    3.05
  -2   6  -4   39.77    1.93
  -2   6  -4   42.78    1.96
  -3   6  -4   21.97    0.92
  -3   6  -4   22.41    1.26
  -3   6  -4   22.19    1.38
  -3   6  -4   24.30    2.38
  -4   6  -4    7.00    1.36
  -9  -5   4   14.58    0.60
  -9  -5   4   14.37    0.76
  -9  -5   4   13.53    0.56
   8   5  -4   13.24    0.54
  -8  -5   4   14.85    0.66
  -8  -5   4   14.61    0.89
  -8  -5   4   14.23    0.60
   7   5  -4    0.22    0.11
   7   5  -4    0.44    0.13
  -7  -5   4    0.51    0.23
  -7  -5   4    0.35    0.14
  -7  -5   4    0.31    0.08
  -7  -5   4    0.39    0.12
  -7  -5   4    0.43    0.11
   6   5  -4    0.62    0.12
   6   5  -4    0.39    0.13
  -6  -5   4    0.55    0.15
  -6  -5   4    0.36    0.12
  -6  -5   4    0.46    0.10
  -6  -5   4    0.46    0.12
  -6  -5   4    0.99    0.29
  -6  -5   4    0.72    0.12
   5   5  -4    9.86    0.43
   5   5  -4   10.13    0.47
   5   5  -4   10.54    0.84
  -5  -5   4    9.68    0.47
  -5  -5   4   10.18    0.51
  -5  -5   4   10.83    0.77
  -5  -5   4   10.45    0.48
  -5  -5   4   10.36    0.45
   4   5  -4   25.54    0.97
   4   5  -4   26.58    0.97
   4   5  -4   30.22    1.50
   4   5  -4   27.60    1.27
   4   5  -4   25.02    0.98
   4   5  -4   26.20    0.95
  -4  -5   4   27.73    1.03
  -4  -5   4   26.94    1.00
   3   5  -4   22.34    0.84
   3   5  -4   25.20    1.30
   3   5  -4   22.78    0.85
   3   5  -4   22.40    0.83
   3   5  -4   22.95    0.99
   3   5  -4   24.92    1.31
   3   5  -4   23.10    0.87
   3   5  -4   23.54    1.09
   2   5  -4   78.82    2.63
   2   5  -4   77.57    2.85
   2   5  -4   78.04    2.71
   2   5  -4   78.84    2.86
   2   5  -4   78.99    2.70
   1   5  -4   85.82    3.04
   1   5  -4   78.06    3.26
   1   5  -4   90.08    2.99
   1   5  -4   89.31    2.88
   0   5  -4   59.70    2.09
   0   5  -4   56.63    2.42
   0   5  -4   57.63    3.09
   0   5  -4   59.36    1.98
  -1   5  -4   12.48    0.60
  -1   5  -4   13.20    0.91
  -1   5  -4   13.16    0.86
  -1   5  -4   13.95    1.56
  -2   5  -4    0.35    0.32
  -2   5  -4    0.36    0.27
  -2   5  -4    0.09    0.11
  -2   5  -4    0.39    0.62
  -2   5  -4    0.38    0.26
  -3   5  -4    0.31    0.63
  -3   5  -4    0.15    0.20
  -3   5  -4    0.19    0.28
  -3   5  -4    0.19    0.23
  -3   5  -4    0.06    0.30
  -3   5  -4    0.07    0.11
  -4   5  -4    8.01    1.20
  -4   5  -4   10.41    1.00
  -4   5  -4    9.64    0.67
  -4   5  -4    9.41    0.79
  -4   5  -4    8.89    0.47
  -4   5  -4    9.23    1.53
  -5   5  -4   22.66    1.08
  -5   5  -4   19.81    1.48
  -9  -4   4   15.62    0.82
  -9  -4   4   15.33    0.62
  -9  -4   4   15.88    0.65
  -8  -4   4   48.10    1.74
  -8  -4   4   46.92    1.67
  -8  -4   4   47.05    2.00
  -7  -4   4   29.79    1.14
  -7  -4   4   27.07    1.06
  -7  -4   4   26.65    1.40
   6   4  -4    6.89    0.35
  -6  -4   4    6.78    0.39
  -6  -4   4    7.37    0.65
  -6  -4   4    7.02    0.35
  -6  -4   4    7.59    0.45
  -6  -4   4    7.41    0.34
  -6  -4   4    6.95    0.33
   5   4  -4   21.91    0.83
   5   4  -4   21.69    0.80
  -5  -4   4   23.98    1.26
  -5  -4   4   23.18    0.89
  -5  -4   4   23.89    0.87
  -5  -4   4   24.57    0.92
  -5  -4   4   25.18    0.97
  -5  -4   4   23.28    0.89
  -5  -4   4   23.67    1.17
  -4  -4   4   24.77    1.15
   3   4  -4    6.74    0.47
   2   4  -4    0.27    0.13
   1   4  -4   57.40    2.07
   1   4  -4   57.52    2.08
   0   4  -4   61.71    2.19
  -1   4  -4   53.68    2.21
  -2   4  -4   73.62    2.48
  -2   4  -4   69.29    2.42
  -2   4  -4   66.00    2.67
  -2   4  -4   70.18    2.82
  -2   4  -4   70.89    2.67
  -2   4  -4   72.78    2.84
  -3   4  -4   73.55    2.94
  -3   4  -4   62.90    4.00
  -3   4  -4   70.48    2.78
  -3   4  -4   71.29    2.78
  -3   4  -4   73.01    3.51
  -3   4  -4   73.91    2.52
  -3   4  -4   74.72    2.95
  -3   4  -4   68.57    2.45
  -4   4  -4   30.37    1.54
  -4   4  -4   29.25    1.55
  -4   4  -4   28.42    1.08
  -4   4  -4   28.43    1.90
  -4   4  -4   29.03    1.43
  -4   4  -4   28.22    2.28
  -4   4  -4   28.34    1.13
  -4   4  -4   26.71    1.17
  -5   4  -4   11.45    1.23
  -5   4  -4   10.55    1.30
  -5   4  -4   12.32    0.89
  -5   4  -4   11.21    0.55
  -6   4  -4    0.64    0.36
  -9  -3   4    4.96    0.32
  -9  -3   4    4.65    0.28
  -9  -3   4    4.25    0.40
  -8  -3   4    5.24    0.31
  -8  -3   4    5.27    0.39
  -8  -3   4    4.60    0.46
  -8  -3   4    5.48    0.50
  -7  -3   4   10.94    0.52
  -7  -3   4   11.44    0.80
  -7  -3   4   12.34    0.65
  -7  -3   4   10.54    0.75
  -6  -3   4    1.61    0.14
  -6  -3   4    1.66    0.34
  -6  -3   4    1.89    0.16
  -6  -3   4    1.37    0.17
  -6  -3   4    1.62    0.35
  -6  -3   4    1.90    0.28
  -5  -3   4   17.50    0.90
  -5  -3   4   18.00    0.78
  -5  -3   4   17.33    1.02
  -5  -3   4   19.76    0.83
  -5  -3   4   19.54    0.82
  -4  -3   4  108.34    3.82
   3   3  -4  148.90    5.08
  -3  -3   4  167.48    5.71
   2   3  -4   97.44    3.45
   2   3  -4  103.11    3.48
  -2  -3   4  111.26    3.83
   1   3  -4   28.56    1.11
   1   3  -4   30.35    1.13
   0   3  -4    5.70    0.45
   0   3  -4    6.24    0.33
   0   3  -4    6.31    0.33
  -1   3  -4   16.00    0.78
  -3   3  -4   26.04    1.27
  -3   3  -4   28.42    1.04
  -3   3  -4   27.77    1.33
  -3   3  -4   31.90    1.88
  -3   3  -4   25.76    2.09
  -3   3  -4   29.21    1.42
  -3   3  -4   26.76    1.36
  -3   3  -4   28.80    1.10
  -4   3  -4   23.43    0.99
  -4   3  -4   23.90    1.32
  -4   3  -4   21.66    1.87
  -4   3  -4   24.09    1.66
  -4   3  -4   22.51    0.95
  -4   3  -4   23.17    1.29
  -4   3  -4   23.61    1.30
  -4   3  -4   22.76    0.89
  -4   3  -4   23.25    1.23
  -5   3  -4   26.17    1.48
  -5   3  -4   25.79    1.76
  -5   3  -4   24.40    1.06
  -5   3  -4   25.07    0.96
  -5   3  -4   24.49    1.79
  -5   3  -4   24.99    1.41
  -5   3  -4   26.64    1.50
  -5   3  -4   24.35    1.01
  -6   3  -4   22.34    0.83
  -6   3  -4   21.62    1.34
  -6   3  -4   20.72    0.89
  -6   3  -4   20.62    0.90
  -9  -2   4   10.92    0.49
  -9  -2   4   10.67    0.43
  -9  -2   4    9.25    0.56
  -8  -2   4   25.93    1.05
  -8  -2   4   23.44    1.15
  -8  -2   4   24.09    1.19
  -8  -2   4   23.83    0.90
  -8  -2   4   22.25    1.07
  -7  -2   4   62.81    2.52
  -7  -2   4   57.81    2.34
  -7  -2   4   58.97    2.44
  -7  -2   4   60.50    2.28
  -7  -2   4   59.11    2.09
  -6  -2   4   52.99    1.88
  -6  -2   4   52.30    2.24
  -6  -2   4   55.89    2.28
  -6  -2   4   54.82    2.26
  -6  -2   4   50.81    2.05
  -5  -2   4   73.73    2.70
  -4  -2   4    3.98    0.33
  -4  -2   4    3.92    0.32
  -4  -2   4    4.18    0.33
   3   2  -4    1.20    0.19
  -3  -2   4    1.30    0.19
  -3  -2   4    1.58    0.20
   2   2  -4    2.12    0.21
   2   2  -4    2.04    0.20
  -2  -2   4    2.51    0.23
   1   2  -4    0.43    0.11
   1   2  -4    0.42    0.10
  -1  -2   4    0.59    0.13
  -1  -2   4    0.62    0.12
   0   2  -4  110.70    3.74
   0   2  -4  113.03    3.75
  -1   2  -4  222.76    7.44
  -3   2  -4  166.15    6.33
  -4   2  -4   32.59    1.65
  -4   2  -4   36.01    1.67
  -4   2  -4   34.42    1.61
  -4   2  -4   32.27    1.46
  -4   2  -4   37.56    2.03
  -4   2  -4   36.57    1.32
  -4   2  -4   35.67    1.36
  -4   2  -4   33.35    1.24
  -4   2  -4   29.89    2.03
  -5   2  -4   31.30    1.63
  -5   2  -4   26.33    1.61
  -5   2  -4   31.16    1.97
  -5   2  -4   30.18    1.13
  -5   2  -4   29.64    1.25
  -5   2  -4   30.60    1.61
  -5   2  -4   31.52    1.45
  -5   2  -4   31.66    1.22
  -6   2  -4    0.24    0.13
  -6   2  -4    0.26    0.11
  -6   2  -4    0.17    0.30
  -6   2  -4    0.36    0.14
  -6   2  -4    0.20    0.30
  -7   2  -4    1.62    0.24
  -7   2  -4    2.25    0.28
  -7   2  -4    2.39    0.42
  -9  -1   4   11.48    0.50
  -9  -1   4   10.71    0.43
  -9  -1   4   10.63    0.58
  -8  -1   4    0.94    0.22
  -8  -1   4    0.87    0.23
  -8  -1   4    0.82    0.13
  -8  -1   4    0.68    0.22
  -7  -1   4    5.73    0.33
  -7  -1   4    5.39    0.48
  -7  -1   4    5.91    0.52
  -7  -1   4    4.78    0.50
  -7  -1   4    6.57    0.60
  -6  -1   4   20.75    0.99
  -6  -1   4   21.33    0.83
  -6  -1   4   22.81    1.14
  -6  -1   4   19.52    1.01
  -6  -1   4   22.93    1.22
  -5  -1   4   45.14    1.71
  -5  -1   4   44.50    1.71
  -5  -1   4   45.26    1.73
  -4  -1   4   16.11    0.72
  -4  -1   4   16.27    0.72
  -4  -1   4   16.55    0.73
  -3  -1   4   66.15    2.30
  -3  -1   4   66.37    2.30
  -3  -1   4   63.77    2.30
   2   1  -4  146.51    4.90
  -2  -1   4  156.21    5.22
  -2  -1   4  155.87    5.21
   1   1  -4  200.64    6.57
   1   1  -4  197.51    6.56
  -1  -1   4  221.15    7.21
  -1  -1   4  223.39    7.20
  -1  -1   4  210.34    7.19
   0   1  -4    3.48    0.20
   0   1  -4    3.21    0.19
   0   1  -4    3.28    0.20
   0  -1   4    3.31    0.20
   0  -1   4    3.80    0.21
  -1   1  -4    2.04    0.14
  -1   1  -4    1.90    0.18
  -1   1  -4    1.63    0.14
  -1   1  -4    1.66    0.14
  -3   1  -4   34.31    1.75
  -4   1  -4   36.55    1.69
  -4   1  -4   38.13    1.96
  -5   1  -4   44.61    1.88
  -5   1  -4   50.34    2.52
  -5   1  -4   47.67    2.04
  -5   1  -4   46.21    1.66
  -5   1  -4   43.28    2.13
  -5   1  -4   46.25    2.11
  -5   1  -4   47.80    1.75
  -5   1  -4   47.30    1.81
  -6   1  -4  104.80    3.71
  -6   1  -4  103.51    4.57
  -6   1  -4  106.46    4.07
  -6   1  -4  101.60    3.53
  -6   1  -4  102.17    3.62
  -7   1  -4   19.86    0.92
  -7   1  -4   20.17    0.94
  -7   1  -4   23.40    1.17
  -7   1  -4   19.08    0.80
  -8   1  -4   13.18    0.65
  -8   1  -4   10.27    0.54
  -8   0   4   26.24    1.22
  -8   0   4   23.57    1.09
  -8   0   4   24.68    1.07
  -7   0   4   54.54    2.16
  -7   0   4   56.76    1.98
  -7   0   4   61.51    2.47
  -7   0   4   55.95    2.25
  -6   0   4   36.67    1.72
  -6   0   4   32.23    1.19
  -6   0   4   32.40    1.41
  -6   0   4   32.58    1.34
  -5   0   4   97.14    3.67
  -5   0   4   91.03    3.26
  -4   0   4   78.06    2.72
  -4   0   4   78.38    2.73
  -4   0   4   78.13    2.71
  -3   0   4    7.10    0.37
  -3   0   4    6.89    0.37
   2   0  -4   55.98    1.93
  -2   0   4   64.43    2.22
  -2   0   4   64.87    2.23
  -2   0   4   64.39    2.22
   1   0  -4  151.30    5.17
   1   0  -4  162.33    5.18
  -1   0   4  175.31    5.78
  -1   0   4  174.75    5.78
   0   0  -4  135.39    4.55
   0   0  -4  139.65    4.55
   0   0   4  137.62    4.60
   0   0   4  140.62    4.60
  -1   0  -4  143.23    4.45
  -1   0  -4  134.63    4.45
  -1   0  -4  125.37    4.45
   1   0   4  120.66    4.00
  -2   0  -4   70.07    2.28
  -2   0  -4   64.56    2.30
  -2   0  -4   68.61    2.29
  -3   0  -4   79.84    3.15
  -4   0  -4   40.43    1.96
  -5   0  -4    0.35    0.17
  -5   0  -4    0.13    0.20
  -5   0  -4    0.57    0.16
  -5   0  -4    0.09    0.19
  -5   0  -4    0.58    0.14
  -5   0  -4   -0.27    0.21
  -6   0  -4    4.39    0.38
  -6   0  -4    4.31    0.46
  -6   0  -4    4.40    0.58
  -6   0  -4    4.25    0.30
  -6   0  -4    4.39    0.41
  -7   0  -4    3.28    0.46
  -7   0  -4    2.70    0.25
  -7   0  -4    2.79    0.35
  -7   0  -4    2.94    0.36
  -8   0  -4    5.57    0.44
  -8   0  -4    5.54    0.42
  -8   0  -4    6.33    0.49
  -8   1   4    0.20    0.18
  -8   1   4    0.01    0.16
  -8   1   4   -0.04    0.13
  -7   1   4    0.15    0.19
  -7   1   4    0.23    0.15
  -7   1   4    0.20    0.16
  -6   1   4    8.27    0.50
  -6   1   4    7.75    0.53
  -6   1   4    8.02    0.50
  -6   1   4    8.53    0.77
  -6   1   4    8.02    0.48
  -5   1   4   57.23    2.51
  -5   1   4   57.15    2.13
  -5   1   4   58.06    2.14
  -5   1   4   54.26    2.02
  -5   1   4   59.93    2.16
  -3   1   4  107.56    3.62
  -2   1   4  102.27    3.34
  -2   1   4   96.47    3.33
   1  -1  -4   88.63    3.17
   1  -1  -4  102.86    3.20
  -1   1   4  106.77    3.45
  -1   1   4   97.87    3.44
  -1   1   4  106.07    3.45
   0  -1  -4  254.05    8.51
   0  -1  -4  265.29    8.52
   0   1   4  257.01    8.35
   0   1   4  252.61    8.35
  -1  -1  -4   50.96    1.76
  -1  -1  -4   52.02    1.77
   1   1   4   47.59    1.62
   1   1   4   45.96    1.61
  -2  -1  -4   14.65    0.59
  -2  -1  -4   15.38    0.59
   2   1   4   13.05    0.54
  -3  -1  -4   42.31    1.47
  -3  -1  -4   41.89    1.49
  -4  -1  -4  129.54    5.05
  -4  -1  -4  144.31    4.59
  -5  -1  -4   67.65    3.03
  -6  -1  -4   67.69    2.56
  -6  -1  -4   66.95    2.62
  -6  -1  -4   61.24    2.56
  -6  -1  -4   68.16    2.43
  -7  -1  -4   54.06    2.07
  -7  -1  -4   55.85    2.20
  -7  -1  -4   54.01    2.19
  -7  -1  -4   54.51    2.20
  -7  -1  -4   50.51    2.08
  -8  -1  -4   26.75    1.15
  -8  -1  -4   27.68    1.23
  -8   2   4   16.94    0.82
  -8   2   4   14.23    0.67
  -7   2   4   42.99    1.93
  -7   2   4   41.76    1.59
  -7   2   4   41.19    1.68
  -7   2   4   43.00    1.61
  -6   2   4   30.04    1.23
  -6   2   4   28.86    1.14
  -6   2   4   28.50    1.24
  -6   2   4   28.42    1.54
  -5   2   4    6.72    0.38
  -5   2   4    7.36    0.50
  -5   2   4    6.68    0.45
  -5   2   4    7.49    0.70
  -5   2   4    6.96    0.47
  -5   2   4    6.59    0.55
  -4   2   4    1.06    0.46
  -4   2   4    0.73    0.19
  -4   2   4    0.55    0.16
  -1   2   4   35.71    1.25
  -1   2   4   35.18    1.25
   0  -2  -4   86.19    3.11
   0  -2  -4  100.21    3.13
   0   2   4   95.15    3.15
   0   2   4   92.47    3.16
   0   2   4   95.19    3.15
  -1  -2  -4  155.15    5.07
  -1  -2  -4  150.50    5.06
   1   2   4  145.29    4.84
   1   2   4  146.35    4.84
  -2  -2  -4  135.75    4.54
  -2  -2  -4  136.66    4.54
   2   2   4  119.22    4.13
   2   2   4  127.49    4.15
  -3  -2  -4    6.03    0.33
  -3  -2  -4    6.45    0.33
  -4  -2  -4   51.71    1.86
  -4  -2  -4   51.65    1.84
  -5  -2  -4   16.39    0.74
  -5  -2  -4   16.88    0.76
  -6  -2  -4    1.13    0.14
  -6  -2  -4    1.17    0.23
  -6  -2  -4    1.24    0.27
  -7  -2  -4    6.22    0.33
  -7  -2  -4    6.50    0.58
  -7  -2  -4    6.06    0.48
  -8  -2  -4    4.35    0.44
  -8  -2  -4    4.52    0.41
  -8  -2  -4    4.52    0.26
  -9  -2  -4   11.27    0.57
  -9  -2  -4   11.09    0.54
  -7   3   4    6.01    0.43
  -7   3   4    6.20    0.57
  -7   3   4    6.69    0.41
  -7   3   4    6.36    0.40
  -6   3   4   12.92    0.60
  -6   3   4   13.47    0.93
  -6   3   4   13.45    0.69
  -6   3   4   12.96    0.69
  -5   3   4   27.93    1.24
  -5   3   4   29.21    1.32
  -5   3   4   28.28    1.48
  -5   3   4   28.36    1.21
  -5   3   4   27.86    1.26
  -5   3   4   28.13    1.08
  -4   3   4   79.39    3.96
  -4   3   4   77.68    3.17
  -4   3   4   84.59    3.30
  -4   3   4   89.52    3.21
  -4   3   4   86.64    2.91
  -4   3   4   88.73    3.13
  -4   3   4   87.10    3.16
  -4   3   4   90.23    3.05
  -1   3   4  138.87    4.61
   0   3   4   19.45    0.75
   0   3   4   20.00    0.75
  -1  -3  -4   40.18    1.45
   1   3   4   37.58    1.36
   1   3   4   37.39    1.34
  -2  -3  -4    3.77    0.26
  -2  -3  -4    3.99    0.27
   2   3   4    3.71    0.27
   2   3   4    3.60    0.27
  -3  -3  -4   13.95    0.62
  -3  -3  -4   14.12    0.63
   3   3   4   13.34    0.64
  -4  -3  -4   36.44    1.40
  -4  -3  -4   37.18    1.41
  -5  -3  -4   39.82    1.56
  -5  -3  -4   41.25    1.58
  -6  -3  -4   39.48    1.69
  -6  -3  -4   38.22    1.37
  -6  -3  -4   37.81    1.53
  -6  -3  -4   39.57    1.68
  -7  -3  -4   31.25    1.32
  -7  -3  -4   32.33    1.47
  -7  -3  -4   30.18    1.13
  -7  -3  -4   30.88    1.43
  -8  -3  -4    6.85    0.53
  -8  -3  -4    6.90    0.48
  -8  -3  -4    7.02    0.55
  -8  -3  -4    7.09    0.35
  -9  -3  -4    6.58    0.32
  -9  -3  -4    6.50    0.41
  -9  -3  -4    6.64    0.44
  -6   4   4    8.46    0.52
  -6   4   4    7.71    0.64
  -6   4   4    7.85    0.49
  -6   4   4    7.86    0.41
  -5   4   4   11.48    0.53
  -5   4   4   11.91    0.63
  -5   4   4   11.24    0.79
  -5   4   4   12.15    0.70
  -5   4   4   11.85    0.73
  -4   4   4    2.00    0.34
  -4   4   4    2.28    0.35
  -4   4   4    1.95    0.63
  -4   4   4    2.42    0.20
  -4   4   4    2.28    0.36
  -4   4   4    2.47    0.35
  -4   4   4    2.36    0.26
  -3   4   4    4.28    0.40
  -3   4   4    3.70    0.75
  -3   4   4    5.06    0.57
  -3   4   4    4.53    0.44
  -3   4   4    4.83    0.34
  -3   4   4    4.31    0.41
  -3   4   4    4.63    0.26
  -1   4   4   61.19    2.12
   0   4   4   74.08    2.59
   0   4   4   75.88    2.57
   1   4   4   66.40    2.28
   1   4   4   63.43    2.28
  -2  -4  -4  360.46   11.90
   2   4   4  332.84   11.06
   2   4   4  335.95   11.05
  -3  -4  -4  116.53    4.02
   3   4   4  112.44    3.91
  -4  -4  -4   40.95    1.59
  -5  -4  -4    2.55    0.29
  -6  -4  -4    0.50    0.21
  -6  -4  -4    0.55    0.12
  -6  -4  -4    0.62    0.20
  -6  -4  -4    0.47    0.09
  -7  -4  -4   10.62    0.49
  -7  -4  -4   11.34    0.74
  -7  -4  -4   11.35    0.71
  -7  -4  -4   10.61    0.62
  -8  -4  -4   24.27    0.91
  -8  -4  -4   23.35    1.17
  -8  -4  -4   25.57    1.16
  -8  -4  -4   24.04    1.04
  -9  -4  -4   15.44    0.76
  -9  -4  -4   15.61    0.80
  -9  -4  -4   16.08    0.72
  -9  -4  -4   16.69    0.63
  -6   5   4   12.84    0.65
  -5   5   4   26.55    1.22
  -5   5   4   26.45    1.10
  -5   5   4   26.58    1.19
  -5   5   4   25.85    0.99
  -4   5   4   56.87    1.96
  -4   5   4   52.85    2.20
  -4   5   4   55.63    2.28
  -4   5   4   57.18    2.09
  -4   5   4   55.55    3.21
  -3   5   4   29.52    1.43
  -3   5   4   28.86    1.08
  -3   5   4   26.74    2.07
  -3   5   4   30.54    1.22
  -3   5   4   28.60    1.31
  -3   5   4   30.20    1.47
  -3   5   4   28.85    1.32
  -2   5   4   40.17    1.62
  -2   5   4   39.46    1.78
  -2   5   4   38.98    1.41
  -2   5   4   43.18    1.83
  -2   5   4   40.44    1.53
  -2   5   4   39.65    1.63
  -2   5   4   36.61    2.35
  -1   5   4   20.86    1.23
   0   5   4   40.17    1.47
   0   5   4   38.40    1.49
   1   5   4    3.65    0.29
   1   5   4    3.65    0.30
   2   5   4   13.17    0.67
   3   5   4   69.85    2.56
  -4  -5  -4   36.12    1.48
  -5  -5  -4   38.51    1.38
  -5  -5  -4   39.67    1.61
  -5  -5  -4   41.64    1.59
  -5  -5  -4   38.49    1.35
  -5  -5  -4   40.43    1.74
  -5  -5  -4   39.09    1.38
  -5  -5  -4   38.36    1.40
  -6  -5  -4   19.34    0.93
  -6  -5  -4   19.20    1.05
  -6  -5  -4   18.08    0.70
  -6  -5  -4   18.11    0.73
  -6  -5  -4   19.10    0.69
  -6  -5  -4   17.21    0.67
  -7  -5  -4   20.56    0.80
  -7  -5  -4   19.57    1.09
  -7  -5  -4   20.40    1.01
  -7  -5  -4   20.92    0.93
  -8  -5  -4   13.39    0.57
  -8  -5  -4   13.98    0.83
  -8  -5  -4   13.74    0.68
  -8  -5  -4   13.28    0.76
  -9  -5  -4    1.92    0.18
  -9  -5  -4    1.84    0.24
  -9  -5  -4    1.80    0.31
  -9  -5  -4    1.76    0.26
  -5   6   4    2.63    0.34
  -5   6   4    2.81    0.33
  -4   6   4    0.33    0.20
  -4   6   4    0.09    0.17
  -3   6   4    0.90    0.30
  -3   6   4    0.88    0.53
  -3   6   4    0.89    0.29
  -3   6   4    0.55    0.12
  -3   6   4    0.82    0.23
  -2   6   4   19.49    0.94
  -2   6   4   17.95    1.65
  -2   6   4   19.63    1.16
  -2   6   4   18.53    1.11
  -1   6   4   58.49    2.54
  -1   6   4   61.96    2.60
  -1   6   4   62.83    2.29
  -1   6   4   59.03    3.11
   0   6   4  233.59    8.59
   0   6   4  230.53    8.06
   0   6   4  219.95    7.98
   0   6   4  226.15    7.46
   1   6   4   66.78    3.00
   1   6   4   74.20    2.64
   1   6   4   77.25    2.66
   2   6   4   38.18    2.13
   2   6   4   46.84    1.69
   3   6   4   63.99    2.39
   3   6   4   62.84    2.92
  -4  -6  -4    4.81    0.28
  -4  -6  -4    4.41    0.25
   4   6   4    4.60    0.51
   4   6   4    4.45    0.23
   4   6   4    4.43    0.59
   4   6   4    3.80    0.24
   4   6   4    3.73    0.41
  -5  -6  -4    6.00    0.54
  -5  -6  -4    5.64    0.28
  -5  -6  -4    5.51    0.31
  -5  -6  -4    5.45    0.29
  -5  -6  -4    5.29    0.44
   5   6   4    4.37    0.27
   5   6   4    4.80    0.52
   5   6   4    4.87    0.25
  -6  -6  -4    1.44    0.14
  -6  -6  -4    1.70    0.16
  -6  -6  -4    2.07    0.21
  -6  -6  -4    1.63    0.17
  -6  -6  -4    1.79    0.29
  -6  -6  -4    1.65    0.35
   6   6   4    1.50    0.18
   6   6   4    1.37    0.15
  -7  -6  -4   10.62    0.75
  -7  -6  -4   11.44    0.67
  -7  -6  -4   10.65    0.45
  -7  -6  -4   10.52    0.49
   7   6   4   10.69    0.47
  -8  -6  -4   11.03    0.65
  -8  -6  -4   11.65    0.60
  -8  -6  -4   10.95    0.74
  -8  -6  -4   11.09    0.49
  -9  -6  -4    7.77    0.50
  -9  -6  -4    8.29    0.38
  -9  -6  -4    8.84    0.48
  -9  -6  -4    8.12    0.56
  -4   7   4   15.15    0.85
  -4   7   4   13.99    0.72
  -3   7   4   30.99    1.31
  -3   7   4   31.48    1.83
  -3   7   4   34.09    1.57
  -2   7   4   22.00    1.01
  -2   7   4   22.73    1.28
  -2   7   4   24.12    1.89
  -2   7   4   22.15    1.29
  -1   7   4    5.11    0.61
  -1   7   4    5.52    0.67
  -1   7   4    5.55    0.96
   0   7   4    8.74    0.40
   0   7   4    8.92    1.08
   0   7   4    8.66    0.86
   0   7   4    8.85    0.76
   1   7   4    2.26    0.22
   1   7   4    2.26    0.40
   1   7   4    2.19    0.45
   1   7   4    2.34    0.60
   2   7   4    1.10    0.17
   2   7   4    1.14    0.54
   2   7   4    1.25    0.15
   2   7   4    1.36    0.44
   2   7   4    1.24    0.34
   3   7   4   23.25    1.27
   3   7   4   19.59    0.78
   3   7   4   21.60    0.81
   3   7   4   22.29    1.64
   3   7   4   23.22    0.83
   3   7   4   20.55    0.81
  -4  -7  -4   49.10    1.75
  -4  -7  -4   49.95    1.72
   4   7   4   46.52    1.61
   4   7   4   48.49    2.16
   4   7   4   47.82    1.65
   4   7   4   46.28    1.63
   4   7   4   45.49    1.64
   4   7   4   48.42    2.37
  -5  -7  -4  122.72    3.94
  -5  -7  -4  110.78    4.43
  -5  -7  -4  121.75    3.97
   5   7   4  109.25    4.21
   5   7   4  113.28    3.65
   5   7   4  108.84    3.67
   5   7   4  103.66    3.66
   5   7   4  114.59    4.33
  -6  -7  -4   48.04    1.65
  -6  -7  -4   48.06    1.68
  -6  -7  -4   49.20    1.94
  -6  -7  -4   47.96    2.09
  -6  -7  -4   47.07    1.67
   6   7   4   46.59    2.14
   6   7   4   44.48    1.58
   6   7   4   44.12    1.55
  -7  -7  -4   31.38    1.36
  -7  -7  -4   30.71    1.10
  -7  -7  -4   30.60    1.48
  -7  -7  -4   30.52    1.07
  -7  -7  -4   31.13    1.08
   7   7   4   29.57    1.58
   7   7   4   31.00    1.09
  -8  -7  -4    1.73    0.28
  -8  -7  -4    1.57    0.17
  -8  -7  -4    1.82    0.25
  -8  -7  -4    1.69    0.32
   8   7   4    1.54    0.19
   8   7   4    1.54    0.17
   8   7   4    1.64    0.42
  -9  -7  -4    2.18    0.28
  -9  -7  -4    2.04    0.21
  -9  -7  -4    1.77    0.31
  -9  -7  -4    1.88    0.26
   9   7   4    1.68    0.39
   9   7   4    2.15    0.18
  -3   8   4    3.86    0.45
  -2   8   4   17.77    1.12
  -2   8   4   17.91    1.03
  -1   8   4   16.25    1.16
  -1   8   4   14.96    0.96
  -1   8   4   14.65    0.61
  -1   8   4   17.92    1.46
   0   8   4   12.37    0.52
   0   8   4   12.12    0.85
   0   8   4   12.28    1.13
   1   8   4   73.41    3.54
   1   8   4   81.64    2.58
   1   8   4   72.20    3.00
   2   8   4   44.02    1.55
   2   8   4   44.42    1.99
   3   8   4   41.51    1.46
   3   8   4   39.75    1.44
   3   8   4   39.73    1.90
   3   8   4   44.40    2.50
  -4  -8  -4    4.98    0.29
  -4  -8  -4    4.56    0.35
   4   8   4    4.25    0.28
   4   8   4    4.58    0.82
   4   8   4    3.96    0.54
   4   8   4    4.39    0.30
   4   8   4    4.69    0.27
  -5  -8  -4    0.14    0.10
  -5  -8  -4   -0.02    0.11
   5   8   4    0.05    0.10
   5   8   4   -0.02    0.12
   5   8   4    0.07    0.11
   5   8   4    0.13    0.34
   5   8   4    0.07    0.21
  -6  -8  -4    0.44    0.11
  -6  -8  -4    0.45    0.13
  -6  -8  -4    0.71    0.21
  -6  -8  -4    0.55    0.12
   6   8   4    0.45    0.14
   6   8   4    0.68    0.37
   6   8   4    0.40    0.12
   6   8   4    0.41    0.26
  -7  -8  -4    3.69    0.44
  -7  -8  -4    4.02    0.24
  -7  -8  -4    3.79    0.22
  -7  -8  -4    3.90    0.39
  -7  -8  -4    3.96    0.26
   7   8   4    3.88    0.63
   7   8   4    3.28    0.25
   7   8   4    3.99    0.27
   7   8   4    3.89    0.28
  -8  -8  -4   12.97    0.61
  -8  -8  -4   11.93    0.71
  -8  -8  -4   11.60    0.46
  -8  -8  -4   11.49    0.64
   8   8   4   12.02    0.54
   8   8   4   12.27    0.92
   8   8   4   12.03    0.51
   8   8   4   12.26    0.51
  -9  -8  -4    6.59    0.40
  -9  -8  -4    7.66    0.39
   9   8   4    7.01    0.33
  -1   9   4    7.81    0.99
  -1   9   4    7.02    0.51
   0   9   4    0.54    0.52
   0   9   4    0.36    0.21
   0   9   4    0.58    0.12
   1   9   4    1.56    0.16
   1   9   4    2.28    0.69
   1   9   4    2.11    0.37
   2   9   4   15.98    0.64
   2   9   4   15.90    0.97
   2   9   4   16.63    1.48
   3   9   4   47.65    2.44
   3   9   4   44.77    1.56
   3   9   4   41.47    1.95
  -4  -9  -4   30.44    1.10
   4   9   4   27.64    1.00
   4   9   4   24.51    1.37
   4   9   4   28.80    1.70
  -5  -9  -4   24.37    0.90
  -5  -9  -4   24.82    0.94
   5   9   4   19.24    1.15
   5   9   4   21.59    0.78
   5   9   4   21.96    0.94
   5   9   4   22.37    1.38
  -6  -9  -4   23.59    0.87
  -6  -9  -4   24.00    0.88
  -6  -9  -4   22.62    1.06
  -6  -9  -4   23.54    0.85
   6   9   4   20.98    1.29
   6   9   4   19.98    0.74
   6   9   4   21.83    0.79
   6   9   4   21.48    0.77
  -7  -9  -4   22.98    0.84
  -7  -9  -4   23.42    0.82
  -7  -9  -4   21.32    1.00
  -7  -9  -4   23.09    0.81
   7   9   4   20.92    0.77
   7   9   4   20.81    0.79
   7   9   4   21.79    0.80
   7   9   4   22.85    1.28
  -8  -9  -4    4.23    0.32
  -8  -9  -4    4.03    0.33
  -8  -9  -4    4.41    0.22
   8   9   4    4.35    0.25
   8   9   4    4.30    0.24
   8   9   4    4.11    0.57
   8   9   4    4.09    0.26
   1  10   4   17.14    1.38
   1  10   4   14.42    0.57
   2  10   4    7.51    0.88
   2  10   4    5.30    0.47
   2  10   4    6.62    0.31
   3  10   4   12.76    0.81
   3  10   4   16.97    1.18
   3  10   4   14.90    0.58
   4  10   4   11.41    0.77
   4  10   4   13.39    0.52
   4  10   4   13.94    1.06
  -5 -10  -4    1.08    0.24
  -5 -10  -4    0.76    0.15
  -5 -10  -4    1.04    0.21
   5  10   4    0.55    0.23
   5  10   4    0.47    0.40
  -6 -10  -4    6.48    0.30
  -6 -10  -4    6.05    0.32
  -6 -10  -4    5.21    0.31
  -6 -10  -4    5.68    0.41
   6  10   4    3.49    0.39
  -7 -10  -4    6.89    0.41
  -7 -10  -4    7.43    0.33
  -7 -10  -4    7.62    0.31
  -7 -10  -4    7.38    0.30
   5   9  -5   15.02    0.81
  -5  -9   5   22.29    0.85
  -5  -9   5   23.11    0.82
   4   9  -5    9.80    0.65
   4   9  -5    9.77    0.40
  -4  -9   5   14.08    0.58
   3   9  -5   16.09    0.87
   3   9  -5   16.76    0.61
  -3  -9   5   23.72    0.89
   2   9  -5    5.75    0.28
   2   9  -5    5.51    0.56
  -7  -8   5   17.80    0.69
  -7  -8   5   17.08    0.63
  -7  -8   5   18.09    0.64
  -7  -8   5   17.58    0.66
   6   8  -5    7.54    0.34
   6   8  -5    6.18    0.55
  -6  -8   5    9.71    0.46
  -6  -8   5    9.49    0.45
  -6  -8   5    9.54    0.43
  -6  -8   5    8.90    0.42
   5   8  -5    6.22    0.60
  -5  -8   5    8.85    0.46
  -5  -8   5    8.99    0.42
  -5  -8   5    9.34    0.44
   4   8  -5    0.85    0.32
   4   8  -5    0.90    0.14
  -4  -8   5    1.29    0.16
  -4  -8   5    1.46    0.20
   3   8  -5    2.03    0.42
   3   8  -5    2.12    0.22
   2   8  -5    9.95    0.45
   2   8  -5    9.70    0.76
   1   8  -5   40.60    1.38
   1   8  -5   40.80    1.50
   1   8  -5   37.17    1.70
   0   8  -5   34.58    1.30
   0   8  -5   34.68    1.86
   8   7  -5    1.39    0.15
   8   7  -5    1.03    0.12
   8   7  -5    0.84    0.13
  -8  -7   5    1.16    0.16
   7   7  -5    1.08    0.14
   7   7  -5    1.18    0.16
   7   7  -5    0.97    0.14
  -7  -7   5    1.42    0.14
  -7  -7   5    1.43    0.16
  -7  -7   5    1.29    0.13
  -7  -7   5    1.21    0.19
   6   7  -5    6.39    0.34
   6   7  -5    6.39    0.32
   6   7  -5    5.92    0.30
  -6  -7   5    7.18    0.41
  -6  -7   5    7.34    0.39
  -6  -7   5    7.57    0.37
  -6  -7   5    7.57    0.38
   5   7  -5   18.59    1.18
   5   7  -5   21.61    0.76
   5   7  -5   20.49    0.74
   5   7  -5   21.36    0.78
  -5  -7   5   23.72    0.95
  -5  -7   5   23.10    0.88
  -5  -7   5   23.38    0.92
   4   7  -5   31.06    1.62
   4   7  -5   31.81    1.09
   4   7  -5   30.11    1.13
  -4  -7   5   38.23    1.37
   3   7  -5   65.82    2.24
   3   7  -5   64.57    2.79
   2   7  -5   27.56    1.48
   2   7  -5   25.31    0.98
   2   7  -5   26.33    1.12
   1   7  -5    2.76    0.24
   1   7  -5    2.70    0.32
   1   7  -5    3.31    0.92
   1   7  -5    2.47    0.45
   0   7  -5    0.78    0.19
   0   7  -5    1.02    0.14
   0   7  -5    1.02    0.52
   0   7  -5    1.11    0.38
  -1   7  -5    0.41    0.33
  -1   7  -5    0.16    0.51
  -1   7  -5    0.26    0.16
  -2   7  -5    2.76    0.79
  -2   7  -5    2.30    0.29
  -2   7  -5    2.30    0.43
   8   6  -5   14.28    0.60
   8   6  -5   15.45    0.59
  -8  -6   5   16.49    0.67
  -8  -6   5   14.54    0.84
   7   6  -5   19.51    0.76
   7   6  -5   19.97    0.74
  -7  -6   5   22.08    0.79
  -7  -6   5   22.55    0.90
  -7  -6   5   22.22    0.80
  -7  -6   5   21.99    0.83
  -7  -6   5   21.85    1.15
   6   6  -5   19.00    0.70
   6   6  -5   18.93    0.73
   6   6  -5   17.54    0.72
  -6  -6   5   21.91    0.85
  -6  -6   5   20.87    1.16
  -6  -6   5   21.29    0.83
  -6  -6   5   21.50    0.81
  -6  -6   5   21.84    0.89
   5   6  -5    1.56    0.41
   5   6  -5    1.42    0.16
   5   6  -5    1.30    0.15
   5   6  -5    1.38    0.17
  -5  -6   5    1.57    0.20
  -5  -6   5    1.33    0.16
  -5  -6   5    1.49    0.21
   4   6  -5    1.04    0.12
   4   6  -5    0.87    0.34
   4   6  -5    0.92    0.14
   4   6  -5    0.89    0.15
   4   6  -5    1.01    0.13
  -4  -6   5    0.94    0.17
  -4  -6   5    1.02    0.15
   3   6  -5   22.39    1.00
   3   6  -5   23.02    0.81
   3   6  -5   21.84    0.86
   3   6  -5   21.71    0.82
   3   6  -5   23.56    1.35
   2   6  -5    7.92    0.50
   2   6  -5    7.80    0.40
   2   6  -5    8.10    0.74
   1   6  -5   17.81    0.83
   1   6  -5   18.61    1.13
   1   6  -5   17.73    0.71
   1   6  -5   20.36    1.17
   1   6  -5   17.05    1.50
   0   6  -5   43.68    1.50
   0   6  -5   43.71    2.66
   0   6  -5   39.80    1.97
   0   6  -5   43.58    1.50
   0   6  -5   43.17    1.63
  -1   6  -5   60.39    2.13
  -1   6  -5   61.21    2.22
  -1   6  -5   58.55    2.59
  -1   6  -5   64.93    3.61
  -2   6  -5   34.51    2.44
  -2   6  -5   35.49    1.75
  -2   6  -5   38.63    1.43
  -2   6  -5   41.33    2.88
  -3   6  -5   17.66    2.07
  -3   6  -5   15.26    0.69
  -3   6  -5   15.51    1.00
  -9  -5   5    2.36    0.21
  -9  -5   5    2.16    0.20
  -9  -5   5    2.26    0.31
   8   5  -5    0.59    0.12
  -8  -5   5    1.08    0.19
  -8  -5   5    0.61    0.12
  -8  -5   5    0.62    0.25
   7   5  -5   11.13    0.48
   7   5  -5   11.25    0.51
  -7  -5   5   11.41    0.81
  -7  -5   5   11.90    0.53
  -7  -5   5   11.97    0.58
  -7  -5   5   12.45    0.46
  -7  -5   5   11.94    0.50
   6   5  -5   14.50    0.58
   6   5  -5   14.02    0.60
  -6  -5   5   15.93    0.60
  -6  -5   5   14.48    0.61
  -6  -5   5   15.02    0.72
  -6  -5   5   15.62    0.69
  -6  -5   5   15.99    0.64
  -6  -5   5   14.19    0.95
   5   5  -5   57.45    1.98
   5   5  -5   56.42    2.50
   5   5  -5   57.63    1.95
  -5  -5   5   60.93    2.16
  -5  -5   5   61.84    2.18
  -5  -5   5   63.06    2.22
  -5  -5   5   64.14    2.61
  -5  -5   5   62.64    2.14
   4   5  -5   34.39    1.22
   4   5  -5   36.88    1.76
   4   5  -5   33.18    1.22
   4   5  -5   32.68    1.21
   4   5  -5   33.74    1.19
  -4  -5   5   36.48    1.30
  -4  -5   5   36.43    1.34
   3   5  -5   44.62    1.59
   3   5  -5   44.50    1.57
   3   5  -5   48.25    2.10
   3   5  -5   44.43    1.54
   3   5  -5   43.19    1.55
   3   5  -5   47.41    2.10
   3   5  -5   45.57    1.73
  -3  -5   5   47.87    1.69
   2   5  -5   63.59    2.12
   2   5  -5   61.90    2.24
   2   5  -5   61.42    2.56
   2   5  -5   59.50    2.09
   2   5  -5   62.16    2.12
   2   5  -5   62.73    2.08
   1   5  -5   26.04    1.84
   1   5  -5   28.44    1.00
   1   5  -5   28.09    1.11
   1   5  -5   28.25    1.38
   0   5  -5    3.72    0.23
   0   5  -5    3.51    0.83
   0   5  -5    3.72    0.30
   0   5  -5    3.14    0.49
  -1   5  -5   18.97    1.14
  -1   5  -5   19.73    0.84
  -1   5  -5   20.79    1.99
  -2   5  -5   39.46    1.89
  -2   5  -5   40.92    1.53
  -2   5  -5   37.71    2.46
  -2   5  -5   42.71    3.17
  -2   5  -5   41.87    1.98
  -3   5  -5   23.97    0.93
  -3   5  -5   22.19    1.25
  -3   5  -5   20.44    1.61
  -3   5  -5   20.33    2.30
  -3   5  -5   23.03    1.45
  -4   5  -5   24.51    0.99
  -4   5  -5   25.40    1.17
  -4   5  -5   25.49    1.35
  -4   5  -5   25.32    2.23
  -9  -4   5   15.31    0.59
  -9  -4   5   14.62    0.77
  -9  -4   5   14.99    0.61
  -8  -4   5   27.67    1.01
  -8  -4   5   26.08    1.05
  -8  -4   5   26.39    1.30
  -7  -4   5   40.53    1.50
  -7  -4   5   38.31    1.43
  -7  -4   5   38.98    1.81
   6   4  -5   12.36    0.59
   6   4  -5   11.56    0.50
  -6  -4   5   11.54    0.51
  -6  -4   5   12.27    0.56
  -6  -4   5   11.96    0.85
  -6  -4   5   12.26    0.50
  -6  -4   5   11.76    0.48
  -6  -4   5   13.60    0.63
   5   4  -5   12.81    0.53
   5   4  -5   13.47    0.56
  -5  -4   5   14.29    0.60
  -5  -4   5   15.29    0.62
  -5  -4   5   14.82    0.94
  -5  -4   5   14.56    0.63
  -5  -4   5   15.61    0.68
  -5  -4   5   14.22    0.58
   4   4  -5   11.69    0.49
   4   4  -5   11.09    1.14
   4   4  -5   11.44    0.47
  -4  -4   5   11.23    0.50
  -4  -4   5   11.36    0.47
   3   4  -5    7.79    0.51
   2   4  -5   46.79    1.78
   1   4  -5   81.06    2.85
   1   4  -5   79.67    2.87
   0   4  -5   77.73    2.73
   0   4  -5   78.52    2.76
  -1   4  -5   54.73    2.32
  -1   4  -5   55.72    2.30
  -1   4  -5   54.36    3.28
  -1   4  -5   58.05    1.99
  -2   4  -5   39.47    1.85
  -2   4  -5   42.33    1.48
  -2   4  -5   39.95    1.81
  -2   4  -5   34.94    2.88
  -3   4  -5   29.65    1.53
  -3   4  -5   30.72    1.61
  -3   4  -5   29.58    1.97
  -3   4  -5   31.21    1.18
  -3   4  -5   25.67    2.50
  -3   4  -5   29.37    1.41
  -4   4  -5    7.32    0.65
  -4   4  -5    6.55    0.87
  -4   4  -5    9.85    1.01
  -4   4  -5    7.70    1.28
  -4   4  -5    7.33    0.71
  -4   4  -5    7.08    0.43
  -5   4  -5    0.48    0.33
  -5   4  -5    0.50    0.16
  -5   4  -5    0.45    0.46
  -9  -3   5    0.40    0.11
  -9  -3   5    0.42    0.13
  -9  -3   5    0.31    0.17
  -8  -3   5    5.34    0.49
  -8  -3   5    5.59    0.39
  -8  -3   5    5.26    0.32
  -8  -3   5    5.56    0.51
  -7  -3   5   27.56    1.06
  -7  -3   5   28.94    1.16
  -7  -3   5   26.99    1.38
  -7  -3   5   26.81    1.39
  -6  -3   5   55.14    2.33
  -6  -3   5   56.81    2.03
  -6  -3   5   53.44    1.93
  -6  -3   5   53.06    1.86
  -6  -3   5   55.37    1.83
  -6  -3   5   54.07    2.35
  -5  -3   5   46.01    1.99
  -5  -3   5   45.52    1.59
  -5  -3   5   45.55    1.63
  -5  -3   5   45.56    2.01
  -5  -3   5   43.50    1.55
  -5  -3   5   45.81    1.57
  -5  -3   5   47.24    1.70
  -4  -3   5  154.40    5.35
   3   3  -5   26.33    1.12
  -3  -3   5   28.02    1.19
   2   3  -5    9.60    0.51
   1   3  -5   14.06    0.64
   1   3  -5   13.29    0.62
   0   3  -5    0.27    0.10
   0   3  -5    0.22    0.16
   0   3  -5    0.32    0.11
  -1   3  -5    0.25    0.13
  -1   3  -5    0.25    0.09
  -2   3  -5   14.05    0.60
  -2   3  -5   14.02    0.85
  -2   3  -5   13.10    1.04
  -3   3  -5   45.10    1.93
  -3   3  -5   45.86    2.00
  -3   3  -5   46.04    1.65
  -3   3  -5   43.51    2.01
  -3   3  -5   42.60    1.68
  -3   3  -5   39.09    2.87
  -3   3  -5   50.03    2.55
  -4   3  -5  128.34    5.26
  -4   3  -5  122.32    4.21
  -4   3  -5  124.68    4.78
  -4   3  -5  124.86    4.28
  -4   3  -5  130.75    4.76
  -4   3  -5  126.88    4.72
  -4   3  -5  120.72    5.68
  -5   3  -5   27.21    1.10
  -5   3  -5   30.70    1.62
  -5   3  -5   25.88    1.84
  -5   3  -5   27.83    1.82
  -6   3  -5   19.21    0.80
  -6   3  -5   17.63    1.23
  -9  -2   5   22.56    0.98
  -9  -2   5   23.66    0.87
  -9  -2   5   23.85    0.83
  -9  -2   5   21.59    0.98
  -8  -2   5   22.34    0.86
  -8  -2   5   22.17    1.11
  -8  -2   5   24.64    0.98
  -8  -2   5   22.18    1.14
  -7  -2   5   34.28    1.28
  -7  -2   5   33.92    1.61
  -7  -2   5   35.20    1.44
  -7  -2   5   35.07    1.65
  -6  -2   5   39.60    1.80
  -6  -2   5   39.01    1.79
  -6  -2   5   37.68    1.55
  -6  -2   5   38.28    1.42
  -5  -2   5    2.32    0.33
  -5  -2   5    1.63    0.13
  -5  -2   5    1.28    0.14
  -5  -2   5    1.41    0.26
  -5  -2   5    1.55    0.24
  -5  -2   5    1.50    0.31
  -5  -2   5    1.70    0.18
  -4  -2   5    1.06    0.19
   3   2  -5   19.23    0.85
  -3  -2   5   19.80    0.87
   2   2  -5   82.24    2.87
  -2  -2   5   86.79    3.04
   1   2  -5   70.43    2.46
   1   2  -5   70.71    2.46
  -1  -2   5   83.11    2.88
   0   2  -5  198.29    6.59
   0   2  -5  199.63    6.59
  -1   2  -5  157.12    5.57
  -1   2  -5  170.56    5.47
  -1   2  -5  165.85    5.46
  -3   2  -5   -0.09    0.30
  -3   2  -5    1.16    0.17
  -3   2  -5    0.75    0.26
  -3   2  -5    0.99    0.26
  -3   2  -5    0.91    0.37
  -4   2  -5    0.11    0.30
  -4   2  -5    0.59    0.27
  -4   2  -5    0.04    0.10
  -4   2  -5    0.21    0.25
  -4   2  -5    0.33    0.32
  -4   2  -5    0.10    0.22
  -5   2  -5    0.60    0.37
  -5   2  -5    0.58    0.39
  -5   2  -5    0.41    0.15
  -6   2  -5    6.53    0.86
  -6   2  -5    6.60    0.43
  -6   2  -5    7.01    0.83
  -7   2  -5   13.52    0.85
  -7   2  -5   11.37    0.60
  -9  -1   5    0.09    0.12
  -9  -1   5    0.13    0.11
  -8  -1   5    3.55    0.40
  -8  -1   5    4.12    0.26
  -8  -1   5    3.98    0.38
  -7  -1   5   12.26    0.73
  -7  -1   5   13.25    0.58
  -7  -1   5   13.93    0.85
  -7  -1   5   13.38    0.89
  -6  -1   5   77.45    2.90
  -6  -1   5   80.49    2.76
  -6  -1   5   85.27    3.26
  -6  -1   5   79.62    3.13
  -5  -1   5   55.64    1.91
  -5  -1   5   53.03    2.14
  -5  -1   5   52.79    2.18
  -5  -1   5   57.96    2.26
  -5  -1   5   54.80    2.09
  -5  -1   5   58.22    2.37
  -5  -1   5   53.79    2.06
  -4  -1   5   91.69    3.23
  -4  -1   5   92.40    3.23
  -3  -1   5  213.25    7.23
  -3  -1   5  219.51    7.22
   2   1  -5   96.44    3.29
  -2  -1   5  112.82    3.82
  -2  -1   5  112.05    3.81
  -2  -1   5  111.60    3.83
   1   1  -5  147.71    4.92
   1   1  -5  147.04    4.92
  -1  -1   5  170.33    5.68
   0   1  -5    0.08    0.07
   0   1  -5    0.19    0.08
   0  -1   5    0.15    0.08
  -1   1  -5   16.78    0.65
  -1   1  -5   16.97    0.66
  -1   1  -5   16.60    0.71
  -2   1  -5   52.23    1.81
  -4   1  -5   55.45    2.41
  -4   1  -5   57.80    2.40
  -4   1  -5   60.36    2.06
  -4   1  -5   62.60    2.76
  -4   1  -5   49.63    2.40
  -5   1  -5   71.48    3.28
  -5   1  -5   83.75    3.66
  -5   1  -5   81.49    2.81
  -6   1  -5   60.48    2.20
  -6   1  -5   55.02    2.21
  -6   1  -5   60.30    3.03
  -6   1  -5   63.26    2.69
  -7   1  -5   14.62    0.92
  -7   1  -5   12.70    0.66
  -7   1  -5   11.29    0.63
  -8   0   5   24.75    1.04
  -8   0   5   25.56    0.91
  -8   0   5   25.11    1.20
  -7   0   5   15.78    0.98
  -7   0   5   12.98    0.74
  -7   0   5   14.41    0.74
  -7   0   5   14.51    0.60
  -6   0   5    4.81    0.29
  -6   0   5    5.70    0.41
  -6   0   5    5.31    0.59
  -6   0   5    4.17    0.43
  -5   0   5    0.15    0.11
  -5   0   5    0.26    0.18
  -5   0   5    0.12    0.07
  -5   0   5    0.15    0.13
  -5   0   5    0.43    0.14
  -4   0   5   29.56    1.16
  -4   0   5   29.60    1.17
  -3   0   5   45.58    1.63
  -3   0   5   43.88    1.62
   2   0  -5  157.49    5.25
  -2   0   5  171.68    5.73
  -2   0   5  172.51    5.74
   1   0  -5  116.42    3.99
   1   0  -5  122.65    4.01
  -1   0   5  128.51    4.23
  -1   0   5  124.04    4.23
   0   0  -5   19.02    0.75
   0   0  -5   19.93    0.75
   0   0   5   17.71    0.69
   0   0   5   17.67    0.69
  -1   0  -5   39.44    1.37
  -1   0  -5   38.24    1.37
   1   0   5   33.85    1.21
  -2   0  -5  110.63    3.66
  -2   0  -5  108.86    3.67
  -3   0  -5  112.02    3.59
  -3   0  -5  101.66    4.06
  -4   0  -5    0.62    0.27
  -5   0  -5    8.30    0.78
  -5   0  -5    9.43    0.91
  -5   0  -5    9.53    0.51
  -6   0  -5    5.65    0.68
  -6   0  -5    4.96    0.42
  -6   0  -5    5.26    0.42
  -6   0  -5    5.40    0.79
  -7   0  -5   25.70    1.11
  -7   0  -5   29.11    1.34
  -7   0  -5   23.25    1.13
  -8   0  -5   11.63    0.61
  -8   0  -5   14.18    0.72
  -8   0  -5   13.38    0.65
  -8   1   5    7.21    0.44
  -8   1   5    7.31    0.54
  -7   1   5   12.02    0.62
  -7   1   5   11.19    0.64
  -7   1   5   12.91    0.86
  -6   1   5   45.71    1.74
  -6   1   5   46.43    2.16
  -6   1   5   45.24    1.72
  -6   1   5   41.72    1.73
  -6   1   5   42.83    1.65
  -5   1   5   85.65    3.13
  -5   1   5   91.70    3.17
  -5   1   5   88.03    3.59
  -5   1   5   92.26    3.19
  -5   1   5   85.53    3.04
  -4   1   5  136.42    4.63
  -3   1   5  192.85    6.49
  -3   1   5  197.56    6.50
  -2   1   5   64.71    2.23
  -2   1   5   64.05    2.22
   1  -1  -5   12.09    0.51
  -1   1   5   12.83    0.54
  -1   1   5   12.83    0.54
   0  -1  -5   25.35    0.94
   0  -1  -5   25.55    0.94
   0   1   5   24.84    0.93
   0   1   5   25.23    0.93
  -1  -1  -5   31.27    1.15
  -1  -1  -5   32.12    1.14
   1   1   5   28.40    1.04
   1   1   5   28.64    1.04
  -2  -1  -5  150.92    5.04
  -2  -1  -5  152.55    5.03
  -3  -1  -5   68.67    2.35
  -3  -1  -5   68.57    2.37
  -4  -1  -5   65.23    2.30
  -4  -1  -5   63.96    2.76
  -4  -1  -5   68.58    2.30
  -5  -1  -5   26.98    1.34
  -5  -1  -5   26.76    1.59
  -5  -1  -5   28.34    1.11
  -6  -1  -5    1.60    0.26
  -6  -1  -5    1.91    0.38
  -6  -1  -5    1.96    0.31
  -7  -1  -5    6.76    0.50
  -7  -1  -5    7.24    0.61
  -7  -1  -5    6.69    0.53
  -8  -1  -5    6.88    0.46
  -8  -1  -5    5.71    0.72
  -8  -1  -5    7.03    0.49
  -7   2   5    8.71    0.48
  -7   2   5    7.24    0.48
  -7   2   5    9.16    0.75
  -7   2   5    8.85    0.48
  -6   2   5    2.76    0.29
  -6   2   5    2.49    0.29
  -6   2   5    2.63    0.50
  -6   2   5    2.41    0.25
  -6   2   5    2.66    0.30
  -5   2   5    0.38    0.12
  -5   2   5    0.38    0.15
  -5   2   5    0.23    0.11
  -5   2   5    0.30    0.24
  -5   2   5    0.25    0.15
  -4   2   5   27.74    1.21
  -4   2   5   28.02    1.10
  -4   2   5   28.49    1.20
  -4   2   5   27.38    1.45
  -3   2   5   45.35    1.63
  -2   2   5   99.03    3.41
  -2   2   5  103.35    3.42
  -1   2   5  254.74    8.21
  -1   2   5  244.28    8.21
   0  -2  -5  488.25   15.95
   0   2   5  443.32   14.48
   0   2   5  442.21   14.46
  -1  -2  -5  148.18    4.95
  -1  -2  -5  149.04    4.95
   1   2   5  136.55    4.57
   1   2   5  137.29    4.57
  -2  -2  -5   67.12    2.29
  -2  -2  -5   65.45    2.29
   2   2   5   61.51    2.15
  -3  -2  -5    7.03    0.37
  -3  -2  -5    6.43    0.35
  -4  -2  -5   18.67    0.78
  -4  -2  -5   18.23    0.78
  -5  -2  -5    0.63    0.15
  -5  -2  -5    0.49    0.13
  -6  -2  -5    5.76    0.50
  -6  -2  -5    6.18    0.45
  -6  -2  -5    6.03    0.32
  -6  -2  -5    5.33    0.53
  -7  -2  -5   31.93    1.97
  -7  -2  -5   39.74    1.53
  -7  -2  -5   39.37    1.33
  -7  -2  -5   36.01    1.62
  -8  -2  -5   26.45    1.21
  -8  -2  -5   28.25    1.16
  -8  -2  -5   28.29    1.00
  -9  -2  -5   14.16    0.65
  -9  -2  -5   15.58    0.64
  -7   3   5   12.33    0.62
  -7   3   5   13.45    0.59
  -7   3   5   13.81    0.62
  -7   3   5   12.89    0.85
  -6   3   5   44.00    2.08
  -6   3   5   44.06    1.72
  -6   3   5   45.71    1.62
  -6   3   5   45.26    1.74
  -5   3   5   39.87    1.62
  -5   3   5   39.59    1.44
  -5   3   5   39.68    1.56
  -5   3   5   37.50    1.85
  -5   3   5   40.55    1.65
  -4   3   5   45.69    1.88
  -4   3   5   45.82    2.06
  -4   3   5   46.73    1.91
  -4   3   5   47.64    1.86
  -4   3   5   46.52    1.75
  -4   3   5   45.09    1.63
  -3   3   5   27.41    1.22
  -3   3   5   27.17    1.20
  -1   3   5    3.06    0.21
  -1   3   5    2.87    0.20
   0   3   5    2.57    0.19
   0   3   5    2.15    0.18
  -1  -3  -5   85.11    2.93
   1   3   5   75.40    2.57
   1   3   5   73.94    2.57
  -2  -3  -5   12.76    0.58
   2   3   5   12.03    0.56
  -3  -3  -5   64.62    2.33
  -3  -3  -5   67.80    2.35
   3   3   5   66.13    2.39
  -4  -3  -5   32.16    1.28
  -4  -3  -5   33.60    1.30
  -5  -3  -5   86.09    3.02
  -5  -3  -5   83.56    3.01
  -6  -3  -5   39.63    1.69
  -6  -3  -5   37.63    1.51
  -6  -3  -5   38.14    1.65
  -6  -3  -5   37.52    1.36
  -7  -3  -5    1.15    0.15
  -7  -3  -5    1.32    0.29
  -7  -3  -5    1.28    0.29
  -7  -3  -5    1.17    0.24
  -8  -3  -5    0.66    0.19
  -8  -3  -5    0.83    0.23
  -8  -3  -5    0.73    0.21
  -8  -3  -5    0.94    0.13
  -9  -3  -5   -0.03    0.14
  -9  -3  -5    0.09    0.14
  -9  -3  -5    0.03    0.09
  -6   4   5    0.32    0.12
  -6   4   5    0.25    0.15
  -6   4   5    0.23    0.13
  -6   4   5    0.30    0.23
  -5   4   5    0.34    0.20
  -5   4   5    0.15    0.09
  -5   4   5    0.14    0.14
  -5   4   5    0.02    0.09
  -5   4   5    0.12    0.13
  -4   4   5    1.91    0.34
  -4   4   5    2.38    0.20
  -4   4   5    2.48    0.34
  -4   4   5    2.34    0.36
  -4   4   5    3.06    0.38
  -4   4   5    2.12    0.25
  -3   4   5   60.46    2.39
  -3   4   5   61.77    2.12
  -3   4   5   63.38    2.48
  -3   4   5   64.98    2.25
  -3   4   5   60.79    2.41
  -3   4   5   57.85    3.22
  -1   4   5  160.79    5.41
  -1   4   5  162.48    5.40
   0   4   5  128.17    4.32
   0   4   5  128.74    4.34
   1   4   5  294.86    9.69
   1   4   5  292.36    9.70
  -2  -4  -5   62.55    2.26
   2   4   5   56.07    2.04
  -3  -4  -5   30.05    1.22
   3   4   5   28.88    1.20
  -4  -4  -5    5.70    0.40
  -5  -4  -5   60.03    2.30
  -5  -4  -5   61.10    2.19
  -5  -4  -5   62.19    2.13
  -5  -4  -5   62.98    2.49
  -6  -4  -5   11.70    0.69
  -6  -4  -5   11.57    0.50
  -6  -4  -5   12.48    0.78
  -6  -4  -5   10.12    0.44
  -6  -4  -5   11.29    0.63
  -7  -4  -5    4.44    0.30
  -7  -4  -5    4.81    0.49
  -7  -4  -5    5.26    0.47
  -7  -4  -5    4.89    0.41
  -8  -4  -5   14.71    0.73
  -8  -4  -5   14.23    0.83
  -8  -4  -5   14.33    0.79
  -8  -4  -5   14.96    0.60
  -9  -4  -5    9.93    0.42
  -9  -4  -5   10.38    0.52
  -9  -4  -5    9.40    0.58
  -9  -4  -5    9.23    0.53
  -5   5   5   21.77    0.84
  -5   5   5   22.36    1.06
  -5   5   5   22.86    1.06
  -4   5   5   27.01    1.00
  -4   5   5   25.38    1.24
  -4   5   5   26.05    1.28
  -4   5   5   26.96    1.12
  -3   5   5    8.48    0.63
  -3   5   5    9.94    0.44
  -3   5   5    9.53    0.65
  -3   5   5    9.95    0.54
  -3   5   5    9.01    1.22
  -3   5   5    9.75    0.72
  -2   5   5   26.47    1.96
  -2   5   5   29.04    1.43
  -2   5   5   27.94    1.28
  -2   5   5   29.41    1.16
  -2   5   5   27.23    1.03
  -2   5   5   29.64    1.28
  -1   5   5    3.30    0.42
  -1   5   5    2.53    0.63
  -1   5   5    2.57    0.39
   0   5   5    1.71    0.20
   0   5   5    1.57    0.21
   1   5   5   44.42    1.66
   1   5   5   43.49    1.65
   2   5   5   91.88    3.26
   3   5   5  162.99    5.60
  -4  -5  -5   75.31    2.78
  -5  -5  -5   41.66    1.49
  -5  -5  -5   41.99    1.46
  -5  -5  -5   42.60    1.48
  -5  -5  -5   44.70    1.88
  -5  -5  -5   43.04    1.52
  -5  -5  -5   42.48    1.68
  -5  -5  -5   42.49    1.77
   5   5   5   36.96    1.34
   5   5   5   35.64    1.26
  -6  -5  -5   35.21    1.23
  -6  -5  -5   35.79    1.48
  -6  -5  -5   34.10    1.27
  -6  -5  -5   34.40    1.21
  -6  -5  -5   35.20    1.61
  -7  -5  -5   20.41    0.80
  -7  -5  -5   20.06    1.00
  -7  -5  -5   20.40    1.11
  -7  -5  -5   20.68    0.93
  -8  -5  -5    0.20    0.11
  -8  -5  -5    0.24    0.16
  -8  -5  -5    0.37    0.17
  -8  -5  -5    0.24    0.18
  -9  -5  -5    3.45    0.32
  -9  -5  -5    3.41    0.25
  -9  -5  -5    3.79    0.33
  -9  -5  -5    3.69    0.39
  -5   6   5    1.44    0.26
  -5   6   5    1.52    0.28
  -4   6   5   10.47    0.65
  -4   6   5    9.50    0.67
  -3   6   5   23.12    1.93
  -3   6   5   23.99    1.27
  -3   6   5   23.71    1.13
  -2   6   5   18.41    0.92
  -2   6   5   18.79    0.95
  -2   6   5   20.21    1.19
  -2   6   5   18.79    1.70
  -1   6   5   61.45    2.22
  -1   6   5   65.39    3.38
  -1   6   5   65.69    2.75
  -1   6   5   66.63    2.45
  -1   6   5   69.77    2.84
   0   6   5   61.93    2.66
   0   6   5   59.41    2.08
   0   6   5   64.99    3.15
   0   6   5   59.44    2.54
   1   6   5   33.16    1.44
   1   6   5   27.06    1.30
   1   6   5   27.88    1.04
   1   6   5   31.07    1.26
   1   6   5   26.60    1.51
   2   6   5   11.37    0.46
   2   6   5   11.70    0.52
   2   6   5   12.95    0.92
   2   6   5   12.15    0.66
   2   6   5    9.51    0.96
   3   6   5    6.16    0.31
   3   6   5    5.76    0.45
   3   6   5    6.45    0.82
   3   6   5    5.61    0.34
   3   6   5    6.11    0.56
   3   6   5    6.25    0.29
  -4  -6  -5    6.81    0.58
  -4  -6  -5    8.13    0.35
  -4  -6  -5    7.58    0.37
   4   6   5    7.13    0.63
   4   6   5    7.98    0.75
   4   6   5    7.01    0.34
   4   6   5    6.83    0.34
   4   6   5    6.75    0.32
   4   6   5    6.81    0.34
  -5  -6  -5    0.81    0.14
  -5  -6  -5    0.67    0.11
  -5  -6  -5    0.79    0.20
  -5  -6  -5    0.48    0.12
  -5  -6  -5    0.77    0.27
  -5  -6  -5    0.62    0.11
   5   6   5    0.29    0.12
   5   6   5    0.57    0.11
  -6  -6  -5   47.70    1.71
  -6  -6  -5   48.59    2.10
  -6  -6  -5   48.98    1.67
  -6  -6  -5   49.99    1.93
  -6  -6  -5   48.52    1.68
  -6  -6  -5   46.92    1.65
   6   6   5   44.02    1.54
   6   6   5   43.29    1.51
  -7  -6  -5   16.85    0.87
  -7  -6  -5   17.13    0.80
  -7  -6  -5   16.22    0.63
  -7  -6  -5   16.89    1.00
  -7  -6  -5   16.65    0.69
   7   6   5   15.94    0.63
  -8  -6  -5   36.71    1.52
  -8  -6  -5   36.20    1.32
  -8  -6  -5   37.99    1.65
  -8  -6  -5   38.35    1.44
  -9  -6  -5    5.96    0.31
  -9  -6  -5    5.60    0.40
  -9  -6  -5    5.61    0.47
  -9  -6  -5    5.99    0.39
  -4   7   5   17.21    0.98
  -4   7   5   18.04    0.95
  -3   7   5   11.10    0.63
  -3   7   5   11.45    0.81
  -2   7   5    5.11    0.58
  -2   7   5    4.43    0.37
  -1   7   5   -0.02    0.08
  -1   7   5    0.13    0.24
  -1   7   5    0.23    0.24
  -1   7   5    0.21    0.41
   0   7   5    6.08    0.33
   0   7   5    6.30    0.69
   0   7   5    7.20    0.63
   0   7   5    6.41    0.72
   0   7   5    6.90    1.01
   1   7   5   37.92    2.07
   1   7   5   42.18    1.40
   1   7   5   38.50    1.90
   2   7   5   59.20    1.96
   2   7   5   64.29    2.45
   2   7   5   51.89    1.92
   2   7   5   56.14    2.43
   2   7   5   52.71    2.84
   3   7   5   71.16    3.31
   3   7   5   66.38    2.28
   3   7   5   62.49    2.26
   3   7   5   70.49    2.79
   3   7   5   69.03    2.31
   3   7   5   65.83    2.29
  -4  -7  -5  110.78    3.67
  -4  -7  -5  106.76    3.63
   4   7   5   98.15    3.33
   4   7   5   99.26    3.35
   4   7   5  103.21    4.15
   4   7   5  100.81    3.90
   4   7   5   97.57    3.35
   4   7   5  101.97    3.37
  -5  -7  -5   45.12    1.55
  -5  -7  -5   44.65    1.52
  -5  -7  -5   41.24    1.89
   5   7   5   43.24    2.07
   5   7   5   42.88    1.46
   5   7   5   39.87    1.47
   5   7   5   42.63    1.97
   5   7   5   42.24    1.49
  -6  -7  -5    9.46    0.62
  -6  -7  -5    9.89    0.74
  -6  -7  -5    9.96    0.46
  -6  -7  -5    9.91    0.42
  -6  -7  -5    9.75    0.44
   6   7   5    8.65    0.43
   6   7   5    8.85    0.85
   6   7   5    9.62    0.41
  -7  -7  -5    0.16    0.19
  -7  -7  -5    0.18    0.08
  -7  -7  -5   -0.06    0.09
  -7  -7  -5   -0.01    0.12
  -7  -7  -5   -0.03    0.14
   7   7   5   -0.02    0.12
   7   7   5    0.20    0.11
   7   7   5    0.10    0.29
  -8  -7  -5   -0.01    0.10
  -8  -7  -5    0.02    0.14
  -8  -7  -5    0.00    0.14
  -8  -7  -5    0.10    0.18
   8   7   5    0.01    0.29
   8   7   5   -0.27    0.12
   8   7   5   -0.16    0.11
  -9  -7  -5    1.11    0.24
  -9  -7  -5    1.22    0.19
  -9  -7  -5    1.00    0.13
  -9  -7  -5    1.13    0.20
   9   7   5    0.79    0.14
   9   7   5    0.92    0.33
  -2   8   5   23.95    1.27
  -1   8   5   17.25    0.68
  -1   8   5   18.26    1.10
  -1   8   5   19.17    1.20
   0   8   5    9.18    0.94
   0   8   5    8.57    0.73
   0   8   5    8.77    0.41
   1   8   5   34.49    1.20
   1   8   5   29.40    1.58
   1   8   5   31.91    1.99
   1   8   5   37.36    1.69
   2   8   5   16.72    1.01
   2   8   5   13.73    1.41
   2   8   5   15.36    0.61
   2   8   5   12.70    0.89
   3   8   5    1.69    0.68
   3   8   5    1.85    0.18
   3   8   5    1.25    0.37
   3   8   5    1.41    0.18
  -4  -8  -5   11.29    0.49
  -4  -8  -5   11.38    0.53
   4   8   5   10.24    0.44
   4   8   5    9.44    0.80
   4   8   5    9.39    0.45
   4   8   5   10.54    0.47
   4   8   5   10.19    1.06
  -5  -8  -5    3.14    0.27
  -5  -8  -5    2.66    0.23
   5   8   5    2.36    0.21
   5   8   5    2.52    0.56
   5   8   5    2.68    0.23
   5   8   5    2.79    0.49
   5   8   5    2.52    0.22
  -6  -8  -5   24.40    0.93
  -6  -8  -5   23.86    1.13
  -6  -8  -5   25.38    0.92
  -6  -8  -5   24.87    0.89
   6   8   5   23.88    0.88
   6   8   5   23.54    0.87
   6   8   5   22.56    0.85
   6   8   5   23.27    1.38
  -7  -8  -5   15.51    0.62
  -7  -8  -5   16.16    0.59
  -7  -8  -5   15.94    0.90
  -7  -8  -5   16.42    0.83
  -7  -8  -5   16.46    0.61
   7   8   5   16.17    0.62
   7   8   5   16.32    0.64
   7   8   5   15.91    1.08
   7   8   5   15.71    0.64
  -8  -8  -5   16.45    0.78
  -8  -8  -5   17.33    0.76
  -8  -8  -5   15.67    0.85
   8   8   5   16.89    0.67
   8   8   5   16.49    1.06
   8   8   5   15.60    0.75
   8   8   5   17.84    0.65
  -9  -8  -5   22.81    1.00
  -1   9   5    0.48    0.23
   0   9   5    3.57    0.72
   0   9   5    3.79    0.25
   0   9   5    3.29    0.41
   1   9   5   10.21    0.71
   1   9   5   10.18    1.09
   1   9   5   10.87    0.44
   1   9   5    8.17    0.61
   2   9   5   20.19    0.78
   2   9   5   20.11    1.12
   2   9   5   21.93    1.62
   3   9   5   22.50    0.85
   3   9   5   20.98    1.21
   3   9   5   24.81    1.64
  -4  -9  -5   24.14    0.90
   4   9   5   21.80    1.43
   4   9   5   20.02    0.76
   4   9   5   18.06    1.11
  -5  -9  -5   22.47    0.84
  -5  -9  -5   22.81    0.87
   5   9   5   19.33    0.72
   5   9   5   20.08    1.28
   5   9   5   18.46    1.09
  -6  -9  -5   15.73    0.63
  -6  -9  -5   16.31    0.61
  -6  -9  -5   15.56    0.80
  -6  -9  -5   16.09    0.64
   6   9   5   13.92    0.54
   6   9   5   14.73    0.55
   6   9   5   14.70    0.58
   6   9   5   13.89    1.03
  -7  -9  -5    5.56    0.28
  -7  -9  -5    5.41    0.26
  -7  -9  -5    5.15    0.29
  -7  -9  -5    4.77    0.41
   7   9   5    4.87    0.31
   7   9   5    5.03    0.29
   7   9   5    4.94    0.73
   7   9   5    4.93    0.28
  -8  -9  -5    0.24    0.22
  -8  -9  -5    0.15    0.14
   8   9   5    0.10    0.10
   8   9   5    0.26    0.11
   8   9   5    0.30    0.10
   8   9   5    0.27    0.29
   1  10   5    6.13    0.28
   2  10   5    0.48    0.11
   2  10   5    0.40    0.43
   2  10   5    0.30    0.18
   3  10   5    0.12    0.10
   3  10   5   -0.03    0.41
   3  10   5   -0.02    0.16
  -4 -10  -5    5.06    0.29
   4  10   5    3.77    0.27
   4  10   5    3.83    0.68
   4  10   5    3.65    0.44
  -5 -10  -5   11.08    0.46
  -5 -10  -5   10.79    0.48
  -5 -10  -5   10.30    0.60
   5  10   5    7.18    0.57
   5  10   5    9.20    0.85
  -6 -10  -5   23.41    0.86
  -6 -10  -5   23.87    0.84
  -6 -10  -5   24.00    0.86
  -6 -10  -5   23.65    1.01
   6  10   5   14.65    0.76
  -7 -10  -5   18.97    0.69
  -7 -10  -5   19.53    0.68
  -7 -10  -5   18.01    0.80
  -7 -10  -5   19.93    0.67
  -7  -8   6    9.01    0.38
  -7  -8   6    9.42    0.36
  -6  -8   6    0.07    0.12
  -6  -8   6    0.10    0.11
  -6  -8   6    0.21    0.10
  -6  -8   6    0.07    0.11
   5   8  -6    1.00    0.31
  -5  -8   6    1.69    0.18
  -5  -8   6    1.65    0.17
  -5  -8   6    1.65    0.20
   4   8  -6    8.64    0.38
   4   8  -6    7.60    0.67
  -4  -8   6   11.06    0.49
  -4  -8   6   11.67    0.53
   3   8  -6   10.42    0.78
   3   8  -6   11.22    0.47
   2   8  -6   27.23    1.35
   2   8  -6   28.00    0.99
   1   8  -6   18.38    1.00
   1   8  -6   20.92    0.73
   8   7  -6    8.67    0.37
   8   7  -6    8.22    0.36
   7   7  -6   26.19    0.92
   7   7  -6   25.47    0.90
   7   7  -6   25.57    0.92
  -7  -7   6   27.11    1.04
  -7  -7   6   28.38    0.97
  -7  -7   6   28.34    1.00
   6   7  -6   25.85    0.93
   6   7  -6   25.85    0.91
   6   7  -6   24.72    0.89
  -6  -7   6   30.16    1.05
  -6  -7   6   28.56    1.10
  -6  -7   6   27.79    1.05
  -6  -7   6   29.82    1.08
   5   7  -6   23.51    1.36
   5   7  -6   28.17    0.94
   5   7  -6   28.04    0.96
  -5  -7   6   31.29    1.12
  -5  -7   6   30.43    1.15
  -5  -7   6   31.06    1.17
   4   7  -6   26.01    0.88
   4   7  -6   24.16    0.92
   4   7  -6   23.86    1.36
  -4  -7   6   32.81    1.31
  -4  -7   6   31.67    1.17
  -4  -7   6   32.00    1.22
   3   7  -6   17.70    1.14
   3   7  -6   18.47    0.72
   2   7  -6    0.56    0.29
   2   7  -6    0.47    0.19
   2   7  -6    0.40    0.13
   1   7  -6    0.24    0.12
   1   7  -6    0.10    0.15
   1   7  -6    0.38    0.25
   1   7  -6    0.46    0.44
   0   7  -6   15.38    0.73
   0   7  -6   15.13    0.61
   0   7  -6   15.84    1.40
  -1   7  -6   16.02    0.74
  -1   7  -6   17.21    1.54
  -2   7  -6   21.62    1.57
  -2   7  -6   18.66    0.80
   8   6  -6    2.14    0.17
   8   6  -6    2.22    0.19
  -8  -6   6    2.44    0.24
  -8  -6   6    2.25    0.34
   7   6  -6    3.45    0.26
   7   6  -6    3.35    0.27
   7   6  -6    3.28    0.25
  -7  -6   6    3.71    0.43
  -7  -6   6    4.31    0.23
  -7  -6   6    3.55    0.27
  -7  -6   6    3.76    0.29
   6   6  -6    2.64    0.25
   6   6  -6    2.25    0.19
   6   6  -6    2.82    0.22
  -6  -6   6    3.25    0.28
  -6  -6   6    3.43    0.25
  -6  -6   6    2.97    0.27
  -6  -6   6    3.07    0.24
   5   6  -6    0.20    0.11
   5   6  -6    0.13    0.24
   5   6  -6    0.17    0.10
   5   6  -6   -0.02    0.11
  -5  -6   6    0.35    0.13
  -5  -6   6    0.17    0.12
  -5  -6   6    0.03    0.09
   4   6  -6    2.15    0.18
   4   6  -6    1.69    0.17
   4   6  -6    2.28    0.20
   4   6  -6    1.98    0.46
   4   6  -6    1.65    0.19
  -4  -6   6    2.04    0.20
  -4  -6   6    2.31    0.24
  -4  -6   6    2.63    0.28
   3   6  -6   21.78    1.31
   3   6  -6   22.09    0.98
   3   6  -6   20.83    0.78
   3   6  -6   20.42    0.82
   2   6  -6   47.89    2.19
   2   6  -6   47.67    1.82
   2   6  -6   47.06    1.67
   2   6  -6   47.47    2.22
   1   6  -6   55.42    2.36
   1   6  -6   54.01    1.96
   1   6  -6   50.04    2.84
   1   6  -6   49.32    2.27
   1   6  -6   52.81    1.82
   0   6  -6   39.40    2.54
   0   6  -6   39.39    1.52
   0   6  -6   38.91    1.40
   0   6  -6   42.58    1.91
   0   6  -6   38.39    1.40
  -1   6  -6   28.51    1.12
  -1   6  -6   24.32    1.73
  -1   6  -6   26.22    0.99
  -1   6  -6   30.45    2.30
  -2   6  -6   10.08    1.63
  -2   6  -6    8.53    0.75
  -2   6  -6    8.77    0.50
  -3   6  -6    0.64    0.75
  -3   6  -6    0.23    0.14
   8   5  -6   14.24    0.56
   8   5  -6   14.30    0.61
  -8  -5   6   14.28    0.62
  -8  -5   6   14.04    0.57
  -8  -5   6   14.30    0.84
   7   5  -6   22.41    0.82
   7   5  -6   21.64    0.84
  -7  -5   6   23.98    0.85
  -7  -5   6   23.57    0.93
  -7  -5   6   22.57    1.21
  -7  -5   6   22.74    0.95
   6   5  -6   66.47    2.25
   6   5  -6   66.05    2.28
  -6  -5   6   70.30    2.40
  -6  -5   6   72.15    2.43
  -6  -5   6   69.85    2.49
  -6  -5   6   71.01    2.39
  -6  -5   6   70.07    2.86
   5   5  -6   68.48    2.34
   5   5  -6   64.96    2.33
   5   5  -6   69.29    2.31
   5   5  -6   70.33    2.91
  -5  -5   6   77.13    2.65
  -5  -5   6   76.39    3.07
  -5  -5   6   75.92    2.63
  -5  -5   6   77.55    2.69
  -5  -5   6   77.05    2.61
   4   5  -6   24.80    0.89
   4   5  -6   26.86    1.45
   4   5  -6   24.58    0.91
   4   5  -6   22.96    0.92
   4   5  -6   24.39    0.92
  -4  -5   6   27.93    1.05
  -4  -5   6   26.61    1.06
  -4  -5   6   26.79    1.00
   3   5  -6   23.58    0.87
   3   5  -6   24.01    0.86
   3   5  -6   25.03    1.36
   3   5  -6   26.52    1.42
   3   5  -6   23.57    1.04
   3   5  -6   23.29    0.91
   3   5  -6   23.35    0.89
  -3  -5   6   24.31    0.92
   2   5  -6    1.80    0.24
   2   5  -6    1.87    0.16
   2   5  -6    2.09    0.21
   2   5  -6    2.38    0.18
   2   5  -6    2.33    0.44
   1   5  -6    0.32    0.14
   1   5  -6    0.49    0.11
   1   5  -6    0.30    0.22
   1   5  -6    0.20    0.38
   0   5  -6    3.33    0.30
   0   5  -6    2.99    0.22
   0   5  -6    3.04    0.44
   0   5  -6    2.91    0.84
  -1   5  -6   28.56    1.74
  -1   5  -6   31.70    2.53
  -1   5  -6   30.26    1.08
  -1   5  -6   30.39    1.20
  -2   5  -6   45.66    2.09
  -2   5  -6   49.96    3.50
  -2   5  -6   48.10    1.74
  -2   5  -6   44.72    2.70
  -3   5  -6   20.86    0.83
  -3   5  -6   17.31    1.43
  -3   5  -6   19.95    1.14
  -3   5  -6   17.93    2.22
  -4   5  -6   18.43    0.78
  -4   5  -6   18.64    0.91
  -4   5  -6   20.18    1.88
  -9  -4   6   19.90    0.71
  -9  -4   6   19.43    0.73
  -9  -4   6   19.05    0.89
  -8  -4   6   24.44    0.92
  -8  -4   6   24.13    1.21
  -8  -4   6   24.75    0.97
   7   4  -6    7.20    0.36
  -7  -4   6    6.48    0.76
  -7  -4   6    6.71    0.62
  -7  -4   6    7.22    0.38
  -7  -4   6    6.81    0.43
   6   4  -6    0.88    0.14
   6   4  -6    0.92    0.15
  -6  -4   6    1.03    0.13
  -6  -4   6    1.14    0.12
  -6  -4   6    0.84    0.13
  -6  -4   6    0.66    0.15
  -6  -4   6    0.74    0.26
  -6  -4   6    0.74    0.18
  -6  -4   6    0.75    0.26
   5   4  -6   19.11    0.73
   5   4  -6   19.11    0.76
  -5  -4   6   20.57    1.18
  -5  -4   6   20.30    1.14
  -5  -4   6   20.43    0.81
  -5  -4   6   21.63    0.87
  -5  -4   6   20.50    0.82
  -5  -4   6   20.52    0.78
  -5  -4   6   19.80    0.79
   4   4  -6   33.17    1.23
   4   4  -6   36.92    1.72
   4   4  -6   32.89    1.20
  -4  -4   6   35.85    1.65
  -4  -4   6   34.76    1.28
  -4  -4   6   31.24    1.56
  -4  -4   6   33.96    1.21
  -4  -4   6   34.30    1.24
   3   4  -6   24.09    0.90
   3   4  -6   23.86    1.12
   3   4  -6   24.51    0.89
   3   4  -6   23.92    0.90
   3   4  -6   24.55    0.94
   3   4  -6   25.52    1.28
   3   4  -6   22.97    0.86
   2   4  -6   69.20    2.56
   2   4  -6   71.44    2.81
   2   4  -6   67.60    2.47
   1   4  -6  107.51    3.65
   1   4  -6  110.97    4.50
   1   4  -6  110.05    3.82
   0   4  -6   43.74    2.72
   0   4  -6   43.93    1.56
   0   4  -6   45.56    1.66
   0   4  -6   49.33    1.92
  -1   4  -6    7.60    0.34
  -1   4  -6    7.91    1.38
  -1   4  -6    7.61    0.42
  -2   4  -6    8.04    0.70
  -2   4  -6    6.47    0.89
  -2   4  -6    7.20    1.60
  -2   4  -6    8.43    0.45
  -3   4  -6    0.21    0.26
  -3   4  -6    0.64    0.59
  -3   4  -6    0.34    0.35
  -3   4  -6    0.25    0.14
  -3   4  -6    0.28    0.22
  -3   4  -6    0.57    0.71
  -4   4  -6    6.83    0.40
  -4   4  -6    6.05    0.61
  -4   4  -6    6.38    0.68
  -4   4  -6    6.09    0.82
  -4   4  -6    6.24    1.21
  -5   4  -6   18.82    1.44
  -5   4  -6   22.33    1.13
  -5   4  -6   20.24    0.83
  -9  -3   6   10.58    0.59
  -9  -3   6   10.79    0.46
  -9  -3   6   10.85    0.44
  -8  -3   6   28.88    1.38
  -8  -3   6   31.17    1.42
  -8  -3   6   31.42    1.13
  -8  -3   6   31.92    1.19
  -7  -3   6   47.50    2.11
  -7  -3   6   48.47    1.73
  -7  -3   6   48.02    2.11
  -7  -3   6   49.78    1.81
  -6  -3   6   15.13    0.73
  -6  -3   6   16.03    0.57
  -6  -3   6   15.71    0.68
  -6  -3   6   15.18    1.00
  -6  -3   6   15.21    0.98
  -6  -3   6   15.10    0.60
   5   3  -6   66.25    2.25
  -5  -3   6   67.49    2.34
  -5  -3   6   66.79    2.41
  -5  -3   6   70.09    2.82
  -5  -3   6   74.71    2.88
  -5  -3   6   68.66    2.37
  -5  -3   6   68.44    2.47
  -5  -3   6   69.93    2.36
  -4  -3   6   37.76    1.35
  -4  -3   6   38.51    1.62
  -4  -3   6   37.51    1.38
  -4  -3   6   41.26    1.98
   3   3  -6  123.23    4.32
   2   3  -6   26.11    1.10
   1   3  -6    0.47    0.13
   1   3  -6    0.64    0.15
   0   3  -6    4.09    0.28
   0   3  -6    2.66    0.35
   0   3  -6    3.31    0.27
  -1   3  -6   23.35    0.94
  -2   3  -6   57.77    2.32
  -2   3  -6   56.28    2.54
  -2   3  -6   62.06    2.46
  -2   3  -6   64.55    2.14
  -3   3  -6   45.48    2.45
  -3   3  -6   41.47    1.85
  -3   3  -6   43.47    1.57
  -3   3  -6   41.61    1.90
  -3   3  -6   38.98    2.96
  -3   3  -6   40.21    2.04
  -4   3  -6   60.84    2.57
  -4   3  -6   60.37    2.16
  -4   3  -6   58.02    3.43
  -4   3  -6   61.04    3.01
  -4   3  -6   59.91    2.57
  -5   3  -6   12.21    0.99
  -5   3  -6   11.92    0.57
  -5   3  -6   10.66    1.05
  -5   3  -6   10.77    1.14
  -6   3  -6    1.43    0.21
  -6   3  -6    1.94    0.47
  -9  -2   6    7.96    0.35
  -8  -2   6    5.03    0.47
  -8  -2   6    5.29    0.38
  -8  -2   6    4.94    0.47
  -8  -2   6    5.16    0.31
  -7  -2   6    0.85    0.26
  -7  -2   6    0.96    0.23
  -7  -2   6    1.02    0.17
  -7  -2   6    0.79    0.27
  -6  -2   6    0.30    0.20
  -6  -2   6    0.51    0.18
  -6  -2   6    0.49    0.14
  -6  -2   6    0.27    0.19
  -5  -2   6   12.33    0.48
  -5  -2   6   12.70    0.83
  -5  -2   6   11.94    0.49
  -5  -2   6   12.66    0.84
  -5  -2   6   10.61    0.59
  -5  -2   6   12.61    0.54
  -4  -2   6  108.28    3.84
  -4  -2   6  108.53    3.82
  -3  -2   6  148.05    5.03
  -3  -2   6  145.31    5.05
   2   2  -6   90.40    3.15
  -2  -2   6  104.93    3.65
   1   2  -6   45.46    1.66
   1   2  -6   44.53    1.64
   0   2  -6   98.64    3.37
   0   2  -6   98.55    3.37
  -1   2  -6   12.70    0.67
  -1   2  -6   14.23    0.60
  -1   2  -6   14.72    0.61
  -2   2  -6   10.99    0.50
  -3   2  -6    4.27    0.68
  -3   2  -6    5.36    0.55
  -3   2  -6    5.51    0.33
  -3   2  -6    4.63    0.49
  -3   2  -6    3.61    0.87
  -4   2  -6    3.26    0.30
  -4   2  -6    2.83    0.53
  -4   2  -6    2.77    0.77
  -4   2  -6    3.46    0.52
  -4   2  -6    3.12    0.62
  -5   2  -6   19.66    1.49
  -5   2  -6   19.19    1.37
  -5   2  -6   19.61    0.86
  -6   2  -6   11.60    1.51
  -6   2  -6   12.80    1.10
  -6   2  -6   12.17    0.60
  -7   2  -6   23.32    1.07
  -7   2  -6   18.46    0.82
  -8  -1   6   13.55    0.74
  -8  -1   6   12.95    0.55
  -8  -1   6   12.91    0.78
  -8  -1   6   12.99    0.63
  -7  -1   6   44.44    1.56
  -7  -1   6   45.44    2.00
  -7  -1   6   44.45    1.90
  -7  -1   6   38.58    1.64
  -6  -1   6  102.11    3.43
  -6  -1   6  101.17    3.83
  -6  -1   6   96.32    3.53
  -6  -1   6  104.39    3.95
  -5  -1   6   89.47    3.40
  -5  -1   6   87.85    3.02
  -5  -1   6   90.81    3.52
  -4  -1   6   52.33    1.96
  -3  -1   6    1.05    0.18
   2   1  -6   24.60    0.99
  -2  -1   6   28.15    1.12
   1   1  -6   15.05    0.65
   1   1  -6   14.91    0.64
  -1  -1   6   16.87    0.73
   0   1  -6   41.33    1.47
   0   1  -6   39.64    1.46
  -1   1  -6   11.47    0.50
  -1   1  -6   10.55    0.53
  -1   1  -6   11.50    0.50
  -2   1  -6  152.62    5.09
  -4   1  -6    7.36    0.65
  -4   1  -6    7.73    0.82
  -4   1  -6    6.32    0.76
  -4   1  -6    8.13    0.44
  -5   1  -6   15.66    1.29
  -5   1  -6   19.68    0.85
  -5   1  -6   19.12    1.42
  -6   1  -6    6.22    0.84
  -6   1  -6    6.43    0.81
  -6   1  -6    6.82    0.45
  -7   1  -6    1.23    0.36
  -7   1  -6    0.86    0.21
  -8   0   6    6.42    0.32
  -8   0   6    5.72    0.39
  -8   0   6    6.19    0.51
  -7   0   6    0.41    0.11
  -7   0   6    0.35    0.23
  -7   0   6    0.26    0.16
  -6   0   6   13.19    0.68
  -6   0   6   14.76    0.89
  -6   0   6   14.58    0.61
  -6   0   6   16.30    1.06
  -5   0   6   22.01    0.84
  -5   0   6   22.61    1.00
  -5   0   6   24.13    1.33
  -5   0   6   22.43    1.12
  -5   0   6   20.82    0.89
  -4   0   6   27.56    1.14
  -4   0   6   28.01    1.13
  -3   0   6  102.22    3.55
  -3   0   6  103.87    3.56
   2   0  -6  269.53    8.93
  -2   0   6  265.61    8.77
  -2   0   6  263.96    8.77
   1   0  -6  220.45    7.31
  -1   0   6  217.70    7.13
  -1   0   6  211.82    7.13
   0   0  -6  352.36   11.38
   0   0  -6  341.40   11.38
   0   0   6  339.86   11.16
  -1   0  -6   27.49    1.04
  -1   0  -6   28.45    1.04
  -2   0  -6   40.56    1.45
  -2   0  -6   40.16    1.45
  -3   0  -6    0.87    0.29
  -3   0  -6    0.85    0.13
  -4   0  -6    9.83    0.83
  -4   0  -6    7.87    0.79
  -5   0  -6   34.18    1.95
  -5   0  -6   34.08    1.80
  -5   0  -6   35.32    1.37
  -6   0  -6   27.65    1.82
  -6   0  -6   29.62    1.22
  -6   0  -6   31.34    1.61
  -7   0  -6   16.44    0.97
  -7   0  -6   15.18    0.76
  -8   0  -6    7.05    0.42
  -8   0  -6    7.67    0.51
  -8   1   6   19.35    0.79
  -8   1   6   21.50    1.01
  -7   1   6   19.01    1.09
  -7   1   6   17.75    0.69
  -7   1   6   16.45    0.76
  -6   1   6   30.94    1.24
  -6   1   6   34.55    1.78
  -6   1   6   32.22    1.32
  -6   1   6   32.31    1.34
  -6   1   6   31.59    1.16
  -5   1   6   34.00    1.20
  -5   1   6   34.47    1.42
  -5   1   6   32.65    1.26
  -5   1   6   35.28    1.40
  -4   1   6   46.38    1.80
  -4   1   6   45.67    1.70
  -3   1   6    4.36    0.29
  -3   1   6    4.32    0.29
  -2   1   6    8.13    0.42
  -2   1   6    8.12    0.41
   1  -1  -6  138.37    4.64
  -1   1   6  143.04    4.85
  -1   1   6  146.47    4.85
   0  -1  -6  169.96    5.69
   0  -1  -6  172.82    5.70
   0   1   6  163.92    5.59
   0   1   6  172.34    5.60
  -1  -1  -6   68.41    2.35
  -1  -1  -6   68.06    2.36
   1   1   6   59.37    2.06
  -2  -1  -6   16.97    0.69
  -2  -1  -6   16.87    0.68
  -3  -1  -6  100.42    3.45
  -3  -1  -6  102.23    3.44
  -4  -1  -6   29.59    1.15
  -4  -1  -6   29.91    1.14
  -5  -1  -6   10.00    0.53
  -5  -1  -6    9.34    0.43
  -5  -1  -6   10.16    1.01
  -5  -1  -6    9.93    0.77
  -6  -1  -6    1.46    0.25
  -6  -1  -6    1.28    0.36
  -6  -1  -6    1.27    0.16
  -7  -1  -6    4.25    0.50
  -7  -1  -6    3.47    0.37
  -7  -1  -6    3.44    0.36
  -8  -1  -6    2.33    0.38
  -8  -1  -6    2.06    0.28
  -7   2   6    2.01    0.23
  -7   2   6    2.13    0.43
  -7   2   6    2.07    0.23
  -6   2   6    0.56    0.28
  -6   2   6    0.40    0.17
  -6   2   6    0.81    0.19
  -6   2   6    0.48    0.15
  -6   2   6    0.75    0.14
  -5   2   6   29.45    1.26
  -5   2   6   27.53    1.61
  -5   2   6   26.46    1.06
  -5   2   6   28.92    1.23
  -4   2   6  113.92    3.91
  -4   2   6  112.07    3.94
  -4   2   6  104.39    4.26
  -3   2   6  142.55    4.78
  -3   2   6  140.33    4.77
  -2   2   6  157.33    5.35
  -2   2   6  162.52    5.36
  -1   2   6  191.13    6.25
  -1   2   6  184.76    6.24
   0  -2  -6  137.34    4.61
   0   2   6  125.10    4.21
   0   2   6  126.24    4.22
  -1  -2  -6  160.67    5.36
   1   2   6  143.58    4.80
  -2  -2  -6    0.41    0.11
   2   2   6    0.18    0.09
  -3  -2  -6   24.95    0.98
  -3  -2  -6   25.51    1.00
  -4  -2  -6   14.72    0.68
  -4  -2  -6   15.01    0.67
  -5  -2  -6   17.68    0.93
  -5  -2  -6   16.38    0.94
  -5  -2  -6   16.18    0.66
  -5  -2  -6   18.14    0.79
  -6  -2  -6   47.81    1.78
  -6  -2  -6   44.37    1.93
  -6  -2  -6   45.49    1.61
  -6  -2  -6   45.63    1.93
  -7  -2  -6   24.16    1.19
  -7  -2  -6   24.22    1.07
  -7  -2  -6   22.00    1.11
  -7  -2  -6   24.42    0.90
  -8  -2  -6    9.34    0.54
  -8  -2  -6    8.63    0.38
  -8  -2  -6    7.34    0.49
  -9  -2  -6    2.58    0.24
  -7   3   6   16.98    0.70
  -7   3   6   15.43    0.64
  -7   3   6   15.39    0.94
  -6   3   6   25.54    1.06
  -6   3   6   23.88    0.93
  -6   3   6   25.05    1.41
  -6   3   6   23.44    1.02
  -5   3   6    6.94    0.50
  -5   3   6    6.46    0.42
  -5   3   6    7.07    0.52
  -5   3   6    6.48    0.67
  -5   3   6    6.52    0.36
  -4   3   6   10.81    0.52
  -4   3   6   11.72    0.68
  -4   3   6   10.79    0.82
  -4   3   6   10.82    0.56
  -4   3   6   10.97    0.70
  -3   3   6    0.11    0.12
  -3   3   6    0.11    0.13
  -2   3   6    0.10    0.07
  -2   3   6    0.10    0.07
  -1   3   6    0.69    0.12
  -1   3   6    0.44    0.10
   0   3   6  108.78    3.69
   0   3   6  109.08    3.68
  -1  -3  -6  296.96    9.81
   1   3   6  261.56    8.63
   1   3   6  260.61    8.63
  -2  -3  -6  210.34    7.02
   2   3   6  184.97    6.20
  -3  -3  -6  170.48    5.75
  -4  -3  -6   91.79    3.23
  -5  -3  -6   22.49    0.96
  -5  -3  -6   22.31    1.00
  -5  -3  -6   22.95    1.14
  -5  -3  -6   21.22    0.84
  -6  -3  -6    1.04    0.25
  -6  -3  -6    0.96    0.26
  -6  -3  -6    1.26    0.16
  -6  -3  -6    0.80    0.30
  -6  -3  -6    0.89    0.21
  -7  -3  -6    0.98    0.23
  -7  -3  -6    1.13    0.26
  -7  -3  -6    0.96    0.26
  -7  -3  -6    0.96    0.15
  -8  -3  -6    4.02    0.37
  -8  -3  -6    3.56    0.25
  -8  -3  -6    3.37    0.34
  -8  -3  -6    3.82    0.39
  -9  -3  -6    6.48    0.29
  -9  -3  -6    6.30    0.37
  -9  -3  -6    5.28    0.37
  -6   4   6    2.31    0.41
  -6   4   6    2.91    0.30
  -6   4   6    2.64    0.22
  -5   4   6    6.42    0.41
  -5   4   6    6.33    0.58
  -5   4   6    7.31    0.53
  -5   4   6    7.01    0.50
  -5   4   6    6.41    0.34
  -4   4   6   10.72    0.57
  -4   4   6   10.33    0.71
  -4   4   6   11.25    0.71
  -4   4   6   10.17    0.73
  -4   4   6   10.74    0.48
  -4   4   6   10.88    0.70
  -3   4   6   51.72    2.26
  -3   4   6   60.41    2.10
  -3   4   6   55.55    2.26
  -3   4   6   59.51    2.35
  -2   4   6  115.07    4.04
  -2   4   6  105.78    4.01
  -2   4   6  106.09    4.88
  -2   4   6  120.22    4.16
  -1   4   6   79.18    2.74
  -1   4   6   78.71    2.75
   0   4   6    0.98    0.15
   0   4   6    0.87    0.14
   1   4   6   17.33    0.75
   1   4   6   17.41    0.76
  -2  -4  -6    0.83    0.17
   2   4   6    0.78    0.16
  -3  -4  -6    4.34    0.34
   3   4   6    4.17    0.35
  -4  -4  -6   27.84    1.18
  -5  -4  -6   16.36    0.76
  -5  -4  -6   15.47    0.61
  -5  -4  -6   15.33    0.58
  -5  -4  -6   16.43    0.65
  -5  -4  -6   16.39    0.94
  -5  -4  -6   15.32    0.59
  -5  -4  -6   15.91    0.81
  -6  -4  -6   36.87    1.67
  -6  -4  -6   37.29    1.46
  -6  -4  -6   34.10    1.51
  -6  -4  -6   35.69    1.30
  -7  -4  -6   27.68    1.29
  -7  -4  -6   29.73    1.41
  -7  -4  -6   29.67    1.24
  -7  -4  -6   29.09    1.08
  -8  -4  -6    9.00    0.52
  -8  -4  -6    8.84    0.40
  -8  -4  -6    8.21    0.60
  -8  -4  -6    7.94    0.53
  -9  -4  -6   11.54    0.54
  -9  -4  -6   10.09    0.53
  -9  -4  -6   10.75    0.60
  -9  -4  -6   11.31    0.45
  -5   5   6   23.68    0.94
  -5   5   6   27.68    1.17
  -5   5   6   24.67    1.13
  -4   5   6   11.66    0.74
  -4   5   6   11.37    0.49
  -4   5   6   11.33    0.72
  -4   5   6   10.14    0.70
  -3   5   6    2.31    0.38
  -3   5   6    2.11    0.37
  -3   5   6    2.14    0.36
  -3   5   6    2.22    0.26
  -2   5   6    2.81    0.36
  -2   5   6    3.05    0.44
  -2   5   6    2.98    0.78
  -2   5   6    2.99    0.37
  -1   5   6   41.55    1.46
  -1   5   6   41.65    1.72
  -1   5   6   41.65    2.48
  -1   5   6   43.05    1.70
  -1   5   6   44.97    1.99
   0   5   6   41.13    1.56
   0   5   6   40.21    1.53
   1   5   6   87.78    3.10
   2   5   6  107.22    3.76
   3   5   6  128.33    4.49
  -4  -5  -6   65.15    2.44
  -5  -5  -6   18.24    0.70
  -5  -5  -6   18.37    0.88
  -5  -5  -6   17.95    0.68
  -5  -5  -6   18.93    1.07
  -5  -5  -6   18.67    0.71
  -5  -5  -6   18.35    0.74
   5   5   6   16.72    0.69
   5   5   6   15.75    0.62
  -6  -5  -6    0.26    0.15
  -6  -5  -6    0.05    0.11
  -6  -5  -6    0.20    0.08
  -6  -5  -6    0.34    0.10
  -6  -5  -6    0.02    0.14
  -6  -5  -6    0.28    0.22
  -7  -5  -6    2.32    0.23
  -7  -5  -6    2.15    0.29
  -7  -5  -6    2.42    0.39
  -7  -5  -6    2.37    0.32
  -8  -5  -6    4.38    0.39
  -8  -5  -6    4.98    0.29
  -8  -5  -6    4.86    0.38
  -8  -5  -6    5.06    0.47
  -9  -5  -6   11.72    0.67
  -9  -5  -6   12.33    0.49
  -9  -5  -6   12.65    0.58
  -9  -5  -6   11.31    0.58
  -5   6   6    8.00    0.52
  -4   6   6   15.45    0.88
  -4   6   6   16.65    0.87
  -3   6   6   20.34    1.13
  -3   6   6   19.12    1.00
  -2   6   6    0.80    0.24
  -2   6   6    0.74    0.32
  -2   6   6    0.72    0.22
  -1   6   6   56.63    2.25
  -1   6   6   56.15    3.09
  -1   6   6   55.41    2.15
  -1   6   6   53.52    1.91
  -1   6   6   58.00    2.56
   0   6   6   19.94    0.81
   0   6   6   24.25    1.18
   1   6   6   14.60    0.55
   1   6   6   12.17    0.49
   2   6   6    0.68    0.29
   2   6   6    0.14    0.06
   2   6   6    0.18    0.16
   2   6   6   -0.01    0.07
   2   6   6    0.50    0.08
   2   6   6    0.34    0.32
   2   6   6    0.13    0.08
   2   6   6    0.22    0.07
   2   6   6    0.19    0.14
  -3  -6  -6   18.43    0.84
  -3  -6  -6   17.19    0.67
   3   6   6   16.56    0.86
   3   6   6   15.04    0.97
   3   6   6   16.89    0.64
   3   6   6   17.91    1.03
   3   6   6   16.21    0.63
   3   6   6   15.99    0.62
   3   6   6   15.92    0.63
  -4  -6  -6   47.73    2.09
  -4  -6  -6   49.28    1.72
  -4  -6  -6   49.93    1.69
   4   6   6   41.44    1.57
   4   6   6   44.02    1.53
   4   6   6   47.33    2.02
   4   6   6   43.38    1.55
   4   6   6   46.68    2.13
  -5  -6  -6   48.47    1.67
  -5  -6  -6   49.72    2.10
  -5  -6  -6   48.35    1.87
  -5  -6  -6   47.55    1.63
  -5  -6  -6   44.78    1.67
  -5  -6  -6   46.43    1.65
   5   6   6   43.16    1.51
   5   6   6   42.51    1.48
  -6  -6  -6   35.67    1.30
  -6  -6  -6   36.66    1.25
  -6  -6  -6   36.06    1.27
  -6  -6  -6   33.95    1.23
  -6  -6  -6   35.09    1.49
  -6  -6  -6   36.71    1.69
   6   6   6   33.91    1.21
   6   6   6   34.72    1.25
  -7  -6  -6   51.50    1.88
  -7  -6  -6   48.40    1.69
  -7  -6  -6   50.63    1.75
  -7  -6  -6   48.77    1.95
  -7  -6  -6   50.34    2.12
   7   6   6   52.68    1.81
  -8  -6  -6   13.00    0.70
  -8  -6  -6   13.15    0.55
  -8  -6  -6   13.23    0.81
  -8  -6  -6   14.10    0.66
  -9  -6  -6    2.02    0.26
  -9  -6  -6    1.54    0.22
  -9  -6  -6    2.07    0.20
  -9  -6  -6    2.12    0.31
  -4   7   6    5.19    0.48
  -3   7   6    0.98    0.33
  -3   7   6    0.95    0.24
  -2   7   6    1.33    0.25
  -2   7   6    1.35    0.39
  -1   7   6    7.33    0.36
  -1   7   6    8.16    0.80
   0   7   6   36.47    1.41
   0   7   6   44.44    1.85
   1   7   6   36.83    1.29
   1   7   6   34.93    1.89
   1   7   6   35.92    1.82
   2   7   6   35.04    1.19
   2   7   6   36.16    1.65
   2   7   6   31.16    1.93
   2   7   6   30.65    1.63
   2   7   6   30.91    1.15
  -3  -7  -6   10.16    0.46
   3   7   6    8.78    1.04
   3   7   6    9.40    0.75
   3   7   6    7.87    0.69
   3   7   6    8.09    0.37
   3   7   6    9.34    0.42
   3   7   6    8.49    0.41
   3   7   6    8.09    0.39
  -4  -7  -6   17.22    0.69
  -4  -7  -6   18.19    0.72
   4   7   6   17.28    1.08
   4   7   6   15.77    0.64
   4   7   6   16.27    0.65
   4   7   6   16.41    0.63
   4   7   6   15.68    0.65
   4   7   6   17.13    1.25
  -5  -7  -6    9.12    0.43
  -5  -7  -6    7.72    0.66
  -5  -7  -6    8.81    0.39
  -5  -7  -6    8.25    0.41
   5   7   6    8.13    0.38
   5   7   6    8.10    0.39
   5   7   6    8.63    0.38
   5   7   6    7.84    0.81
   5   7   6    6.78    0.64
  -6  -7  -6    2.47    0.21
  -6  -7  -6    2.39    0.35
  -6  -7  -6    2.85    0.24
  -6  -7  -6    2.46    0.21
  -6  -7  -6    2.65    0.41
   6   7   6    2.10    0.48
   6   7   6    1.90    0.20
   6   7   6    2.13    0.19
  -7  -7  -6    3.69    0.24
  -7  -7  -6    3.56    0.36
  -7  -7  -6    3.66    0.45
  -7  -7  -6    3.78    0.35
  -7  -7  -6    3.82    0.21
   7   7   6    3.41    0.59
   7   7   6    3.65    0.28
   7   7   6    3.52    0.26
  -8  -7  -6    1.86    0.34
  -8  -7  -6    1.67    0.17
  -8  -7  -6    1.99    0.25
  -8  -7  -6    2.28    0.29
   8   7   6    1.46    0.18
   8   7   6    1.78    0.41
   8   7   6    1.96    0.18
  -9  -7  -6    4.86    0.41
  -9  -7  -6    5.37    0.33
  -9  -7  -6    4.99    0.34
   9   7   6    5.79    0.60
   9   7   6    5.88    0.38
  -2   8   6   25.81    1.35
  -1   8   6   10.51    0.45
  -1   8   6   11.77    0.88
   0   8   6    2.11    0.35
   0   8   6    2.03    0.20
   0   8   6    1.75    0.43
   1   8   6   -0.01    0.09
   1   8   6    0.07    0.22
   1   8   6    0.40    0.39
   1   8   6    0.09    0.19
   2   8   6    0.41    0.23
   2   8   6    0.63    0.49
   2   8   6    0.36    0.26
   2   8   6    0.13    0.11
   3   8   6    4.49    0.91
   3   8   6    4.92    0.31
   3   8   6    4.56    0.55
   3   8   6    4.38    0.29
  -4  -8  -6   43.14    1.52
  -4  -8  -6   43.49    1.56
   4   8   6   39.04    1.33
   4   8   6   37.10    1.30
   4   8   6   37.44    1.34
   4   8   6   40.81    2.10
   4   8   6   35.24    1.30
   4   8   6   39.05    1.35
   4   8   6   36.89    1.81
  -5  -8  -6   46.73    1.63
  -5  -8  -6   47.39    1.67
   5   8   6   38.18    1.88
   5   8   6   42.08    1.45
   5   8   6   43.15    2.06
   5   8   6   40.70    1.43
   5   8   6   43.26    1.46
  -6  -8  -6   42.25    1.44
  -6  -8  -6   41.16    1.68
  -6  -8  -6   41.62    1.46
  -6  -8  -6   41.69    1.47
   6   8   6   39.99    1.37
   6   8   6   37.74    1.35
   6   8   6   37.78    1.88
   6   8   6   38.90    1.34
  -7  -8  -6   17.22    0.66
  -7  -8  -6   17.56    0.77
  -7  -8  -6   17.13    0.94
  -7  -8  -6   17.15    0.84
  -7  -8  -6   18.23    0.64
   7   8   6   17.53    1.11
   7   8   6   16.82    0.67
   7   8   6   17.54    0.66
   7   8   6   17.74    0.68
  -8  -8  -6   13.46    0.68
  -8  -8  -6   13.94    0.78
  -8  -8  -6   14.90    0.63
   8   8   6   15.06    0.56
   8   8   6   14.36    0.59
   8   8   6   14.15    0.94
   8   8   6   13.03    0.65
  -1   9   6    2.12    0.35
   0   9   6    7.31    0.34
   0   9   6    6.68    0.56
   1   9   6   13.57    1.10
   1   9   6   13.56    0.81
   1   9   6   13.43    0.53
   1   9   6   10.98    0.75
   2   9   6   30.91    1.79
   2   9   6   29.79    1.03
   2   9   6   23.98    1.42
   2   9   6   28.26    1.37
   3   9   6   19.81    1.13
   3   9   6   23.53    1.52
   3   9   6   20.87    0.80
  -4  -9  -6   11.85    0.50
   4   9   6   10.16    0.44
   4   9   6    8.96    0.71
   4   9   6   10.51    0.99
  -5  -9  -6    0.42    0.11
  -5  -9  -6    0.48    0.12
   5   9   6    0.29    0.08
   5   9   6    0.33    0.11
   5   9   6    0.23    0.19
   5   9   6    0.16    0.33
  -6  -9  -6    0.15    0.11
  -6  -9  -6    0.04    0.09
  -6  -9  -6    0.22    0.16
  -6  -9  -6   -0.02    0.11
   6   9   6   -0.08    0.12
   6   9   6    0.20    0.10
   6   9   6    0.17    0.09
   6   9   6    0.01    0.09
   6   9   6    0.06    0.31
  -7  -9  -6    6.62    0.29
  -7  -9  -6    6.80    0.30
  -7  -9  -6    6.57    0.32
  -7  -9  -6    6.16    0.43
   7   9   6    6.17    0.31
   7   9   6    5.93    0.70
   7   9   6    6.81    0.33
   7   9   6    6.19    0.32
  -8  -9  -6    5.61    0.35
   8   9   6    5.98    0.29
   8   9   6    5.67    0.26
   8   9   6    5.78    0.29
   8   9   6    6.02    0.27
   1  10   6    0.14    0.08
   2  10   6    5.70    0.71
   2  10   6    5.00    0.25
   2  10   6    4.42    0.42
   3  10   6    9.43    0.40
   3  10   6    8.72    0.61
   3  10   6   10.95    0.95
  -4 -10  -6   10.11    0.43
   4  10   6    7.82    0.93
   4  10   6    7.24    0.32
   4  10   6    6.00    0.52
  -5 -10  -6   10.72    0.43
  -5 -10  -6    9.87    0.57
  -5 -10  -6   10.44    0.45
   5  10   6    8.56    0.79
   5  10   6    6.48    0.52
  -6 -10  -6   12.77    0.48
  -6 -10  -6   12.77    0.51
  -6 -10  -6   12.51    0.50
  -6 -10  -6   12.18    0.62
   6  10   6   12.18    0.85
  -6  -8   7    2.11    0.19
  -6  -8   7    1.74    0.14
  -6  -8   7    1.93    0.16
   5   8  -7    7.95    0.59
  -5  -8   7   12.10    0.52
  -5  -8   7   12.69    0.51
  -5  -8   7   12.22    0.53
   4   8  -7   13.92    0.85
  -4  -8   7   19.72    0.73
  -4  -8   7   18.82    0.75
   3   8  -7    9.02    0.70
   3   8  -7    9.62    0.41
  -3  -8   7   13.01    0.64
   2   8  -7   16.72    0.61
   2   8  -7   15.23    0.89
   1   8  -7   18.23    0.67
   7   7  -7   27.53    0.93
   7   7  -7   26.27    0.94
  -7  -7   7   28.68    0.99
  -7  -7   7   29.24    0.96
  -7  -7   7   26.34    1.01
   6   7  -7   14.01    0.55
   6   7  -7   13.57    0.52
  -6  -7   7   15.28    0.59
  -6  -7   7   14.84    0.63
  -6  -7   7   14.97    0.61
  -6  -7   7   15.42    0.64
   5   7  -7    8.69    0.72
   5   7  -7    9.98    0.41
  -5  -7   7   11.40    0.53
  -5  -7   7   11.75    0.50
  -5  -7   7   11.05    0.52
   4   7  -7    2.87    0.23
   4   7  -7    2.66    0.47
  -4  -7   7    3.47    0.27
  -4  -7   7    4.01    0.27
  -4  -7   7    3.77    0.30
   3   7  -7    5.55    0.62
   3   7  -7    6.30    0.34
  -3  -7   7    7.58    0.41
   2   7  -7    0.60    0.14
   2   7  -7    0.84    0.32
   2   7  -7    0.64    0.20
   1   7  -7   14.38    0.59
   1   7  -7   14.91    0.71
   1   7  -7   15.09    1.48
   1   7  -7   13.89    0.93
   0   7  -7   34.43    1.32
   0   7  -7   35.24    2.05
   0   7  -7   32.55    1.20
  -1   7  -7   12.45    0.60
  -1   7  -7   13.93    1.29
   8   6  -7    0.90    0.14
   8   6  -7    1.06    0.13
   8   6  -7    1.05    0.14
   7   6  -7    0.39    0.11
   7   6  -7    0.48    0.13
   7   6  -7    0.45    0.14
  -7  -6   7    0.54    0.09
  -7  -6   7    0.42    0.14
  -7  -6   7    0.34    0.11
   6   6  -7    5.26    0.29
   6   6  -7    5.13    0.28
   6   6  -7    5.26    0.31
  -6  -6   7    6.15    0.35
  -6  -6   7    5.73    0.36
  -6  -6   7    6.06    0.31
  -6  -6   7    5.85    0.32
   5   6  -7    6.25    0.66
   5   6  -7    6.44    0.31
   5   6  -7    6.64    0.35
   5   6  -7    6.89    0.33
  -5  -6   7    8.51    0.40
  -5  -6   7    7.52    0.43
  -5  -6   7    7.73    0.43
   4   6  -7   66.49    2.35
   4   6  -7   73.14    2.31
   4   6  -7   67.98    2.32
   4   6  -7   66.99    2.93
  -4  -6   7   82.29    2.76
  -4  -6   7   81.08    2.81
  -4  -6   7   79.29    2.79
   3   6  -7   72.99    2.40
   3   6  -7   72.08    3.03
   3   6  -7   69.79    2.45
   2   6  -7   42.10    2.04
   2   6  -7   40.61    1.98
   2   6  -7   42.64    1.50
   2   6  -7   42.70    1.65
   1   6  -7    7.76    0.38
   1   6  -7    7.04    1.06
   1   6  -7    7.69    0.49
   1   6  -7    7.41    0.71
   1   6  -7    7.08    0.70
   0   6  -7   10.09    0.45
   0   6  -7    9.84    0.78
   0   6  -7   10.09    0.55
   0   6  -7   10.40    1.28
  -1   6  -7    1.28    0.15
  -1   6  -7    1.10    0.21
  -1   6  -7    1.20    0.66
  -2   6  -7    1.53    0.85
  -2   6  -7    1.13    0.20
  -3   6  -7   10.03    1.32
  -3   6  -7    8.31    0.44
   8   5  -7   17.44    0.64
   8   5  -7   16.21    0.65
  -8  -5   7   17.16    0.89
  -8  -5   7   16.60    0.68
   7   5  -7   26.17    0.98
   7   5  -7   26.95    0.96
  -7  -5   7   27.86    1.34
  -7  -5   7   28.09    0.99
  -7  -5   7   27.66    1.07
   6   5  -7   39.26    1.36
   6   5  -7   38.70    1.39
  -6  -5   7   40.96    1.47
  -6  -5   7   42.36    1.45
  -6  -5   7   42.84    1.55
  -6  -5   7   40.52    1.87
  -6  -5   7   43.01    1.50
   5   5  -7   23.89    0.89
   5   5  -7   23.42    0.85
   5   5  -7   22.99    0.87
   5   5  -7   21.70    1.32
  -5  -5   7   26.62    1.05
  -5  -5   7   26.79    0.98
  -5  -5   7   26.10    1.66
  -5  -5   7   25.52    1.00
  -5  -5   7   26.05    1.02
   4   5  -7    1.63    0.42
   4   5  -7    1.92    0.18
   4   5  -7    1.81    0.16
   4   5  -7    1.99    0.19
   4   5  -7    1.61    0.19
  -4  -5   7    2.45    0.25
  -4  -5   7    1.93    0.39
  -4  -5   7    2.10    0.23
  -4  -5   7    2.37    0.21
   3   5  -7    0.39    0.28
   3   5  -7    0.30    0.13
   3   5  -7    0.21    0.24
   3   5  -7    0.55    0.11
   3   5  -7    0.19    0.09
   3   5  -7    0.20    0.11
   3   5  -7    0.06    0.16
  -3  -5   7    0.22    0.10
   2   5  -7    0.36    0.11
   2   5  -7    0.22    0.12
   2   5  -7    0.20    0.22
   2   5  -7    0.32    0.12
   2   5  -7    0.13    0.64
   2   5  -7    0.14    0.15
   1   5  -7    2.58    0.77
   1   5  -7    2.65    0.29
   1   5  -7    2.37    0.22
   1   5  -7    2.02    0.41
   0   5  -7   19.18    0.84
   0   5  -7   17.49    1.70
   0   5  -7   19.00    1.09
   0   5  -7   18.53    0.72
  -1   5  -7   23.45    0.99
  -1   5  -7   25.02    2.28
  -1   5  -7   23.21    0.88
  -2   5  -7   63.75    2.24
  -2   5  -7   56.11    3.13
  -2   5  -7   67.80    4.09
  -3   5  -7   24.11    2.50
  -3   5  -7   24.94    1.00
  -4   5  -7    1.81    0.22
  -4   5  -7    1.74    0.66
   8   4  -7    0.15    0.11
  -8  -4   7    0.01    0.12
  -8  -4   7    0.03    0.12
  -8  -4   7    0.26    0.21
   7   4  -7    6.67    0.35
  -7  -4   7    6.65    0.40
  -7  -4   7    6.52    0.56
  -7  -4   7    6.81    0.61
  -7  -4   7    6.44    0.36
   6   4  -7   45.75    1.59
   6   4  -7   45.79    1.62
  -6  -4   7   48.35    1.61
  -6  -4   7   44.99    2.06
  -6  -4   7   46.78    1.64
  -6  -4   7   48.12    1.62
  -6  -4   7   47.42    2.11
  -6  -4   7   45.98    1.72
  -6  -4   7   46.57    1.68
   5   4  -7   31.30    1.12
   5   4  -7   30.71    1.14
  -5  -4   7   33.18    1.16
  -5  -4   7   32.12    1.24
  -5  -4   7   31.81    1.18
  -5  -4   7   32.72    1.20
  -5  -4   7   33.01    1.62
  -5  -4   7   30.81    1.58
   4   4  -7   53.39    1.82
   4   4  -7   57.66    2.40
   4   4  -7   51.09    1.85
   4   4  -7   53.77    2.43
   4   4  -7   50.27    1.84
  -4  -4   7   55.35    2.33
  -4  -4   7   53.43    1.91
  -4  -4   7   52.68    2.31
  -4  -4   7   54.97    1.87
   3   4  -7   34.95    1.19
   3   4  -7   35.98    1.69
   3   4  -7   33.10    1.21
   3   4  -7   32.88    1.21
   3   4  -7   34.76    1.22
   3   4  -7   34.46    1.21
   3   4  -7   30.55    1.34
  -3  -4   7   34.62    1.30
  -3  -4   7   36.57    1.27
   2   4  -7   85.71    2.89
   2   4  -7   86.02    3.03
   2   4  -7   96.46    3.41
   2   4  -7   79.44    3.91
   2   4  -7   86.24    2.87
   2   4  -7   82.19    2.86
   2   4  -7   87.13    2.91
   1   4  -7   36.09    1.38
   1   4  -7   39.45    1.70
   1   4  -7   36.36    1.27
   1   4  -7   33.73    2.23
   1   4  -7   34.11    1.24
   0   4  -7   18.84    1.78
   0   4  -7   19.94    1.06
   0   4  -7   19.19    0.72
   0   4  -7   19.00    0.82
  -1   4  -7    1.44    0.81
  -1   4  -7    1.21    0.18
  -1   4  -7    1.42    0.15
  -2   4  -7    0.49    0.78
  -3   4  -7    9.90    1.74
  -3   4  -7   10.59    0.73
  -3   4  -7   10.66    1.11
  -3   4  -7   11.41    0.88
  -3   4  -7   11.58    0.56
  -4   4  -7    6.89    1.28
  -4   4  -7    7.89    0.62
  -4   4  -7    6.95    0.43
  -5   4  -7   11.15    1.22
  -5   4  -7   13.35    0.78
  -5   4  -7   12.43    0.56
  -8  -3   7   31.28    1.15
  -8  -3   7   31.47    1.12
  -8  -3   7   30.09    1.38
  -8  -3   7   29.53    1.36
  -7  -3   7   38.55    1.48
  -7  -3   7   41.04    1.83
  -7  -3   7   39.72    1.81
  -7  -3   7   38.98    1.44
   6   3  -7   23.20    0.88
  -6  -3   7   22.48    0.97
  -6  -3   7   23.01    1.30
  -6  -3   7   23.29    0.82
  -6  -3   7   23.26    0.93
  -6  -3   7   23.00    0.86
  -6  -3   7   23.69    1.30
   5   3  -7   38.47    1.34
   5   3  -7   37.22    1.37
  -5  -3   7   38.57    1.36
  -5  -3   7   38.20    1.83
  -5  -3   7   37.92    1.41
  -5  -3   7   38.61    1.51
  -5  -3   7   37.78    1.37
  -5  -3   7   37.68    1.33
  -5  -3   7   38.86    1.82
   4   3  -7   10.62    0.44
   4   3  -7    9.93    0.46
  -4  -3   7   10.18    0.76
  -4  -3   7   10.74    0.46
  -4  -3   7    9.41    0.45
  -4  -3   7   10.07    0.48
  -4  -3   7    9.93    0.73
  -4  -3   7   10.05    0.43
   3   3  -7    0.76    0.12
   3   3  -7    0.94    0.17
   3   3  -7    1.39    0.26
   2   3  -7   25.29    1.08
   1   3  -7   42.55    1.62
   0   3  -7  101.50    3.46
   0   3  -7   97.94    3.47
  -1   3  -7   51.80    3.47
  -1   3  -7   52.84    1.89
  -1   3  -7   52.58    1.79
  -1   3  -7   54.11    2.33
  -2   3  -7    0.49    0.73
  -2   3  -7    1.30    0.28
  -2   3  -7    0.77    0.15
  -3   3  -7   37.36    1.71
  -3   3  -7   40.99    2.30
  -3   3  -7   33.90    2.87
  -3   3  -7   36.91    1.80
  -3   3  -7   39.33    1.45
  -4   3  -7    8.36    0.47
  -4   3  -7    7.69    1.22
  -4   3  -7    7.94    0.92
  -4   3  -7    8.49    0.77
  -5   3  -7    0.27    0.15
  -5   3  -7    0.37    0.36
  -5   3  -7    0.13    0.34
  -6   3  -7    3.85    0.56
  -6   3  -7    3.76    0.30
  -8  -2   7    1.37    0.20
  -8  -2   7    1.10    0.16
  -8  -2   7    1.17    0.28
  -8  -2   7    1.31    0.28
  -7  -2   7    4.64    0.52
  -7  -2   7    4.80    0.36
  -7  -2   7    4.35    0.50
  -7  -2   7    4.61    0.32
  -6  -2   7   26.62    1.04
  -6  -2   7   27.19    1.43
  -6  -2   7   24.04    1.08
  -6  -2   7   28.44    1.44
  -5  -2   7   59.00    2.42
  -5  -2   7   53.74    1.92
  -5  -2   7   54.85    1.97
  -5  -2   7   56.34    1.90
  -5  -2   7   56.17    2.42
  -4  -2   7  104.22    3.42
  -4  -2   7  100.76    3.38
  -4  -2   7   99.18    3.86
  -4  -2   7   99.24    3.44
  -4  -2   7  103.04    3.65
  -4  -2   7  102.35    3.41
  -4  -2   7  104.04    3.85
  -3  -2   7  114.60    4.03
   2   2  -7   75.09    2.68
   1   2  -7   14.81    0.68
   0   2  -7   35.85    1.34
   0   2  -7   34.87    1.34
  -1   2  -7   51.19    1.88
  -1   2  -7   53.70    1.89
  -2   2  -7    0.40    0.56
  -2   2  -7    0.15    0.09
  -3   2  -7   25.62    1.36
  -3   2  -7   29.21    1.07
  -3   2  -7   23.95    2.13
  -4   2  -7   23.86    1.96
  -4   2  -7   27.13    1.08
  -4   2  -7   27.87    1.76
  -4   2  -7   25.98    1.53
  -5   2  -7   25.38    1.03
  -5   2  -7   23.98    1.53
  -5   2  -7   24.76    1.66
  -6   2  -7   12.19    0.61
  -6   2  -7   13.65    1.10
  -8  -1   7   16.94    0.91
  -8  -1   7   17.12    0.67
  -8  -1   7   16.74    0.71
  -8  -1   7   17.32    0.87
  -7  -1   7   35.38    1.27
  -7  -1   7   36.87    1.70
  -7  -1   7   35.00    1.60
  -7  -1   7   30.98    1.32
  -6  -1   7   16.46    1.01
  -6  -1   7   17.14    1.08
  -6  -1   7   14.51    0.74
  -6  -1   7   17.37    0.70
  -5  -1   7    7.65    0.63
  -5  -1   7    6.34    0.32
  -5  -1   7    6.65    0.37
  -5  -1   7    9.04    0.73
  -4  -1   7    0.70    0.21
  -4  -1   7    0.83    0.19
  -4  -1   7    0.73    0.10
  -4  -1   7    1.10    0.30
  -4  -1   7    0.74    0.12
  -4  -1   7    0.75    0.16
  -3  -1   7   55.07    2.05
   2   1  -7   37.36    1.43
  -2  -1   7   41.57    1.59
   1   1  -7   71.02    2.50
  -1  -1   7   79.47    2.80
   0   1  -7   76.40    2.62
   0   1  -7   73.42    2.61
  -1   1  -7  242.23    7.95
  -1   1  -7  237.42    7.95
  -2   1  -7   47.58    1.69
  -2   1  -7   46.13    1.69
  -3   1  -7    9.19    0.78
  -3   1  -7    8.25    1.21
  -3   1  -7   10.66    0.49
  -4   1  -7    1.62    0.23
  -4   1  -7    1.60    0.48
  -4   1  -7    1.08    0.42
  -4   1  -7    1.42    0.64
  -5   1  -7    0.83    0.19
  -5   1  -7    1.07    0.49
  -5   1  -7    1.03    0.44
  -6   1  -7    0.10    0.13
  -6   1  -7   -0.03    0.31
  -6   1  -7    0.12    0.27
  -7   1  -7    4.25    0.56
  -7   1  -7    3.29    0.33
  -8   0   7    1.36    0.15
  -8   0   7    1.15    0.18
  -8   0   7    1.14    0.25
  -7   0   7    2.74    0.36
  -7   0   7    2.79    0.44
  -7   0   7    2.49    0.26
  -7   0   7    2.64    0.23
  -6   0   7   29.96    1.46
  -6   0   7   32.32    1.68
  -6   0   7   30.04    1.13
  -5   0   7   50.67    2.07
  -5   0   7   47.69    1.70
  -5   0   7   49.64    2.30
  -5   0   7   46.66    1.87
  -4   0   7   70.78    3.00
  -4   0   7   71.40    2.59
  -4   0   7   74.96    2.77
  -4   0   7   68.28    2.41
  -3   0   7  166.62    5.65
  -2   0   7  268.75    8.93
   1   0  -7  123.56    4.20
  -1   0   7  127.34    4.33
   0   0  -7    0.09    0.08
   0   0  -7    0.12    0.08
   0   0   7    0.28    0.11
  -1   0  -7   82.46    2.81
  -1   0  -7   80.76    2.81
  -2   0  -7    2.08    0.21
  -2   0  -7    2.38    0.21
  -3   0  -7   25.96    1.45
  -3   0  -7   26.64    1.01
  -3   0  -7   25.20    1.01
  -4   0  -7   33.74    1.24
  -4   0  -7   32.83    1.75
  -4   0  -7   31.65    1.24
  -4   0  -7   27.01    1.65
  -5   0  -7   26.85    1.61
  -5   0  -7   28.83    1.14
  -5   0  -7   26.54    1.67
  -6   0  -7   24.61    1.43
  -6   0  -7   24.37    1.06
  -7   0  -7    9.86    0.57
  -7   0  -7   10.29    0.78
  -8   0  -7    1.33    0.17
  -8   1   7   17.07    0.86
  -7   1   7   13.81    0.56
  -7   1   7   12.25    0.59
  -7   1   7   14.91    0.95
  -6   1   7   16.28    0.79
  -6   1   7   18.19    0.86
  -6   1   7   18.15    0.72
  -6   1   7   20.42    1.30
  -6   1   7   19.57    0.89
  -5   1   7    1.13    0.27
  -5   1   7    1.24    0.24
  -5   1   7    1.04    0.13
  -5   1   7    1.13    0.22
  -5   1   7    0.92    0.35
  -4   1   7    0.51    0.27
  -4   1   7    0.56    0.17
  -4   1   7    0.78    0.10
  -4   1   7    0.43    0.15
  -4   1   7    0.48    0.16
  -3   1   7   12.31    0.61
  -3   1   7   12.61    0.61
  -2   1   7   68.27    2.40
  -2   1   7   66.42    2.39
   1  -1  -7  184.99    6.18
  -1   1   7  180.15    5.79
  -1   1   7  164.85    5.87
   0  -1  -7   75.71    2.64
   0   1   7   73.72    2.57
  -1  -1  -7  213.69    7.05
  -1  -1  -7  210.18    7.04
   1   1   7  186.37    6.21
  -2  -1  -7  168.11    5.62
  -2  -1  -7  168.23    5.63
  -3  -1  -7   86.11    3.00
  -3  -1  -7   87.64    3.01
  -4  -1  -7   37.70    1.65
  -4  -1  -7   41.00    1.93
  -4  -1  -7   40.46    1.51
  -5  -1  -7    2.08    0.46
  -5  -1  -7    1.53    0.16
  -5  -1  -7    2.12    0.27
  -6  -1  -7   13.03    0.92
  -6  -1  -7   13.36    0.68
  -6  -1  -7   11.14    0.52
  -7  -1  -7    9.04    0.54
  -7  -1  -7    8.20    0.67
  -7  -1  -7    8.15    0.39
  -8  -1  -7    9.95    0.53
  -8  -1  -7    9.86    0.60
  -7   2   7    5.99    0.63
  -6   2   7    3.30    0.22
  -6   2   7    3.91    0.61
  -6   2   7    3.42    0.32
  -6   2   7    3.38    0.32
  -5   2   7   44.49    1.55
  -5   2   7   44.77    1.78
  -5   2   7   46.39    1.82
  -5   2   7   42.87    2.26
  -4   2   7   63.20    2.19
  -4   2   7   67.71    2.46
  -4   2   7   61.06    2.86
  -4   2   7   68.83    2.51
  -3   2   7   49.60    1.81
  -3   2   7   50.48    1.82
  -3   2   7   45.87    1.99
  -2   2   7    4.74    0.32
  -2   2   7    4.31    0.30
  -1   2   7   55.45    2.00
  -1   2   7   56.20    2.00
   0  -2  -7    5.07    0.32
   0   2   7    4.46    0.29
  -1  -2  -7   14.77    0.65
   1   2   7   12.39    0.56
  -2  -2  -7   43.34    1.59
  -3  -2  -7   87.64    3.13
  -3  -2  -7   93.02    3.15
  -4  -2  -7  104.03    3.64
  -4  -2  -7  105.79    3.65
  -5  -2  -7   28.41    1.13
  -5  -2  -7   26.27    1.33
  -5  -2  -7   27.53    1.01
  -5  -2  -7   27.47    1.30
  -6  -2  -7    8.69    0.43
  -6  -2  -7    8.58    0.70
  -6  -2  -7    9.91    0.58
  -6  -2  -7    9.18    0.67
  -7  -2  -7   13.66    0.57
  -7  -2  -7   13.73    0.72
  -8  -2  -7    8.64    0.52
  -8  -2  -7    8.65    0.39
  -7   3   7   16.20    0.93
  -6   3   7   14.30    1.04
  -6   3   7   14.77    0.73
  -6   3   7   15.85    0.76
  -5   3   7    7.44    0.74
  -5   3   7    8.24    0.57
  -5   3   7    8.06    0.54
  -4   3   7    4.74    0.58
  -4   3   7    5.61    0.47
  -4   3   7    5.11    0.47
  -4   3   7    5.13    0.26
  -3   3   7    9.31    0.63
  -3   3   7    9.00    0.60
  -3   3   7    8.19    0.36
  -3   3   7    8.22    0.66
  -3   3   7    9.80    0.84
  -2   3   7   36.13    1.34
  -2   3   7   33.04    1.31
  -1   3   7   84.91    2.94
  -1   3   7   84.99    2.94
   0   3   7  208.49    6.93
   0   3   7  207.69    6.92
  -1  -3  -7  187.19    6.29
   1   3   7  162.53    5.46
  -2  -3  -7  133.36    4.55
   2   3   7  115.41    3.96
  -3  -3  -7   10.48    0.56
  -4  -3  -7    0.17    0.12
  -5  -3  -7    5.35    0.39
  -5  -3  -7    4.88    0.49
  -5  -3  -7    5.72    0.33
  -5  -3  -7    5.28    0.50
  -5  -3  -7    5.08    0.30
  -6  -3  -7    1.86    0.35
  -6  -3  -7    1.63    0.33
  -6  -3  -7    2.28    0.31
  -6  -3  -7    2.32    0.23
  -7  -3  -7   16.51    0.95
  -7  -3  -7   17.33    0.83
  -7  -3  -7   16.52    0.68
  -8  -3  -7   20.24    0.88
  -8  -3  -7   19.93    0.76
  -8  -3  -7   19.54    0.97
  -9  -3  -7    6.94    0.34
  -9  -3  -7    6.58    0.37
  -6   4   7   16.69    0.73
  -6   4   7   13.01    0.84
  -5   4   7   16.87    1.03
  -5   4   7   20.40    0.96
  -5   4   7   20.22    0.99
  -4   4   7    3.87    0.46
  -4   4   7    4.85    0.48
  -4   4   7    4.26    0.43
  -3   4   7   35.36    1.28
  -3   4   7   39.78    1.70
  -3   4   7   37.75    1.66
  -3   4   7   36.38    1.67
  -2   4   7   20.02    0.74
  -2   4   7   18.89    1.04
  -2   4   7   20.72    1.06
  -2   4   7   22.16    1.13
  -1   4   7    2.95    0.25
  -1   4   7    3.06    0.26
   0   4   7    0.32    0.11
   0   4   7    0.72    0.14
   1   4   7   17.41    0.78
  -2  -4  -7   23.43    1.03
   2   4   7   19.61    0.87
  -3  -4  -7   10.98    0.60
  -4  -4  -7  122.54    4.29
  -5  -4  -7  125.71    4.09
  -5  -4  -7  118.21    4.51
  -5  -4  -7  129.05    4.57
  -5  -4  -7  123.16    4.27
  -5  -4  -7  122.33    4.11
  -5  -4  -7  125.18    4.16
  -6  -4  -7   72.86    2.83
  -6  -4  -7   73.12    2.58
  -6  -4  -7   62.68    2.76
  -6  -4  -7   72.46    2.43
  -7  -4  -7   11.43    0.69
  -7  -4  -7   12.05    0.80
  -7  -4  -7   12.02    0.53
  -7  -4  -7   12.64    0.67
  -8  -4  -7    1.53    0.24
  -8  -4  -7    2.13    0.22
  -8  -4  -7    1.81    0.33
  -8  -4  -7    1.84    0.25
  -9  -4  -7   -0.01    0.09
  -9  -4  -7    0.02    0.14
  -9  -4  -7    0.13    0.13
  -5   5   7    3.85    0.41
  -4   5   7    1.37    0.31
  -4   5   7    1.31    0.31
  -4   5   7    1.46    0.32
  -3   5   7    1.05    0.31
  -3   5   7    0.56    0.24
  -3   5   7    0.65    0.11
  -3   5   7    1.11    0.32
  -2   5   7   32.81    1.21
  -2   5   7   36.73    1.73
  -2   5   7   35.13    1.55
  -2   5   7   35.16    1.57
  -1   5   7   19.73    0.96
  -1   5   7   20.97    0.99
  -1   5   7   18.08    0.71
  -1   5   7   19.15    1.20
  -1   5   7   18.51    0.98
   0   5   7   40.61    2.10
   0   5   7   43.90    1.66
   0   5   7   45.26    1.68
   0   5   7   43.77    1.53
   1   5   7   16.56    0.79
   2   5   7   50.82    1.94
   3   5   7   29.05    1.27
  -4  -5  -7    0.87    0.13
  -4  -5  -7    1.23    0.13
  -4  -5  -7    0.94    0.22
  -4  -5  -7    1.01    0.29
  -4  -5  -7    1.00    0.15
  -4  -5  -7    0.91    0.14
   4   5   7    0.74    0.12
   4   5   7    0.72    0.11
  -5  -5  -7   18.69    1.08
  -5  -5  -7   18.12    0.69
  -5  -5  -7   19.51    0.75
  -5  -5  -7   19.06    0.89
  -5  -5  -7   17.21    0.67
  -5  -5  -7   16.41    0.84
  -5  -5  -7   17.72    0.70
   5   5   7   16.48    0.70
   5   5   7   16.36    0.63
  -6  -5  -7    5.27    0.33
  -6  -5  -7    4.89    0.40
  -6  -5  -7    4.98    0.28
  -6  -5  -7    5.17    0.43
  -6  -5  -7    5.05    0.26
  -6  -5  -7    5.30    0.55
  -7  -5  -7    8.28    0.56
  -7  -5  -7    8.76    0.42
  -7  -5  -7    8.80    0.54
  -7  -5  -7    8.51    0.67
  -8  -5  -7   12.88    0.69
  -8  -5  -7   14.06    0.57
  -8  -5  -7   13.59    0.81
  -8  -5  -7   14.11    0.66
  -9  -5  -7    7.75    0.51
  -9  -5  -7    7.95    0.42
  -9  -5  -7    8.58    0.36
  -4   6   7   35.90    1.51
  -4   6   7   33.64    1.50
  -3   6   7   20.18    1.06
  -3   6   7   22.14    1.19
  -3   6   7   21.42    1.04
  -2   6   7   12.69    0.95
  -2   6   7   10.98    0.48
  -2   6   7   12.20    0.71
  -2   6   7   13.06    0.77
  -1   6   7    5.41    0.29
  -1   6   7    6.02    0.50
  -1   6   7    5.87    0.47
  -1   6   7    5.86    0.72
  -1   6   7    5.12    0.44
   0   6   7    0.38    0.10
   0   6   7    0.73    0.24
   0   6   7    0.49    0.34
   1   6   7    4.87    0.28
   1   6   7    4.37    0.23
   1   6   7    5.96    0.54
   1   6   7    5.31    0.67
   2   6   7   81.84    2.79
   2   6   7   88.35    2.82
   2   6   7   79.43    2.77
   2   6   7   85.80    2.80
   2   6   7   81.84    3.41
  -3  -6  -7   67.63    2.34
  -3  -6  -7   67.88    2.30
   3   6   7   57.82    2.01
   3   6   7   54.58    2.46
   3   6   7   59.27    1.99
   3   6   7   58.71    2.01
   3   6   7   58.69    2.02
   3   6   7   64.57    2.52
  -4  -6  -7   42.33    1.47
  -4  -6  -7   39.07    1.84
  -4  -6  -7   41.93    1.44
   4   6   7   37.66    1.70
   4   6   7   35.83    1.27
   4   6   7   35.50    1.25
   4   6   7   38.13    1.83
   4   6   7   35.30    1.31
   4   6   7   31.18    1.60
  -5  -6  -7   48.30    1.70
  -5  -6  -7   48.85    1.67
  -5  -6  -7   49.86    1.91
  -5  -6  -7   49.53    1.71
  -5  -6  -7   50.93    2.17
  -5  -6  -7   45.51    1.72
   5   6   7   43.99    1.50
   5   6   7   42.74    1.53
  -6  -6  -7   16.86    0.80
  -6  -6  -7   17.28    0.64
  -6  -6  -7   17.66    0.68
  -6  -6  -7   17.63    1.05
  -6  -6  -7   17.34    0.71
  -6  -6  -7   16.82    0.65
  -6  -6  -7   17.42    0.87
   6   6   7   16.54    0.64
   6   6   7   15.64    0.66
  -7  -6  -7   23.06    0.97
  -7  -6  -7   22.20    0.80
  -7  -6  -7   21.46    1.02
  -7  -6  -7   23.14    0.87
  -7  -6  -7   23.35    1.21
   7   6   7   23.46    0.87
  -8  -6  -7    2.31    0.38
  -8  -6  -7    2.18    0.26
  -8  -6  -7    1.98    0.26
  -8  -6  -7    2.41    0.22
  -9  -6  -7    0.16    0.15
  -9  -6  -7    0.12    0.10
  -9  -6  -7    0.18    0.13
  -9  -6  -7    0.13    0.16
   9   6   7   -0.03    0.25
  -3   7   7    2.98    0.47
  -3   7   7    2.60    0.33
  -2   7   7    9.84    0.42
  -2   7   7   10.91    0.61
  -2   7   7   11.21    0.90
  -1   7   7   16.19    0.64
  -1   7   7   17.21    1.22
   0   7   7   24.58    0.96
   0   7   7   29.01    1.35
   0   7   7   24.57    1.57
   1   7   7   18.84    0.76
   1   7   7   18.71    1.28
   1   7   7   21.19    1.15
   2   7   7    6.15    0.67
   2   7   7    6.41    0.34
   2   7   7    6.92    0.63
   2   7   7    5.90    0.31
  -3  -7  -7    9.20    0.43
   3   7   7    7.31    0.35
   3   7   7    7.50    0.70
   3   7   7    7.34    0.36
   3   7   7    7.84    0.39
   3   7   7    8.16    0.70
   3   7   7    7.94    0.38
  -4  -7  -7    5.71    0.35
  -4  -7  -7    6.25    0.32
   4   7   7    5.12    0.56
   4   7   7    5.17    0.29
   4   7   7    5.04    0.30
   4   7   7    5.61    0.75
   4   7   7    5.27    0.30
   4   7   7    5.47    0.31
  -5  -7  -7    1.38    0.17
  -5  -7  -7    1.86    0.37
  -5  -7  -7    1.76    0.30
  -5  -7  -7    1.72    0.20
  -5  -7  -7    1.55    0.16
   5   7   7    1.25    0.15
   5   7   7    1.46    0.16
   5   7   7    1.07    0.15
   5   7   7    1.34    0.42
   5   7   7    1.24    0.32
  -6  -7  -7   12.37    0.53
  -6  -7  -7   12.71    0.51
  -6  -7  -7   12.43    0.50
  -6  -7  -7   12.40    0.84
  -6  -7  -7   12.69    0.71
   6   7   7   11.43    0.51
   6   7   7   11.90    0.49
   6   7   7   11.46    0.93
  -7  -7  -7   25.43    1.11
  -7  -7  -7   24.99    1.25
  -7  -7  -7   23.97    1.01
  -7  -7  -7   25.22    0.89
   7   7   7   26.24    0.92
   7   7   7   25.35    0.94
   7   7   7   24.13    1.36
  -8  -7  -7   41.69    1.74
  -8  -7  -7   42.00    1.44
  -8  -7  -7   42.57    1.53
  -8  -7  -7   40.83    1.60
   8   7   7   47.05    1.53
   8   7   7   43.32    1.93
   8   7   7   43.15    1.56
  -9  -7  -7   10.83    0.59
  -2   8   7   10.65    0.83
  -1   8   7    1.83    0.48
  -1   8   7    1.47    0.15
   0   8   7    3.21    0.40
   0   8   7    2.85    0.50
   0   8   7    3.51    0.24
   1   8   7    4.93    0.52
   1   8   7    4.98    0.29
   1   8   7    4.18    0.56
   2   8   7   10.40    0.77
   2   8   7   11.13    0.47
   2   8   7    9.54    0.79
  -3  -8  -7   30.86    1.15
   3   8   7   25.72    0.94
   3   8   7   24.91    1.33
   3   8   7   24.47    0.91
   3   8   7   28.80    1.74
   3   8   7   24.51    0.92
   3   8   7   22.00    1.28
  -4  -8  -7   28.67    1.05
  -4  -8  -7   28.66    1.09
   4   8   7   24.84    0.91
   4   8   7   25.95    1.55
   4   8   7   25.21    0.89
   4   8   7   24.40    0.91
   4   8   7   22.93    0.87
   4   8   7   23.20    1.30
  -5  -8  -7   44.93    1.79
  -5  -8  -7   44.39    1.55
  -5  -8  -7   44.55    1.58
   5   8   7   39.30    1.90
   5   8   7   39.00    1.33
   5   8   7   39.20    1.34
   5   8   7   34.26    1.70
   5   8   7   36.95    1.30
  -6  -8  -7   11.39    0.67
  -6  -8  -7   11.92    0.49
  -6  -8  -7   11.94    0.48
  -6  -8  -7   12.42    0.51
   6   8   7   11.21    0.46
   6   8   7   10.86    0.47
   6   8   7   10.96    0.48
   6   8   7   10.86    0.88
  -7  -8  -7    0.88    0.13
  -7  -8  -7    0.85    0.11
  -7  -8  -7    0.88    0.20
  -7  -8  -7    0.95    0.25
   7   8   7    0.68    0.36
   7   8   7    0.87    0.14
   7   8   7    0.92    0.13
   7   8   7    0.66    0.14
  -8  -8  -7    0.91    0.20
  -8  -8  -7    1.23    0.22
  -8  -8  -7    1.07    0.26
   8   8   7    1.41    0.15
   8   8   7    1.18    0.36
   8   8   7    1.15    0.17
   8   8   7    0.86    0.15
  -1   9   7   15.48    0.69
  -1   9   7   16.48    0.87
   0   9   7   23.41    0.83
   0   9   7   22.44    1.13
   1   9   7   20.04    1.02
   1   9   7   20.05    0.74
   1   9   7   19.26    1.05
   2   9   7   13.21    0.84
   2   9   7   15.46    0.90
   2   9   7   16.52    0.60
   3   9   7    0.58    0.23
   3   9   7    0.76    0.12
   3   9   7    0.51    0.39
  -4  -9  -7    0.75    0.13
  -4  -9  -7    0.92    0.16
   4   9   7    0.68    0.25
   4   9   7    0.74    0.12
   4   9   7    0.93    0.40
  -5  -9  -7    8.28    0.40
  -5  -9  -7    8.28    0.53
  -5  -9  -7    8.70    0.38
   5   9   7    6.02    0.54
   5   9   7    7.01    0.34
   5   9   7    7.88    0.77
  -6  -9  -7   11.36    0.47
  -6  -9  -7   11.00    0.46
  -6  -9  -7   11.76    0.49
  -6  -9  -7   11.50    0.63
   6   9   7   10.46    0.43
   6   9   7   10.92    0.44
   6   9   7   10.93    0.47
   6   9   7   11.04    0.85
  -7  -9  -7    6.88    0.33
  -7  -9  -7    6.38    0.43
  -7  -9  -7    7.19    0.30
   7   9   7    6.23    0.33
   7   9   7    6.65    0.31
   7   9   7    6.09    0.29
   7   9   7    6.23    0.67
   7   9   7    6.20    0.29
   1  10   7    2.11    0.16
   2  10   7    8.14    0.34
   2  10   7    7.35    0.51
   3  10   7   12.74    0.73
   3  10   7   14.27    0.52
  -4 -10  -7   13.03    0.52
   4  10   7   10.66    0.80
   4  10   7    8.26    0.59
   4  10   7    9.49    0.39
  -5 -10  -7   10.08    0.45
  -5 -10  -7    9.77    0.54
  -5 -10  -7   10.37    0.42
   5  10   7    6.38    0.48
   5  10   7    8.21    0.72
  -6 -10  -7   19.18    0.68
  -6 -10  -7   19.53    0.71
  -6 -10  -7   18.80    0.82
  -6 -10  -7   19.30    0.70
   4   8  -8   13.40    0.76
   3   8  -8   12.79    0.75
   6   7  -8    3.12    0.21
  -6  -7   8    4.02    0.28
  -6  -7   8    3.51    0.25
  -6  -7   8    3.74    0.24
   5   7  -8    1.38    0.34
  -5  -7   8    2.09    0.19
  -5  -7   8    1.95    0.22
   4   7  -8    0.25    0.26
   4   7  -8    0.13    0.10
  -4  -7   8    0.18    0.12
  -4  -7   8    0.21    0.10
   3   7  -8    6.40    0.66
   3   7  -8    7.48    0.36
   2   7  -8    4.92    0.59
   2   7  -8    5.15    0.32
   1   7  -8   14.65    0.68
   1   7  -8   12.84    0.87
   1   7  -8   14.02    1.73
   1   7  -8   14.47    0.58
   0   7  -8   28.18    1.69
   0   7  -8   26.66    0.96
   0   7  -8   26.02    1.05
   7   6  -8   19.61    0.70
   7   6  -8   18.60    0.71
   7   6  -8   19.71    0.73
  -7  -6   8   19.69    0.72
   6   6  -8   36.31    1.25
   6   6  -8   36.70    1.28
   6   6  -8   35.93    1.26
  -6  -6   8   41.05    1.42
  -6  -6   8   41.64    1.46
  -6  -6   8   40.73    1.43
   5   6  -8   26.97    0.95
   5   6  -8   23.02    1.34
   5   6  -8   27.62    0.94
   5   6  -8   26.87    0.92
  -5  -6   8   30.45    1.09
  -5  -6   8   28.71    1.10
  -5  -6   8   30.45    1.12
   4   6  -8   32.05    1.11
   4   6  -8   29.54    1.14
   4   6  -8   30.69    1.64
   4   6  -8   33.74    1.09
  -4  -6   8   36.79    1.37
  -4  -6   8   37.13    1.33
   3   6  -8   17.54    0.69
   3   6  -8   16.47    1.12
  -3  -6   8   21.00    0.82
   2   6  -8   12.02    0.54
   2   6  -8   12.51    0.93
   2   6  -8   13.11    0.67
   2   6  -8   12.11    0.92
   1   6  -8    0.19    0.11
   1   6  -8    0.13    0.40
   1   6  -8    0.09    0.15
   1   6  -8    0.23    0.23
   1   6  -8    0.06    0.22
   0   6  -8    1.14    0.22
   0   6  -8    1.20    0.16
   0   6  -8    1.09    0.55
   0   6  -8    1.07    0.33
  -1   6  -8    0.91    0.20
  -1   6  -8    0.94    0.16
  -1   6  -8    1.05    0.67
  -2   6  -8    5.88    1.21
  -2   6  -8    5.20    0.36
   8   5  -8    5.99    0.30
  -8  -5   8    6.22    0.46
   7   5  -8   12.24    0.51
   7   5  -8   12.14    0.53
  -7  -5   8   12.17    0.49
  -7  -5   8   12.09    0.75
   6   5  -8    3.74    0.28
   6   5  -8    3.02    0.25
   6   5  -8    2.82    0.25
  -6  -5   8    3.85    0.45
  -6  -5   8    3.72    0.24
  -6  -5   8    3.22    0.26
  -6  -5   8    3.60    0.24
   5   5  -8    0.08    0.11
   5   5  -8   -0.02    0.23
   5   5  -8   -0.01    0.11
   5   5  -8   -0.04    0.12
  -5  -5   8    0.26    0.10
  -5  -5   8    0.13    0.12
  -5  -5   8   -0.01    0.14
  -5  -5   8    0.12    0.11
   4   5  -8    0.46    0.29
   4   5  -8    0.54    0.14
   4   5  -8    0.39    0.12
   4   5  -8    0.43    0.12
  -4  -5   8    0.48    0.22
  -4  -5   8    0.43    0.14
  -4  -5   8    0.52    0.12
   3   5  -8   24.66    1.43
   3   5  -8   23.82    0.88
   3   5  -8   22.25    0.91
   3   5  -8   24.48    0.86
   3   5  -8   23.52    1.37
  -3  -5   8   25.45    0.94
  -3  -5   8   23.72    1.32
   2   5  -8   49.54    1.73
   2   5  -8   48.35    1.67
   2   5  -8   49.48    1.73
   2   5  -8   47.52    2.81
   2   5  -8   50.35    2.22
   2   5  -8   50.27    1.88
   1   5  -8   46.84    1.63
   1   5  -8   47.40    1.77
   1   5  -8   45.84    2.08
   1   5  -8   45.75    2.76
   0   5  -8   17.85    1.72
   0   5  -8   17.66    0.70
   0   5  -8   17.31    0.80
   0   5  -8   17.20    1.06
  -1   5  -8   41.58    1.49
  -1   5  -8   41.05    1.60
  -1   5  -8   45.85    3.05
  -2   5  -8   12.58    1.23
  -2   5  -8   15.37    0.69
  -2   5  -8   16.84    1.99
  -3   5  -8    0.26    0.72
  -3   5  -8    0.08    0.14
   8   4  -8    6.37    0.33
  -8  -4   8    6.04    0.31
  -8  -4   8    6.13    0.49
   7   4  -8    7.69    0.40
   7   4  -8    7.51    0.37
  -7  -4   8    7.29    0.37
  -7  -4   8    7.34    0.61
  -7  -4   8    6.62    0.55
   6   4  -8   46.50    1.60
   6   4  -8   45.68    1.63
  -6  -4   8   47.82    2.12
  -6  -4   8   49.17    1.66
  -6  -4   8   48.96    1.69
  -6  -4   8   48.79    1.65
  -6  -4   8   47.00    2.11
   5   4  -8   51.48    1.82
   5   4  -8   52.00    1.79
  -5  -4   8   55.50    1.91
  -5  -4   8   53.78    1.86
  -5  -4   8   53.18    1.88
  -5  -4   8   54.68    2.35
  -5  -4   8   52.32    2.34
   4   4  -8   65.52    2.79
   4   4  -8   60.47    2.20
   4   4  -8   64.02    2.21
   4   4  -8   66.54    2.76
   4   4  -8   63.80    2.18
  -4  -4   8   64.51    2.23
  -4  -4   8   62.92    2.67
  -4  -4   8   63.59    2.19
   3   4  -8    7.79    0.39
   3   4  -8    7.37    0.40
   3   4  -8    8.03    0.38
   3   4  -8    9.55    0.77
   3   4  -8    8.09    0.41
  -3  -4   8    7.90    0.70
  -3  -4   8    8.97    0.45
  -3  -4   8    8.79    0.41
   2   4  -8   27.53    1.16
   2   4  -8   31.43    1.50
   2   4  -8   27.81    0.99
   2   4  -8   25.71    1.89
   2   4  -8   27.30    1.01
   2   4  -8   28.04    1.03
   1   4  -8   14.45    0.58
   1   4  -8   13.12    1.40
   1   4  -8   13.73    0.67
   1   4  -8   14.15    0.93
   1   4  -8   13.50    0.57
   0   4  -8    0.38    0.14
   0   4  -8    0.56    0.12
   0   4  -8    0.52    0.24
   0   4  -8    0.55    0.54
  -1   4  -8   17.90    2.11
  -1   4  -8   16.33    0.75
  -1   4  -8   17.58    0.99
  -1   4  -8   16.20    0.65
  -2   4  -8    6.35    0.41
  -2   4  -8    7.00    1.74
  -2   4  -8    6.57    0.32
  -3   4  -8    9.69    1.03
  -3   4  -8   11.31    1.74
  -3   4  -8   11.57    0.56
  -4   4  -8   14.55    1.51
  -4   4  -8   15.24    0.68
  -4   4  -8   14.98    0.82
  -8  -3   8   25.73    1.21
  -8  -3   8   27.66    1.24
  -8  -3   8   28.13    0.99
  -7  -3   8    9.94    0.47
  -7  -3   8    9.75    0.73
  -7  -3   8   10.29    0.74
   6   3  -8    5.82    0.34
  -6  -3   8    6.04    0.62
  -6  -3   8    6.15    0.32
  -6  -3   8    6.19    0.27
  -6  -3   8    5.97    0.61
  -6  -3   8    5.80    0.36
   5   3  -8   39.64    1.43
   5   3  -8   39.02    1.39
  -5  -3   8   39.67    1.47
  -5  -3   8   40.66    1.91
  -5  -3   8   38.82    1.39
  -5  -3   8   40.92    1.92
  -5  -3   8   39.56    1.43
  -5  -3   8   40.02    1.42
   4   3  -8   19.67    1.23
   4   3  -8   19.28    0.78
   4   3  -8   18.59    0.75
   4   3  -8   21.59    1.23
  -4  -3   8   19.62    0.77
  -4  -3   8   19.01    0.76
  -4  -3   8   19.18    1.14
  -4  -3   8   19.41    1.15
  -4  -3   8   19.09    0.74
   3   3  -8   46.88    1.69
   3   3  -8   47.31    1.69
   3   3  -8   53.74    2.18
   3   3  -8   48.84    1.67
   3   3  -8   48.97    1.70
   3   3  -8   46.70    1.69
  -3  -3   8   46.84    2.13
  -3  -3   8   49.26    1.71
  -3  -3   8   46.77    2.11
  -3  -3   8   50.84    1.68
   2   3  -8   75.88    2.55
   2   3  -8   84.12    3.05
   2   3  -8   75.35    2.58
   2   3  -8   76.05    2.57
   2   3  -8   75.96    2.57
   2   3  -8   69.15    2.91
  -2  -3   8   76.15    2.57
   1   3  -8   66.88    2.37
   1   3  -8   73.49    2.77
   1   3  -8   69.76    2.38
   1   3  -8   71.28    2.36
   0   3  -8   40.09    1.70
   0   3  -8   38.23    1.38
   0   3  -8   40.35    2.73
  -1   3  -8   31.91    1.24
  -1   3  -8   31.70    1.46
  -1   3  -8   32.99    1.15
  -1   3  -8   33.34    2.82
  -2   3  -8    8.24    0.37
  -2   3  -8    6.97    1.67
  -2   3  -8    8.44    0.46
  -3   3  -8    8.73    0.70
  -3   3  -8    8.80    1.00
  -3   3  -8    7.85    1.54
  -3   3  -8    9.01    0.49
  -4   3  -8    0.18    0.46
  -4   3  -8    0.27    0.27
  -4   3  -8    0.16    0.12
  -4   3  -8    0.14    0.26
  -5   3  -8    2.97    0.49
  -5   3  -8    2.41    0.28
  -8  -2   8   16.09    0.62
  -8  -2   8   14.63    0.83
  -8  -2   8   16.03    0.83
  -7  -2   8   17.13    1.01
  -7  -2   8   16.13    0.97
  -7  -2   8   15.74    0.68
  -6  -2   8   21.28    1.25
  -6  -2   8   22.48    1.28
  -6  -2   8   22.01    0.89
   5   2  -8   45.51    1.60
  -5  -2   8   44.36    2.06
  -5  -2   8   46.33    2.04
  -5  -2   8   43.87    1.51
  -5  -2   8   42.36    1.49
  -5  -2   8   42.86    1.53
  -5  -2   8   42.53    1.59
   4   2  -8   94.31    3.14
   4   2  -8   93.73    3.17
  -4  -2   8   92.61    3.60
  -4  -2   8   92.47    3.11
  -4  -2   8   92.02    3.17
  -4  -2   8   94.75    3.66
  -4  -2   8   93.61    3.14
  -4  -2   8   93.09    3.14
   3   2  -8   57.70    1.98
   3   2  -8   59.38    2.09
  -3  -2   8   59.52    2.01
  -3  -2   8   58.93    1.98
  -3  -2   8   55.39    2.43
  -3  -2   8   59.81    2.46
   2   2  -8   14.55    0.72
   1   2  -8    1.49    0.21
   0   2  -8    3.57    0.30
  -1   2  -8   31.26    2.63
  -1   2  -8   32.92    1.26
  -1   2  -8   32.32    1.14
  -2   2  -8   79.58    2.63
  -2   2  -8   80.59    2.53
  -2   2  -8   71.55    2.85
  -2   2  -8   67.18    4.32
  -3   2  -8   31.51    1.58
  -3   2  -8   35.39    2.05
  -3   2  -8   28.29    2.44
  -3   2  -8   34.24    1.27
  -3   2  -8   33.39    1.16
  -4   2  -8   40.55    1.94
  -4   2  -8   35.51    2.45
  -4   2  -8   39.20    1.46
  -4   2  -8   37.76    2.14
  -5   2  -8    9.79    0.97
  -5   2  -8   10.99    0.98
  -5   2  -8   10.39    0.53
  -6   2  -8    1.10    0.20
  -6   2  -8    1.35    0.44
  -8  -1   8   13.15    0.52
  -8  -1   8   11.87    0.72
  -8  -1   8   13.00    0.70
  -7  -1   8    3.12    0.44
  -7  -1   8    2.81    0.39
  -7  -1   8    3.07    0.26
  -6  -1   8    3.55    0.29
  -6  -1   8    3.75    0.52
  -6  -1   8    3.89    0.49
  -5  -1   8    0.27    0.21
  -5  -1   8    0.13    0.08
  -5  -1   8    0.23    0.19
  -5  -1   8    0.21    0.10
  -4  -1   8   19.60    1.19
  -4  -1   8   21.09    0.76
  -4  -1   8   20.66    0.80
  -4  -1   8   19.99    0.74
  -4  -1   8   21.05    1.12
  -4  -1   8   20.38    0.77
  -3  -1   8   60.64    2.28
   2   1  -8   91.39    3.24
  -2  -1   8   96.96    3.44
   1   1  -8  230.51    7.72
   0   1  -8   52.71    1.92
  -1   1  -8   88.53    3.08
  -1   1  -8   88.79    3.08
  -2   1  -8   33.12    1.28
  -2   1  -8   32.85    1.28
  -3   1  -8   11.47    0.91
  -3   1  -8   11.69    0.55
  -3   1  -8   11.01    0.45
  -3   1  -8    9.64    1.25
  -4   1  -8    3.80    0.31
  -4   1  -8    3.46    0.61
  -4   1  -8    3.29    0.62
  -4   1  -8    2.97    0.79
  -4   1  -8    3.38    0.31
  -5   1  -8    0.27    0.30
  -5   1  -8    0.24    0.15
  -5   1  -8    0.16    0.38
  -6   1  -8    8.27    0.86
  -6   1  -8    6.92    0.46
  -7   1  -8   14.36    0.79
  -7   1  -8   12.04    0.59
  -8   0   8    0.57    0.19
  -8   0   8    0.66    0.11
  -7   0   8   23.16    1.24
  -7   0   8   21.06    0.85
  -7   0   8   21.92    1.11
  -6   0   8   62.28    2.22
  -6   0   8   63.15    2.61
  -6   0   8   67.57    2.86
  -5   0   8   50.99    2.02
  -5   0   8   51.42    1.84
  -5   0   8   55.36    2.51
  -5   0   8   53.17    2.23
  -4   0   8   15.49    0.58
  -4   0   8   15.32    0.60
  -4   0   8   15.47    0.63
  -4   0   8   17.47    1.16
  -4   0   8   16.65    0.92
  -4   0   8   15.53    0.79
  -3   0   8   24.17    1.05
  -2   0   8    4.76    0.36
   1   0  -8    2.85    0.26
  -1   0   8    2.78    0.27
   0   0  -8   35.01    1.34
  -1   0  -8   58.75    2.10
  -1   0  -8   58.60    2.10
  -2   0  -8  138.33    4.69
  -2   0  -8  138.09    4.69
  -3   0  -8   37.60    1.87
  -3   0  -8   39.38    1.46
  -4   0  -8   34.50    1.30
  -4   0  -8   33.76    1.19
  -4   0  -8   31.30    1.81
  -5   0  -8   44.68    1.61
  -5   0  -8   47.37    2.30
  -5   0  -8   47.33    1.76
  -6   0  -8   20.38    0.92
  -6   0  -8   20.85    1.27
  -7   0  -8    0.87    0.32
  -7   0  -8    0.52    0.20
  -7   1   8    9.25    0.44
  -7   1   8   10.14    0.77
  -6   1   8    2.57    0.29
  -6   1   8    2.90    0.38
  -6   1   8    3.20    0.61
  -6   1   8    2.74    0.22
  -5   1   8    0.56    0.11
  -5   1   8    1.03    0.40
  -5   1   8    0.67    0.18
  -5   1   8    1.02    0.22
  -5   1   8    0.57    0.21
  -4   1   8   10.95    0.69
  -4   1   8   10.18    0.45
  -4   1   8   10.84    0.62
  -4   1   8   10.01    0.99
  -4   1   8   10.94    0.65
  -3   1   8    9.05    0.51
  -2   1   8   76.90    2.73
  -1   1   8  234.38    7.83
   0  -1  -8  201.68    6.76
   0   1   8  184.80    6.21
  -1  -1  -8   58.15    2.09
  -2  -1  -8   12.99    0.61
  -2  -1  -8   12.51    0.59
  -3  -1  -8    6.11    0.39
  -3  -1  -8    7.15    0.40
  -4  -1  -8   13.47    0.96
  -4  -1  -8   13.10    0.53
  -4  -1  -8   12.24    0.75
  -4  -1  -8   12.71    0.61
  -5  -1  -8   38.47    1.38
  -5  -1  -8   39.99    1.91
  -5  -1  -8   40.96    1.52
  -5  -1  -8   36.20    1.84
  -6  -1  -8   18.94    0.87
  -6  -1  -8   18.43    1.12
  -6  -1  -8   17.87    0.72
  -7  -1  -8   11.33    0.77
  -7  -1  -8   11.22    0.61
  -7  -1  -8   10.39    0.46
  -8  -1  -8    6.64    0.39
  -8  -1  -8    5.93    0.44
  -7   2   8   12.73    0.87
  -6   2   8    4.55    0.37
  -6   2   8    4.70    0.26
  -6   2   8    4.36    0.35
  -6   2   8    4.01    0.64
  -5   2   8   28.57    1.25
  -5   2   8   28.05    1.30
  -5   2   8   27.45    1.21
  -5   2   8   28.39    1.00
  -5   2   8   22.82    1.63
  -4   2   8   31.51    1.13
  -4   2   8   31.17    1.41
  -4   2   8   32.67    1.42
  -4   2   8   32.41    1.39
  -3   2   8   22.32    0.83
  -3   2   8   21.97    1.06
  -3   2   8   22.49    1.12
  -3   2   8   25.09    1.10
  -2   2   8    1.26    0.25
  -2   2   8    1.47    0.20
  -1   2   8   22.15    0.93
   0  -2  -8   24.29    1.00
   0   2   8   22.34    0.92
  -1  -2  -8   28.40    1.13
   1   2   8   23.91    0.97
  -2  -2  -8  134.74    4.59
  -3  -2  -8  147.33    5.03
  -4  -2  -8   64.04    2.21
  -4  -2  -8   67.42    2.63
  -4  -2  -8   62.33    2.53
  -5  -2  -8   39.63    1.81
  -5  -2  -8   40.74    1.56
  -5  -2  -8   39.68    1.44
  -5  -2  -8   41.21    1.79
  -6  -2  -8   19.27    1.09
  -6  -2  -8   20.04    0.92
  -6  -2  -8   19.71    0.78
  -6  -2  -8   19.48    1.07
  -7  -2  -8    5.07    0.52
  -7  -2  -8    5.21    0.42
  -7  -2  -8    5.01    0.30
  -8  -2  -8    0.84    0.20
  -8  -2  -8    0.62    0.12
  -8  -2  -8    0.70    0.24
  -6   3   8    0.16    0.12
  -6   3   8    0.19    0.29
  -6   3   8    0.04    0.12
  -5   3   8    0.23    0.15
  -5   3   8    0.23    0.08
  -5   3   8    0.20    0.25
  -5   3   8    0.18    0.16
  -4   3   8   20.61    1.30
  -4   3   8   22.12    0.81
  -4   3   8   23.53    1.17
  -4   3   8   22.28    1.10
  -3   3   8   41.97    2.55
  -3   3   8   49.43    1.88
  -3   3   8   46.93    1.61
  -3   3   8   47.93    1.96
  -3   3   8   46.87    2.01
  -2   3   8   23.25    1.18
  -2   3   8   23.64    0.89
  -2   3   8   26.90    1.06
  -2   3   8   25.26    1.03
  -1   3   8   26.19    1.06
   0   3   8   24.15    0.99
  -1  -3  -8   32.23    1.29
   1   3   8   28.07    1.13
  -2  -3  -8    0.89    0.17
  -3  -3  -8    2.71    0.29
  -4  -3  -8    1.85    0.26
  -4  -3  -8    1.62    0.14
  -4  -3  -8    1.77    0.33
  -4  -3  -8    1.72    0.33
  -4  -3  -8    1.78    0.15
  -4  -3  -8    1.64    0.18
  -5  -3  -8   26.79    1.33
  -5  -3  -8   26.16    1.09
  -5  -3  -8   25.35    1.27
  -5  -3  -8   26.26    1.00
  -6  -3  -8   35.85    1.33
  -6  -3  -8   35.88    1.63
  -6  -3  -8   36.73    1.70
  -6  -3  -8   37.91    1.47
  -7  -3  -8   24.32    1.23
  -7  -3  -8   26.04    1.08
  -7  -3  -8   23.42    1.17
  -7  -3  -8   25.44    0.94
  -8  -3  -8   25.24    0.91
  -8  -3  -8   24.19    1.13
  -8  -3  -8   25.33    1.02
  -6   4   8   31.83    1.25
  -5   4   8   29.88    1.30
  -5   4   8   29.45    1.34
  -4   4   8    7.90    0.61
  -4   4   8    7.75    0.65
  -4   4   8    7.35    0.34
  -3   4   8   12.00    0.82
  -3   4   8   11.59    0.48
  -3   4   8   13.71    0.83
  -3   4   8   11.80    0.84
  -2   4   8   12.76    0.85
  -2   4   8   15.15    0.78
  -2   4   8   12.77    0.53
  -2   4   8   13.80    0.88
  -1   4   8    0.06    0.09
  -1   4   8    0.39    0.07
  -1   4   8    0.05    0.15
  -1   4   8    0.02    0.12
  -1   4   8    0.06    0.10
  -1   4   8    0.11    0.09
  -1   4   8    0.12    0.17
   0   4   8   27.20    1.11
   1   4   8   65.44    2.38
   2   4   8   80.83    2.90
  -3  -4  -8  165.22    5.67
  -4  -4  -8   47.48    1.65
  -4  -4  -8   46.57    1.94
  -4  -4  -8   46.76    2.00
  -4  -4  -8   48.89    1.70
  -4  -4  -8   46.40    1.64
  -4  -4  -8   47.58    1.63
  -4  -4  -8   50.67    2.10
   4   4   8   41.84    1.46
  -5  -4  -8   25.28    0.95
  -5  -4  -8   25.02    1.24
  -5  -4  -8   27.22    1.37
  -5  -4  -8   25.82    1.10
  -5  -4  -8   26.66    1.00
  -5  -4  -8   26.84    0.93
  -6  -4  -8    8.20    0.65
  -6  -4  -8    9.14    0.55
  -6  -4  -8    9.08    0.71
  -6  -4  -8    9.19    0.45
  -7  -4  -8    0.77    0.20
  -7  -4  -8    0.61    0.13
  -7  -4  -8    0.67    0.25
  -8  -4  -8    1.25    0.23
  -8  -4  -8    1.08    0.27
  -8  -4  -8    1.13    0.16
  -9  -4  -8    3.52    0.21
  -9  -4  -8    3.60    0.29
  -5   5   8    3.41    0.39
  -4   5   8    7.74    0.64
  -4   5   8    8.44    0.59
  -4   5   8    8.97    0.66
  -3   5   8   13.86    0.92
  -3   5   8   16.25    0.96
  -3   5   8   15.17    0.94
  -3   5   8   14.81    0.58
  -2   5   8   37.39    1.77
  -2   5   8   42.10    1.94
  -2   5   8   40.81    1.67
  -2   5   8   41.83    1.78
  -2   5   8   37.91    1.38
  -1   5   8   28.48    1.31
  -1   5   8   28.20    1.35
  -1   5   8   31.31    1.34
  -1   5   8   29.05    1.64
  -1   5   8   27.45    1.03
   0   5   8   23.74    1.14
   0   5   8   25.56    0.88
   0   5   8   23.64    1.12
   0   5   8   24.23    0.84
   0   5   8   21.70    1.49
   1   5   8    4.73    0.22
   1   5   8    5.90    0.50
   1   5   8    5.20    0.26
   1   5   8    4.67    0.68
   1   5   8    4.92    0.23
   1   5   8    4.90    0.24
   2   5   8    2.59    0.31
   2   5   8    2.32    0.17
   2   5   8    2.65    0.46
   2   5   8    2.57    0.19
   2   5   8    2.74    0.37
   2   5   8    2.34    0.30
  -3  -5  -8    6.18    0.30
  -3  -5  -8    5.65    0.54
  -3  -5  -8    6.09    0.32
   3   5   8    5.12    0.28
   3   5   8    5.43    0.50
   3   5   8    4.72    0.26
  -4  -5  -8    5.62    0.29
  -4  -5  -8    5.65    0.30
  -4  -5  -8    6.25    0.60
  -4  -5  -8    5.31    0.33
  -4  -5  -8    7.05    0.52
  -4  -5  -8    5.66    0.32
   4   5   8    4.61    0.27
   4   5   8    4.81    0.26
  -5  -5  -8   20.92    0.81
  -5  -5  -8   21.74    1.22
  -5  -5  -8   21.70    0.80
  -5  -5  -8   21.16    0.85
  -5  -5  -8   21.22    0.78
   5   5   8   18.93    0.72
   5   5   8   19.13    0.76
  -6  -5  -8   66.91    2.47
  -6  -5  -8   67.68    2.29
  -6  -5  -8   69.38    2.78
  -6  -5  -8   68.56    2.36
  -7  -5  -8   17.63    0.83
  -7  -5  -8   18.50    1.04
  -7  -5  -8   18.46    0.73
  -8  -5  -8   21.55    0.82
  -8  -5  -8   21.79    0.91
  -8  -5  -8   21.71    1.08
  -9  -5  -8   18.33    0.65
  -9  -5  -8   17.63    0.71
  -9  -5  -8   17.75    0.87
  -4   6   8   26.77    1.22
  -4   6   8   24.79    1.17
  -3   6   8    3.28    0.44
  -3   6   8    3.08    0.37
  -3   6   8    2.85    0.44
  -3   6   8    2.94    0.19
  -2   6   8    0.26    0.20
  -2   6   8    0.20    0.23
  -2   6   8    0.01    0.07
  -2   6   8    0.23    0.18
  -1   6   8   11.84    0.73
  -1   6   8   11.61    1.04
  -1   6   8   13.30    0.78
  -1   6   8   11.57    0.50
  -1   6   8   11.13    0.68
   0   6   8   13.86    0.83
   0   6   8   12.62    0.75
   0   6   8   10.97    1.09
   0   6   8   12.54    0.52
   1   6   8   13.24    0.54
   1   6   8   16.25    0.93
   1   6   8   13.64    1.15
   1   6   8   14.40    0.58
  -2  -6  -8   24.94    0.95
   2   6   8   21.14    0.78
   2   6   8   21.04    0.79
   2   6   8   19.96    0.76
   2   6   8   23.29    1.21
   2   6   8   21.76    1.36
   2   6   8   21.08    0.79
   2   6   8   21.44    0.81
  -3  -6  -8   46.89    1.66
  -3  -6  -8   46.74    1.63
   3   6   8   36.76    1.84
   3   6   8   40.22    1.39
   3   6   8   38.16    1.36
   3   6   8   39.23    1.38
   3   6   8   41.86    1.84
   3   6   8   38.45    1.38
   3   6   8   39.80    1.36
  -4  -6  -8   42.60    1.75
  -4  -6  -8   44.91    2.04
  -4  -6  -8   46.58    1.57
  -4  -6  -8   46.43    1.61
   4   6   8   40.48    1.38
   4   6   8   39.79    1.44
   4   6   8   40.55    1.41
   4   6   8   39.86    1.79
   4   6   8   36.83    1.78
  -5  -6  -8    2.84    0.21
  -5  -6  -8    2.88    0.24
  -5  -6  -8    3.40    0.23
  -5  -6  -8    2.88    0.45
  -5  -6  -8    2.35    0.25
   5   6   8    2.58    0.22
   5   6   8    2.47    0.45
   5   6   8    1.90    0.19
   5   6   8    2.64    0.50
  -6  -6  -8   15.35    0.97
  -6  -6  -8   14.91    0.65
  -6  -6  -8   15.44    0.61
  -6  -6  -8   15.87    0.59
   6   6   8   13.90    0.59
   6   6   8   13.89    0.57
  -7  -6  -8    0.11    0.14
  -7  -6  -8    0.23    0.11
  -7  -6  -8    0.09    0.22
  -7  -6  -8    0.13    0.18
   7   6   8    0.27    0.12
  -8  -6  -8    1.52    0.17
  -8  -6  -8    1.47    0.21
  -8  -6  -8    1.39    0.29
  -9  -6  -8    5.52    0.40
  -3   7   8   17.37    0.84
  -3   7   8   18.08    1.03
  -2   7   8   28.20    1.19
  -2   7   8   26.39    0.98
  -2   7   8   28.91    1.58
  -1   7   8   25.98    1.65
  -1   7   8   29.62    1.30
  -1   7   8   28.30    1.01
  -1   7   8   27.19    1.24
   0   7   8   43.86    1.84
   0   7   8   39.35    1.44
   0   7   8   39.83    2.20
   1   7   8   18.29    0.72
   1   7   8   19.15    1.08
   1   7   8   17.35    1.29
   2   7   8    2.75    0.57
   2   7   8    3.14    0.45
   2   7   8    2.71    0.22
  -3  -7  -8    7.02    0.36
  -3  -7  -8    6.94    0.40
   3   7   8    5.83    0.59
   3   7   8    5.76    0.31
   3   7   8    6.09    0.33
   3   7   8    5.35    0.29
   3   7   8    5.64    0.31
   3   7   8    5.27    0.63
  -4  -7  -8   23.98    0.91
  -4  -7  -8   23.00    0.87
   4   7   8   18.81    1.11
   4   7   8   20.56    0.74
   4   7   8   19.84    0.73
   4   7   8   20.33    0.77
   4   7   8   19.62    0.75
   4   7   8   17.90    1.13
  -5  -7  -8   19.90    0.75
  -5  -7  -8   19.60    0.77
  -5  -7  -8   19.17    1.13
  -5  -7  -8   20.97    0.79
  -5  -7  -8   20.32    0.95
   5   7   8   18.83    0.70
   5   7   8   18.85    1.18
   5   7   8   16.82    0.71
   5   7   8   18.70    0.72
  -6  -7  -8   32.08    1.56
  -6  -7  -8   33.95    1.16
  -6  -7  -8   33.59    1.14
  -6  -7  -8   33.20    1.18
  -6  -7  -8   31.60    1.36
   6   7   8   30.51    1.07
   6   7   8   30.34    1.56
   6   7   8   29.35    1.09
  -7  -7  -8   41.88    1.78
  -7  -7  -8   42.11    1.40
  -7  -7  -8   38.59    1.58
   7   7   8   41.19    1.47
   7   7   8   41.83    1.90
   7   7   8   42.67    1.45
  -8  -7  -8   10.60    0.53
  -8  -7  -8   10.25    0.66
  -8  -7  -8   10.43    0.50
   8   7   8   11.10    0.53
   8   7   8   11.07    0.91
   8   7   8   12.24    0.49
  -2   8   8    0.84    0.35
  -1   8   8    1.37    0.15
  -1   8   8    1.82    0.52
   0   8   8   12.94    0.54
   0   8   8   13.00    1.01
   0   8   8   13.73    0.81
   1   8   8   30.64    1.44
   1   8   8   29.32    1.07
   1   8   8   28.47    1.58
   2   8   8   15.73    1.05
   2   8   8   17.24    0.66
   2   8   8   16.91    1.00
  -3  -8  -8   15.99    0.65
   3   8   8   10.54    0.83
   3   8   8   12.04    0.49
   3   8   8   12.72    0.51
   3   8   8   12.04    0.83
  -4  -8  -8   24.72    0.91
  -4  -8  -8   24.53    0.95
   4   8   8   22.01    0.78
   4   8   8   21.20    0.76
   4   8   8   21.59    0.80
   4   8   8   19.61    1.14
   4   8   8   20.34    0.79
  -5  -8  -8   16.44    0.66
  -5  -8  -8   16.42    0.63
  -5  -8  -8   15.84    0.81
  -5  -8  -8   16.46    0.65
   5   8   8   15.37    1.05
   5   8   8   14.70    0.56
   5   8   8   14.33    0.60
   5   8   8   14.59    0.58
   5   8   8   14.08    0.56
  -6  -8  -8    0.07    0.10
  -6  -8  -8    0.06    0.14
  -6  -8  -8    0.14    0.09
  -6  -8  -8    0.24    0.09
   6   8   8    0.15    0.11
   6   8   8   -0.06    0.08
   6   8   8   -0.02    0.26
   6   8   8    0.01    0.09
  -7  -8  -8    1.23    0.21
  -7  -8  -8    1.56    0.15
  -7  -8  -8    1.19    0.26
   7   8   8    1.31    0.17
   7   8   8    1.13    0.14
   7   8   8    1.44    0.16
   7   8   8    1.37    0.37
  -8  -8  -8    0.30    0.18
   8   8   8    0.27    0.12
   8   8   8    0.33    0.10
   8   8   8    0.17    0.41
   8   8   8    0.40    0.12
   8   8   8    0.55    0.12
  -1   9   8   16.11    0.86
   0   9   8    6.96    0.52
   0   9   8    7.31    0.60
   0   9   8    7.66    0.34
   1   9   8    2.69    0.42
   1   9   8    2.15    0.36
   1   9   8    2.29    0.21
   2   9   8    1.21    0.28
   2   9   8    1.30    0.31
   2   9   8    1.19    0.14
  -3  -9  -8    1.04    0.18
   3   9   8    0.79    0.26
   3   9   8    0.79    0.28
   3   9   8    0.84    0.12
  -4  -9  -8    5.97    0.31
  -4  -9  -8    6.15    0.35
   4   9   8    4.52    0.47
   4   9   8    4.97    0.27
  -5  -9  -8    9.14    0.39
  -5  -9  -8    9.04    0.42
  -5  -9  -8    7.65    0.49
  -5  -9  -8    8.69    0.52
   5   9   8    8.71    0.76
   5   9   8    7.84    0.35
   5   9   8    6.50    0.54
   5   9   8    7.89    0.37
  -6  -9  -8   17.13    0.61
  -6  -9  -8   16.83    0.65
  -6  -9  -8   15.50    0.76
  -6  -9  -8   16.75    0.63
   6   9   8   13.41    0.53
   6   9   8   15.17    0.58
   6   9   8   14.60    0.54
   6   9   8   14.51    0.93
  -7  -9  -8   14.78    0.51
  -7  -9  -8   12.17    0.61
   7   9   8   13.15    0.48
   7   9   8   12.38    0.49
   7   9   8   12.33    0.82
   7   9   8   12.12    0.46
   2  10   8   20.59    0.96
   2  10   8   22.98    0.77
   3  10   8   18.89    0.93
   3  10   8   21.28    0.72
  -4 -10  -8   12.32    0.49
  -4 -10  -8   11.52    0.59
   4  10   8    8.12    0.53
  -5 -10  -8    5.07    0.27
  -5 -10  -8    5.38    0.29
  -5 -10  -8    5.02    0.35
   5  10   8    3.27    0.33
  -6 -10  -8    0.22    0.10
  -6 -10  -8    0.14    0.09
  -6 -10  -8    0.09    0.09
  -6  -7   9    0.02    0.10
  -6  -7   9    0.00    0.08
  -5  -7   9   14.13    0.54
  -5  -7   9   13.33    0.56
  -5  -7   9   13.38    0.55
   4   7  -9   15.20    0.90
  -4  -7   9   21.11    0.82
  -4  -7   9   21.53    0.80
   3   7  -9   12.98    0.86
   3   7  -9   14.34    0.56
   2   7  -9   10.73    0.45
   2   7  -9    9.17    0.71
   1   7  -9   18.77    1.01
   1   7  -9   21.83    0.76
   7   6  -9   18.94    0.67
   7   6  -9   19.05    0.66
   6   6  -9   11.96    0.47
   6   6  -9   11.48    0.46
   6   6  -9   12.10    0.49
  -6  -6   9   12.59    0.50
  -6  -6   9   12.44    0.50
  -6  -6   9   12.80    0.54
   5   6  -9    3.85    0.22
   5   6  -9    3.74    0.27
   5   6  -9    2.69    0.44
  -5  -6   9    4.48    0.29
  -5  -6   9    4.39    0.33
  -5  -6   9    4.58    0.30
   4   6  -9   11.39    0.45
   4   6  -9   10.56    0.84
  -4  -6   9   12.66    0.58
  -4  -6   9   13.14    0.55
   3   6  -9   15.17    0.61
   3   6  -9   13.66    0.98
  -3  -6   9   15.60    0.97
  -3  -6   9   16.95    0.67
   2   6  -9    0.20    0.16
   2   6  -9    0.19    0.12
   2   6  -9    0.12    0.23
   1   6  -9    5.98    0.96
   1   6  -9    6.17    0.35
   1   6  -9    5.99    0.65
   1   6  -9    6.13    0.42
   0   6  -9    3.94    0.53
   0   6  -9    4.33    0.37
   0   6  -9    4.97    0.99
  -1   6  -9   14.50    0.59
  -1   6  -9   15.19    0.69
  -1   6  -9   17.05    1.54
   7   5  -9    1.26    0.14
   7   5  -9    1.22    0.16
   7   5  -9    0.89    0.14
  -7  -5   9    1.29    0.26
   6   5  -9    0.52    0.14
   6   5  -9    0.69    0.13
   6   5  -9    0.73    0.15
  -6  -5   9    0.45    0.23
  -6  -5   9    0.50    0.13
  -6  -5   9    0.80    0.12
  -6  -5   9    0.76    0.12
   5   5  -9   17.65    0.70
   5   5  -9   17.27    0.68
   5   5  -9   17.72    0.66
  -5  -5   9   17.45    1.04
  -5  -5   9   19.11    0.72
  -5  -5   9   18.99    0.74
  -5  -5   9   18.81    0.76
   4   5  -9   52.20    1.76
   4   5  -9   50.86    1.79
   4   5  -9   52.64    1.78
  -4  -5   9   54.65    1.85
  -4  -5   9   49.84    2.25
  -4  -5   9   54.29    1.89
   3   5  -9   65.00    2.05
   3   5  -9   60.31    2.64
   3   5  -9   58.72    2.12
   3   5  -9   58.86    2.67
   3   5  -9   62.53    2.08
  -3  -5   9   64.37    2.19
  -3  -5   9   61.76    2.65
  -3  -5   9   63.89    2.23
   2   5  -9   38.68    1.53
   2   5  -9   41.07    1.40
   2   5  -9   39.84    1.40
   2   5  -9   37.92    1.85
   2   5  -9   36.54    2.31
   1   5  -9   45.97    1.72
   1   5  -9   42.51    2.01
   1   5  -9   45.56    1.58
   1   5  -9   44.83    2.69
   0   5  -9    0.85    0.14
   0   5  -9    0.57    0.28
   0   5  -9    0.97    0.20
   0   5  -9    0.93    0.57
  -1   5  -9    6.90    0.44
  -1   5  -9    8.62    1.43
  -1   5  -9    7.03    0.35
  -2   5  -9    1.94    0.88
  -2   5  -9    1.67    0.17
  -2   5  -9    1.69    0.24
  -3   5  -9    0.65    0.61
  -3   5  -9    0.56    0.16
  -8  -4   9    4.97    0.40
   7   4  -9   35.23    1.26
   7   4  -9   35.91    1.25
  -7  -4   9   32.27    1.46
  -7  -4   9   33.85    1.49
   6   4  -9   38.41    1.38
   6   4  -9   38.90    1.36
  -6  -4   9   40.53    1.34
  -6  -4   9   37.45    1.76
  -6  -4   9   38.63    1.37
  -6  -4   9   38.64    1.76
   5   4  -9   41.06    1.39
   5   4  -9   39.24    1.42
   5   4  -9   38.70    1.41
  -5  -4   9   41.86    1.96
  -5  -4   9   42.12    1.52
  -5  -4   9   42.27    1.48
  -5  -4   9   42.71    1.50
  -5  -4   9   42.39    1.93
   4   4  -9    4.94    0.64
   4   4  -9    3.76    0.59
   4   4  -9    4.29    0.29
   4   4  -9    4.51    0.33
   4   4  -9    4.78    0.30
  -4  -4   9    4.45    0.54
  -4  -4   9    4.65    0.33
  -4  -4   9    4.55    0.30
   3   4  -9    0.19    0.11
   3   4  -9    0.18    0.12
   3   4  -9    0.17    0.24
   3   4  -9    0.34    0.11
   3   4  -9    0.23    0.13
  -3  -4   9    0.20    0.21
  -3  -4   9    0.08    0.09
  -3  -4   9    0.45    0.13
   2   4  -9    4.16    0.55
   2   4  -9    3.38    0.83
   2   4  -9    3.75    0.27
   2   4  -9    3.96    0.24
   2   4  -9    4.12    0.28
  -2  -4   9    4.07    0.38
   1   4  -9    7.48    0.38
   1   4  -9    6.50    0.45
   1   4  -9    6.97    1.12
   1   4  -9    7.86    0.70
   0   4  -9   34.85    1.27
   0   4  -9   36.20    1.69
   0   4  -9   34.91    1.38
   0   4  -9   35.33    2.57
  -1   4  -9   29.06    1.45
  -1   4  -9   34.11    2.74
  -1   4  -9   28.08    1.19
  -1   4  -9   29.98    1.09
  -2   4  -9   58.68    1.96
  -2   4  -9   65.80    4.03
  -2   4  -9   50.18    2.81
  -2   4  -9   56.79    2.07
  -3   4  -9   27.52    2.38
  -3   4  -9   25.75    1.05
  -4   4  -9    6.05    0.38
  -4   4  -9    5.99    0.97
  -8  -3   9    2.10    0.31
  -8  -3   9    1.98    0.28
  -8  -3   9    2.09    0.20
   7   3  -9    0.22    0.12
  -7  -3   9    0.16    0.21
  -7  -3   9    0.11    0.17
  -7  -3   9    0.24    0.11
   6   3  -9    4.37    0.30
   6   3  -9    4.34    0.33
  -6  -3   9    4.93    0.55
  -6  -3   9    4.59    0.31
  -6  -3   9    4.82    0.54
  -6  -3   9    4.59    0.28
   5   3  -9   23.74    0.93
   5   3  -9   23.98    0.90
  -5  -3   9   24.75    1.37
  -5  -3   9   24.83    1.39
  -5  -3   9   24.92    0.95
  -5  -3   9   24.18    0.90
  -5  -3   9   24.34    0.97
  -5  -3   9   24.83    0.92
   4   3  -9   22.70    1.30
   4   3  -9   20.04    0.81
   4   3  -9   20.64    1.35
   4   3  -9   19.05    0.78
  -4  -3   9   20.00    0.75
  -4  -3   9   18.18    0.77
  -4  -3   9   18.87    1.16
  -4  -3   9   19.08    0.78
  -4  -3   9   20.27    1.20
   3   3  -9   80.97    3.14
   3   3  -9   75.56    2.58
   3   3  -9   77.82    2.55
   3   3  -9   65.66    2.70
   3   3  -9   77.39    2.58
  -3  -3   9   78.98    2.68
  -3  -3   9   76.21    3.18
  -3  -3   9   78.54    2.64
   2   3  -9   19.71    0.77
   2   3  -9   20.66    1.19
   2   3  -9   20.16    0.77
   2   3  -9   19.27    0.76
   2   3  -9   19.25    0.74
  -2  -3   9   19.24    0.74
  -2  -3   9   18.88    0.77
   1   3  -9   90.70    3.44
   1   3  -9   94.35    2.98
   1   3  -9   89.19    3.01
   1   3  -9   84.69    4.27
   1   3  -9   87.01    2.99
   0   3  -9   67.58    2.52
   0   3  -9   70.42    2.81
   0   3  -9   76.72    4.12
   0   3  -9   71.75    2.43
  -1   3  -9    2.77    0.38
  -1   3  -9    2.69    0.21
  -1   3  -9    2.69    0.27
  -1   3  -9    3.24    1.11
  -2   3  -9    0.10    0.12
  -2   3  -9    0.13    0.09
  -2   3  -9   -0.07    0.68
  -3   3  -9    2.42    0.27
  -3   3  -9    2.46    0.94
  -3   3  -9    2.10    0.56
  -3   3  -9    2.24    0.19
  -3   3  -9    2.34    0.38
  -4   3  -9    3.02    0.80
  -4   3  -9    3.57    0.31
  -4   3  -9    4.04    0.51
  -5   3  -9   11.16    0.74
  -5   3  -9   10.10    0.51
  -8  -2   9   21.60    0.78
  -8  -2   9   21.05    0.97
  -8  -2   9   20.57    0.98
  -7  -2   9   24.59    1.27
  -7  -2   9   24.15    1.24
  -7  -2   9   24.68    0.94
  -6  -2   9   19.12    1.15
  -6  -2   9   18.95    0.79
  -6  -2   9   20.03    1.18
   5   2  -9   25.46    0.95
  -5  -2   9   24.47    0.89
  -5  -2   9   24.06    0.96
  -5  -2   9   24.53    1.40
  -5  -2   9   24.36    0.91
  -5  -2   9   23.45    1.34
   4   2  -9    9.43    0.43
   4   2  -9    9.36    0.46
  -4  -2   9    8.93    0.75
  -4  -2   9    9.09    0.44
  -4  -2   9    9.41    0.41
  -4  -2   9    9.07    0.43
  -4  -2   9    8.79    0.46
  -4  -2   9    9.19    0.78
   3   2  -9    2.12    0.39
   3   2  -9    1.84    0.16
   3   2  -9    1.86    0.18
  -3  -2   9    1.46    0.16
  -3  -2   9    2.07    0.44
  -3  -2   9    2.24    0.37
  -3  -2   9    1.86    0.22
  -3  -2   9    1.59    0.15
   2   2  -9   15.96    0.87
   2   2  -9   17.64    0.70
   2   2  -9   18.81    0.70
   2   2  -9   18.39    0.71
   2   2  -9   20.67    1.08
   2   2  -9   19.00    0.69
  -2  -2   9   19.16    0.72
  -2  -2   9   18.67    0.74
   1   2  -9  102.17    3.44
   1   2  -9  102.01    3.46
   1   2  -9  114.18    3.90
   1   2  -9  102.11    3.46
   1   2  -9  102.71    3.47
   1   2  -9  100.85    3.70
   0   2  -9  116.88    4.23
   0   2  -9  115.27    3.86
   0   2  -9  120.42    3.84
   0   2  -9  110.69    3.83
  -1   2  -9   34.34    1.23
  -1   2  -9   33.30    1.30
  -1   2  -9   35.55    1.55
  -1   2  -9   36.10    2.86
  -2   2  -9   33.58    1.29
  -2   2  -9   34.42    1.19
  -2   2  -9   34.80    1.50
  -2   2  -9   33.05    2.84
  -2   2  -9   30.99    1.49
  -3   2  -9   32.35    2.59
  -3   2  -9   35.85    2.08
  -3   2  -9   36.44    1.24
  -3   2  -9   34.95    1.34
  -3   2  -9   33.90    1.65
  -4   2  -9   30.72    1.52
  -4   2  -9   25.99    1.67
  -4   2  -9   27.79    1.10
  -4   2  -9   26.87    0.97
  -4   2  -9   25.11    1.94
  -5   2  -9    5.18    0.74
  -5   2  -9    5.29    0.38
  -6   2  -9    1.36    0.34
  -6   2  -9    1.38    0.19
  -8  -1   9    7.09    0.33
  -8  -1   9    6.62    0.47
  -8  -1   9    6.82    0.46
  -7  -1   9    0.15    0.12
  -7  -1   9    0.01    0.19
  -7  -1   9    0.12    0.19
  -6  -1   9    0.67    0.14
  -6  -1   9    0.57    0.26
  -6  -1   9    0.59    0.25
  -5  -1   9    7.89    0.75
  -5  -1   9    7.71    0.68
  -5  -1   9    7.10    0.40
  -5  -1   9    6.86    0.35
   4   1  -9   39.56    1.39
  -4  -1   9   38.62    1.42
  -4  -1   9   40.07    1.82
  -4  -1   9   39.62    1.94
  -4  -1   9   37.60    1.35
  -4  -1   9   37.85    1.38
  -4  -1   9   39.89    1.37
   3   1  -9  117.15    3.92
   3   1  -9  117.67    3.89
  -3  -1   9  112.08    4.33
  -3  -1   9  113.19    3.79
  -3  -1   9  112.91    3.73
  -3  -1   9  116.55    4.22
  -3  -1   9  113.03    3.76
  -3  -1   9  114.36    3.76
  -3  -1   9  104.92    4.11
   1   1  -9   10.71    0.58
   0   1  -9   40.69    1.57
  -1   1  -9   16.45    0.88
  -1   1  -9   14.73    0.71
  -1   1  -9   15.83    0.61
  -1   1  -9   15.84    0.59
  -2   1  -9    1.12    0.27
  -2   1  -9    0.97    0.27
  -2   1  -9    1.09    0.64
  -2   1  -9    1.13    0.13
  -2   1  -9    0.96    0.16
  -3   1  -9   15.83    1.64
  -3   1  -9   17.55    1.13
  -3   1  -9   17.78    1.32
  -3   1  -9   17.72    0.77
  -3   1  -9   18.06    0.94
  -3   1  -9   17.30    0.67
  -4   1  -9   27.55    2.07
  -4   1  -9   36.40    1.82
  -4   1  -9   30.54    2.13
  -4   1  -9   33.44    1.27
  -4   1  -9   32.74    1.14
  -5   1  -9   25.80    0.95
  -5   1  -9   26.32    1.08
  -5   1  -9   26.33    1.55
  -6   1  -9   17.65    0.80
  -6   1  -9   19.60    1.18
  -7   0   9   24.60    1.27
  -7   0   9   23.86    0.90
  -7   0   9   22.68    1.14
  -6   0   9   30.90    1.17
  -6   0   9   33.48    1.72
  -6   0   9   30.44    1.50
  -5   0   9   13.27    0.88
  -5   0   9   14.28    1.09
  -5   0   9   12.78    0.58
  -5   0   9   13.11    0.71
  -4   0   9    0.29    0.22
  -4   0   9    0.21    0.07
  -4   0   9    0.12    0.14
  -4   0   9    0.21    0.08
  -4   0   9    0.26    0.18
  -4   0   9    0.10    0.21
  -3   0   9    1.81    0.15
  -3   0   9    1.90    0.30
  -3   0   9    1.27    0.14
  -3   0   9    2.02    0.16
  -3   0   9    1.90    0.45
  -3   0   9    1.59    0.17
  -3   0   9    1.66    0.26
  -2   0   9    0.14    0.12
   1   0  -9    3.32    0.30
  -1   0   9    2.83    0.39
   0   0  -9  112.96    3.90
  -1   0  -9  126.64    4.36
  -2   0  -9  129.86    4.48
  -2   0  -9  128.85    4.34
  -2   0  -9  133.06    4.76
  -3   0  -9   61.30    2.20
  -3   0  -9   62.32    2.43
  -3   0  -9   60.96    2.66
  -3   0  -9   63.17    2.12
  -4   0  -9   23.15    0.87
  -4   0  -9   24.20    0.98
  -4   0  -9   23.16    1.15
  -4   0  -9   21.83    1.45
  -5   0  -9    5.44    0.78
  -5   0  -9    5.46    0.40
  -5   0  -9    5.14    0.30
  -6   0  -9    2.96    0.32
  -6   0  -9    2.59    0.21
  -6   0  -9    3.31    0.55
  -7   0  -9    0.06    0.23
  -7   0  -9    0.30    0.15
  -7   1   9    0.16    0.11
  -7   1   9    0.37    0.25
  -6   1   9    6.11    0.33
  -6   1   9    6.00    0.53
  -6   1   9    5.83    0.42
  -6   1   9    6.39    0.74
  -5   1   9   23.39    1.08
  -5   1   9   25.83    1.66
  -5   1   9   24.16    1.12
  -5   1   9   23.76    0.92
  -5   1   9   24.65    1.25
  -4   1   9   25.67    0.96
  -4   1   9   26.35    1.28
  -4   1   9   25.35    1.70
  -4   1   9   26.06    1.20
  -4   1   9   25.40    1.16
  -3   1   9   34.81    1.48
  -3   1   9   33.09    1.99
  -3   1   9   36.13    1.24
  -3   1   9   39.26    1.61
  -3   1   9   35.80    1.28
  -3   1   9   35.93    1.26
  -2   1   9   93.42    3.32
  -1   1   9   35.62    1.42
   0  -1  -9    0.97    0.18
   0   1   9    0.71    0.16
  -1  -1  -9    4.10    0.32
  -2  -1  -9   34.42    1.35
  -3  -1  -9   22.74    1.13
  -3  -1  -9   24.16    1.32
  -3  -1  -9   22.08    0.86
  -3  -1  -9   22.78    0.86
  -4  -1  -9   25.12    0.93
  -4  -1  -9   24.36    1.21
  -4  -1  -9   23.20    1.00
  -4  -1  -9   26.79    1.43
  -5  -1  -9   25.41    0.97
  -5  -1  -9   25.81    1.08
  -5  -1  -9   27.76    1.47
  -5  -1  -9   24.66    1.26
  -6  -1  -9   43.63    1.94
  -6  -1  -9   41.83    1.51
  -6  -1  -9   43.37    1.66
  -7  -1  -9   18.10    0.81
  -7  -1  -9   17.42    0.69
  -7  -1  -9   18.28    0.97
  -7   2   9   18.38    1.01
  -7   2   9   17.93    0.67
  -6   2   9   12.34    0.63
  -6   2   9   12.07    1.03
  -6   2   9   13.12    0.67
  -6   2   9   13.16    0.54
  -5   2   9   23.24    0.87
  -5   2   9   22.32    1.09
  -5   2   9   23.29    1.17
  -5   2   9   23.21    1.06
  -4   2   9   21.19    1.04
  -4   2   9   19.81    0.79
  -4   2   9   21.98    1.09
  -4   2   9   21.41    1.08
  -3   2   9    0.30    0.08
  -3   2   9    0.16    0.17
  -3   2   9    0.13    0.14
  -3   2   9    0.27    0.15
  -3   2   9    0.08    0.24
  -2   2   9   14.70    0.55
  -2   2   9   15.03    0.72
  -2   2   9   14.75    0.57
  -2   2   9   13.43    0.81
  -2   2   9   14.47    0.80
  -2   2   9   14.92    0.56
  -1   2   9   27.22    1.13
   0   2   9   90.09    3.17
  -1  -2  -9   70.73    2.55
  -2  -2  -9   67.96    2.45
  -3  -2  -9   63.13    2.18
  -3  -2  -9   60.83    2.33
  -3  -2  -9   66.17    2.59
  -3  -2  -9   62.57    2.13
  -3  -2  -9   65.15    2.19
  -3  -2  -9   63.67    2.53
  -4  -2  -9   69.61    2.79
  -4  -2  -9   68.29    2.36
  -4  -2  -9   68.76    2.73
  -5  -2  -9    0.51    0.28
  -5  -2  -9    0.39    0.13
  -5  -2  -9    0.43    0.16
  -5  -2  -9    0.81    0.26
  -6  -2  -9    2.65    0.33
  -6  -2  -9    2.54    0.42
  -6  -2  -9    2.38    0.40
  -6  -2  -9    2.35    0.24
  -7  -2  -9    9.76    0.55
  -7  -2  -9    9.15    0.67
  -7  -2  -9    9.41    0.44
  -8  -2  -9    3.80    0.38
  -8  -2  -9    4.08    0.31
  -8  -2  -9    3.79    0.23
  -6   3   9   17.19    0.78
  -6   3   9   17.68    0.64
  -6   3   9   13.78    0.99
  -6   3   9   16.30    0.77
  -5   3   9   14.81    0.79
  -5   3   9   15.89    0.84
  -5   3   9   12.33    1.01
  -5   3   9   15.18    0.58
  -4   3   9   51.14    2.13
  -4   3   9   44.48    2.29
  -4   3   9   49.82    1.73
  -4   3   9   52.55    2.05
  -4   3   9   52.26    2.07
  -3   3   9   23.46    1.27
  -3   3   9   24.13    1.13
  -3   3   9   22.93    1.19
  -3   3   9   21.77    0.84
  -2   3   9   24.60    1.12
  -2   3   9   22.91    1.20
  -2   3   9   23.13    0.84
  -2   3   9   20.36    1.22
  -1   3   9   19.54    0.87
  -1   3   9   18.60    0.70
  -1   3   9   18.96    0.76
  -1   3   9   20.59    1.06
   0   3   9    7.80    0.46
   1   3   9   10.78    0.57
  -2  -3  -9    1.13    0.21
  -3  -3  -9   66.04    2.23
  -3  -3  -9   63.29    2.20
  -3  -3  -9   62.33    2.53
  -3  -3  -9   64.75    2.18
  -3  -3  -9   65.68    2.26
  -3  -3  -9   70.32    2.66
  -3  -3  -9   63.45    2.41
  -4  -3  -9  101.83    3.38
  -4  -3  -9  104.90    3.87
  -4  -3  -9  101.81    3.39
  -4  -3  -9   98.51    3.77
  -4  -3  -9  101.74    3.44
  -5  -3  -9   33.77    1.37
  -5  -3  -9   34.26    1.59
  -5  -3  -9   36.20    1.67
  -5  -3  -9   35.35    1.29
  -6  -3  -9   27.78    1.19
  -6  -3  -9   29.30    1.08
  -6  -3  -9   29.60    1.39
  -6  -3  -9   28.32    1.43
  -7  -3  -9   36.91    1.42
  -7  -3  -9   35.36    1.54
  -7  -3  -9   37.76    1.30
  -7  -3  -9   34.07    1.59
  -8  -3  -9    8.91    0.48
  -8  -3  -9    8.36    0.55
  -8  -3  -9    9.36    0.40
  -6   4   9   25.32    1.02
  -5   4   9    7.06    0.52
  -5   4   9    6.93    0.33
  -5   4   9    6.81    0.55
  -4   4   9    2.48    0.18
  -4   4   9    2.41    0.44
  -4   4   9    2.30    0.39
  -3   4   9    2.20    0.43
  -3   4   9    2.17    0.44
  -3   4   9    1.98    0.18
  -3   4   9    1.91    0.30
  -3   4   9    2.13    0.34
  -2   4   9    9.82    0.75
  -2   4   9   10.73    0.44
  -2   4   9    8.68    0.76
  -2   4   9   11.07    0.68
  -2   4   9    8.89    0.78
  -1   4   9   13.05    0.74
  -1   4   9   11.23    0.78
  -1   4   9   11.99    0.91
  -1   4   9   10.99    0.44
  -1   4   9   10.52    0.79
  -1   4   9   11.41    0.47
   0   4   9   59.95    2.02
   0   4   9   61.53    2.20
   0   4   9   58.40    1.98
   0   4   9   57.90    1.97
   0   4   9   52.54    2.71
   0   4   9   61.52    1.99
   0   4   9   60.32    1.99
   0   4   9   54.46    2.36
   0   4   9   63.60    2.35
   1   4   9   94.18    3.34
  -3  -4  -9    1.71    0.35
  -3  -4  -9    1.24    0.16
  -3  -4  -9    1.26    0.15
  -3  -4  -9    1.48    0.15
  -3  -4  -9    1.04    0.13
  -3  -4  -9    1.32    0.25
   3   4   9    1.38    0.14
   3   4   9    1.00    0.12
   3   4   9    1.06    0.12
  -4  -4  -9    5.89    0.53
  -4  -4  -9    5.54    0.30
  -4  -4  -9    5.46    0.31
  -4  -4  -9    5.95    0.59
  -4  -4  -9    4.98    0.28
  -4  -4  -9    5.39    0.35
   4   4   9    5.10    0.28
  -5  -4  -9    2.47    0.27
  -5  -4  -9    2.68    0.45
  -5  -4  -9    2.92    0.20
  -5  -4  -9    2.80    0.23
  -5  -4  -9    2.35    0.39
  -6  -4  -9    0.38    0.13
  -6  -4  -9    0.19    0.16
  -6  -4  -9    0.43    0.24
  -6  -4  -9    0.45    0.23
  -7  -4  -9    4.13    0.47
  -7  -4  -9    4.04    0.36
  -7  -4  -9    4.78    0.29
  -8  -4  -9    9.95    0.43
  -8  -4  -9    9.95    0.55
  -8  -4  -9    9.55    0.63
  -5   5   9   22.20    1.02
  -4   5   9   24.15    0.85
  -4   5   9   20.97    1.20
  -4   5   9   24.63    1.22
  -3   5   9   55.53    2.41
  -3   5   9   59.26    1.96
  -3   5   9   61.04    2.41
  -3   5   9   52.05    2.39
  -2   5   9   46.09    1.60
  -2   5   9   46.61    2.15
  -2   5   9   43.44    1.99
  -2   5   9   50.34    1.94
  -2   5   9   42.56    2.03
  -1   5   9   46.49    1.86
  -1   5   9   41.07    1.82
  -1   5   9   43.67    1.51
  -1   5   9   41.94    1.89
  -1   5   9   41.24    2.18
   0   5   9    2.79    0.36
   0   5   9    2.51    0.66
   0   5   9    2.94    0.35
   0   5   9    2.89    0.20
   0   5   9    3.07    0.37
   0   5   9    2.57    0.17
   1   5   9    0.62    0.09
   1   5   9    0.56    0.37
   1   5   9    0.72    0.20
   1   5   9    0.49    0.08
   1   5   9    0.63    0.09
   1   5   9    1.03    0.26
   1   5   9    0.68    0.11
  -2  -5  -9    0.63    0.11
  -2  -5  -9    1.13    0.16
   2   5   9    0.41    0.09
   2   5   9    0.52    0.09
   2   5   9    0.63    0.10
   2   5   9    0.55    0.10
   2   5   9    0.74    0.24
   2   5   9    0.48    0.10
   2   5   9    0.88    0.36
  -3  -5  -9    8.05    0.68
  -3  -5  -9    8.32    0.40
  -3  -5  -9    8.06    0.70
  -3  -5  -9    8.33    0.37
   3   5   9    6.56    0.32
   3   5   9    7.05    0.34
   3   5   9    6.86    0.32
   3   5   9    6.41    0.56
  -4  -5  -9   43.94    1.95
  -4  -5  -9   40.56    1.45
  -4  -5  -9   40.03    1.75
  -4  -5  -9   40.98    1.42
  -4  -5  -9   41.39    1.45
  -4  -5  -9   38.74    1.47
   4   5   9   33.99    1.23
   4   5   9   34.45    1.21
  -5  -5  -9   87.11    2.89
  -5  -5  -9   89.44    3.47
  -5  -5  -9   89.27    2.91
  -5  -5  -9   85.38    2.93
  -5  -5  -9   85.27    2.97
  -5  -5  -9   84.82    3.26
   5   5   9   75.20    2.52
   5   5   9   74.12    2.56
  -6  -5  -9   43.24    1.50
  -6  -5  -9   44.47    1.57
  -6  -5  -9   43.46    1.98
  -7  -5  -9   25.09    1.25
  -7  -5  -9   24.18    0.92
  -7  -5  -9   23.58    1.00
  -8  -5  -9    2.75    0.39
  -8  -5  -9    2.99    0.25
  -8  -5  -9    2.71    0.29
  -4   6   9    0.43    0.24
  -4   6   9    0.27    0.23
  -3   6   9    1.34    0.30
  -3   6   9    1.44    0.34
  -3   6   9    1.29    0.13
  -3   6   9    1.56    0.36
  -2   6   9   15.29    0.87
  -2   6   9   16.51    0.86
  -2   6   9   16.25    1.11
  -2   6   9   15.44    0.62
  -2   6   9   16.55    0.94
  -1   6   9   26.34    1.24
  -1   6   9   25.28    1.22
  -1   6   9   22.68    1.58
  -1   6   9   25.28    0.93
  -1   6   9   25.16    1.17
   0   6   9   10.19    0.45
   0   6   9   10.84    0.73
   0   6   9    8.16    1.01
   0   6   9    9.73    0.64
   1   6   9   29.60    1.40
   1   6   9   27.68    1.02
   1   6   9   27.33    1.80
   1   6   9   27.98    0.98
   1   6   9   26.92    0.99
  -2  -6  -9   57.95    2.00
   2   6   9   45.39    2.29
   2   6   9   49.34    2.05
   2   6   9   46.88    1.61
   2   6   9   47.34    1.63
   2   6   9   45.93    1.60
   2   6   9   43.82    1.58
  -3  -6  -9   43.58    1.51
  -3  -6  -9   42.15    1.47
  -3  -6  -9   39.54    2.00
   3   6   9   34.63    1.76
   3   6   9   34.96    1.25
   3   6   9   35.50    1.65
   3   6   9   35.60    1.25
   3   6   9   32.90    1.24
   3   6   9   37.09    1.24
  -4  -6  -9    4.83    0.31
  -4  -6  -9    5.09    0.28
  -4  -6  -9    5.41    0.54
  -4  -6  -9    4.77    0.56
  -4  -6  -9    4.68    0.29
   4   6   9    3.47    0.26
   4   6   9    4.20    0.52
   4   6   9    4.32    0.26
   4   6   9    4.20    0.26
   4   6   9    4.04    0.46
   4   6   9    3.91    0.28
  -5  -6  -9    0.10    0.10
  -5  -6  -9    0.10    0.20
  -5  -6  -9    0.33    0.11
  -5  -6  -9    0.17    0.11
   5   6   9    0.32    0.11
   5   6   9    0.21    0.22
   5   6   9    0.03    0.09
  -6  -6  -9    0.34    0.11
  -6  -6  -9    0.24    0.22
  -6  -6  -9    0.16    0.12
  -6  -6  -9    0.52    0.10
   6   6   9    0.13    0.11
   6   6   9    0.16    0.11
  -7  -6  -9   13.45    0.56
  -7  -6  -9   13.23    0.83
   7   6   9   13.97    0.56
  -8  -6  -9    5.14    0.47
  -8  -6  -9    5.02    0.33
  -8  -6  -9    5.36    0.30
   8   6   9    5.16    0.59
  -3   7   9   24.33    0.86
  -3   7   9   24.96    1.22
  -3   7   9   24.19    1.05
  -2   7   9   19.74    1.24
  -2   7   9   16.29    0.83
  -2   7   9   18.63    0.88
  -2   7   9   19.11    0.69
  -1   7   9   13.14    0.52
  -1   7   9   13.05    0.76
  -1   7   9   11.87    0.67
  -1   7   9   10.59    1.04
   0   7   9    8.73    0.99
   0   7   9   10.24    0.72
   0   7   9   10.38    0.45
   1   7   9    1.39    0.16
   1   7   9    1.68    0.36
   1   7   9    1.72    0.55
   2   7   9    9.99    0.44
   2   7   9   10.05    0.91
   2   7   9    9.32    0.42
   2   7   9    9.13    0.71
  -3  -7  -9   16.52    0.67
  -3  -7  -9   15.99    0.63
  -3  -7  -9   12.13    1.32
   3   7   9   12.54    0.52
   3   7   9   13.39    0.56
   3   7   9   13.31    0.55
   3   7   9   12.80    0.87
   3   7   9   13.10    0.98
   3   7   9   13.07    0.54
   3   7   9   13.33    0.56
  -4  -7  -9   27.24    0.98
  -4  -7  -9   25.93    1.01
   4   7   9   24.16    0.83
   4   7   9   20.05    1.15
   4   7   9   22.46    0.83
   4   7   9   20.97    1.24
   4   7   9   22.93    0.85
  -5  -7  -9   12.53    0.51
  -5  -7  -9   12.67    0.88
  -5  -7  -9   13.33    0.55
  -5  -7  -9   12.18    0.53
   5   7   9   10.67    0.48
   5   7   9   10.17    0.79
   5   7   9   10.06    0.46
   5   7   9   11.38    0.46
   5   7   9   10.93    0.46
  -6  -7  -9    2.45    0.19
  -6  -7  -9    2.40    0.41
  -6  -7  -9    2.38    0.20
  -6  -7  -9    2.64    0.22
   6   7   9    2.16    0.18
   6   7   9    2.04    0.21
  -7  -7  -9   14.93    0.87
   7   7   9   14.68    0.94
   7   7   9   14.27    0.57
   7   7   9   14.48    0.59
   7   7   9   14.82    0.57
  -8  -7  -9   11.94    0.68
   8   7   9   12.87    0.51
   8   7   9   12.84    0.50
   8   7   9   11.87    0.68
  -2   8   9    5.94    0.28
  -2   8   9    5.22    0.59
  -1   8   9   24.96    1.15
  -1   8   9   25.66    0.91
  -1   8   9   24.48    1.46
   0   8   9   33.55    1.47
   0   8   9   32.15    1.75
   0   8   9   32.36    1.16
   1   8   9   39.47    1.74
   1   8   9   39.15    1.38
   1   8   9   38.80    1.95
   2   8   9   21.56    1.15
   2   8   9   21.13    1.26
   2   8   9   22.86    0.83
  -3  -8  -9   11.44    0.50
  -3  -8  -9   11.26    0.62
   3   8   9    8.21    0.65
   3   8   9    7.96    0.71
   3   8   9    8.59    0.38
   3   8   9    8.99    0.40
  -4  -8  -9   10.61    0.45
  -4  -8  -9   10.18    0.49
   4   8   9    8.61    0.41
   4   8   9    7.93    0.67
   4   8   9    9.22    0.38
   4   8   9    8.86    0.40
   4   8   9    7.28    0.62
  -5  -8  -9    1.45    0.15
  -5  -8  -9    1.45    0.18
  -5  -8  -9    1.13    0.14
   5   8   9    0.78    0.11
   5   8   9    1.12    0.16
   5   8   9    0.85    0.13
   5   8   9    0.84    0.24
  -6  -8  -9    1.56    0.16
  -6  -8  -9    1.39    0.14
  -6  -8  -9    1.26    0.14
   6   8   9    0.93    0.13
   6   8   9    1.10    0.16
   6   8   9    0.93    0.13
  -7  -8  -9    8.21    0.57
  -7  -8  -9    8.71    0.36
   7   8   9    7.62    0.36
   7   8   9    7.51    0.35
   7   8   9    7.99    0.37
   8   8   9   10.90    0.42
   0   9   9    0.23    0.09
   0   9   9    0.22    0.16
   0   9   9    0.37    0.24
   1   9   9    0.64    0.11
   1   9   9    0.92    0.31
   1   9   9    0.66    0.22
   2   9   9    1.46    0.35
   2   9   9    1.19    0.28
   2   9   9    1.49    0.15
  -3  -9  -9    9.72    0.43
   3   9   9    6.22    0.53
   3   9   9    5.99    0.53
   3   9   9    6.83    0.31
  -4  -9  -9   13.02    0.54
  -4  -9  -9   12.12    0.51
   4   9   9    8.32    0.60
  -5  -9  -9   33.80    1.16
  -5  -9  -9   33.09    1.19
  -5  -9  -9   33.12    1.18
   5   9   9   25.53    0.83
   5   9   9   20.95    1.06
  -6  -9  -9   18.19    0.67
  -6  -9  -9   18.30    0.65
  -6  -9  -9   17.48    0.68
   6   9   9   14.34    0.57
   6   9   9   15.69    0.59
   6   9   9   15.49    0.56
  -7  -9  -9    1.16    0.11
   7   9   9    0.89    0.11
   7   9   9    0.79    0.09
   7   9   9    1.16    0.11
   7   9   9    1.22    0.14
   2  10   9    9.79    0.55
   2  10   9   11.10    0.40
   3  10   9    7.46    0.30
   3  10   9    6.45    0.45
  -4 -10  -9    0.21    0.17
  -4 -10  -9    0.22    0.11
   4  10   9    0.08    0.12
  -5 -10  -9    1.43    0.15
  -5 -10  -9    1.61    0.14
   4   7 -10   18.28    0.93
  -4  -7  10   25.82    0.94
   3   7 -10   18.26    0.94
   2   7 -10    3.79    0.23
   2   7 -10    3.56    0.42
  -6  -6  10    9.71    0.42
  -6  -6  10   10.10    0.39
   5   6 -10    1.59    0.14
  -5  -6  10    1.93    0.17
  -5  -6  10    1.95    0.18
  -5  -6  10    1.88    0.18
   4   6 -10    0.15    0.26
  -4  -6  10    0.03    0.12
  -4  -6  10    0.03    0.11
   3   6 -10    1.46    0.17
   3   6 -10    1.00    0.36
  -3  -6  10    1.79    0.32
  -3  -6  10    1.66    0.17
   2   6 -10   22.69    0.84
   2   6 -10   21.45    1.22
  -2  -6  10   25.28    1.26
   1   6 -10   25.05    1.64
   1   6 -10   22.27    1.23
   1   6 -10   24.08    0.89
   1   6 -10   23.85    0.97
   0   6 -10   38.49    2.08
   0   6 -10   35.64    1.33
   0   6 -10   35.84    1.24
   0   6 -10   31.99    1.53
  -1   6 -10   19.61    1.43
  -1   6 -10   16.72    0.89
   7   5 -10    8.91    0.36
   7   5 -10    8.88    0.39
   7   5 -10    8.78    0.38
   6   5 -10   21.57    0.74
   6   5 -10   19.26    0.74
   6   5 -10   19.79    0.77
  -6  -5  10   20.67    0.75
  -6  -5  10   17.71    0.97
  -6  -5  10   20.86    0.72
   5   5 -10   26.54    0.95
   5   5 -10   26.80    0.96
   5   5 -10   27.24    0.98
  -5  -5  10   26.84    1.36
  -5  -5  10   28.50    1.02
  -5  -5  10   29.22    1.06
  -5  -5  10   28.37    1.04
   4   5 -10   15.63    1.10
   4   5 -10   19.91    0.71
   4   5 -10   19.55    0.68
  -4  -5  10   19.02    1.10
  -4  -5  10   20.16    0.77
  -4  -5  10   20.03    0.81
   3   5 -10   23.00    0.89
   3   5 -10   22.56    1.35
   3   5 -10   24.55    0.85
   3   5 -10   23.07    1.34
  -3  -5  10   25.84    1.00
  -3  -5  10   25.78    0.96
  -3  -5  10   24.84    1.34
   2   5 -10   25.79    1.83
   2   5 -10   26.79    0.99
   2   5 -10   25.84    1.41
   1   5 -10    1.20    0.34
   1   5 -10    0.97    0.54
   1   5 -10    1.36    0.17
   1   5 -10    1.28    0.17
   1   5 -10    0.98    0.22
   0   5 -10    1.85    0.25
   0   5 -10    1.84    0.40
   0   5 -10    1.94    0.68
   0   5 -10    1.59    0.18
  -1   5 -10    0.08    0.60
  -1   5 -10    0.07    0.15
  -1   5 -10    0.12    0.12
  -1   5 -10    0.28    0.25
  -1   5 -10    0.13    0.22
  -2   5 -10    2.29    0.78
  -2   5 -10    1.63    0.17
  -2   5 -10    1.76    0.22
  -2   5 -10    1.43    0.16
   7   4 -10   16.09    0.60
   7   4 -10   14.80    0.63
  -7  -4  10   13.31    0.74
  -7  -4  10   13.52    0.76
   6   4 -10    4.70    0.31
   6   4 -10    4.91    0.30
   6   4 -10    4.96    0.34
  -6  -4  10    5.03    0.31
  -6  -4  10    5.17    0.49
  -6  -4  10    5.29    0.26
  -6  -4  10    5.11    0.51
   5   4 -10    7.97    0.40
   5   4 -10    7.87    0.42
   5   4 -10    8.29    0.39
  -5  -4  10    8.24    0.42
  -5  -4  10    8.41    0.71
  -5  -4  10    8.38    0.39
  -5  -4  10    8.36    0.41
   4   4 -10    4.45    0.29
   4   4 -10    4.30    0.31
   4   4 -10    4.47    0.28
   4   4 -10    3.96    0.58
  -4  -4  10    4.27    0.28
  -4  -4  10    4.10    0.30
  -4  -4  10    3.94    0.31
  -4  -4  10    3.72    0.50
   3   4 -10   21.10    0.78
   3   4 -10   21.42    0.82
   3   4 -10   19.85    0.83
   3   4 -10   22.05    1.29
   3   4 -10   21.61    0.79
  -3  -4  10   21.39    1.27
  -3  -4  10   22.27    0.85
  -3  -4  10   22.05    0.89
   2   4 -10   42.72    1.53
   2   4 -10   45.31    1.46
   2   4 -10   42.68    2.01
   2   4 -10   41.31    2.57
   2   4 -10   42.68    1.49
  -2  -4  10   44.35    1.58
   1   4 -10   30.46    2.21
   1   4 -10   29.33    1.53
   1   4 -10   29.28    1.08
   1   4 -10   27.02    1.34
   0   4 -10   57.79    3.31
   0   4 -10   51.94    2.31
   0   4 -10   54.33    1.87
   0   4 -10   51.84    1.98
  -1   4 -10   46.81    1.79
  -1   4 -10   48.54    1.68
  -1   4 -10   54.27    3.31
  -1   4 -10   45.22    2.07
  -2   4 -10   26.87    2.41
  -2   4 -10   23.56    0.89
  -2   4 -10   23.39    0.98
  -3   4 -10    9.26    0.49
  -3   4 -10    9.21    1.44
   7   3 -10    0.21    0.14
  -7  -3  10    0.07    0.18
  -7  -3  10    0.13    0.19
  -7  -3  10    0.12    0.10
   6   3 -10   14.95    0.60
   6   3 -10   14.71    0.63
  -6  -3  10   14.95    0.58
  -6  -3  10   14.54    0.92
  -6  -3  10   15.10    0.96
   5   3 -10   41.15    1.47
   5   3 -10   40.19    1.43
  -5  -3  10   39.99    1.90
  -5  -3  10   41.82    1.97
  -5  -3  10   40.50    1.42
  -5  -3  10   40.79    1.46
  -5  -3  10   40.50    1.43
   4   3 -10   36.24    1.31
   4   3 -10   34.56    1.30
   4   3 -10   36.50    1.28
  -4  -3  10   34.41    1.31
  -4  -3  10   36.45    1.77
  -4  -3  10   36.29    1.29
  -4  -3  10   35.88    1.80
  -4  -3  10   36.83    1.33
   3   3 -10   45.04    2.07
   3   3 -10   42.11    1.54
   3   3 -10   43.84    1.56
   3   3 -10   43.52    1.52
  -3  -3  10   43.38    2.07
  -3  -3  10   43.90    1.58
  -3  -3  10   43.96    1.54
   2   3 -10   32.65    1.18
   2   3 -10   34.46    1.22
   2   3 -10   31.94    1.22
   2   3 -10   35.22    1.71
   2   3 -10   33.23    1.20
  -2  -3  10   33.45    1.19
  -2  -3  10   31.98    1.22
   1   3 -10   13.80    1.51
   1   3 -10   13.56    0.93
   1   3 -10   14.23    0.54
   1   3 -10   13.15    0.56
   1   3 -10   13.80    0.59
   0   3 -10    3.82    0.26
   0   3 -10    3.18    0.46
   0   3 -10    3.39    0.99
   0   3 -10    3.46    0.45
  -1   3 -10    8.51    0.67
  -1   3 -10    8.78    0.49
  -1   3 -10    9.61    1.67
  -1   3 -10    8.93    0.42
  -2   3 -10   26.81    1.11
  -2   3 -10   26.83    1.33
  -2   3 -10   28.67    1.02
  -2   3 -10   30.07    2.69
  -3   3 -10   20.06    0.83
  -3   3 -10   16.68    1.32
  -3   3 -10   19.83    0.73
  -3   3 -10   21.65    2.00
  -4   3 -10   12.83    0.59
  -4   3 -10   12.73    0.77
  -4   3 -10   11.88    1.26
  -7  -2  10   20.63    1.06
  -7  -2  10   20.91    0.79
  -7  -2  10   19.88    1.07
   6   2 -10    1.24    0.17
  -6  -2  10    1.20    0.17
  -6  -2  10    1.05    0.30
  -6  -2  10    0.94    0.31
   5   2 -10    0.74    0.17
   5   2 -10    1.28    0.18
  -5  -2  10    1.14    0.13
  -5  -2  10    1.14    0.15
  -5  -2  10    1.00    0.31
  -5  -2  10    1.06    0.17
  -5  -2  10    0.95    0.32
   4   2 -10    2.96    0.26
   4   2 -10    3.14    0.28
  -4  -2  10    2.76    0.46
  -4  -2  10    3.08    0.47
  -4  -2  10    2.69    0.24
  -4  -2  10    2.87    0.24
  -4  -2  10    3.26    0.33
  -4  -2  10    2.73    0.25
   3   2 -10    5.20    0.47
   3   2 -10    5.71    0.62
   3   2 -10    5.31    0.31
   3   2 -10    4.94    0.32
  -3  -2  10    5.27    0.32
  -3  -2  10    5.07    0.31
  -3  -2  10    5.24    0.57
  -3  -2  10    5.19    0.59
  -3  -2  10    5.10    0.29
   2   2 -10   46.46    1.68
   2   2 -10   47.74    1.67
   2   2 -10   46.85    1.67
   2   2 -10   51.52    2.18
   2   2 -10   47.62    1.65
  -2  -2  10   48.16    1.68
  -2  -2  10   46.58    1.65
   1   2 -10   31.95    1.13
   1   2 -10   31.16    1.15
   1   2 -10   33.46    1.57
   1   2 -10   32.04    1.17
   1   2 -10   32.60    1.15
  -1  -2  10   34.29    1.22
   0   2 -10   59.07    2.38
   0   2 -10   58.47    1.92
   0   2 -10   54.93    1.95
   0   2 -10   54.43    1.93
  -1   2 -10   61.19    3.85
  -1   2 -10   55.82    2.35
  -1   2 -10   56.04    1.98
  -2   2 -10   22.84    1.18
  -2   2 -10   22.59    0.95
  -2   2 -10   22.72    2.32
  -2   2 -10   23.37    0.86
  -3   2 -10   16.85    1.33
  -3   2 -10   18.81    0.69
  -3   2 -10   17.52    0.78
  -3   2 -10   17.58    1.81
  -3   2 -10   17.90    1.04
  -4   2 -10   10.84    1.21
  -4   2 -10   12.56    0.88
  -4   2 -10   11.52    0.48
  -4   2 -10   11.62    0.58
  -5   2 -10    0.11    0.31
  -5   2 -10    0.16    0.15
  -7  -1  10   14.51    0.60
  -7  -1  10   13.93    0.83
  -7  -1  10   13.79    0.86
  -6  -1  10   20.30    1.16
  -6  -1  10   21.48    0.85
  -6  -1  10   21.45    1.24
  -5  -1  10   32.90    1.70
  -5  -1  10   30.34    1.18
  -5  -1  10   32.32    1.60
  -5  -1  10   29.94    1.11
   4   1 -10   43.47    1.54
   4   1 -10   42.65    1.51
  -4  -1  10   43.18    1.50
  -4  -1  10   42.95    1.52
  -4  -1  10   42.60    1.98
  -4  -1  10   41.76    1.55
  -4  -1  10   44.57    2.12
  -4  -1  10   41.81    1.48
   3   1 -10   29.43    1.09
   3   1 -10   29.85    1.07
  -3  -1  10   27.58    1.04
  -3  -1  10   28.45    1.08
  -3  -1  10   28.60    1.56
  -3  -1  10   28.41    1.02
  -3  -1  10   28.76    1.46
  -3  -1  10   27.87    1.04
   2   1 -10   18.29    1.02
   2   1 -10   15.32    0.62
   2   1 -10   15.31    0.64
  -2  -1  10   15.25    0.61
  -2  -1  10   15.81    0.59
  -2  -1  10   14.97    1.02
  -2  -1  10   15.16    0.94
  -2  -1  10   13.58    0.72
   1   1 -10    1.24    0.13
   1   1 -10    1.29    0.30
   1   1 -10    1.09    0.14
   1   1 -10    1.07    0.12
   1   1 -10    1.04    0.13
  -1  -1  10    0.97    0.12
  -1  -1  10    1.03    0.13
   0   1 -10    6.47    0.55
   0   1 -10    5.45    0.29
   0   1 -10    5.41    0.28
   0   1 -10    5.65    0.29
   0   1 -10    5.62    0.30
  -1   1 -10   26.81    0.98
  -1   1 -10   25.12    0.94
  -1   1 -10   27.63    1.31
  -2   1 -10   24.51    0.89
  -2   1 -10   24.69    1.21
  -2   1 -10   22.74    1.23
  -2   1 -10   23.20    2.18
  -3   1 -10   65.89    3.69
  -3   1 -10   71.15    2.87
  -3   1 -10   70.39    2.37
  -3   1 -10   67.59    2.45
  -3   1 -10   72.70    2.74
  -4   1 -10   37.71    2.45
  -4   1 -10   42.22    1.45
  -4   1 -10   42.18    1.56
  -4   1 -10   44.53    2.03
  -5   1 -10   19.49    0.74
  -5   1 -10   18.89    0.83
  -5   1 -10   21.23    1.26
  -6   1 -10    7.88    0.68
  -6   1 -10    7.30    0.43
  -7   0  10   13.23    0.55
  -7   0  10   13.17    0.82
  -7   0  10   12.56    0.75
  -6   0  10   13.77    0.58
  -6   0  10   12.32    0.83
  -6   0  10   13.50    0.98
  -5   0  10    4.38    0.31
  -5   0  10    5.46    0.70
  -5   0  10    4.78    0.53
  -5   0  10    4.50    0.40
  -4   0  10    0.51    0.19
  -4   0  10    0.36    0.28
  -4   0  10    0.58    0.12
  -4   0  10    0.40    0.25
  -4   0  10    0.38    0.09
  -4   0  10    0.30    0.10
  -4   0  10    0.33    0.21
   3   0 -10   11.57    0.49
   3   0 -10   11.78    0.58
  -3   0  10   10.49    0.46
  -3   0  10   10.75    0.47
  -3   0  10   10.27    0.43
  -3   0  10   10.58    0.49
  -3   0  10    9.71    0.60
  -3   0  10   11.62    0.97
  -3   0  10   10.97    0.76
   2   0 -10   61.46    2.10
   2   0 -10   61.18    2.08
  -2   0  10   53.06    2.15
  -2   0  10   59.37    2.38
  -2   0  10   57.40    1.99
  -2   0  10   55.70    1.96
  -2   0  10   57.28    1.94
  -2   0  10   56.46    1.96
  -2   0  10   57.86    2.22
  -2   0  10   60.56    2.63
   1   0 -10   70.51    2.68
   1   0 -10   64.55    2.23
   1   0 -10   64.48    2.25
  -1   0  10   59.47    2.01
  -1   0  10   59.35    2.03
   0   0 -10   61.34    2.40
   0   0 -10   69.15    2.62
   0   0 -10   64.67    2.19
   0   0 -10   64.17    2.21
   0   0 -10   68.09    2.28
  -1   0 -10   71.64    2.47
  -1   0 -10   70.76    2.45
  -1   0 -10   77.71    2.88
  -1   0 -10   76.57    2.90
  -1   0 -10   73.42    2.47
  -1   0 -10   71.94    2.49
  -2   0 -10   52.87    1.79
  -2   0 -10   48.67    1.75
  -2   0 -10   52.06    2.24
  -2   0 -10   53.14    2.14
  -3   0 -10    0.05    0.27
  -3   0 -10    0.13    0.37
  -3   0 -10    0.29    0.10
  -3   0 -10    0.40    0.14
  -3   0 -10    0.29    0.18
  -4   0 -10    0.26    0.14
  -4   0 -10    0.11    0.17
  -4   0 -10    0.13    0.33
  -4   0 -10    0.17    0.10
  -5   0 -10    2.81    0.23
  -5   0 -10    3.16    0.32
  -5   0 -10    2.75    0.53
  -6   0 -10    3.24    0.51
  -6   0 -10    3.03    0.24
  -6   0 -10    2.97    0.33
  -7   0 -10   11.55    0.65
  -7   0 -10   10.52    0.51
  -7   1  10   12.71    0.51
  -7   1  10   12.01    0.66
  -6   1  10   34.32    1.25
  -6   1  10   32.91    1.37
  -6   1  10   33.90    1.55
  -6   1  10   38.15    1.88
  -5   1  10   53.02    2.11
  -5   1  10   54.99    2.16
  -5   1  10   57.11    2.34
  -5   1  10   57.28    2.77
  -5   1  10   56.47    1.95
  -4   1  10   33.95    1.48
  -4   1  10   34.06    1.58
  -4   1  10   34.16    2.04
  -4   1  10   32.10    1.42
  -4   1  10   32.99    1.22
  -3   1  10   22.76    0.87
  -3   1  10   23.02    1.19
  -3   1  10   22.00    0.84
  -3   1  10   23.14    1.08
  -3   1  10   22.26    1.58
  -3   1  10   22.62    0.82
   2  -1 -10    4.96    0.26
  -2   1  10    5.51    0.49
  -2   1  10    5.25    0.27
  -2   1  10    5.06    0.42
  -2   1  10    5.38    0.71
  -2   1  10    5.38    0.26
  -2   1  10    5.24    0.27
  -2   1  10    5.24    0.29
  -1   1  10    8.52    0.37
  -1   1  10    9.06    0.66
  -1   1  10    8.67    0.57
  -1   1  10    9.18    0.39
  -1   1  10    9.36    0.56
   0  -1 -10    1.20    0.21
  -1  -1 -10   40.85    1.42
  -1  -1 -10   38.41    1.39
  -1  -1 -10   39.43    1.59
  -1  -1 -10   43.40    1.79
  -2  -1 -10   21.20    1.10
  -2  -1 -10   20.77    0.79
  -2  -1 -10   19.79    0.73
  -2  -1 -10   20.88    1.19
  -2  -1 -10   19.60    0.75
  -2  -1 -10   20.82    0.75
  -3  -1 -10   28.06    1.05
  -3  -1 -10   27.57    1.36
  -3  -1 -10   30.01    1.54
  -4  -1 -10   56.85    2.44
  -4  -1 -10   51.59    1.98
  -4  -1 -10   54.84    2.26
  -4  -1 -10   55.29    1.90
  -5  -1 -10   61.17    2.51
  -5  -1 -10   66.41    2.67
  -5  -1 -10   60.61    2.26
  -5  -1 -10   62.46    2.16
  -6  -1 -10   29.78    1.20
  -6  -1 -10   29.82    1.44
  -6  -1 -10   29.40    1.08
  -7  -1 -10    9.26    0.42
  -7  -1 -10   10.36    0.66
  -7  -1 -10    9.79    0.51
  -6   2  10    1.99    0.24
  -6   2  10    2.70    0.23
  -6   2  10    2.58    0.35
  -6   2  10    2.18    0.51
  -6   2  10    2.41    0.27
  -5   2  10    1.25    0.45
  -5   2  10    2.23    0.21
  -5   2  10    2.07    0.34
  -5   2  10    2.03    0.31
  -5   2  10    1.85    0.28
  -4   2  10    4.82    0.29
  -4   2  10    4.91    0.48
  -4   2  10    5.27    0.50
  -4   2  10    4.70    0.44
  -4   2  10    3.80    0.76
  -3   2  10    4.96    0.48
  -3   2  10    4.18    0.69
  -3   2  10    5.61    0.55
  -3   2  10    5.02    0.28
  -3   2  10    5.06    0.47
  -2   2  10   51.55    1.74
  -2   2  10   51.75    2.09
  -2   2  10   51.43    1.76
  -2   2  10   43.53    2.63
  -2   2  10   52.79    1.73
  -2   2  10   51.41    2.11
  -1   2  10   83.81    2.74
  -1   2  10   81.76    2.72
  -1   2  10   80.32    2.76
  -1   2  10   81.87    3.09
  -1   2  10   80.20    3.12
  -1   2  10   82.37    2.96
  -1   2  10   82.68    2.74
   0   2  10   47.81    1.96
   0   2  10   46.55    1.81
  -1  -2 -10   24.71    1.08
  -2  -2 -10   35.17    1.25
  -2  -2 -10   33.79    1.44
  -2  -2 -10   36.40    1.31
  -2  -2 -10   35.95    1.27
  -2  -2 -10   35.48    1.27
  -2  -2 -10   40.28    1.69
  -2  -2 -10   37.76    1.68
  -3  -2 -10    1.38    0.13
  -3  -2 -10    1.70    0.18
  -3  -2 -10    1.83    0.38
  -3  -2 -10    1.55    0.15
  -3  -2 -10    1.59    0.33
  -4  -2 -10    2.86    0.42
  -4  -2 -10    2.98    0.48
  -4  -2 -10    3.34    0.27
  -5  -2 -10   14.36    0.93
  -5  -2 -10   15.23    0.63
  -5  -2 -10   15.04    0.97
  -5  -2 -10   13.84    0.70
  -6  -2 -10   16.27    0.78
  -6  -2 -10   17.58    0.69
  -6  -2 -10   16.56    0.97
  -6  -2 -10   17.03    0.98
  -7  -2 -10   15.30    0.62
  -7  -2 -10   16.03    1.17
  -7  -2 -10   15.88    0.72
  -7  -2 -10   15.68    0.87
  -6   3  10   12.22    0.60
  -6   3  10   10.22    0.75
  -6   3  10   11.91    0.58
  -6   3  10   12.81    0.49
  -5   3  10   41.58    1.70
  -5   3  10   34.51    1.87
  -5   3  10   41.15    1.41
  -5   3  10   41.74    1.67
  -5   3  10   39.65    1.61
  -4   3  10   56.00    2.31
  -4   3  10   57.34    2.00
  -4   3  10   58.46    2.40
  -4   3  10   60.24    2.34
  -3   3  10   52.88    1.86
  -3   3  10   53.50    2.26
  -3   3  10   54.24    2.19
  -3   3  10   54.78    2.38
  -2   3  10   31.08    1.11
  -2   3  10   32.45    1.15
  -2   3  10   31.09    1.57
  -2   3  10   34.33    1.47
  -2   3  10   29.72    1.62
  -1   3  10    1.36    0.37
  -1   3  10    1.30    0.12
  -1   3  10    1.28    0.14
  -1   3  10    1.00    0.31
  -1   3  10    1.48    0.29
  -1   3  10    0.97    0.11
  -1   3  10    1.37    0.11
   0   3  10    3.77    0.21
   0   3  10    3.36    0.51
   0   3  10    3.63    0.20
   0   3  10    3.49    0.20
   0   3  10    3.28    0.19
   0   3  10    3.62    0.46
   0   3  10    3.48    0.22
   0   3  10    3.61    0.33
   0   3  10    3.73    0.40
  -1  -3 -10   15.97    0.61
  -1  -3 -10   16.58    0.68
   1   3  10   12.96    0.53
   1   3  10   13.06    0.51
   1   3  10   14.67    0.80
   1   3  10   13.65    0.81
  -2  -3 -10   52.17    2.14
  -2  -3 -10   50.36    1.72
  -2  -3 -10   47.81    1.76
  -2  -3 -10   50.12    1.74
  -2  -3 -10   54.92    2.18
  -2  -3 -10   48.14    1.74
  -2  -3 -10   50.11    1.96
   2   3  10   41.19    1.46
   2   3  10   42.79    1.44
  -3  -3 -10   50.10    1.72
  -3  -3 -10   53.35    2.20
  -3  -3 -10   48.53    2.09
  -3  -3 -10   49.02    1.70
  -3  -3 -10   49.37    1.76
  -3  -3 -10   49.09    1.72
   3   3  10   41.15    1.42
  -4  -3 -10   60.44    2.52
  -4  -3 -10   59.08    2.02
  -4  -3 -10   59.52    2.00
  -4  -3 -10   59.43    2.08
  -4  -3 -10   58.52    2.43
  -5  -3 -10   31.06    1.15
  -5  -3 -10   31.24    1.55
  -5  -3 -10   29.78    1.45
  -6  -3 -10    6.67    0.45
  -6  -3 -10    6.84    0.38
  -6  -3 -10    6.95    0.62
  -6  -3 -10    6.88    0.61
  -7  -3 -10    9.20    0.51
  -7  -3 -10    9.24    0.67
  -7  -3 -10    9.66    0.45
  -7  -3 -10    9.31    0.65
  -8  -3 -10    1.49    0.19
  -8  -3 -10    1.98    0.18
  -5   4  10    0.96    0.24
  -5   4  10    0.68    0.27
  -5   4  10    0.62    0.11
  -4   4  10   19.69    1.06
  -4   4  10   20.32    1.13
  -4   4  10   19.44    0.98
  -4   4  10   19.12    0.74
  -3   4  10   30.22    1.54
  -3   4  10   31.04    1.39
  -3   4  10   26.70    1.55
  -3   4  10   31.04    1.09
  -2   4  10   26.78    1.59
  -2   4  10   28.66    1.61
  -2   4  10   35.17    1.47
  -2   4  10   31.65    1.13
  -2   4  10   31.13    1.55
  -1   4  10   28.83    1.04
  -1   4  10   30.07    1.53
  -1   4  10   31.12    1.41
  -1   4  10   29.16    1.08
  -1   4  10   30.68    1.65
   0   4  10   48.25    1.67
   0   4  10   51.09    2.03
   0   4  10   48.24    1.65
   0   4  10   49.21    1.64
   0   4  10   47.81    2.44
   0   4  10   45.59    2.06
   0   4  10   45.98    1.62
  -1  -4 -10   19.17    0.74
  -1  -4 -10   20.30    0.77
   1   4  10   16.85    1.23
   1   4  10   15.64    0.64
   1   4  10   16.57    0.89
   1   4  10   16.86    0.63
   1   4  10   17.49    0.95
   1   4  10   15.98    0.60
   1   4  10   15.28    0.61
  -2  -4 -10   26.95    1.65
  -2  -4 -10   32.29    1.13
  -2  -4 -10   31.40    1.10
  -2  -4 -10   32.42    1.51
   2   4  10   26.58    0.95
   2   4  10   26.13    0.92
   2   4  10   26.08    1.27
   2   4  10   24.69    1.13
  -3  -4 -10    4.53    0.51
  -3  -4 -10    4.83    0.28
  -3  -4 -10    5.81    0.58
  -3  -4 -10    4.74    0.29
  -3  -4 -10    4.89    0.27
  -3  -4 -10    4.47    0.30
   3   4  10    3.69    0.25
   3   4  10    3.58    0.24
   3   4  10    3.78    0.22
  -4  -4 -10    7.88    0.71
  -4  -4 -10    8.07    0.37
  -4  -4 -10    7.24    0.38
  -4  -4 -10    7.34    0.42
  -4  -4 -10    7.36    0.63
  -4  -4 -10    6.91    0.35
   4   4  10    6.25    0.31
   4   4  10    6.23    0.32
  -5  -4 -10    5.85    0.37
  -5  -4 -10    5.82    0.61
  -5  -4 -10    5.77    0.31
  -5  -4 -10    5.65    0.57
  -6  -4 -10   11.37    0.82
  -6  -4 -10   11.06    0.74
  -6  -4 -10   11.07    0.51
  -7  -4 -10   19.76    1.06
  -7  -4 -10   20.05    0.76
  -7  -4 -10   19.43    0.96
  -7  -4 -10   18.70    0.83
  -8  -4 -10   26.01    0.89
  -8  -4 -10   24.69    1.09
  -8  -4 -10   23.97    0.94
  -5   5  10   23.67    1.03
  -4   5  10   23.65    0.82
  -4   5  10   23.83    1.18
  -4   5  10   18.87    1.14
  -3   5  10   14.77    0.57
  -3   5  10   11.80    0.91
  -3   5  10   14.93    0.80
  -3   5  10   14.03    0.86
  -3   5  10   12.52    0.91
  -2   5  10   14.49    0.97
  -2   5  10   13.38    0.99
  -2   5  10   14.30    1.01
  -2   5  10   15.99    0.88
  -2   5  10   15.00    0.60
  -1   5  10    0.51    0.34
  -1   5  10    0.35    0.10
  -1   5  10    0.28    0.22
  -1   5  10    0.16    0.23
  -1   5  10    0.33    0.17
   0   5  10    1.81    0.38
   0   5  10    2.16    0.17
   0   5  10    2.07    0.34
   0   5  10    2.62    0.73
   0   5  10    2.15    0.17
   0   5  10    1.87    0.18
   0   5  10    2.24    0.38
  -1  -5 -10    7.46    0.37
   1   5  10    5.84    0.29
   1   5  10    6.20    0.89
   1   5  10    5.55    0.30
   1   5  10    6.32    0.54
   1   5  10    5.61    0.28
   1   5  10    5.48    0.47
   1   5  10    5.37    0.27
  -2  -5 -10   57.96    2.01
  -2  -5 -10   57.67    1.98
   2   5  10   43.47    1.53
   2   5  10   47.64    2.25
   2   5  10   44.98    1.56
   2   5  10   46.64    1.96
   2   5  10   43.14    1.55
   2   5  10   43.26    1.56
  -3  -5 -10   36.03    1.73
  -3  -5 -10   34.88    1.25
  -3  -5 -10   33.66    1.28
  -3  -5 -10   35.59    1.28
  -3  -5 -10   35.95    1.64
   3   5  10   28.61    1.04
   3   5  10   29.03    1.02
   3   5  10   28.61    1.05
   3   5  10   27.75    1.37
  -4  -5 -10    3.31    0.24
  -4  -5 -10    3.40    0.26
  -4  -5 -10    3.85    0.49
  -4  -5 -10    4.12    0.55
  -4  -5 -10    3.20    0.28
  -4  -5 -10    3.66    0.27
   4   5  10    2.49    0.21
   4   5  10    2.49    0.21
   4   5  10    2.74    0.23
  -5  -5 -10   50.15    2.25
  -5  -5 -10   49.77    1.78
  -5  -5 -10   51.32    1.71
  -5  -5 -10   49.30    1.74
  -5  -5 -10   49.88    2.08
   5   5  10   40.12    1.40
   5   5  10   40.20    1.40
   5   5  10   39.52    1.43
  -6  -5 -10    6.55    0.62
  -6  -5 -10    6.33    0.55
  -6  -5 -10    6.61    0.37
   6   5  10    5.47    0.30
   6   5  10    5.80    0.32
  -7  -5 -10    0.10    0.20
  -7  -5 -10    0.01    0.10
  -8  -5 -10    1.06    0.41
  -8  -5 -10    0.69    0.13
  -8  -5 -10    0.68    0.21
  -4   6  10    3.71    0.42
  -3   6  10   14.11    0.85
  -3   6  10   14.83    0.91
  -3   6  10   16.52    0.60
  -3   6  10   15.32    0.89
  -2   6  10   36.05    1.62
  -2   6  10   34.39    1.54
  -2   6  10   36.13    1.53
  -2   6  10   35.92    1.26
  -2   6  10   34.98    1.79
  -1   6  10   60.86    2.41
  -1   6  10   67.58    2.53
  -1   6  10   62.08    2.49
  -1   6  10   59.56    2.95
  -1   6  10   63.32    2.15
   0   6  10   57.24    2.29
   0   6  10   55.43    2.19
   0   6  10   53.07    1.90
   1   6  10   26.52    0.90
   1   6  10   25.71    1.30
   1   6  10   25.01    0.94
   1   6  10   23.80    1.72
   1   6  10   24.06    0.91
  -2  -6 -10   17.65    0.70
  -2  -6 -10   17.43    0.74
   2   6  10   14.66    1.16
   2   6  10   13.72    0.89
   2   6  10   13.18    0.53
   2   6  10   13.35    0.57
   2   6  10   13.73    0.55
   2   6  10   14.16    0.57
  -3  -6 -10   12.46    0.91
  -3  -6 -10   11.74    0.55
  -3  -6 -10   11.69    0.51
   3   6  10    9.92    0.45
   3   6  10    9.22    0.45
   3   6  10   10.00    0.43
   3   6  10   10.05    0.85
   3   6  10    9.31    0.72
   3   6  10    9.45    0.43
  -4  -6 -10    6.26    0.59
  -4  -6 -10    5.59    0.61
  -4  -6 -10    5.71    0.35
  -4  -6 -10    5.99    0.32
  -4  -6 -10    5.89    0.34
   4   6  10    5.09    0.59
   4   6  10    5.10    0.30
   4   6  10    4.61    0.28
   4   6  10    4.17    0.28
  -5  -6 -10    2.98    0.26
  -5  -6 -10    3.40    0.50
  -5  -6 -10    2.66    0.22
  -5  -6 -10    2.95    0.48
  -5  -6 -10    2.72    0.23
   5   6  10    2.14    0.19
   5   6  10    2.61    0.22
   5   6  10    2.87    0.45
   5   6  10    2.56    0.24
  -6  -6 -10   10.51    0.50
  -6  -6 -10   11.57    0.81
  -6  -6 -10   11.42    0.46
   6   6  10   10.57    0.43
   6   6  10   10.45    0.43
   6   6  10    8.69    0.67
   6   6  10    9.45    0.45
  -7  -6 -10    7.02    0.35
  -7  -6 -10    6.88    0.59
   7   6  10    7.10    0.34
  -8  -6 -10   10.14    0.61
  -8  -6 -10    9.97    0.42
  -3   7  10    6.01    0.44
  -3   7  10    6.70    0.31
  -3   7  10    6.75    0.53
  -2   7  10    0.06    0.08
  -2   7  10    0.14    0.28
  -2   7  10   -0.03    0.15
  -2   7  10    0.15    0.14
  -1   7  10    0.93    0.46
  -1   7  10    1.37    0.15
  -1   7  10    1.32    0.26
  -1   7  10    1.67    0.30
   0   7  10    4.24    0.85
   0   7  10    5.21    0.29
   0   7  10    5.60    0.52
   1   7  10    6.65    0.85
   1   7  10    6.32    0.57
   1   7  10    6.31    0.33
  -2  -7 -10   12.49    0.55
   2   7  10    9.81    0.72
   2   7  10    9.39    0.43
   2   7  10    9.37    0.89
   2   7  10    8.99    0.42
  -3  -7 -10   43.53    1.58
  -3  -7 -10   42.68    1.54
  -3  -7 -10   45.56    1.98
   3   7  10   33.47    1.76
   3   7  10   33.72    1.19
   3   7  10   34.36    1.22
   3   7  10   34.90    1.22
   3   7  10   32.85    1.59
   3   7  10   35.49    1.21
  -4  -7 -10   22.36    0.85
  -4  -7 -10   21.66    0.81
  -4  -7 -10   20.84    0.84
   4   7  10   16.85    1.09
   4   7  10   15.88    0.97
   4   7  10   17.44    0.68
   4   7  10   18.53    0.67
   4   7  10   17.74    0.70
   4   7  10   18.75    0.70
  -5  -7 -10    9.62    0.45
  -5  -7 -10    9.87    0.43
  -5  -7 -10    9.10    0.73
  -5  -7 -10    9.72    0.42
   5   7  10    8.30    0.40
   5   7  10    7.77    0.68
   5   7  10    8.68    0.38
   5   7  10    7.59    0.38
  -6  -7 -10    7.60    0.63
  -6  -7 -10    7.85    0.33
  -6  -7 -10    7.61    0.36
   6   7  10    6.42    0.34
   6   7  10    6.72    0.33
  -7  -7 -10    4.96    0.49
   7   7  10    5.09    0.31
   7   7  10    4.77    0.27
   7   7  10    4.58    0.28
  -8  -7 -10   -0.01    0.15
   8   7  10    0.11    0.09
  -1   8  10   24.20    0.86
  -1   8  10   22.47    1.35
  -1   8  10   23.93    1.07
   0   8  10   25.46    1.20
   0   8  10   24.94    1.48
   0   8  10   25.37    0.92
   1   8  10   23.55    1.17
   1   8  10   24.48    1.43
   1   8  10   24.36    0.89
   2   8  10    1.11    0.14
   2   8  10    1.05    0.28
   2   8  10    1.31    0.40
  -3  -8 -10    0.11    0.13
  -3  -8 -10   -0.02    0.11
   3   8  10    0.01    0.14
   3   8  10   -0.07    0.07
   3   8  10    0.02    0.08
   3   8  10    0.24    0.23
  -4  -8 -10    0.40    0.14
  -4  -8 -10    0.37    0.12
   4   8  10    0.24    0.17
   4   8  10    0.30    0.23
   4   8  10    0.13    0.09
   4   8  10    0.18    0.09
  -5  -8 -10    7.66    0.36
  -5  -8 -10    7.04    0.37
  -5  -8 -10    7.62    0.35
   5   8  10    6.39    0.32
   5   8  10    6.05    0.30
   5   8  10    5.79    0.29
   5   8  10    6.26    0.34
  -6  -8 -10   19.06    0.68
  -6  -8 -10   19.07    0.71
  -6  -8 -10   18.84    0.69
   6   8  10   15.37    0.58
   6   8  10   15.16    0.60
   6   8  10   15.47    0.59
   6   8  10   15.91    0.61
   7   8  10    6.30    0.32
   7   8  10    6.21    0.31
   7   8  10    6.13    0.31
   7   8  10    6.25    0.29
   0   9  10    8.67    0.62
   0   9  10    8.82    0.67
   0   9  10    9.48    0.38
   1   9  10   12.86    0.72
   1   9  10   14.48    0.53
   1   9  10   12.94    0.80
   2   9  10   21.56    0.76
   2   9  10   20.51    1.00
   2   9  10   20.54    1.07
  -3  -9 -10   31.65    1.13
   3   9  10   18.64    0.96
   3   9  10   18.92    1.01
   3   9  10   20.10    0.71
  -4  -9 -10   24.89    0.92
  -4  -9 -10   24.85    0.90
   4   9  10   14.59    0.79
  -5  -9 -10    9.79    0.44
  -5  -9 -10    9.94    0.41
  -5  -9 -10    9.59    0.43
   5   9  10    7.43    0.32
  -6  -9 -10    6.40    0.29
  -6  -9 -10    6.56    0.30
  -6  -9 -10    6.23    0.31
   6   9  10    5.45    0.25
   6   9  10    5.29    0.26
   3  10  10    0.01    0.11
  -4 -10 -10    1.38    0.22
   4  10  10    0.92    0.25
  -5  -6  11    9.34    0.40
  -5  -6  11    9.29    0.39
  -5  -6  11    9.84    0.42
   4   6 -11   10.08    0.71
  -4  -6  11   14.31    0.59
  -4  -6  11   13.91    0.56
   3   6 -11   14.12    0.91
   3   6 -11   16.12    0.63
  -3  -6  11   19.33    0.73
  -3  -6  11   18.46    0.96
   2   6 -11   19.44    1.09
   2   6 -11   21.30    0.77
  -2  -6  11   24.30    1.16
   1   6 -11   17.65    1.36
   1   6 -11   17.42    0.64
   1   6 -11   15.26    0.91
  -1  -6  11   20.91    1.04
   6   5 -11    8.89    0.36
   6   5 -11    8.53    0.38
   6   5 -11    9.34    0.37
  -6  -5  11   10.47    0.43
   5   5 -11   17.58    0.62
   5   5 -11   16.16    0.65
  -5  -5  11   18.15    0.67
  -5  -5  11   15.99    0.91
  -5  -5  11   17.63    0.70
  -5  -5  11   17.81    0.66
   4   5 -11   13.28    0.94
   4   5 -11   16.02    0.58
  -4  -5  11   16.15    0.67
  -4  -5  11   14.68    0.91
  -4  -5  11   16.50    0.64
  -4  -5  11   15.46    0.65
   3   5 -11    8.53    0.40
   3   5 -11    7.38    0.73
  -3  -5  11   10.07    0.74
  -3  -5  11   10.87    0.47
  -3  -5  11   10.16    0.50
   2   5 -11    5.17    0.63
   2   5 -11    6.33    0.35
   2   5 -11    5.66    0.67
   2   5 -11    6.28    0.92
  -2  -5  11    6.63    0.63
  -2  -5  11    7.18    0.42
   1   5 -11    2.75    0.27
   1   5 -11    2.89    0.82
   1   5 -11    2.61    0.48
   1   5 -11    2.37    0.48
   0   5 -11   11.37    0.57
   0   5 -11   10.10    0.77
   0   5 -11   12.27    0.50
   0   5 -11   11.12    0.84
   0   5 -11   12.87    1.38
   0   5 -11   11.72    0.51
  -1   5 -11   19.01    0.69
  -1   5 -11   18.70    0.77
  -1   5 -11   15.84    0.95
  -1   5 -11   18.83    0.69
   7   4 -11    0.80    0.12
   6   4 -11    0.76    0.17
   6   4 -11    0.49    0.14
   6   4 -11    0.88    0.15
  -6  -4  11    0.56    0.11
  -6  -4  11    0.37    0.32
   5   4 -11    0.86    0.17
   5   4 -11    0.76    0.14
   5   4 -11    0.81    0.14
  -5  -4  11    0.82    0.15
  -5  -4  11    1.02    0.14
  -5  -4  11    0.77    0.13
  -5  -4  11    0.79    0.28
   4   4 -11   12.72    0.52
   4   4 -11   11.42    0.90
   4   4 -11   12.51    0.54
   4   4 -11   12.40    0.50
  -4  -4  11   12.73    0.54
  -4  -4  11   13.05    0.58
  -4  -4  11   12.58    0.89
  -4  -4  11   12.81    0.57
   3   4 -11   26.03    0.89
   3   4 -11   25.12    0.92
   3   4 -11   23.02    1.42
   3   4 -11   23.89    1.38
  -3  -4  11   25.73    1.00
  -3  -4  11   24.95    1.39
  -3  -4  11   25.66    0.96
   2   4 -11   47.86    2.20
   2   4 -11   49.52    1.72
   2   4 -11   49.20    1.66
   2   4 -11   47.99    2.76
   2   4 -11   49.63    1.72
  -2  -4  11   50.59    1.77
  -2  -4  11   50.21    2.29
   1   4 -11   32.60    2.23
   1   4 -11   29.40    1.55
   1   4 -11   31.17    1.14
   0   4 -11    9.21    1.32
   0   4 -11    8.83    0.41
   0   4 -11    7.75    0.50
   0   4 -11    8.08    0.70
  -1   4 -11   10.60    1.52
  -1   4 -11    8.64    0.49
  -1   4 -11    8.13    0.69
  -1   4 -11    9.77    0.43
  -2   4 -11   10.11    1.57
  -2   4 -11    8.01    0.39
  -2   4 -11    7.73    0.46
  -3   4 -11    0.07    0.47
  -3   4 -11   -0.05    0.12
   7   3 -11   19.19    0.74
   7   3 -11   19.41    0.72
  -7  -3  11   16.80    0.84
  -7  -3  11   16.18    0.84
   6   3 -11   41.72    1.44
   6   3 -11   40.98    1.47
  -6  -3  11   38.53    1.33
  -6  -3  11   39.10    1.76
  -6  -3  11   38.91    1.70
   5   3 -11   29.64    1.13
   5   3 -11   30.94    1.10
   5   3 -11   30.40    1.13
  -5  -3  11   29.53    1.53
  -5  -3  11   29.63    1.05
  -5  -3  11   30.11    1.06
  -5  -3  11   28.47    1.45
  -5  -3  11   30.12    1.09
   4   3 -11   37.55    1.31
   4   3 -11   37.74    1.35
   4   3 -11   35.76    1.33
  -4  -3  11   35.06    1.28
  -4  -3  11   35.55    1.31
  -4  -3  11   36.91    1.80
  -4  -3  11   36.27    1.32
   3   3 -11    0.24    0.13
   3   3 -11    0.49    0.30
   3   3 -11    0.29    0.13
   3   3 -11    0.58    0.16
  -3  -3  11    0.25    0.11
  -3  -3  11    0.22    0.11
  -3  -3  11    0.19    0.21
   2   3 -11    0.83    0.16
   2   3 -11    0.93    0.16
   2   3 -11    0.53    0.52
   2   3 -11    0.96    0.15
   2   3 -11    0.70    0.13
   2   3 -11    0.77    0.32
  -2  -3  11    0.84    0.14
  -2  -3  11    0.86    0.15
   1   3 -11    4.14    0.56
   1   3 -11    4.20    0.29
   1   3 -11    3.89    0.30
   1   3 -11    4.61    1.07
   0   3 -11   13.71    0.58
   0   3 -11   14.60    1.70
   0   3 -11   12.60    0.88
  -1   3 -11   31.20    1.28
  -1   3 -11   34.03    1.19
  -1   3 -11   36.58    2.73
  -1   3 -11   31.16    1.54
  -2   3 -11   43.74    2.96
  -2   3 -11   41.93    1.45
  -2   3 -11   39.01    1.77
  -2   3 -11   40.97    1.54
  -3   3 -11   21.73    0.91
  -3   3 -11   23.58    1.96
  -3   3 -11   22.19    0.82
  -4   3 -11   16.27    0.65
  -4   3 -11   13.50    1.17
   7   2 -11    1.95    0.21
  -7  -2  11    1.74    0.30
  -7  -2  11    2.59    0.21
  -7  -2  11    1.80    0.32
   6   2 -11   -0.10    0.15
   6   2 -11    0.32    0.13
  -6  -2  11    0.20    0.20
  -6  -2  11    0.29    0.23
  -6  -2  11    0.16    0.11
   5   2 -11    4.19    0.34
   5   2 -11    4.68    0.32
  -5  -2  11    3.80    0.50
  -5  -2  11    4.38    0.55
  -5  -2  11    3.89    0.31
  -5  -2  11    3.96    0.28
  -5  -2  11    4.14    0.23
   4   2 -11   18.73    0.79
   4   2 -11   19.69    0.76
  -4  -2  11   18.01    0.74
  -4  -2  11   18.15    0.70
  -4  -2  11   18.09    1.16
  -4  -2  11   18.41    0.73
  -4  -2  11   17.32    1.11
   3   2 -11    9.11    0.45
   3   2 -11    9.84    0.82
   3   2 -11    9.59    0.47
   3   2 -11    9.37    0.44
  -3  -2  11    8.95    0.46
  -3  -2  11    9.35    0.77
  -3  -2  11    9.08    0.45
  -3  -2  11   10.00    0.84
  -3  -2  11    9.02    0.43
   2   2 -11   33.24    1.21
   2   2 -11   32.96    1.18
   2   2 -11   35.55    1.71
   2   2 -11   32.75    1.20
   2   2 -11   31.74    1.21
  -2  -2  11   32.13    1.70
  -2  -2  11   30.87    1.18
  -2  -2  11   31.75    1.14
   1   2 -11   74.10    2.57
   1   2 -11   78.87    3.08
   1   2 -11   78.08    2.56
   1   2 -11   73.43    2.54
   1   2 -11   74.41    2.59
  -1  -2  11   75.58    2.57
   0   2 -11   57.09    1.97
   0   2 -11   57.17    2.00
   0   2 -11   61.64    3.61
   0   2 -11   55.32    2.40
  -1   2 -11   10.91    1.70
  -1   2 -11    9.33    0.72
  -1   2 -11    9.65    0.45
  -2   2 -11    0.24    0.58
  -2   2 -11    0.27    0.20
  -2   2 -11    0.25    0.11
  -2   2 -11    0.04    0.13
  -3   2 -11    2.49    0.37
  -3   2 -11    2.64    0.77
  -3   2 -11    2.50    0.41
  -3   2 -11    2.51    0.28
  -3   2 -11    2.79    0.22
  -4   2 -11   10.65    0.44
  -4   2 -11   10.77    0.75
  -4   2 -11    8.99    1.06
  -4   2 -11    9.74    0.51
  -5   2 -11    9.77    0.48
  -5   2 -11    9.76    0.67
  -7  -1  11   26.22    0.95
  -7  -1  11   25.92    1.18
  -7  -1  11   26.08    1.22
  -6  -1  11   25.27    1.34
  -6  -1  11   24.94    1.29
  -6  -1  11   25.16    0.96
   5   1 -11   18.26    0.73
  -5  -1  11   15.68    1.01
  -5  -1  11   16.11    0.69
  -5  -1  11   16.49    1.10
  -5  -1  11   15.70    0.61
   4   1 -11   26.95    1.02
   4   1 -11   26.49    0.99
  -4  -1  11   24.17    0.97
  -4  -1  11   25.99    1.49
  -4  -1  11   23.72    0.89
  -4  -1  11   25.54    0.92
  -4  -1  11   24.93    0.94
  -4  -1  11   23.58    1.34
   3   1 -11   29.31    1.08
   3   1 -11   30.19    1.11
  -3  -1  11   29.99    1.63
  -3  -1  11   27.85    1.06
  -3  -1  11   28.66    1.04
  -3  -1  11   28.75    1.07
  -3  -1  11   28.60    1.50
   2   1 -11    0.13    0.20
   2   1 -11    0.35    0.11
   2   1 -11    0.21    0.11
   2   1 -11    0.21    0.11
  -2  -1  11    0.07    0.13
  -2  -1  11    0.24    0.09
  -2  -1  11    0.18    0.21
  -2  -1  11    0.18    0.09
  -2  -1  11    0.23    0.18
   1   1 -11   13.92    0.90
   1   1 -11   12.21    0.53
   1   1 -11   12.58    0.52
   1   1 -11   13.44    0.55
   1   1 -11   12.29    0.55
  -1  -1  11   13.48    0.54
  -1  -1  11   12.51    0.55
   0   1 -11   24.57    0.89
   0   1 -11   23.90    0.91
   0   1 -11   23.21    0.89
   0   1 -11   22.91    0.86
   0   1 -11   25.79    1.31
  -1   1 -11   20.67    0.77
  -1   1 -11   20.18    1.12
  -1   1 -11   20.65    0.80
  -2   1 -11   30.88    2.49
  -2   1 -11   31.85    1.14
  -2   1 -11   31.82    1.49
  -2   1 -11   29.90    1.48
  -3   1 -11   28.66    1.39
  -3   1 -11   27.60    2.11
  -3   1 -11   30.53    1.07
  -3   1 -11   30.77    1.50
  -3   1 -11   28.25    1.15
  -4   1 -11   25.94    0.93
  -4   1 -11   26.95    1.39
  -4   1 -11   25.96    1.03
  -4   1 -11   24.43    1.33
  -4   1 -11   23.13    2.00
  -5   1 -11   18.95    0.80
  -5   1 -11   18.11    0.71
  -5   1 -11   20.28    1.14
  -7   0  11    0.40    0.11
  -7   0  11    0.28    0.18
  -7   0  11    0.33    0.17
  -6   0  11    0.84    0.32
  -6   0  11    0.95    0.28
  -6   0  11    1.16    0.17
  -5   0  11    2.87    0.43
  -5   0  11    2.54    0.31
  -5   0  11    2.74    0.26
  -5   0  11    3.13    0.55
   4   0 -11   69.49    2.37
  -4   0  11   60.15    2.38
  -4   0  11   60.53    2.12
  -4   0  11   62.10    2.09
  -4   0  11   60.74    2.60
  -4   0  11   62.57    2.18
  -4   0  11   66.86    2.93
   3   0 -11   77.81    2.64
   3   0 -11   78.45    2.67
  -3   0  11   70.42    2.45
  -3   0  11   70.70    2.89
  -3   0  11   72.60    2.41
  -3   0  11   74.61    3.19
  -3   0  11   68.87    2.38
  -3   0  11   66.43    2.62
  -3   0  11   72.20    2.42
   2   0 -11   53.86    1.87
   2   0 -11   53.67    1.84
  -2   0  11   46.40    1.70
  -2   0  11   53.62    2.41
  -2   0  11   51.63    2.17
  -2   0  11   46.17    1.91
  -2   0  11   48.09    1.71
  -2   0  11   48.75    1.68
   1   0 -11   32.26    1.52
   1   0 -11   29.22    1.06
   1   0 -11   29.31    1.08
   1   0 -11   28.60    1.08
  -1   0  11   26.66    1.21
  -1   0  11   28.36    1.39
  -1   0  11   26.58    1.01
  -1   0  11   27.30    0.99
  -1   0  11   28.60    1.57
   0   0 -11   26.28    1.00
   0   0 -11   30.40    1.42
   0   0 -11   26.94    1.02
   0   0 -11   26.50    1.00
   0   0 -11   27.69    0.98
   0   0  11   23.83    0.92
   0   0  11   25.35    0.90
  -1   0 -11    3.67    0.25
  -1   0 -11    3.94    0.24
  -1   0 -11    4.26    0.27
  -1   0 -11    4.22    0.48
  -1   0 -11    4.39    0.53
  -2   0 -11    1.09    0.15
  -2   0 -11    1.48    0.33
  -2   0 -11    0.92    0.33
  -3   0 -11    1.73    0.65
  -3   0 -11    1.85    0.34
  -3   0 -11    2.12    0.21
  -3   0 -11    2.28    0.46
  -4   0 -11   15.77    0.74
  -4   0 -11   17.88    1.14
  -4   0 -11   17.69    0.68
  -4   0 -11   16.00    0.95
  -5   0 -11   24.79    1.04
  -5   0 -11   26.38    0.96
  -5   0 -11   27.42    1.41
  -6   0 -11   13.28    0.62
  -6   0 -11   12.07    0.52
  -6   0 -11   14.67    0.86
  -6   1  11   43.26    1.84
  -6   1  11   48.85    2.09
  -6   1  11   44.70    1.55
  -6   1  11   39.73    1.66
  -5   1  11   28.24    1.06
  -5   1  11   27.23    1.19
  -5   1  11   28.22    1.40
  -5   1  11   30.51    1.73
  -5   1  11   27.15    1.23
  -4   1  11   17.94    0.92
  -4   1  11   18.64    1.08
  -4   1  11   18.08    1.41
  -4   1  11   18.48    0.75
  -4   1  11   18.14    0.96
   3  -1 -11    9.13    0.47
  -3   1  11    7.32    0.90
  -3   1  11    7.28    0.39
  -3   1  11    7.68    0.65
  -3   1  11    7.78    0.37
  -3   1  11    7.06    0.53
  -3   1  11    7.47    0.34
   2  -1 -11   14.10    0.58
   2  -1 -11   13.15    0.55
  -2   1  11   12.15    1.06
  -2   1  11   11.93    0.53
  -2   1  11   12.03    0.72
  -2   1  11   11.49    0.48
  -2   1  11   12.09    0.51
  -2   1  11   12.44    0.51
  -2   1  11   12.48    0.82
   1  -1 -11    0.72    0.12
   1  -1 -11    0.25    0.19
   1  -1 -11    0.07    0.08
  -1   1  11    0.22    0.08
  -1   1  11    0.10    0.07
  -1   1  11    0.15    0.15
  -1   1  11    0.10    0.14
  -1   1  11    0.22    0.08
   0  -1 -11    4.09    0.26
   0  -1 -11    5.02    0.50
   0  -1 -11    3.73    0.22
   0  -1 -11    4.45    0.25
   0  -1 -11    3.57    0.24
   0   1  11    3.36    0.40
   0   1  11    3.83    0.21
   0   1  11    3.51    0.22
  -1  -1 -11   52.91    1.82
  -1  -1 -11   51.85    1.84
  -1  -1 -11   52.76    1.84
  -1  -1 -11   57.23    2.30
  -1  -1 -11   54.20    2.28
  -1  -1 -11   53.12    1.87
   1   1  11   45.72    1.62
   1   1  11   46.91    1.59
  -2  -1 -11   89.22    3.02
  -2  -1 -11   86.24    2.98
  -2  -1 -11   91.23    2.97
  -2  -1 -11   89.21    3.51
  -2  -1 -11   88.77    3.43
  -3  -1 -11   62.78    2.55
  -3  -1 -11   60.69    2.63
  -3  -1 -11   62.08    2.14
  -4  -1 -11    5.08    0.67
  -4  -1 -11    5.13    0.32
  -4  -1 -11    5.19    0.53
  -5  -1 -11   14.54    0.97
  -5  -1 -11   14.28    0.59
  -5  -1 -11   13.08    0.85
  -5  -1 -11   13.91    0.67
  -6  -1 -11    1.02    0.15
  -6  -1 -11    0.54    0.18
  -6  -1 -11    1.20    0.34
  -7  -1 -11    0.44    0.21
  -6   2  11    9.88    0.63
  -6   2  11    9.28    0.74
  -6   2  11   10.12    0.52
  -6   2  11   10.46    0.45
  -5   2  11   17.00    0.83
  -5   2  11   15.04    1.18
  -5   2  11   18.06    0.69
  -5   2  11   17.41    0.96
  -5   2  11   16.81    0.86
  -4   2  11   28.20    1.01
  -4   2  11   27.11    1.33
  -4   2  11   26.38    1.23
  -4   2  11   22.52    1.60
  -4   2  11   27.77    1.29
  -3   2  11   41.83    1.82
  -3   2  11   34.37    2.07
  -3   2  11   39.84    1.39
  -3   2  11   40.34    1.78
  -3   2  11   40.45    1.42
  -3   2  11   39.98    1.71
  -2   2  11   55.67    1.87
  -2   2  11   55.17    1.91
  -2   2  11   56.14    2.30
  -2   2  11   55.97    2.27
  -2   2  11   51.40    1.84
  -2   2  11   54.58    1.88
   1  -2 -11   74.11    2.48
   1  -2 -11   71.18    2.45
  -1   2  11   63.47    2.14
  -1   2  11   63.59    2.52
  -1   2  11   60.40    2.15
  -1   2  11   61.58    2.11
  -1   2  11   63.49    2.13
  -1   2  11   63.36    2.52
   0  -2 -11   40.97    1.42
   0  -2 -11   42.13    1.44
   0  -2 -11   35.52    2.08
   0  -2 -11   43.81    1.86
   0   2  11   33.28    1.27
   0   2  11   36.82    1.27
   0   2  11   35.41    1.25
   0   2  11   39.54    1.64
   0   2  11   36.05    1.62
  -1  -2 -11    5.60    0.30
  -1  -2 -11    5.86    0.31
  -1  -2 -11    6.92    0.59
  -1  -2 -11    7.21    0.61
  -1  -2 -11    5.82    0.29
  -1  -2 -11    5.56    0.32
   1   2  11    5.34    0.28
   1   2  11    5.40    0.26
  -2  -2 -11    0.50    0.11
  -2  -2 -11    0.83    0.30
  -2  -2 -11    0.59    0.12
  -2  -2 -11    0.47    0.10
  -2  -2 -11    0.48    0.24
  -2  -2 -11    0.89    0.15
   2   2  11    0.26    0.08
  -3  -2 -11    0.23    0.21
  -3  -2 -11    0.24    0.28
  -3  -2 -11    0.47    0.13
  -3  -2 -11    0.32    0.10
  -3  -2 -11    0.46    0.12
  -4  -2 -11    3.35    0.55
  -4  -2 -11    3.48    0.28
  -4  -2 -11    2.97    0.44
  -5  -2 -11   10.65    0.78
  -5  -2 -11   11.38    0.52
  -5  -2 -11   11.33    0.83
  -6  -2 -11   26.56    0.95
  -6  -2 -11   24.85    1.23
  -6  -2 -11   24.24    1.24
  -6  -2 -11   24.05    1.01
  -7  -2 -11   15.36    0.79
  -7  -2 -11   13.97    0.64
  -7  -2 -11   15.32    0.58
  -6   3  11   12.88    0.51
  -5   3  11   26.78    1.19
  -5   3  11   25.64    1.22
  -5   3  11   26.38    0.97
  -5   3  11   26.30    1.14
  -4   3  11   16.10    0.91
  -4   3  11   17.03    0.95
  -4   3  11   16.35    0.97
  -4   3  11   17.11    0.68
  -3   3  11    2.13    0.42
  -3   3  11    2.01    0.21
  -3   3  11    2.46    0.48
  -3   3  11    2.39    0.37
  -2   3  11    1.40    0.38
  -2   3  11    0.95    0.14
  -2   3  11    0.86    0.12
  -2   3  11    1.37    0.42
  -2   3  11    0.98    0.26
   1  -3 -11   28.91    1.05
  -1   3  11   24.97    0.95
  -1   3  11   25.97    1.40
  -1   3  11   24.23    0.89
  -1   3  11   26.02    0.92
  -1   3  11   25.12    1.25
  -1   3  11   25.13    1.42
  -1   3  11   26.14    0.92
   0  -3 -11   40.66    1.44
   0  -3 -11   40.55    1.42
   0   3  11   34.63    1.23
   0   3  11   34.67    1.21
   0   3  11   35.06    1.81
   0   3  11   37.88    1.68
   0   3  11   34.36    1.23
   0   3  11   35.10    1.59
   0   3  11   33.87    1.25
  -1  -3 -11   29.62    1.43
  -1  -3 -11   28.08    1.05
  -1  -3 -11   28.23    1.65
  -1  -3 -11   28.41    1.02
   1   3  11   26.06    1.20
   1   3  11   23.71    0.86
   1   3  11   23.83    0.89
   1   3  11   23.21    1.19
  -2  -3 -11    0.92    0.14
  -2  -3 -11    1.00    0.13
  -2  -3 -11    0.77    0.28
  -2  -3 -11    1.16    0.15
  -2  -3 -11    0.93    0.29
  -2  -3 -11    0.93    0.13
   2   3  11    0.83    0.11
   2   3  11    0.83    0.12
  -3  -3 -11   87.33    2.96
  -3  -3 -11   88.54    3.47
  -3  -3 -11   84.84    3.37
  -3  -3 -11   88.07    3.00
  -3  -3 -11   89.93    2.95
  -3  -3 -11   87.50    2.93
   3   3  11   71.38    2.41
  -4  -3 -11   18.29    0.71
  -4  -3 -11   18.52    0.77
  -4  -3 -11   19.40    1.16
  -4  -3 -11   18.51    1.09
  -5  -3 -11    2.81    0.45
  -5  -3 -11    3.09    0.46
  -5  -3 -11    2.62    0.26
  -6  -3 -11   -0.08    0.19
  -6  -3 -11    0.06    0.18
  -6  -3 -11    0.29    0.12
  -7  -3 -11    1.00    0.27
  -7  -3 -11    1.37    0.30
  -7  -3 -11    1.26    0.19
  -7  -3 -11    1.33    0.16
  -5   4  11   10.20    0.58
  -5   4  11   10.14    0.44
  -5   4  11   10.69    0.63
  -4   4  11   27.33    1.29
  -4   4  11   29.72    1.44
  -4   4  11   29.45    1.36
  -4   4  11   28.64    1.04
  -3   4  11   58.66    2.50
  -3   4  11   59.69    2.01
  -3   4  11   62.78    2.39
  -3   4  11   50.39    2.50
  -2   4  11   36.16    1.78
  -2   4  11   38.26    1.66
  -2   4  11   34.57    1.85
  -2   4  11   37.92    1.33
  -1   4  11   27.59    1.02
  -1   4  11   28.37    1.36
  -1   4  11   27.19    1.48
  -1   4  11   24.93    1.48
  -1   4  11   28.38    1.57
  -1   4  11   28.18    0.99
   0  -4 -11   54.35    1.88
   0   4  11   45.23    1.94
   0   4  11   45.68    2.33
   0   4  11   44.88    1.54
   0   4  11   44.72    1.55
   0   4  11   44.31    1.58
   0   4  11   42.80    1.52
   0   4  11   46.75    2.04
  -1  -4 -11   57.20    1.99
  -1  -4 -11   57.10    1.96
   1   4  11   46.32    1.61
   1   4  11   45.43    1.58
   1   4  11   50.39    2.41
   1   4  11   47.41    2.01
   1   4  11   46.42    1.93
   1   4  11   44.65    1.60
   1   4  11   45.51    1.62
  -2  -4 -11    0.18    0.20
  -2  -4 -11   -0.08    0.28
  -2  -4 -11    0.04    0.10
  -2  -4 -11   -0.05    0.09
   2   4  11    0.01    0.07
   2   4  11    0.22    0.15
   2   4  11    0.08    0.14
   2   4  11    0.01    0.07
  -3  -4 -11    2.34    0.41
  -3  -4 -11    2.53    0.22
  -3  -4 -11    3.19    0.48
  -3  -4 -11    3.15    0.27
  -3  -4 -11    2.52    0.23
  -3  -4 -11    3.00    0.25
   3   4  11    2.32    0.20
   3   4  11    2.33    0.32
   3   4  11    2.22    0.19
  -4  -4 -11   14.77    0.66
  -4  -4 -11   15.34    0.60
  -4  -4 -11   15.28    1.03
  -4  -4 -11   15.05    0.62
  -4  -4 -11   14.53    0.58
  -4  -4 -11   14.44    0.93
   4   4  11   12.60    0.54
   4   4  11   12.06    0.51
  -5  -4 -11   19.85    0.74
  -5  -4 -11   19.93    0.81
  -5  -4 -11   20.27    1.08
  -5  -4 -11   20.36    1.19
  -6  -4 -11   19.51    1.02
  -6  -4 -11   19.23    1.10
  -6  -4 -11   19.20    0.77
  -7  -4 -11    8.08    0.40
  -7  -4 -11    8.11    0.58
  -7  -4 -11    7.62    0.61
  -4   5  11    0.57    0.28
  -4   5  11    0.81    0.12
  -4   5  11    1.04    0.31
  -3   5  11    2.32    0.32
  -3   5  11    1.93    0.44
  -3   5  11    1.49    0.39
  -3   5  11    2.24    0.20
  -2   5  11    0.93    0.26
  -2   5  11    0.95    0.32
  -2   5  11    0.96    0.33
  -2   5  11    0.67    0.33
  -2   5  11    0.74    0.12
  -1   5  11   12.70    0.80
  -1   5  11   12.30    0.92
  -1   5  11   11.86    1.03
  -1   5  11   11.85    0.83
  -1   5  11   12.15    0.52
   0   5  11   26.75    1.32
   0   5  11   26.57    1.77
   0   5  11   25.30    0.96
   0   5  11   24.39    1.23
   0   5  11   27.00    0.92
   0   5  11   24.86    1.29
   0   5  11   25.27    0.93
  -1  -5 -11   79.15    2.73
  -1  -5 -11   80.12    2.70
   1   5  11   60.02    2.05
   1   5  11   61.01    2.06
   1   5  11   65.40    3.08
   1   5  11   61.83    2.49
   1   5  11   58.47    2.03
   1   5  11   59.90    2.08
   1   5  11   61.60    2.06
   1   5  11   56.57    2.35
  -2  -5 -11   42.33    2.15
  -2  -5 -11   42.61    1.54
  -2  -5 -11   43.76    1.51
   2   5  11   33.63    1.18
   2   5  11   35.91    1.89
   2   5  11   30.33    1.41
   2   5  11   33.65    1.58
   2   5  11   33.89    1.20
   2   5  11   33.69    1.20
  -3  -5 -11    9.59    0.43
  -3  -5 -11   10.28    0.47
  -3  -5 -11    8.71    0.44
  -3  -5 -11    8.93    0.75
  -3  -5 -11    9.30    0.78
   3   5  11    7.79    0.35
   3   5  11    6.93    0.37
   3   5  11    7.36    0.36
   3   5  11    6.73    0.59
  -4  -5 -11    8.77    0.51
  -4  -5 -11   10.03    0.84
  -4  -5 -11    9.83    0.47
  -4  -5 -11    9.72    0.43
  -4  -5 -11   10.03    0.74
  -4  -5 -11    9.68    0.45
   4   5  11    7.61    0.39
   4   5  11    7.99    0.37
   4   5  11    7.27    0.39
  -5  -5 -11    2.87    0.21
  -5  -5 -11    2.65    0.46
  -5  -5 -11    2.58    0.24
  -5  -5 -11    3.10    0.28
  -5  -5 -11    2.74    0.46
   5   5  11    2.52    0.22
   5   5  11    2.81    0.26
   5   5  11    2.37    0.23
  -6  -5 -11    4.85    0.53
  -6  -5 -11    4.89    0.48
  -6  -5 -11    4.57    0.30
   6   5  11    4.49    0.27
  -7  -5 -11   -0.08    0.18
  -7  -5 -11   -0.02    0.11
  -8  -5 -11    5.03    0.28
  -8  -5 -11    5.01    0.40
  -3   6  11   25.23    1.20
  -3   6  11   26.58    1.26
  -3   6  11   28.33    0.95
  -3   6  11   26.86    1.27
  -3   6  11   25.37    1.19
  -2   6  11   35.79    1.65
  -2   6  11   41.72    1.69
  -2   6  11   41.13    1.40
  -2   6  11   40.37    1.88
  -2   6  11   40.25    1.76
  -1   6  11   29.98    1.37
  -1   6  11   27.22    1.27
  -1   6  11   27.58    1.34
  -1   6  11   30.41    1.75
  -1   6  11   28.10    1.04
   0   6  11    3.10    0.24
   0   6  11    3.15    0.45
   0   6  11    3.38    0.80
   0   6  11    3.10    0.41
  -1  -6 -11    0.11    0.12
   1   6  11   -0.01    0.30
   1   6  11    0.09    0.17
   1   6  11    0.03    0.19
   1   6  11    0.22    0.10
   1   6  11    0.04    0.09
  -2  -6 -11    0.27    0.14
  -2  -6 -11    0.25    0.14
   2   6  11    0.09    0.09
   2   6  11    0.05    0.09
   2   6  11    0.12    0.10
   2   6  11    0.18    0.18
   2   6  11    0.55    0.38
   2   6  11    0.06    0.10
  -3  -6 -11    5.30    0.35
  -3  -6 -11    5.87    0.64
  -3  -6 -11    5.00    0.32
   3   6  11    4.36    0.49
   3   6  11    4.49    0.61
   3   6  11    4.35    0.27
   3   6  11    4.51    0.29
   3   6  11    4.44    0.28
  -4  -6 -11   16.83    0.68
  -4  -6 -11   15.63    1.04
  -4  -6 -11   16.58    0.98
  -4  -6 -11   16.17    0.67
  -4  -6 -11   16.69    0.65
   4   6  11   12.97    0.57
   4   6  11   12.68    0.55
   4   6  11   13.24    0.94
   4   6  11   13.48    0.57
   4   6  11   13.97    0.54
  -5  -6 -11   10.30    0.72
  -5  -6 -11   10.18    0.46
  -5  -6 -11   10.59    0.43
  -5  -6 -11    9.71    0.43
  -5  -6 -11    9.49    0.77
   5   6  11    7.67    0.40
   5   6  11    8.01    0.68
   5   6  11    8.07    0.40
   5   6  11    8.54    0.38
  -6  -6 -11   20.16    1.11
  -6  -6 -11   19.05    0.77
  -6  -6 -11   20.54    0.72
   6   6  11   16.74    0.67
   6   6  11   16.57    0.67
   6   6  11   18.14    0.65
   6   6  11   16.04    0.95
  -7  -6 -11    8.12    0.62
  -7  -6 -11    8.04    0.37
   7   6  11    8.02    0.36
  -2   7  11    6.66    0.48
  -2   7  11    6.05    0.44
  -2   7  11    7.24    0.34
  -2   7  11    7.28    0.67
  -1   7  11   11.45    0.65
  -1   7  11   12.55    0.52
  -1   7  11   12.05    1.04
  -1   7  11   12.88    0.76
   0   7  11   21.17    1.49
   0   7  11   21.36    1.10
   0   7  11   20.89    0.80
   1   7  11   34.63    1.95
   1   7  11   32.15    1.17
   1   7  11   31.66    1.51
  -2  -7 -11   44.27    1.66
  -2  -7 -11   46.84    1.61
   2   7  11   31.89    1.57
   2   7  11   34.50    1.86
   2   7  11   36.27    1.25
   2   7  11   36.15    1.23
  -3  -7 -11   47.91    2.05
  -3  -7 -11   48.35    1.72
  -3  -7 -11   48.15    1.68
   3   7  11   35.85    1.26
   3   7  11   37.98    1.28
   3   7  11   33.76    1.63
   3   7  11   37.00    1.29
   3   7  11   37.26    1.85
  -4  -7 -11   33.91    1.25
  -4  -7 -11   35.04    1.54
  -4  -7 -11   33.38    1.24
  -4  -7 -11   34.94    1.22
   4   7  11   23.18    1.23
   4   7  11   27.07    0.97
   4   7  11   26.34    1.41
   4   7  11   27.50    0.94
   4   7  11   27.37    0.96
  -5  -7 -11    1.94    0.17
  -5  -7 -11    1.57    0.18
  -5  -7 -11    1.93    0.16
   5   7  11    1.53    0.16
   5   7  11    1.43    0.15
   5   7  11    1.32    0.16
   5   7  11    1.37    0.37
   5   7  11    1.82    0.19
  -6  -7 -11    4.41    0.27
  -6  -7 -11    3.84    0.45
   6   7  11    3.70    0.26
   6   7  11    3.10    0.23
   6   7  11    3.44    0.25
   6   7  11    3.30    0.24
   6   7  11    2.88    0.46
  -7  -7 -11    0.87    0.24
   7   7  11    0.71    0.13
   7   7  11    0.86    0.12
  -1   8  11    7.07    0.50
  -1   8  11    7.31    0.68
  -1   8  11    8.00    0.34
   0   8  11    3.42    0.40
   0   8  11    4.10    0.61
   0   8  11    3.47    0.25
   1   8  11    0.46    0.32
   1   8  11    0.37    0.11
   1   8  11    0.32    0.19
  -2  -8 -11    4.88    0.31
  -2  -8 -11    4.58    0.68
   2   8  11    3.04    0.22
   2   8  11    3.00    0.50
   2   8  11    2.86    0.38
  -3  -8 -11   14.28    0.61
  -3  -8 -11   14.48    0.91
  -3  -8 -11   13.24    0.57
   3   8  11   11.01    0.54
   3   8  11    8.87    0.64
   3   8  11    9.88    0.78
   3   8  11   10.04    0.41
  -4  -8 -11   19.51    0.76
  -4  -8 -11   19.06    0.76
  -4  -8 -11   19.76    0.73
   4   8  11   15.72    0.60
   4   8  11   14.04    0.92
   4   8  11   16.19    0.58
  -5  -8 -11    8.77    0.38
  -5  -8 -11    8.75    0.40
  -5  -8 -11    8.51    0.41
   5   8  11    7.34    0.34
   5   8  11    6.72    0.58
   5   8  11    6.99    0.34
   5   8  11    7.32    0.32
  -6  -8 -11   11.05    0.41
  -6  -8 -11   10.19    0.44
   6   8  11    7.78    0.36
   6   8  11    8.69    0.35
   6   8  11    8.36    0.37
   7   8  11    8.47    0.34
   7   8  11    8.54    0.35
   7   8  11    8.02    0.35
   1   9  11   17.61    0.86
   1   9  11   18.91    0.66
   1   9  11   17.46    0.92
   2   9  11   17.74    0.95
   2   9  11   19.79    0.67
   2   9  11   17.10    0.87
  -3  -9 -11    6.70    0.41
  -3  -9 -11    6.96    0.36
   3   9  11    4.10    0.44
   3   9  11    4.00    0.39
  -4  -9 -11    4.95    0.30
  -4  -9 -11    5.31    0.33
   4   9  11    3.38    0.38
   4   9  11    2.83    0.34
  -5  -9 -11    4.32    0.27
  -5  -9 -11    4.53    0.25
  -5  -9 -11    4.13    0.26
   5   9  11    3.28    0.19
  -6  -9 -11    0.09    0.09
  -6  -9 -11    0.03    0.07
   6   9  11    0.05    0.06
  -5  -5  12    6.09    0.29
  -5  -5  12    6.83    0.30
  -5  -5  12    6.61    0.33
   4   5 -12    0.88    0.30
  -4  -5  12    1.60    0.16
  -4  -5  12    1.68    0.17
  -4  -5  12    1.32    0.30
  -4  -5  12    1.67    0.18
   3   5 -12    0.64    0.30
  -3  -5  12    0.69    0.26
  -3  -5  12    0.60    0.15
  -3  -5  12    0.63    0.14
   2   5 -12   11.72    0.85
   2   5 -12   12.63    0.53
   2   5 -12   11.73    1.36
  -2  -5  12   15.05    0.61
  -2  -5  12   14.91    0.90
   1   5 -12   16.75    1.39
   1   5 -12   14.15    0.92
   1   5 -12   14.96    0.96
   1   5 -12   16.29    0.63
  -1  -5  12   19.84    1.09
   0   5 -12   26.13    0.87
   0   5 -12   22.93    1.17
   0   5 -12   22.05    1.13
   6   4 -12    5.77    0.30
   6   4 -12    5.77    0.28
   6   4 -12    5.85    0.32
  -6  -4  12    5.21    0.43
   5   4 -12   10.92    0.46
   5   4 -12   11.37    0.47
   5   4 -12   11.13    0.50
  -5  -4  12   10.38    0.44
  -5  -4  12   10.60    0.72
  -5  -4  12   11.39    0.46
  -5  -4  12   10.95    0.48
   4   4 -12   18.30    0.68
   4   4 -12   18.22    0.71
  -4  -4  12   17.29    0.69
  -4  -4  12   16.98    1.02
  -4  -4  12   16.73    0.71
  -4  -4  12   17.58    0.68
   3   4 -12   35.33    1.72
   3   4 -12   33.28    1.73
   3   4 -12   37.53    1.24
  -3  -4  12   37.96    1.79
  -3  -4  12   37.84    1.35
  -3  -4  12   37.56    1.38
   2   4 -12   18.28    1.13
   2   4 -12   19.61    0.75
   2   4 -12   19.21    1.56
  -2  -4  12   21.40    0.83
  -2  -4  12   21.55    1.24
   1   4 -12    9.12    0.42
   1   4 -12    8.19    0.73
   1   4 -12    9.29    1.19
   0   4 -12    4.24    1.10
   0   4 -12    2.89    0.48
   0   4 -12    4.12    0.28
  -1   4 -12    0.57    0.63
  -1   4 -12    0.23    0.24
  -1   4 -12    0.54    0.13
  -2   4 -12    0.78    0.13
  -2   4 -12    1.01    0.59
   6   3 -12   15.76    0.59
   6   3 -12   15.63    0.63
   6   3 -12   13.65    0.60
  -6  -3  12   13.35    0.81
  -6  -3  12   14.23    0.78
   5   3 -12   10.40    0.47
   5   3 -12   10.29    0.48
   5   3 -12   10.66    0.51
  -5  -3  12    9.99    0.47
  -5  -3  12   10.99    0.44
  -5  -3  12   10.23    0.77
   4   3 -12    1.33    0.18
   4   3 -12    1.36    0.16
   4   3 -12    1.25    0.17
  -4  -3  12    1.07    0.33
  -4  -3  12    1.12    0.15
  -4  -3  12    1.14    0.17
  -4  -3  12    0.87    0.13
   3   3 -12    1.26    0.17
   3   3 -12    1.33    0.16
   3   3 -12    1.31    0.17
   3   3 -12    1.33    0.39
   3   3 -12    1.14    0.57
  -3  -3  12    1.20    0.15
  -3  -3  12    1.33    0.36
  -3  -3  12    1.27    0.17
  -3  -3  12    1.35    0.27
   2   3 -12    1.83    0.19
   2   3 -12    1.61    0.64
   2   3 -12    1.86    0.21
   2   3 -12    1.77    0.16
   2   3 -12    1.75    0.41
   2   3 -12    1.70    0.20
  -2  -3  12    1.88    0.21
  -2  -3  12    1.47    0.17
  -2  -3  12    2.49    0.50
   1   3 -12   13.84    0.59
   1   3 -12   14.11    1.55
   1   3 -12   13.26    0.96
  -1  -3  12   14.68    0.61
   0   3 -12   11.56    0.86
   0   3 -12   14.43    1.64
   0   3 -12   13.03    0.56
  -1   3 -12   28.80    1.48
  -1   3 -12   32.04    1.15
  -1   3 -12   34.87    2.52
  -2   3 -12   27.77    1.24
  -2   3 -12   27.91    1.39
  -2   3 -12   31.21    1.08
  -2   3 -12   33.35    2.40
  -3   3 -12   11.71    1.26
  -3   3 -12   11.57    0.56
  -3   3 -12   11.75    0.48
   6   2 -12   13.31    0.59
   6   2 -12   14.20    0.60
  -6  -2  12   12.49    0.77
  -6  -2  12   11.81    0.78
   5   2 -12   36.69    1.31
   5   2 -12   37.43    1.35
  -5  -2  12   34.42    1.18
  -5  -2  12   32.35    1.62
  -5  -2  12   32.49    1.58
   4   2 -12   37.69    1.41
   4   2 -12   39.41    1.42
   4   2 -12   40.26    1.39
  -4  -2  12   37.09    1.32
  -4  -2  12   37.23    1.30
  -4  -2  12   36.37    1.76
  -4  -2  12   36.46    1.34
  -4  -2  12   37.91    1.86
   3   2 -12   51.11    1.79
   3   2 -12   51.58    1.76
   3   2 -12   51.50    2.31
   3   2 -12   49.69    1.79
  -3  -2  12   50.59    2.29
  -3  -2  12   45.91    1.71
  -3  -2  12   49.26    1.69
  -3  -2  12   47.96    1.72
   2   2 -12   46.38    1.67
   2   2 -12   47.15    1.68
   2   2 -12   49.99    2.24
   2   2 -12   47.14    1.65
  -2  -2  12   43.47    1.56
  -2  -2  12   43.74    1.60
  -2  -2  12   46.51    2.18
   1   2 -12    9.77    0.48
   1   2 -12   10.46    0.48
   1   2 -12    9.85    0.82
   1   2 -12   10.62    0.46
  -1  -2  12    8.49    0.56
  -1  -2  12    9.80    0.45
  -1  -2  12   10.13    0.49
   0   2 -12    6.70    0.37
   0   2 -12    7.19    1.34
   0   2 -12    6.09    0.62
  -1   2 -12    4.52    1.25
  -1   2 -12    3.73    0.47
  -1   2 -12    3.98    0.27
  -2   2 -12   15.27    0.60
  -2   2 -12   14.12    0.89
  -2   2 -12   15.01    1.72
  -3   2 -12   14.13    0.55
  -3   2 -12   11.62    0.77
  -3   2 -12   13.60    1.45
  -3   2 -12   13.25    0.61
  -4   2 -12    6.96    0.62
  -4   2 -12    7.16    0.34
  -4   2 -12    6.72    1.28
  -4   2 -12    7.12    0.41
   6   1 -12   16.71    0.66
  -6  -1  12   15.07    0.91
  -6  -1  12   14.48    0.88
  -6  -1  12   14.66    0.61
   5   1 -12    8.57    0.46
   5   1 -12    7.93    0.42
  -5  -1  12    7.54    0.70
  -5  -1  12    6.83    0.63
  -5  -1  12    6.71    0.39
   4   1 -12    5.99    0.35
   4   1 -12    6.19    0.39
  -4  -1  12    5.28    0.59
  -4  -1  12    6.01    0.34
  -4  -1  12    5.80    0.67
  -4  -1  12    6.07    0.31
   3   1 -12    0.68    0.16
   3   1 -12    1.05    0.16
  -3  -1  12    0.81    0.14
  -3  -1  12    0.84    0.28
  -3  -1  12    0.76    0.14
  -3  -1  12    1.39    0.39
  -3  -1  12    0.98    0.13
   2   1 -12    0.27    0.13
   2   1 -12    0.41    0.27
   2   1 -12    0.57    0.14
   2   1 -12    0.54    0.13
  -2  -1  12    0.23    0.10
  -2  -1  12    0.19    0.11
  -2  -1  12    1.09    0.37
  -2  -1  12    0.40    0.17
  -2  -1  12    0.25    0.10
   1   1 -12   28.80    1.11
   1   1 -12   29.34    1.09
   1   1 -12   29.40    1.07
   1   1 -12   29.73    1.09
   1   1 -12   32.05    1.59
  -1  -1  12   26.77    1.23
  -1  -1  12   28.32    1.03
  -1  -1  12   28.93    1.06
   0   1 -12   45.15    2.03
   0   1 -12   43.49    1.54
   0   1 -12   45.50    1.53
   0   1 -12   42.13    1.57
   0  -1  12   42.26    1.49
  -1   1 -12   21.09    2.10
  -1   1 -12   21.63    0.83
  -1   1 -12   20.90    1.20
  -2   1 -12   13.36    1.61
  -2   1 -12   11.79    0.85
  -2   1 -12   13.26    0.86
  -2   1 -12   13.10    0.55
  -3   1 -12   23.28    1.87
  -3   1 -12   24.56    1.25
  -3   1 -12   26.33    0.93
  -3   1 -12   25.49    1.29
  -4   1 -12    6.89    0.67
  -4   1 -12    6.29    0.54
  -4   1 -12    7.70    0.41
  -4   1 -12    6.72    0.36
  -5   1 -12    0.01    0.10
  -5   1 -12    0.12    0.13
  -5   1 -12   -0.05    0.26
  -6   0  12   21.08    1.14
  -6   0  12   20.85    0.81
  -6   0  12   20.78    1.08
   5   0 -12   34.25    1.31
  -5   0  12   26.81    1.40
  -5   0  12   27.29    1.05
  -5   0  12   29.53    1.55
   4   0 -12   44.60    1.60
   4   0 -12   41.91    1.52
  -4   0  12   35.64    1.33
  -4   0  12   35.69    1.52
  -4   0  12   38.79    1.95
  -4   0  12   34.93    1.27
  -4   0  12   35.44    1.73
   3   0 -12   48.77    1.70
   3   0 -12   48.59    1.73
  -3   0  12   43.99    2.04
  -3   0  12   44.97    1.58
  -3   0  12   43.78    1.56
  -3   0  12   43.83    1.61
  -3   0  12   43.21    1.78
  -3   0  12   43.98    1.54
  -3   0  12   48.60    2.30
   2   0 -12   32.38    1.19
   2   0 -12   32.28    1.16
  -2   0  12   29.54    1.10
  -2   0  12   28.32    1.09
  -2   0  12   29.98    1.07
  -2   0  12   28.69    1.29
  -2   0  12   30.35    1.53
  -2   0  12   30.41    1.70
   1   0 -12   15.10    0.97
   1   0 -12   14.00    0.57
   1   0 -12   13.58    0.59
   1   0 -12   13.65    0.58
  -1   0  12   13.08    0.75
  -1   0  12   12.83    0.54
  -1   0  12   13.80    0.57
  -1   0  12   13.78    1.04
   0   0 -12    9.01    0.42
   0   0 -12    9.33    0.45
   0   0 -12    8.74    0.42
   0   0 -12    9.21    0.43
   0   0 -12   10.36    0.80
   0   0  12    8.37    0.39
   0   0  12    8.25    0.41
  -1   0 -12    7.31    0.35
  -1   0 -12    7.12    0.37
  -1   0 -12    6.99    0.38
  -1   0 -12    7.27    0.65
  -1   0 -12    6.15    0.65
  -2   0 -12    5.00    0.59
  -2   0 -12    6.10    0.33
  -2   0 -12    4.74    1.07
  -2   0 -12    4.98    0.54
  -3   0 -12   11.95    0.51
  -3   0 -12   11.93    0.81
  -3   0 -12   10.19    1.25
  -3   0 -12   11.92    0.90
  -4   0 -12   26.67    1.39
  -4   0 -12   24.96    1.27
  -4   0 -12   26.19    0.96
  -5   0 -12   14.31    0.56
  -5   0 -12   14.43    0.94
  -5   0 -12   13.29    0.61
  -5   0 -12   12.68    0.78
  -6   0 -12   12.42    0.71
  -6   1  12   12.78    0.76
  -6   1  12   12.99    0.55
  -6   1  12   13.32    0.84
  -5   1  12    3.14    0.59
  -5   1  12    1.96    0.20
  -5   1  12    2.10    0.28
  -5   1  12    2.18    0.40
  -4   1  12    2.48    0.41
  -4   1  12    2.63    0.58
  -4   1  12    2.58    0.25
  -4   1  12    2.64    0.38
  -4   1  12    2.51    0.32
   3  -1 -12   17.45    0.70
  -3   1  12   15.42    0.66
  -3   1  12   14.64    0.61
  -3   1  12   15.53    0.59
  -3   1  12   15.20    0.84
  -3   1  12   15.15    0.98
  -3   1  12   15.65    1.23
   2  -1 -12   33.48    1.23
   2  -1 -12   33.13    1.20
  -2   1  12   28.74    1.10
  -2   1  12   28.75    1.04
  -2   1  12   29.04    1.48
  -2   1  12   29.65    1.34
  -2   1  12   29.51    1.07
  -2   1  12   29.26    1.07
  -2   1  12   28.20    1.70
   1  -1 -12   31.81    1.16
   1  -1 -12   32.38    1.60
   1  -1 -12   31.48    1.14
  -1   1  12   29.35    1.46
  -1   1  12   27.65    1.05
  -1   1  12   29.55    1.04
  -1   1  12   28.26    1.06
  -1   1  12   29.56    1.35
  -1   1  12   28.01    1.62
   0  -1 -12   32.61    1.19
   0  -1 -12   33.75    1.57
   0  -1 -12   30.92    1.18
   0  -1 -12   32.31    1.16
   0  -1 -12   35.22    1.66
   0   1  12   31.24    1.79
   0   1  12   29.53    1.07
   0   1  12   29.17    1.10
   0   1  12   30.47    1.38
  -1  -1 -12   71.31    2.42
  -1  -1 -12   70.63    2.43
  -1  -1 -12   70.78    2.44
  -1  -1 -12   71.49    2.90
  -1  -1 -12   78.66    2.98
  -1  -1 -12   68.48    2.46
   1   1  12   63.36    2.10
   1   1  12   59.85    2.12
  -2  -1 -12   20.70    1.19
  -2  -1 -12   20.43    0.79
  -2  -1 -12   21.85    0.77
  -2  -1 -12   21.26    1.24
  -2  -1 -12   19.93    0.82
  -3  -1 -12    1.96    0.21
  -3  -1 -12    1.46    0.68
  -3  -1 -12    1.91    0.38
  -3  -1 -12    1.80    0.43
  -4  -1 -12    0.41    0.31
  -4  -1 -12    0.26    0.12
  -4  -1 -12    0.16    0.17
  -5  -1 -12    0.57    0.24
  -5  -1 -12    0.72    0.14
  -5  -1 -12    0.35    0.29
  -6  -1 -12    0.64    0.37
  -6  -1 -12    0.71    0.29
  -6  -1 -12    0.56    0.13
  -6  -1 -12    0.55    0.26
  -6   2  12   16.00    0.61
  -6   2  12   14.78    0.80
  -5   2  12   36.91    1.27
  -5   2  12   35.00    1.39
  -5   2  12   35.86    1.57
  -5   2  12   35.95    1.44
  -5   2  12   30.34    1.68
  -4   2  12   28.47    1.73
  -4   2  12   34.62    1.23
  -4   2  12   33.26    1.44
  -4   2  12   35.43    1.59
  -4   2  12   34.32    1.49
  -3   2  12   22.08    1.51
  -3   2  12   26.84    1.36
  -3   2  12   28.89    1.38
  -3   2  12   27.43    1.28
  -3   2  12   26.71    1.01
   2  -2 -12   51.22    1.78
  -2   2  12   43.66    1.51
  -2   2  12   42.86    1.55
  -2   2  12   42.98    1.52
  -2   2  12   42.96    1.93
  -2   2  12   44.57    1.90
   1  -2 -12   35.26    1.28
   1  -2 -12   35.09    1.25
  -1   2  12   31.54    1.14
  -1   2  12   31.91    1.17
  -1   2  12   32.91    1.57
  -1   2  12   35.05    1.55
  -1   2  12   31.52    1.16
  -1   2  12   31.77    1.19
   0  -2 -12    0.22    0.09
   0  -2 -12    0.18    0.20
   0  -2 -12    0.54    0.12
   0   2  12    0.31    0.09
   0   2  12    0.08    0.08
   0   2  12    0.08    0.14
   0   2  12   -0.03    0.07
   0   2  12    0.23    0.19
  -1  -2 -12    0.65    0.11
  -1  -2 -12    0.70    0.13
  -1  -2 -12    0.74    0.28
  -1  -2 -12    0.68    0.31
  -1  -2 -12    0.55    0.13
  -1  -2 -12    0.66    0.13
   1   2  12    0.64    0.12
   1   2  12    0.52    0.10
  -2  -2 -12    0.88    0.31
  -2  -2 -12    1.11    0.14
  -2  -2 -12    1.28    0.17
  -2  -2 -12    0.84    0.15
  -2  -2 -12    1.22    0.35
  -2  -2 -12    0.90    0.14
   2   2  12    1.03    0.13
   2   2  12    0.82    0.14
  -3  -2 -12   10.15    0.46
  -3  -2 -12   10.16    0.80
  -3  -2 -12   10.73    0.87
  -3  -2 -12   10.00    0.50
  -4  -2 -12   23.49    1.27
  -4  -2 -12   22.72    0.90
  -4  -2 -12   23.11    1.27
  -5  -2 -12   16.11    0.98
  -5  -2 -12   16.02    0.98
  -5  -2 -12   16.11    0.66
  -6  -2 -12   24.10    1.15
  -6  -2 -12   24.24    0.89
  -6  -2 -12   22.53    1.15
  -7  -2 -12    5.32    0.60
  -7  -2 -12    5.99    0.29
  -5   3  12    1.60    0.26
  -5   3  12    1.57    0.26
  -5   3  12    1.46    0.28
  -5   3  12    1.50    0.16
  -4   3  12    1.69    0.18
  -4   3  12    1.92    0.33
  -4   3  12    1.84    0.35
  -4   3  12    1.75    0.33
  -3   3  12   10.65    0.50
  -3   3  12   11.87    0.87
  -3   3  12   10.77    0.75
  -3   3  12   11.87    0.80
  -2   3  12   33.51    1.24
  -2   3  12   36.06    1.77
  -2   3  12   33.12    1.60
  -2   3  12   37.09    1.71
  -2   3  12   31.88    1.19
   1  -3 -12   45.57    1.57
   1  -3 -12   43.91    1.60
  -1   3  12   36.89    1.28
  -1   3  12   39.85    1.82
  -1   3  12   35.53    1.31
  -1   3  12   35.64    1.29
  -1   3  12   35.48    1.26
  -1   3  12   35.84    1.67
   0  -3 -12   54.47    1.89
   0  -3 -12   53.85    1.86
   0   3  12   45.93    2.02
   0   3  12   46.40    1.62
   0   3  12   46.75    1.62
   0   3  12   50.01    2.06
   0   3  12   45.14    1.63
   0   3  12   45.90    2.20
   0   3  12   46.17    1.60
  -1  -3 -12   43.90    1.54
  -1  -3 -12   44.51    2.02
  -1  -3 -12   47.03    2.08
  -1  -3 -12   44.14    1.58
  -1  -3 -12   43.23    1.57
   1   3  12   37.16    1.30
   1   3  12   34.59    1.30
   1   3  12   34.61    1.29
   1   3  12   36.89    1.28
   1   3  12   39.56    1.64
   1   3  12   36.60    1.67
  -2  -3 -12   12.85    0.53
  -2  -3 -12   12.78    0.55
  -2  -3 -12   11.74    0.56
  -2  -3 -12   13.32    0.56
  -2  -3 -12   14.14    0.95
  -2  -3 -12   12.76    0.92
   2   3  12   10.46    0.47
   2   3  12   10.64    0.45
   2   3  12   10.71    0.67
  -3  -3 -12   21.48    1.22
  -3  -3 -12   20.66    0.78
  -3  -3 -12   21.07    0.81
  -3  -3 -12   21.39    0.80
  -3  -3 -12   21.42    1.26
  -3  -3 -12   20.68    0.85
   3   3  12   17.73    0.71
   3   3  12   17.47    0.68
  -4  -3 -12    8.52    0.45
  -4  -3 -12    8.24    0.73
  -4  -3 -12    8.65    0.39
  -4  -3 -12    8.15    0.73
  -5  -3 -12    0.32    0.12
  -5  -3 -12    0.32    0.25
  -5  -3 -12    0.38    0.23
  -6  -3 -12   10.16    0.71
  -6  -3 -12   10.37    0.48
  -6  -3 -12   10.48    0.75
  -7  -3 -12    3.63    0.40
  -7  -3 -12    3.61    0.24
  -7  -3 -12    3.44    0.38
  -5   4  12   16.79    0.79
  -5   4  12   17.28    0.65
  -5   4  12   18.16    0.80
  -4   4  12   27.22    1.30
  -4   4  12   27.87    1.25
  -4   4  12   26.87    0.98
  -4   4  12   24.88    1.21
  -3   4  12   40.85    1.82
  -3   4  12   37.59    1.86
  -3   4  12   38.76    1.70
  -3   4  12   39.11    1.39
  -2   4  12    8.15    0.81
  -2   4  12    8.67    0.81
  -2   4  12    8.56    0.41
  -2   4  12    8.82    0.65
  -1   4  12    5.83    0.30
  -1   4  12    5.71    0.54
  -1   4  12    5.74    0.66
  -1   4  12    7.03    0.73
  -1   4  12    5.99    0.66
  -1   4  12    5.88    0.34
   0  -4 -12    0.70    0.14
   0  -4 -12    0.58    0.15
   0   4  12    0.64    0.12
   0   4  12    0.45    0.10
   0   4  12    0.46    0.33
   0   4  12    0.54    0.13
   0   4  12    0.37    0.20
   0   4  12    0.74    0.31
   0   4  12    0.38    0.09
  -1  -4 -12    5.34    0.31
  -1  -4 -12    5.09    0.33
   1   4  12    4.37    0.67
   1   4  12    4.40    0.28
   1   4  12    4.26    0.26
   1   4  12    4.31    0.26
   1   4  12    4.61    0.47
   1   4  12    4.44    0.49
   1   4  12    4.30    0.26
  -2  -4 -12   49.21    1.80
  -2  -4 -12   52.56    1.78
  -2  -4 -12   52.34    1.81
  -2  -4 -12   50.39    2.27
  -2  -4 -12   53.29    2.27
   2   4  12   41.32    1.67
   2   4  12   37.14    1.40
   2   4  12   39.84    1.78
   2   4  12   40.89    1.42
   2   4  12   40.26    1.39
  -3  -4 -12   15.93    0.73
  -3  -4 -12   17.34    0.68
  -3  -4 -12   17.51    0.69
  -3  -4 -12   17.13    1.06
  -3  -4 -12   18.34    0.71
  -3  -4 -12   18.49    1.16
   3   4  12   13.77    0.56
   3   4  12   14.23    0.59
   3   4  12   13.74    0.74
  -4  -4 -12   32.93    1.27
  -4  -4 -12   33.99    1.23
  -4  -4 -12   34.04    1.61
  -4  -4 -12   34.98    1.20
  -4  -4 -12   34.88    1.74
   4   4  12   27.02    1.02
   4   4  12   27.34    0.99
  -5  -4 -12    7.38    0.40
  -5  -4 -12    7.30    0.66
  -5  -4 -12    6.96    0.63
   5   4  12    6.19    0.32
  -6  -4 -12    3.57    0.27
  -6  -4 -12    3.12    0.46
  -6  -4 -12    3.63    0.49
  -7  -4 -12    4.43    0.26
  -7  -4 -12    3.80    0.42
  -7  -4 -12    3.92    0.42
  -4   5  12    3.78    0.23
  -4   5  12    3.91    0.40
  -4   5  12    3.73    0.42
  -4   5  12    3.06    0.40
  -3   5  12    8.24    0.39
  -3   5  12    7.45    0.68
  -3   5  12    8.10    0.58
  -3   5  12    7.46    0.69
  -2   5  12   24.26    1.34
  -2   5  12   24.82    1.20
  -2   5  12   24.55    1.30
  -2   5  12   24.94    0.90
  -2   5  12   21.51    1.22
  -1   5  12   44.07    1.91
  -1   5  12   42.82    1.93
  -1   5  12   46.43    2.05
  -1   5  12   43.68    1.56
  -1   5  12   45.24    2.19
   0  -5 -12   33.31    1.21
   0   5  12   25.67    1.31
   0   5  12   24.27    1.23
   0   5  12   25.59    1.30
   0   5  12   25.93    0.97
   0   5  12   27.39    1.72
   0   5  12   25.32    0.93
  -1  -5 -12   73.71    2.52
  -1  -5 -12   74.10    2.56
   1   5  12   55.98    1.91
   1   5  12   54.94    1.88
   1   5  12   61.73    2.86
   1   5  12   52.90    1.92
   1   5  12   54.06    2.33
   1   5  12   53.69    2.21
   1   5  12   56.68    1.90
  -2  -5 -12   54.27    2.40
  -2  -5 -12   56.21    1.90
  -2  -5 -12   53.94    1.93
   2   5  12   39.28    1.44
   2   5  12   43.61    2.14
   2   5  12   40.99    1.85
   2   5  12   38.83    1.66
   2   5  12   42.57    1.43
   2   5  12   41.90    1.46
  -3  -5 -12    5.85    0.66
  -3  -5 -12    6.28    0.36
  -3  -5 -12    6.94    0.38
  -3  -5 -12    6.72    0.35
  -3  -5 -12    6.05    0.66
   3   5  12    5.06    0.30
   3   5  12    4.94    0.31
   3   5  12    5.64    0.65
  -4  -5 -12    0.64    0.13
  -4  -5 -12    0.64    0.14
  -4  -5 -12    0.91    0.33
  -4  -5 -12    0.66    0.29
  -4  -5 -12    0.73    0.16
   4   5  12    0.47    0.12
   4   5  12    0.41    0.11
  -5  -5 -12    0.14    0.23
  -5  -5 -12    0.41    0.25
  -5  -5 -12    0.56    0.15
  -5  -5 -12    0.50    0.12
   5   5  12    0.23    0.10
   5   5  12    0.21    0.11
  -6  -5 -12    1.89    0.37
  -6  -5 -12    2.02    0.21
  -6  -5 -12    2.26    0.36
   6   5  12    1.84    0.16
  -7  -5 -12   13.92    0.55
  -7  -5 -12   13.90    0.78
   7   5  12   11.69    0.70
  -3   6  12    7.11    0.32
  -3   6  12    6.47    0.47
  -3   6  12    5.89    0.47
  -3   6  12    6.83    0.53
  -2   6  12    2.60    0.40
  -2   6  12    2.61    0.38
  -2   6  12    2.39    0.42
  -2   6  12    2.39    0.35
  -2   6  12    2.47    0.23
  -1   6  12    1.65    0.17
  -1   6  12    2.09    0.37
  -1   6  12    1.73    0.34
  -1   6  12    2.10    0.53
  -1   6  12    1.67    0.29
   0   6  12    3.56    0.76
   0   6  12    3.47    0.39
   0   6  12    3.09    0.41
   0   6  12    3.36    0.25
  -1  -6 -12   13.79    0.60
   1   6  12    9.42    0.71
   1   6  12   11.61    1.08
   1   6  12    9.46    0.45
   1   6  12    9.63    0.43
   1   6  12    9.04    0.60
  -2  -6 -12   22.08    0.87
  -2  -6 -12   22.70    0.90
  -2  -6 -12   23.18    1.43
   2   6  12   15.33    0.98
   2   6  12   16.65    0.68
   2   6  12   18.46    0.67
   2   6  12   17.45    0.67
   2   6  12   17.14    0.65
   2   6  12   18.07    1.28
  -3  -6 -12   22.22    1.21
  -3  -6 -12   21.30    0.85
  -3  -6 -12   21.90    0.83
  -3  -6 -12   21.97    0.87
   3   6  12   16.63    1.13
   3   6  12   16.04    0.64
   3   6  12   16.87    0.66
   3   6  12   14.97    0.93
   3   6  12   16.98    0.63
  -4  -6 -12   37.92    1.33
  -4  -6 -12   37.50    1.29
  -4  -6 -12   37.04    1.31
  -4  -6 -12   38.09    1.66
  -4  -6 -12   33.39    1.73
   4   6  12   26.65    1.02
   4   6  12   28.51    1.03
   4   6  12   27.81    1.46
   4   6  12   29.16    1.01
  -5  -6 -12   33.89    1.48
  -5  -6 -12   33.55    1.18
  -5  -6 -12   34.18    1.16
  -5  -6 -12   31.55    1.58
   5   6  12   25.48    1.33
   5   6  12   26.43    0.94
   5   6  12   26.60    0.97
  -6  -6 -12   11.99    0.79
  -6  -6 -12   13.26    1.01
   6   6  12   10.75    0.47
   6   6  12   10.29    0.73
   6   6  12   10.85    0.44
  -7  -6 -12    1.23    0.26
   7   6  12    1.07    0.12
  -2   7  12   13.73    0.51
  -2   7  12   11.93    0.61
  -2   7  12   12.09    0.76
  -2   7  12   12.84    0.68
  -1   7  12   28.20    1.26
  -1   7  12   27.96    1.51
  -1   7  12   29.57    1.01
  -1   7  12   25.02    1.13
   0   7  12   33.08    1.51
   0   7  12   33.69    1.21
   0   7  12   35.77    1.91
  -1  -7 -12   19.56    0.78
   1   7  12   12.85    0.81
   1   7  12   15.58    1.17
   1   7  12   13.18    0.55
  -2  -7 -12   20.35    0.82
  -2  -7 -12   19.65    0.78
  -2  -7 -12   20.08    1.27
   2   7  12   14.25    0.59
   2   7  12   16.02    1.11
   2   7  12   13.47    0.85
   2   7  12   15.16    0.58
  -3  -7 -12    3.48    0.52
  -3  -7 -12    3.71    0.28
  -3  -7 -12    3.86    0.30
   3   7  12    2.85    0.50
   3   7  12    3.01    0.24
   3   7  12    3.11    0.22
   3   7  12    2.53    0.38
   3   7  12    3.22    0.24
   3   7  12    2.81    0.20
  -4  -7 -12    0.07    0.11
  -4  -7 -12   -0.09    0.10
  -4  -7 -12    0.16    0.12
  -4  -7 -12    0.07    0.22
   4   7  12    0.09    0.09
   4   7  12    0.08    0.08
   4   7  12   -0.02    0.09
   4   7  12    0.01    0.22
  -5  -7 -12    6.86    0.37
  -5  -7 -12    7.13    0.34
  -5  -7 -12    7.65    0.35
   5   7  12    5.67    0.58
   5   7  12    5.80    0.29
   5   7  12    5.50    0.31
   5   7  12    5.46    0.29
  -6  -7 -12    3.45    0.22
  -6  -7 -12    3.02    0.40
   6   7  12    2.88    0.21
   6   7  12    2.81    0.40
   6   7  12    2.75    0.23
   6   7  12    3.05    0.23
  -7  -7 -12    5.86    0.49
   7   7  12    6.41    0.29
  -1   8  12    0.02    0.08
   0   8  12   -0.04    0.08
   0   8  12    0.36    0.28
   0   8  12    0.08    0.14
  -1  -8 -12    7.31    1.12
   1   8  12    3.63    0.40
   1   8  12    3.91    0.24
   1   8  12    3.71    0.55
  -2  -8 -12   22.15    1.17
  -2  -8 -12   22.49    0.85
   2   8  12   14.24    0.55
   2   8  12   14.88    0.95
   2   8  12   13.28    0.79
  -3  -8 -12   33.72    1.20
  -3  -8 -12   33.46    1.22
  -3  -8 -12   33.71    1.47
   3   8  12   19.38    1.01
   3   8  12   22.51    1.19
  -4  -8 -12   23.26    0.87
  -4  -8 -12   23.65    0.86
  -4  -8 -12   23.49    0.88
   4   8  12   17.62    0.64
   4   8  12   15.99    0.97
   4   8  12   17.52    0.61
  -5  -8 -12   23.90    0.87
  -5  -8 -12   23.94    0.84
  -5  -8 -12   23.50    0.85
   5   8  12   18.38    0.67
   5   8  12   17.51    0.64
   5   8  12   19.07    0.65
   5   8  12   16.74    0.93
  -6  -8 -12   11.74    0.45
   6   8  12    9.19    0.37
   6   8  12    9.22    0.39
   6   8  12   10.63    0.40
   2   9  12    2.55    0.30
   2   9  12    2.68    0.34
  -3  -9 -12    1.36    0.15
  -3  -9 -12    1.07    0.17
   3   9  12    0.73    0.24
   3   9  12    0.57    0.18
  -4  -9 -12    0.05    0.11
  -4  -9 -12    0.17    0.11
  -4  -9 -12    0.03    0.12
   4   9  12    0.01    0.16
   4   9  12    0.01    0.12
  -5  -9 -12    2.22    0.19
  -5  -9 -12    2.65    0.18
  -5  -9 -12    2.49    0.21
   3   5 -13    3.92    0.72
  -3  -5  13    4.72    0.51
  -3  -5  13    5.39    0.29
   2   5 -13    4.43    0.50
  -2  -5  13    6.30    0.51
   5   4 -13   18.34    0.67
  -5  -4  13   17.52    0.90
  -5  -4  13   18.67    0.67
   4   4 -13   17.86    0.66
  -4  -4  13   18.73    0.70
  -4  -4  13   17.43    0.99
  -4  -4  13   19.19    0.73
  -4  -4  13   18.88    0.71
   3   4 -13   13.30    0.93
  -3  -4  13   16.95    0.67
  -3  -4  13   17.58    0.75
  -3  -4  13   16.71    0.99
   2   4 -13   11.19    0.84
   2   4 -13   11.20    0.87
   2   4 -13   11.81    1.18
   2   4 -13   12.46    0.55
  -2  -4  13   13.61    0.91
  -2  -4  13   13.88    0.60
  -2  -4  13   14.12    0.59
   1   4 -13    0.33    0.26
   1   4 -13    0.40    0.16
   1   4 -13    0.44    0.54
  -1  -4  13    0.27    0.26
   0   4 -13    4.50    1.01
   0   4 -13    3.46    0.47
   0   4 -13    4.10    0.29
   0   4 -13    4.22    0.28
  -1   4 -13    4.20    0.45
  -1   4 -13    5.58    0.30
  -1   4 -13    5.16    0.28
  -1   4 -13    6.43    1.07
   5   3 -13    2.23    0.20
   5   3 -13    2.20    0.18
   5   3 -13    1.84    0.17
  -5  -3  13    2.17    0.37
  -5  -3  13    1.81    0.16
   4   3 -13    0.03    0.15
   4   3 -13    0.28    0.13
   4   3 -13   -0.08    0.13
  -4  -3  13    0.13    0.11
  -4  -3  13    0.17    0.13
  -4  -3  13    0.31    0.23
  -4  -3  13    0.15    0.11
   3   3 -13   10.01    0.85
   3   3 -13   10.06    0.82
   3   3 -13   10.98    1.20
   3   3 -13   11.85    0.52
   3   3 -13   12.88    0.47
  -3  -3  13   11.82    0.52
  -3  -3  13   12.22    0.54
  -3  -3  13   12.01    0.88
  -3  -3  13   10.88    0.52
   2   3 -13   30.87    2.10
   2   3 -13   30.70    1.57
   2   3 -13   31.54    1.10
  -2  -3  13   32.09    1.16
  -2  -3  13   31.83    1.20
  -2  -3  13   32.39    1.64
   1   3 -13   16.79    1.07
   1   3 -13   17.58    1.64
   1   3 -13   17.02    0.68
  -1  -3  13   19.04    0.75
  -1  -3  13   19.29    1.19
   0   3 -13   15.17    0.61
   0   3 -13   15.93    1.66
   0   3 -13   13.54    0.95
  -1   3 -13   19.87    0.77
  -1   3 -13   17.71    1.07
  -1   3 -13   22.64    1.94
  -2   3 -13    2.52    0.42
  -2   3 -13    3.16    0.24
  -2   3 -13    3.48    1.05
   6   2 -13   25.80    0.96
  -6  -2  13   21.81    1.05
  -6  -2  13   21.51    1.00
   5   2 -13   45.86    1.57
   5   2 -13   46.06    1.60
   5   2 -13   44.01    1.59
  -5  -2  13   39.48    1.72
  -5  -2  13   41.14    1.82
  -5  -2  13   40.22    1.38
   4   2 -13   20.42    0.81
   4   2 -13   19.68    0.79
   4   2 -13   20.90    0.78
  -4  -2  13   19.42    0.74
  -4  -2  13   19.82    0.77
  -4  -2  13   19.79    1.18
  -4  -2  13   18.70    0.72
   3   2 -13    9.11    0.43
   3   2 -13    9.11    0.47
   3   2 -13    9.40    0.45
  -3  -2  13    8.48    0.40
  -3  -2  13    8.44    0.44
  -3  -2  13    9.06    0.78
  -3  -2  13    8.08    0.42
   2   2 -13    4.74    0.61
   2   2 -13    4.88    0.35
   2   2 -13    5.11    0.30
   2   2 -13    5.33    0.32
  -2  -2  13    4.46    0.58
  -2  -2  13    4.46    0.29
  -2  -2  13    4.61    0.32
   1   2 -13    1.68    0.40
   1   2 -13    1.55    0.20
   1   2 -13    2.37    0.20
   1   2 -13    1.79    0.73
  -1  -2  13    1.76    0.20
  -1  -2  13    1.94    0.18
  -1  -2  13    1.62    0.42
   0   2 -13    1.09    0.32
   0   2 -13    0.84    0.16
   0   2 -13    1.02    0.67
  -1   2 -13    2.06    0.38
  -1   2 -13    2.22    0.22
  -1   2 -13    2.36    0.84
  -2   2 -13    5.21    0.31
  -2   2 -13    4.75    0.52
  -2   2 -13    5.80    1.26
  -3   2 -13   16.69    1.42
  -3   2 -13   14.41    0.85
  -3   2 -13   17.31    0.63
   6   1 -13    0.81    0.16
  -6  -1  13    0.69    0.22
  -6  -1  13    0.67    0.23
   5   1 -13    8.57    0.47
   5   1 -13    8.84    0.44
  -5  -1  13    6.99    0.62
  -5  -1  13    8.19    0.69
   4   1 -13   14.32    0.63
   4   1 -13   13.69    0.59
  -4  -1  13   13.08    0.95
  -4  -1  13   12.57    0.50
  -4  -1  13   12.28    0.86
  -4  -1  13   12.53    0.54
   3   1 -13   18.03    0.73
   3   1 -13   16.65    0.71
   3   1 -13   18.05    0.70
  -3  -1  13   16.34    1.04
  -3  -1  13   17.52    1.15
  -3  -1  13   16.86    0.68
  -3  -1  13   16.84    0.69
  -3  -1  13   16.86    0.66
   2   1 -13   17.98    0.74
   2   1 -13   18.51    0.71
   2   1 -13   19.19    1.20
   2   1 -13   17.64    0.73
  -2  -1  13   19.71    1.23
  -2  -1  13   15.79    0.84
  -2  -1  13   17.95    0.73
  -2  -1  13   17.15    0.69
  -2  -1  13   17.35    0.72
   1   1 -13   48.48    1.99
   1   1 -13   55.61    1.87
   1   1 -13   56.28    2.42
   1   1 -13   54.10    1.85
   1   1 -13   56.07    1.89
  -1  -1  13   50.72    2.05
  -1  -1  13   53.76    1.87
  -1  -1  13   51.69    1.83
  -1  -1  13   54.98    2.47
   0   1 -13   38.79    1.34
   0   1 -13   36.36    1.37
   0   1 -13   38.74    1.83
   0  -1  13   36.24    1.30
  -1   1 -13   24.11    0.94
  -1   1 -13   25.38    2.23
  -1   1 -13   24.73    1.33
  -2   1 -13    1.54    0.69
  -2   1 -13    1.56    0.18
  -2   1 -13    1.59    0.35
  -3   1 -13    0.40    0.25
  -3   1 -13    0.57    0.25
  -3   1 -13    0.54    0.14
  -3   1 -13    0.69    0.51
  -4   1 -13    0.32    0.27
  -4   1 -13    0.26    0.12
  -4   1 -13    0.33    0.19
  -6   0  13    7.72    0.36
  -6   0  13    7.70    0.55
  -6   0  13    7.63    0.57
   5   0 -13   20.24    0.78
  -5   0  13   16.15    0.66
  -5   0  13   15.57    1.01
  -5   0  13   15.78    0.95
   4   0 -13   25.23    0.96
   4   0 -13   23.71    0.92
  -4   0  13   19.67    0.77
  -4   0  13   21.05    1.18
  -4   0  13   20.94    0.99
  -4   0  13   22.42    1.32
  -4   0  13   19.98    0.83
   3   0 -13   37.18    1.36
   3   0 -13   37.22    1.33
  -3   0  13   31.23    1.38
  -3   0  13   31.28    1.61
  -3   0  13   31.85    1.15
  -3   0  13   33.45    1.17
  -3   0  13   35.11    1.83
  -3   0  13   33.22    1.19
   2   0 -13    2.60    0.23
   2   0 -13    2.33    0.20
   2   0 -13    2.13    0.21
  -2   0  13    2.47    0.22
  -2   0  13    2.01    0.20
  -2   0  13    2.94    0.35
  -2   0  13    2.64    0.56
  -2   0  13    1.95    0.18
  -2   0  13    2.22    0.41
   1   0 -13    1.13    0.16
   1   0 -13    1.07    0.34
   1   0 -13    1.11    0.16
   1   0 -13    0.97    0.15
  -1   0  13    1.32    0.41
  -1   0  13    1.30    0.29
  -1   0  13    0.92    0.14
  -1   0  13    0.95    0.15
   0   0 -13    3.23    0.26
   0   0 -13    2.76    0.26
   0   0 -13    2.72    0.24
   0   0 -13    3.39    0.52
   0   0 -13    3.43    0.26
   0   0  13    3.19    0.40
   0   0  13    2.11    0.21
   0   0  13    2.62    0.22
  -1   0 -13   17.13    1.08
  -1   0 -13   16.57    0.70
  -1   0 -13   17.33    0.68
   1   0  13   16.50    0.66
  -2   0 -13   12.70    0.86
  -2   0 -13   12.92    0.56
  -2   0 -13   11.81    1.45
  -2   0 -13   12.41    0.85
  -3   0 -13   10.00    0.77
  -3   0 -13    8.90    1.11
  -3   0 -13   10.27    0.45
  -3   0 -13    9.57    0.71
  -4   0 -13   23.26    0.86
  -4   0 -13   23.75    1.23
  -4   0 -13   22.02    1.16
  -5   0 -13    5.60    0.48
  -5   0 -13    7.39    0.34
  -5   0 -13    7.22    0.62
  -6   1  13    0.07    0.15
  -5   1  13    4.64    0.50
  -5   1  13    4.67    0.56
  -5   1  13    4.64    0.32
  -5   1  13    4.64    0.36
   4  -1 -13   29.27    1.07
  -4   1  13   24.64    1.29
  -4   1  13   23.26    1.42
  -4   1  13   24.97    1.13
  -4   1  13   24.02    0.93
  -4   1  13   23.74    1.07
   3  -1 -13   55.14    1.92
   3  -1 -13   53.63    1.88
  -3   1  13   45.30    2.07
  -3   1  13   47.52    1.65
  -3   1  13   45.67    1.86
  -3   1  13   46.20    1.60
  -3   1  13   45.38    2.26
  -3   1  13   45.27    1.57
  -3   1  13   46.74    1.92
   2  -1 -13   65.97    2.31
   2  -1 -13   67.63    2.28
  -2   1  13   60.18    2.34
  -2   1  13   57.20    2.00
  -2   1  13   59.23    2.71
  -2   1  13   59.36    2.04
  -2   1  13   58.21    2.03
  -2   1  13   58.49    2.51
   1  -1 -13   47.51    2.54
   1  -1 -13   47.07    1.65
   1  -1 -13   47.16    1.62
   1  -1 -13   45.16    1.65
  -1   1  13   42.73    1.76
  -1   1  13   41.00    1.90
  -1   1  13   41.58    1.47
  -1   1  13   41.48    1.44
  -1   1  13   40.44    1.46
  -1   1  13   38.93    2.01
   0  -1 -13    2.76    0.47
   0  -1 -13    2.65    0.21
   0  -1 -13    2.22    0.21
   0  -1 -13    2.72    0.24
   0   1  13    1.93    0.18
   0   1  13    2.43    0.39
   0   1  13    1.82    0.19
  -1  -1 -13   22.43    0.85
  -1  -1 -13   23.15    1.29
  -1  -1 -13   22.45    0.82
  -1  -1 -13   22.47    0.84
  -1  -1 -13   21.87    1.25
  -1  -1 -13   20.86    0.87
   1   1  13   20.02    0.80
   1   1  13   20.20    0.77
  -2  -1 -13   25.09    1.39
  -2  -1 -13   27.09    0.98
  -2  -1 -13   26.17    1.01
  -2  -1 -13   27.86    1.44
   2   1  13   24.03    0.90
  -3  -1 -13    0.14    0.11
  -3  -1 -13    0.03    0.45
  -3  -1 -13    0.08    0.26
  -3  -1 -13    0.17    0.20
  -4  -1 -13    1.02    0.29
  -4  -1 -13    0.97    0.34
  -4  -1 -13    1.11    0.16
  -5  -1 -13    1.91    0.35
  -5  -1 -13    2.20    0.20
  -5  -1 -13    2.15    0.42
  -6  -1 -13    5.64    0.30
  -6  -1 -13    6.19    0.50
  -5   2  13   25.86    1.09
  -5   2  13   27.94    1.01
  -5   2  13   28.17    1.28
  -5   2  13   28.10    1.14
  -4   2  13    6.91    0.48
  -4   2  13    7.40    0.38
  -4   2  13    5.35    0.61
  -4   2  13    6.77    0.60
  -4   2  13    6.89    0.52
   3  -2 -13    3.29    0.26
  -3   2  13    2.39    0.24
  -3   2  13    2.90    0.44
  -3   2  13    2.45    0.40
  -3   2  13    2.24    0.36
   2  -2 -13    0.30    0.14
   2  -2 -13    0.19    0.13
  -2   2  13   -0.19    0.14
  -2   2  13    0.13    0.10
  -2   2  13    0.08    0.10
  -2   2  13    0.29    0.10
  -2   2  13    0.03    0.16
   1  -2 -13    0.31    0.14
   1  -2 -13    0.36    0.13
  -1   2  13    0.26    0.20
  -1   2  13    0.35    0.11
  -1   2  13    0.16    0.10
  -1   2  13    0.33    0.10
  -1   2  13    0.38    0.23
   0  -2 -13   32.27    1.62
   0  -2 -13   32.48    1.61
   0  -2 -13   32.00    1.15
   0  -2 -13   31.14    1.18
   0  -2 -13   32.77    1.18
   0   2  13   27.40    1.06
   0   2  13   28.32    1.44
   0   2  13   31.20    1.42
   0   2  13   29.11    1.07
   0   2  13   28.20    1.04
  -1  -2 -13   28.59    1.50
  -1  -2 -13   27.89    1.06
  -1  -2 -13   29.07    1.04
  -1  -2 -13   28.53    1.51
  -1  -2 -13   28.93    1.05
   1   2  13   25.93    1.23
   1   2  13   25.16    0.93
   1   2  13   24.59    0.95
  -2  -2 -13   69.59    2.27
  -2  -2 -13   66.74    2.78
  -2  -2 -13   62.19    2.30
  -2  -2 -13   66.27    2.81
  -2  -2 -13   67.96    2.25
  -2  -2 -13   66.61    2.28
   2   2  13   56.20    1.97
   2   2  13   56.58    1.94
  -3  -2 -13   25.14    1.37
  -3  -2 -13   25.95    0.93
  -3  -2 -13   25.93    1.39
  -3  -2 -13   25.23    0.99
   3   2  13   21.34    0.84
  -4  -2 -13   16.20    1.00
  -4  -2 -13   15.67    0.66
  -4  -2 -13   15.76    0.98
  -5  -2 -13    8.23    0.69
  -5  -2 -13    8.14    0.41
  -5  -2 -13    8.05    0.66
  -6  -2 -13    0.94    0.24
  -6  -2 -13    1.05    0.28
  -6  -2 -13    1.26    0.15
  -5   3  13    3.74    0.31
  -5   3  13    3.56    0.24
  -5   3  13    2.94    0.35
  -5   3  13    3.25    0.36
  -4   3  13    9.83    0.47
  -4   3  13    9.99    0.61
  -4   3  13   10.24    0.67
  -4   3  13    9.57    0.69
  -3   3  13   24.54    1.26
  -3   3  13   22.13    1.19
  -3   3  13   22.37    0.88
  -3   3  13   24.07    1.18
   2  -3 -13   33.36    1.21
  -2   3  13   24.86    0.93
  -2   3  13   27.72    1.37
  -2   3  13   28.17    1.44
  -2   3  13   24.85    1.31
  -2   3  13   25.80    0.99
   1  -3 -13   65.54    3.15
   1  -3 -13   70.27    2.37
   1  -3 -13   72.51    2.42
  -1   3  13   58.26    2.06
  -1   3  13   66.70    2.61
  -1   3  13   59.59    2.09
  -1   3  13   62.24    2.08
  -1   3  13   60.72    2.54
  -1   3  13   60.32    2.12
   0  -3 -13  105.09    3.57
   0  -3 -13  108.04    4.13
   0  -3 -13  104.53    3.54
   0   3  13   91.48    3.60
   0   3  13   92.25    3.14
   0   3  13   94.22    3.12
   0   3  13   92.27    3.14
   0   3  13   91.58    3.75
   0   3  13   98.01    3.59
  -1  -3 -13    1.63    0.39
  -1  -3 -13    1.64    0.44
  -1  -3 -13    1.91    0.21
  -1  -3 -13    1.72    0.19
  -1  -3 -13    1.68    0.18
   1   3  13    1.45    0.33
   1   3  13    2.01    0.20
   1   3  13    1.53    0.16
   1   3  13    1.35    0.16
   1   3  13    1.65    0.45
   1   3  13    1.86    0.36
  -2  -3 -13   11.19    0.87
  -2  -3 -13   10.33    0.48
  -2  -3 -13    9.59    0.48
  -2  -3 -13   10.92    0.46
  -2  -3 -13   10.59    0.87
   2   3  13    8.22    0.42
   2   3  13    8.64    0.60
   2   3  13    8.40    0.39
  -3  -3 -13    0.08    0.27
  -3  -3 -13    0.28    0.13
  -3  -3 -13    0.25    0.12
  -3  -3 -13    0.42    0.15
  -3  -3 -13    0.18    0.24
   3   3  13    0.18    0.10
   3   3  13    0.11    0.11
  -4  -3 -13    1.70    0.38
  -4  -3 -13    1.34    0.35
  -4  -3 -13    1.40    0.19
   4   3  13    1.42    0.16
  -5  -3 -13    6.45    0.62
  -5  -3 -13    5.97    0.61
  -5  -3 -13    6.69    0.36
  -6  -3 -13    7.64    0.60
  -6  -3 -13    8.10    0.60
  -6  -3 -13    7.68    0.39
  -4   4  13    8.78    0.60
  -4   4  13    8.37    0.55
  -4   4  13    7.77    0.57
  -4   4  13    8.37    0.39
  -3   4  13    5.14    0.58
  -3   4  13    4.02    0.30
  -3   4  13    4.40    0.52
  -3   4  13    4.45    0.48
  -2   4  13    5.29    0.60
  -2   4  13    4.40    0.48
  -2   4  13    4.47    0.29
  -2   4  13    4.35    0.57
   1  -4 -13   24.24    0.92
  -1   4  13   17.73    1.04
  -1   4  13   17.93    1.31
  -1   4  13   20.42    1.18
  -1   4  13   18.46    0.70
  -1   4  13   20.21    1.15
  -1   4  13   18.33    0.74
   0  -4 -13   29.07    1.14
   0  -4 -13   32.68    2.00
   0  -4 -13   30.23    1.11
   0   4  13   24.35    1.26
   0   4  13   22.00    0.88
   0   4  13   23.91    0.87
   0   4  13   23.53    1.44
   0   4  13   21.79    1.21
   0   4  13   23.14    0.85
   0   4  13   22.13    0.83
  -1  -4 -13   26.35    1.49
  -1  -4 -13   26.03    0.97
  -1  -4 -13   26.22    1.01
   1   4  13   21.62    0.80
   1   4  13   24.05    1.46
   1   4  13   21.58    1.11
   1   4  13   20.83    1.17
   1   4  13   20.34    0.81
   1   4  13   20.98    0.82
  -2  -4 -13   39.14    1.94
  -2  -4 -13   42.34    1.46
  -2  -4 -13   42.04    1.49
  -2  -4 -13   42.84    1.94
  -2  -4 -13   40.95    1.48
   2   4  13   33.57    1.18
   2   4  13   31.58    1.20
   2   4  13   35.60    1.80
   2   4  13   32.16    1.20
   2   4  13   33.32    1.44
   2   4  13   32.74    1.20
  -3  -4 -13   38.56    1.78
  -3  -4 -13   38.69    1.35
  -3  -4 -13   39.22    1.37
  -3  -4 -13   37.91    1.89
  -3  -4 -13   38.60    1.38
   3   4  13   30.03    1.07
   3   4  13   29.79    1.28
   3   4  13   29.13    1.09
  -4  -4 -13   29.50    1.41
  -4  -4 -13   26.99    1.07
  -4  -4 -13   28.06    1.02
  -4  -4 -13   28.49    1.50
   4   4  13   23.01    0.86
   4   4  13   22.21    0.83
   4   4  13   21.72    1.11
  -5  -4 -13   16.61    1.02
  -5  -4 -13   16.34    0.93
  -5  -4 -13   16.38    0.67
   5   4  13   14.39    0.57
  -6  -4 -13    5.40    0.52
  -6  -4 -13    5.40    0.32
  -6  -4 -13    5.10    0.53
  -7  -4 -13   -0.05    0.19
  -3   5  13   17.95    0.93
  -3   5  13   18.38    0.99
  -3   5  13   18.97    0.72
  -3   5  13   19.11    1.00
  -2   5  13   32.36    1.52
  -2   5  13   29.72    1.44
  -2   5  13   29.87    1.10
  -2   5  13   30.30    1.41
  -1   5  13   11.62    0.76
  -1   5  13   12.57    0.84
  -1   5  13   10.74    0.74
  -1   5  13   10.55    0.85
  -1   5  13   11.21    0.49
   0  -5 -13   31.31    1.26
   0  -5 -13   33.12    1.18
   0   5  13   25.42    1.24
   0   5  13   25.31    0.90
   0   5  13   24.19    0.93
   0   5  13   24.10    1.25
   0   5  13   22.77    1.17
   0   5  13   25.92    1.56
  -1  -5 -13   14.78    0.65
  -1  -5 -13   14.15    0.62
  -1  -5 -13   15.75    1.27
   1   5  13   11.74    0.49
   1   5  13   10.48    0.69
   1   5  13   10.61    0.46
   1   5  13   10.98    0.47
   1   5  13   12.07    1.06
   1   5  13   10.32    0.76
  -2  -5 -13    1.85    0.19
  -2  -5 -13    1.63    0.20
  -2  -5 -13    1.60    0.21
  -2  -5 -13    0.97    0.38
   2   5  13    1.57    0.17
   2   5  13    1.29    0.16
   2   5  13    1.38    0.32
   2   5  13    1.12    0.15
   2   5  13    1.42    0.15
   2   5  13    1.91    0.33
   2   5  13    1.71    0.48
  -3  -5 -13    0.26    0.24
  -3  -5 -13    0.63    0.13
  -3  -5 -13    0.64    0.32
  -3  -5 -13    0.42    0.13
  -3  -5 -13    0.35    0.14
   3   5  13    0.47    0.11
   3   5  13    0.63    0.34
   3   5  13    0.38    0.11
   3   5  13    0.36    0.10
  -4  -5 -13   19.86    1.22
  -4  -5 -13   20.70    0.80
  -4  -5 -13   21.22    0.77
  -4  -5 -13   21.07    0.78
  -4  -5 -13   21.79    1.15
   4   5  13   16.50    1.04
   4   5  13   16.42    0.63
   4   5  13   15.86    0.66
  -5  -5 -13   18.70    0.79
  -5  -5 -13   21.79    1.08
  -5  -5 -13   19.61    1.13
   5   5  13   17.75    0.67
   5   5  13   17.26    0.69
  -6  -5 -13    7.82    0.38
  -6  -5 -13    8.07    0.64
  -6  -5 -13    8.64    0.62
   6   5  13    7.39    0.34
  -7  -5 -13    8.27    0.53
  -2   6  13    0.55    0.12
  -2   6  13    0.58    0.21
  -2   6  13    0.54    0.23
  -2   6  13    0.60    0.21
  -1   6  13    0.43    0.19
  -1   6  13    0.34    0.26
  -1   6  13    0.73    0.26
  -1   6  13    0.26    0.11
  -1   6  13    0.36    0.21
   0  -6 -13   21.22    0.82
   0   6  13   15.99    0.63
   0   6  13   15.21    0.82
   0   6  13   14.27    0.88
   0   6  13   16.87    1.20
  -1  -6 -13   46.00    2.20
  -1  -6 -13   42.46    1.56
  -1  -6 -13   41.39    1.52
   1   6  13   29.58    1.09
   1   6  13   28.78    1.28
   1   6  13   28.03    1.41
   1   6  13   33.29    1.81
   1   6  13   31.10    1.07
  -2  -6 -13   54.06    2.33
  -2  -6 -13   55.65    1.94
  -2  -6 -13   55.55    1.90
   2   6  13   45.84    2.15
   2   6  13   43.12    1.45
   2   6  13   41.75    1.46
   2   6  13   36.88    1.78
   2   6  13   40.89    1.42
  -3  -6 -13   39.69    1.42
  -3  -6 -13   39.52    1.38
  -3  -6 -13   38.16    1.40
  -3  -6 -13   39.74    1.76
   3   6  13   30.60    1.62
   3   6  13   31.06    1.10
   3   6  13   29.76    1.10
   3   6  13   30.47    1.08
  -4  -6 -13   18.11    0.65
  -4  -6 -13   17.55    0.98
  -4  -6 -13   17.33    0.66
  -4  -6 -13   16.99    0.68
  -4  -6 -13   14.12    1.20
   4   6  13   13.08    0.54
   4   6  13   13.73    0.52
   4   6  13   13.42    0.92
   4   6  13   11.90    0.53
  -5  -6 -13   12.49    0.83
  -5  -6 -13   13.40    0.53
  -5  -6 -13   13.07    0.80
   5   6  13    8.89    0.49
   5   6  13   10.58    0.43
   5   6  13   10.82    0.77
   5   6  13    9.67    0.45
  -6  -6 -13    5.35    0.53
  -6  -6 -13    5.75    0.52
   6   6  13    5.06    0.29
   6   6  13    5.80    0.28
   6   6  13    4.81    0.49
  -1   7  13    9.87    0.61
  -1   7  13    8.35    0.49
  -1   7  13    9.47    0.71
  -1   7  13    9.72    0.41
   0   7  13    4.27    0.44
   0   7  13    4.46    0.27
   0   7  13    4.32    0.62
  -1  -7 -13    0.54    0.14
  -1  -7 -13    1.05    0.56
   1   7  13    0.44    0.10
   1   7  13    0.24    0.19
   1   7  13    0.51    0.35
  -2  -7 -13    0.35    0.35
  -2  -7 -13    0.71    0.16
  -2  -7 -13    0.64    0.14
   2   7  13    0.68    0.35
   2   7  13    0.36    0.20
   2   7  13    0.31    0.10
  -3  -7 -13    1.08    0.16
  -3  -7 -13    1.06    0.16
  -3  -7 -13    0.84    0.32
  -3  -7 -13    1.16    0.18
   3   7  13    0.72    0.11
   3   7  13    0.95    0.37
   3   7  13    0.83    0.23
   3   7  13    0.60    0.13
  -4  -7 -13    2.94    0.24
  -4  -7 -13    2.40    0.39
  -4  -7 -13    2.50    0.22
  -4  -7 -13    2.61    0.20
   4   7  13    1.61    0.14
   4   7  13    2.08    0.18
   4   7  13    2.24    0.45
   4   7  13    1.65    0.16
  -5  -7 -13   13.59    0.50
  -5  -7 -13   12.32    0.81
  -5  -7 -13   13.84    0.53
   5   7  13   10.33    0.44
   5   7  13   10.21    0.44
   5   7  13   10.38    0.73
   5   7  13   10.31    0.42
   6   7  13   11.79    0.46
   6   7  13   11.94    0.47
   6   7  13   11.67    0.44
   6   7  13   10.56    0.67
   0  -8 -13    8.95    0.77
   0   8  13    5.39    0.42
   0   8  13    5.53    0.27
   0   8  13    5.28    0.50
  -1  -8 -13   10.53    0.60
  -1  -8 -13   11.98    0.80
   1   8  13    7.15    0.62
   1   8  13    6.52    0.48
   1   8  13    6.72    0.31
  -2  -8 -13   19.43    0.79
  -2  -8 -13   20.99    0.78
  -2  -8 -13   20.37    1.03
   2   8  13   13.55    0.83
   2   8  13   11.50    0.69
  -3  -8 -13   30.18    1.31
  -3  -8 -13   29.48    1.10
  -3  -8 -13   30.35    1.06
   3   8  13   17.43    0.89
   3   8  13   19.81    1.04
  -4  -8 -13   22.13    0.82
  -4  -8 -13   22.55    0.80
  -4  -8 -13   21.97    0.81
   4   8  13   15.87    0.90
   4   8  13   16.33    0.59
  -5  -8 -13    1.63    0.15
  -5  -8 -13    1.70    0.13
   5   8  13    1.07    0.27
   5   8  13    0.93    0.11
   5   8  13    1.01    0.09
  -3  -4  14    0.38    0.20
  -3  -4  14    0.45    0.11
  -3  -4  14    0.32    0.12
   2   4 -14    0.21    0.25
  -2  -4  14    0.12    0.18
  -2  -4  14    0.31    0.11
   1   4 -14    1.42    0.51
   1   4 -14    1.58    0.34
   1   4 -14    1.44    0.32
  -1  -4  14    2.25    0.36
   4   3 -14   12.92    0.47
   4   3 -14   11.57    0.50
  -4  -3  14   12.02    0.77
  -4  -3  14   12.71    0.49
  -4  -3  14   12.02    0.48
  -4  -3  14   12.45    0.52
   3   3 -14   29.15    0.98
   3   3 -14   26.27    2.00
  -3  -3  14   29.38    1.06
  -3  -3  14   29.33    1.09
  -3  -3  14   30.71    1.45
  -3  -3  14   29.38    1.08
   2   3 -14   33.54    2.17
   2   3 -14   31.46    1.55
  -2  -3  14   37.18    1.29
  -2  -3  14   35.49    1.32
  -2  -3  14   36.43    1.70
   1   3 -14   13.42    0.92
   1   3 -14   14.20    0.58
   1   3 -14   14.01    0.57
   1   3 -14   14.69    1.44
  -1  -3  14   15.05    0.63
  -1  -3  14   16.55    1.00
   0   3 -14    1.61    0.18
   0   3 -14    1.40    0.69
   0   3 -14    1.62    0.36
   0  -3  14    2.15    0.43
  -1   3 -14    1.13    0.14
  -1   3 -14    0.90    0.27
  -1   3 -14    1.29    0.61
   5   2 -14    8.93    0.43
   5   2 -14   10.30    0.46
   5   2 -14    9.79    0.42
  -5  -2  14    8.63    0.61
   4   2 -14    0.65    0.16
   4   2 -14    0.59    0.15
   4   2 -14    0.32    0.17
  -4  -2  14    0.36    0.13
  -4  -2  14    0.37    0.24
  -4  -2  14    0.43    0.11
   3   2 -14    0.57    0.15
   3   2 -14    0.65    0.51
   3   2 -14    0.49    0.15
   3   2 -14    0.92    0.18
  -3  -2  14    0.59    0.13
  -3  -2  14    0.67    0.15
  -3  -2  14    0.78    0.31
  -3  -2  14    0.70    0.13
   2   2 -14    1.50    0.19
   2   2 -14    1.59    0.16
   2   2 -14    1.26    0.37
   2   2 -14    1.49    0.64
  -2  -2  14    1.55    0.39
  -2  -2  14    1.17    0.16
  -2  -2  14    1.42    0.18
  -2  -2  14    1.21    0.18
   1   2 -14    1.71    0.21
   1   2 -14    1.88    0.42
   1   2 -14    1.87    0.76
  -1  -2  14    1.59    0.18
  -1  -2  14    1.97    0.18
  -1  -2  14    2.18    0.46
   0   2 -14    7.91    0.72
   0   2 -14    8.82    0.42
   0   2 -14    8.89    1.43
   0  -2  14    7.56    0.49
   0  -2  14    8.95    0.77
   0  -2  14    8.71    0.40
  -1   2 -14   16.20    1.68
  -1   2 -14   15.48    0.62
  -1   2 -14   14.15    0.92
  -2   2 -14   32.54    1.12
  -2   2 -14   32.23    2.06
  -2   2 -14   29.16    1.40
  -3   2 -14    8.77    0.41
   5   1 -14   16.98    0.67
   5   1 -14   17.09    0.70
  -5  -1  14   14.04    0.83
  -5  -1  14   14.19    0.80
   4   1 -14   48.67    1.70
   4   1 -14   48.11    1.71
   4   1 -14   50.37    1.73
  -4  -1  14   44.37    1.96
  -4  -1  14   41.52    1.84
  -4  -1  14   43.65    1.49
   3   1 -14   26.22    1.01
   3   1 -14   27.64    1.00
   3   1 -14   27.72    1.03
  -3  -1  14   26.34    1.43
  -3  -1  14   24.77    0.96
  -3  -1  14   25.12    0.94
  -3  -1  14   25.46    0.93
   2   1 -14   13.35    0.55
   2   1 -14   13.51    0.57
   2   1 -14   14.03    0.58
   2   1 -14   12.35    0.92
  -2  -1  14   12.64    0.57
  -2  -1  14   13.83    0.98
  -2  -1  14   12.39    0.56
  -2  -1  14   12.77    0.54
   1   1 -14   34.17    1.16
   1   1 -14   31.84    1.18
   1   1 -14   31.68    1.64
  -1  -1  14   29.85    1.13
  -1  -1  14   30.51    1.10
  -1  -1  14   29.35    1.29
  -1  -1  14   31.30    1.62
   0   1 -14   17.92    1.12
   0   1 -14   18.89    0.76
   0   1 -14   19.84    0.73
   0   1 -14   21.00    1.96
   0  -1  14   18.70    1.16
   0  -1  14   18.46    0.90
   0  -1  14   18.99    0.73
   0  -1  14   17.20    0.75
  -1   1 -14    0.47    0.26
  -1   1 -14    0.58    0.13
  -1   1 -14    0.48    0.61
  -2   1 -14    0.95    0.62
  -2   1 -14    0.94    0.16
  -2   1 -14    0.81    0.29
  -3   1 -14    0.49    0.45
  -3   1 -14    0.50    0.23
  -3   1 -14    0.39    0.13
   5   0 -14    5.13    0.49
   5   0 -14    5.38    0.35
  -5   0  14    4.34    0.46
  -5   0  14    4.61    0.48
   4   0 -14    2.15    0.23
   4   0 -14    1.76    0.20
  -4   0  14    1.48    0.25
  -4   0  14    1.74    0.41
  -4   0  14    1.68    0.35
   3   0 -14    0.12    0.14
   3   0 -14    0.11    0.14
   3   0 -14    0.07    0.13
  -3   0  14   -0.03    0.09
  -3   0  14    0.03    0.16
  -3   0  14    0.19    0.15
  -3   0  14    0.07    0.10
  -3   0  14   -0.13    0.18
   2   0 -14   31.74    1.18
   2   0 -14   33.14    1.16
   2   0 -14   32.41    1.19
  -2   0  14   30.51    1.33
  -2   0  14   30.00    1.11
  -2   0  14   30.34    1.63
  -2   0  14   30.84    1.13
  -2   0  14   29.87    1.09
   1   0 -14   33.80    1.26
   1   0 -14   35.73    1.26
   1   0 -14   36.09    1.24
   1   0 -14   34.74    1.73
  -1   0  14   32.01    1.68
  -1   0  14   32.26    1.16
  -1   0  14   32.02    1.39
  -1   0  14   32.96    1.19
  -1   0  14   30.53    1.18
   0   0 -14   32.31    1.45
   0   0 -14   37.13    1.82
   0   0 -14   40.65    1.33
   0   0 -14   39.02    1.34
   0   0  14   35.40    1.52
   0   0  14   35.50    1.27
   0   0  14   35.48    1.30
   0   0  14   35.49    1.78
  -1   0 -14   27.43    1.45
  -1   0 -14   27.02    1.03
  -1   0 -14   28.10    2.25
   1   0  14   27.52    1.02
  -2   0 -14   21.36    1.19
  -2   0 -14   22.97    1.85
  -2   0 -14   21.02    0.83
  -2   0 -14   20.53    1.15
  -3   0 -14   18.58    1.04
  -3   0 -14   18.56    1.00
  -3   0 -14   18.83    0.72
  -3   0 -14   16.98    1.43
  -4   0 -14    5.43    0.30
  -4   0 -14    4.60    0.48
  -4   0 -14    4.72    0.58
   5  -1 -14   10.84    0.55
  -5   1  14    7.88    0.58
  -5   1  14    7.65    0.37
  -5   1  14    7.25    0.57
   4  -1 -14   22.63    0.86
  -4   1  14   17.08    0.80
  -4   1  14   17.85    0.84
  -4   1  14   17.03    0.99
  -4   1  14   16.55    1.05
  -4   1  14   17.46    0.70
   3  -1 -14   30.49    1.15
   3  -1 -14   31.56    1.13
  -3   1  14   26.86    0.95
  -3   1  14   24.47    1.42
  -3   1  14   27.04    1.22
  -3   1  14   26.64    1.37
  -3   1  14   25.39    1.16
   2  -1 -14   51.68    1.86
   2  -1 -14   54.54    1.84
  -2   1  14   43.48    2.15
  -2   1  14   43.50    2.03
  -2   1  14   45.07    1.57
  -2   1  14   47.06    1.60
  -2   1  14   48.04    1.89
  -2   1  14   47.42    1.62
   1  -1 -14    6.83    0.39
   1  -1 -14    7.65    0.40
   1  -1 -14    7.91    0.38
  -1   1  14    6.90    0.38
  -1   1  14    7.62    0.36
  -1   1  14    6.66    0.37
  -1   1  14    6.47    0.76
  -1   1  14    7.22    0.56
   0  -1 -14   16.19    1.06
   0  -1 -14   16.26    0.63
   0  -1 -14   15.81    0.66
   0  -1 -14   15.23    0.64
   0   1  14   15.36    0.62
   0   1  14   15.66    0.88
   0   1  14   14.60    0.64
  -1  -1 -14    3.20    0.27
  -1  -1 -14    2.43    0.44
  -1  -1 -14    3.20    0.50
  -1  -1 -14    3.38    0.26
  -1  -1 -14    2.55    0.26
   1   1  14    3.48    0.41
   1   1  14    2.91    0.24
   1   1  14    3.13    0.27
  -2  -1 -14    0.62    0.50
  -2  -1 -14    0.37    0.28
  -2  -1 -14    0.89    0.16
  -2  -1 -14    0.56    0.27
   2   1  14    0.69    0.13
  -3  -1 -14    3.32    0.46
  -3  -1 -14    2.82    0.47
  -3  -1 -14    3.21    0.26
  -4  -1 -14   16.31    0.96
  -4  -1 -14   17.05    0.68
  -4  -1 -14   17.42    1.01
  -5  -1 -14   17.00    0.92
  -5  -1 -14   20.20    0.97
  -5  -1 -14   19.87    0.72
  -5   2  14    8.34    0.56
  -5   2  14    8.51    0.48
   4  -2 -14    1.19    0.28
  -4   2  14    0.91    0.24
  -4   2  14    0.79    0.20
  -4   2  14    0.74    0.19
  -4   2  14    0.65    0.25
   3  -2 -14    5.76    0.34
  -3   2  14    4.97    0.49
  -3   2  14    4.50    0.30
  -3   2  14    4.47    0.43
  -3   2  14    4.41    0.51
   2  -2 -14   13.60    0.59
   2  -2 -14   14.13    0.62
  -2   2  14   11.28    0.74
  -2   2  14   12.00    0.51
  -2   2  14   11.38    0.82
  -2   2  14   11.78    0.47
   1  -2 -14   36.28    1.33
   1  -2 -14   36.64    1.30
  -1   2  14   34.79    1.51
  -1   2  14   31.96    1.15
  -1   2  14   29.98    1.53
  -1   2  14   31.37    1.14
  -1   2  14   29.87    1.11
   0  -2 -14   56.12    1.91
   0  -2 -14   56.88    1.94
   0  -2 -14   55.88    2.35
   0  -2 -14   51.86    2.51
   0  -2 -14   56.77    1.94
   0   2  14   49.81    1.79
   0   2  14   50.25    1.79
   0   2  14   51.48    1.77
   0   2  14   53.32    2.13
  -1  -2 -14   57.47    2.48
  -1  -2 -14   60.69    2.01
  -1  -2 -14   60.30    2.04
  -1  -2 -14   57.47    2.55
  -1  -2 -14   58.51    2.04
   1   2  14   49.31    2.38
   1   2  14   52.14    2.08
   1   2  14   49.75    1.78
   1   2  14   50.90    1.75
  -2  -2 -14   36.94    1.28
  -2  -2 -14   32.88    1.30
  -2  -2 -14   37.36    1.24
  -2  -2 -14   35.26    1.74
  -2  -2 -14   35.13    1.71
   2   2  14   30.73    1.14
   2   2  14   31.46    1.17
   2   2  14   32.78    1.40
  -3  -2 -14   25.31    0.97
  -3  -2 -14   25.58    1.33
  -3  -2 -14   24.85    1.35
   3   2  14   22.86    0.86
  -4  -2 -14    2.78    0.45
  -4  -2 -14    2.50    0.45
  -4  -2 -14    2.88    0.26
  -5  -2 -14    0.65    0.26
  -5  -2 -14    0.71    0.15
  -5  -2 -14    0.71    0.31
  -4   3  14   19.05    1.00
  -4   3  14   19.75    0.89
  -4   3  14   19.54    0.75
  -4   3  14   20.63    0.94
  -3   3  14   20.84    1.14
  -3   3  14   21.71    0.85
  -3   3  14   22.33    1.08
  -3   3  14   23.45    1.14
   2  -3 -14   25.89    1.04
   2  -3 -14   26.06    0.97
  -2   3  14   19.31    1.11
  -2   3  14   21.38    1.11
  -2   3  14   19.63    0.80
  -2   3  14   21.89    1.16
   1  -3 -14   14.87    1.00
   1  -3 -14   14.88    0.62
   1  -3 -14   15.31    0.66
  -1   3  14   14.59    0.89
  -1   3  14   12.97    0.52
  -1   3  14   11.69    0.83
  -1   3  14   12.29    0.53
   0  -3 -14    3.52    0.27
   0  -3 -14    3.88    0.62
   0  -3 -14    3.79    0.31
   0  -3 -14    3.68    0.33
   0   3  14    3.30    0.25
   0   3  14    3.18    0.26
   0   3  14    2.96    0.24
   0   3  14    3.89    0.48
   0   3  14    3.14    0.44
  -1  -3 -14    0.98    0.33
  -1  -3 -14    0.99    0.16
  -1  -3 -14    1.02    0.16
  -1  -3 -14    0.96    0.36
  -1  -3 -14    0.68    0.14
   1   3  14    0.88    0.37
   1   3  14    0.63    0.12
   1   3  14    0.56    0.13
   1   3  14    0.86    0.26
   1   3  14    0.62    0.12
  -2  -3 -14   18.07    0.74
  -2  -3 -14   17.73    1.13
  -2  -3 -14   17.62    1.15
  -2  -3 -14   19.28    0.72
  -2  -3 -14   19.28    0.73
   2   3  14   14.99    0.82
   2   3  14   14.40    0.60
   2   3  14   14.97    0.62
  -3  -3 -14   17.26    0.73
  -3  -3 -14   17.69    1.09
  -3  -3 -14   18.21    0.70
  -3  -3 -14   18.37    1.14
   3   3  14   14.51    0.77
   3   3  14   15.44    0.64
   3   3  14   15.49    0.61
  -4  -3 -14    5.49    0.33
  -4  -3 -14    5.98    0.62
  -4  -3 -14    5.21    0.59
   4   3  14    4.83    0.38
   4   3  14    5.06    0.29
  -5  -3 -14   26.72    1.24
  -5  -3 -14   24.87    1.27
  -5  -3 -14   25.04    0.94
   5   3  14   20.03    1.02
  -6  -3 -14   16.77    0.63
  -6  -3 -14   16.05    0.84
  -6  -3 -14   17.89    0.83
  -4   4  14    1.48    0.25
  -4   4  14    1.43    0.16
  -4   4  14    1.28    0.35
  -3   4  14    0.04    0.10
  -3   4  14    0.05    0.17
  -3   4  14    0.12    0.22
  -3   4  14    0.21    0.22
   2  -4 -14    7.90    0.42
   2  -4 -14    7.27    1.25
  -2   4  14    6.05    0.60
  -2   4  14    5.45    0.33
  -2   4  14    6.30    0.60
  -2   4  14    5.24    0.53
   1  -4 -14   24.45    0.93
   1  -4 -14   25.01    0.97
   1  -4 -14   24.83    1.54
  -1   4  14   19.80    1.08
  -1   4  14   20.20    1.10
  -1   4  14   19.27    0.76
  -1   4  14   17.88    1.05
  -1   4  14   18.48    0.71
   0  -4 -14   32.50    1.20
   0  -4 -14   32.03    1.16
   0  -4 -14   32.09    1.66
   0   4  14   29.18    1.36
   0   4  14   26.59    1.50
   0   4  14   27.40    0.98
   0   4  14   26.95    1.00
   0   4  14   25.62    1.36
  -1  -4 -14   37.83    1.38
  -1  -4 -14   37.75    1.39
  -1  -4 -14   38.59    1.36
  -1  -4 -14   39.07    1.84
   1   4  14   29.32    1.51
   1   4  14   32.31    1.17
   1   4  14   32.78    1.45
   1   4  14   33.76    1.77
   1   4  14   32.58    1.14
   1   4  14   31.89    1.16
  -2  -4 -14   30.30    1.12
  -2  -4 -14   30.43    1.08
  -2  -4 -14   31.20    1.53
  -2  -4 -14   27.73    1.52
  -2  -4 -14   31.09    1.11
   2   4  14   24.21    0.93
   2   4  14   24.28    1.13
   2   4  14   26.07    0.91
   2   4  14   25.58    1.44
   2   4  14   23.55    0.92
  -3  -4 -14   43.48    1.53
  -3  -4 -14   41.62    2.01
  -3  -4 -14   44.68    1.50
  -3  -4 -14   44.48    1.52
  -3  -4 -14   43.64    1.94
   3   4  14   32.06    1.37
   3   4  14   33.55    1.18
   3   4  14   33.68    1.21
  -4  -4 -14   20.61    0.86
  -4  -4 -14   23.67    1.19
  -4  -4 -14   23.36    0.81
  -4  -4 -14   22.52    1.25
   4   4  14   19.38    0.75
   4   4  14   17.83    0.89
   4   4  14   19.66    0.72
  -5  -4 -14    0.22    0.25
  -5  -4 -14    0.02    0.11
  -5  -4 -14    0.10    0.26
   5   4  14    0.09    0.09
  -6  -4 -14    1.02    0.26
  -6  -4 -14    1.25    0.27
  -6  -4 -14    1.13    0.13
  -3   5  14   11.27    0.64
  -3   5  14   10.39    0.63
  -3   5  14   10.57    0.61
  -3   5  14   10.87    0.45
   2  -5 -14   15.87    1.66
  -2   5  14   13.46    0.57
  -2   5  14   13.63    0.81
  -2   5  14   13.91    0.80
  -2   5  14   14.40    0.85
   1  -5 -14    1.35    0.17
  -1   5  14    0.74    0.25
  -1   5  14    1.00    0.31
  -1   5  14    0.94    0.27
  -1   5  14    1.05    0.34
  -1   5  14    0.80    0.13
   0  -5 -14    0.91    0.16
   0  -5 -14    0.78    0.49
   0  -5 -14    1.10    0.18
   0   5  14    0.68    0.12
   0   5  14    0.78    0.12
   0   5  14    0.91    0.27
   0   5  14    0.60    0.23
   0   5  14    0.93    0.35
   0   5  14    0.99    0.27
  -1  -5 -14    2.68    0.25
  -1  -5 -14    2.81    0.23
  -1  -5 -14    1.93    0.49
   1   5  14    2.20    0.34
   1   5  14    1.96    0.18
   1   5  14    1.93    0.17
   1   5  14    2.21    0.36
   1   5  14    2.06    0.32
   1   5  14    2.36    0.53
  -2  -5 -14    5.41    0.32
  -2  -5 -14    5.38    0.34
  -2  -5 -14    5.92    0.35
  -2  -5 -14    4.97    0.63
   2   5  14    4.18    0.27
   2   5  14    4.27    0.28
   2   5  14    3.84    0.60
   2   5  14    4.43    0.26
   2   5  14    3.86    0.38
  -3  -5 -14   37.57    1.26
  -3  -5 -14   36.55    1.30
  -3  -5 -14   37.43    1.29
  -3  -5 -14   37.96    1.67
  -3  -5 -14   30.93    1.74
   3   5  14   29.23    1.52
   3   5  14   28.75    1.05
   3   5  14   28.09    1.05
   3   5  14   29.06    1.06
   3   5  14   29.91    1.04
  -4  -5 -14   17.40    1.00
  -4  -5 -14   14.80    0.99
  -4  -5 -14   17.90    0.62
  -4  -5 -14   17.15    0.66
   4   5  14   12.74    0.52
   4   5  14   13.16    0.55
   4   5  14   12.66    0.87
  -5  -5 -14   11.63    0.79
  -5  -5 -14   12.47    0.76
   5   5  14   11.09    0.44
   5   5  14   10.24    0.74
   5   5  14    9.72    0.46
  -6  -5 -14   10.79    0.66
  -6  -5 -14   10.33    0.61
   6   5  14    9.73    0.40
   6   5  14    9.83    0.64
   2  -6 -14    3.51    0.72
  -2   6  14    2.67    0.31
  -2   6  14    2.77    0.21
  -2   6  14    2.43    0.33
   1  -6 -14   15.70    1.42
  -1   6  14    7.02    0.48
  -1   6  14    8.48    0.60
  -1   6  14    8.51    0.39
  -1   6  14    8.65    0.55
  -1   6  14    8.35    0.64
   0  -6 -14   23.45    1.47
   0  -6 -14   22.69    0.87
   0   6  14   15.77    1.03
   0   6  14   14.76    0.58
   0   6  14   13.60    0.75
   0   6  14   13.91    0.83
  -1  -6 -14   39.46    1.41
  -1  -6 -14   39.20    1.38
  -1  -6 -14   37.45    1.79
   1   6  14   25.70    1.16
   1   6  14   26.01    1.29
   1   6  14   29.54    1.58
   1   6  14   28.39    0.97
  -2  -6 -14   19.09    1.12
  -2  -6 -14   20.20    0.76
  -2  -6 -14   19.19    0.77
  -2  -6 -14   19.55    0.78
   2   6  14   15.77    0.59
   2   6  14   16.83    1.11
   2   6  14   15.70    0.62
   2   6  14   13.61    0.85
  -3  -6 -14    4.63    0.32
  -3  -6 -14    4.69    0.30
  -3  -6 -14    4.40    0.30
  -3  -6 -14    4.61    0.60
   3   6  14    3.69    0.25
   3   6  14    3.38    0.27
   3   6  14    3.70    0.55
   3   6  14    3.32    0.24
  -4  -6 -14    1.90    0.17
  -4  -6 -14    2.13    0.20
  -4  -6 -14    1.97    0.16
  -4  -6 -14    2.16    0.39
   4   6  14    1.45    0.17
   4   6  14    1.27    0.14
   4   6  14    2.05    0.43
   4   6  14    1.35    0.15
   4   6  14    1.51    0.16
  -5  -6 -14    0.50    0.25
  -5  -6 -14    0.49    0.23
   5   6  14    0.41    0.27
   5   6  14    0.36    0.10
   5   6  14    0.37    0.12
   5   6  14    0.44    0.11
  -6  -6 -14    0.77    0.29
   6   6  14    0.93    0.26
   6   6  14    0.61    0.10
   1  -7 -14    8.22    0.73
  -1   7  14    4.52    0.39
   0  -7 -14    1.21    0.47
   0  -7 -14    1.03    0.41
   0   7  14    0.85    0.12
   0   7  14    1.25    0.36
  -1  -7 -14    0.83    0.17
  -1  -7 -14    0.97    0.17
  -1  -7 -14    0.29    0.33
   1   7  14    0.50    0.20
   1   7  14    0.61    0.31
  -2  -7 -14    1.82    0.22
  -2  -7 -14    1.79    0.40
  -2  -7 -14    1.79    0.19
   2   7  14    1.61    0.43
   2   7  14    0.87    0.26
  -3  -7 -14   10.24    0.49
  -3  -7 -14   10.73    0.49
  -3  -7 -14   10.99    0.46
  -3  -7 -14   10.24    0.73
   3   7  14    8.35    0.37
   3   7  14    7.67    0.67
  -4  -7 -14   22.82    0.81
  -4  -7 -14   22.46    0.80
  -4  -7 -14   22.20    0.83
  -4  -7 -14   22.58    1.08
   4   7  14   16.52    0.97
   4   7  14   17.81    0.63
   4   7  14   16.96    0.64
   4   7  14   17.17    0.62
  -5  -7 -14   16.29    0.87
  -5  -7 -14   18.40    0.63
   5   7  14   14.91    0.55
   5   7  14   14.56    0.56
   5   7  14   14.98    0.54
   5   7  14   16.05    0.56
   5   7  14   14.02    0.82
   1   8  14    5.66    0.41
   1   8  14    6.10    0.49
  -2  -8 -14    8.37    0.40
  -2  -8 -14    8.79    0.60
   2   8  14    4.74    0.38
   2   8  14    5.05    0.46
  -3  -8 -14    4.05    0.28
  -3  -8 -14    3.58    0.44
  -3  -8 -14    3.62    0.26
  -3  -8 -14    3.67    0.25
   3   8  14    2.67    0.36
  -4  -8 -14    0.91    0.12
  -4  -8 -14    0.95    0.11
  -4  -8 -14    0.84    0.13
   4   8  14    0.63    0.23
  -3  -3  15   16.83    0.88
  -3  -3  15   15.90    0.67
  -3  -3  15   16.38    0.64
  -3  -3  15   15.67    0.60
  -2  -3  15    9.07    0.45
  -2  -3  15    9.51    0.65
  -2  -3  15    9.69    0.41
   1   3 -15    0.26    0.46
   1   3 -15    0.52    0.25
  -1  -3  15    0.66    0.15
  -1  -3  15    0.59    0.23
   4   2 -15    5.33    0.26
   4   2 -15    4.50    0.30
  -4  -2  15    4.74    0.27
  -4  -2  15    4.76    0.45
   3   2 -15   12.58    1.23
   3   2 -15   13.47    0.53
  -3  -2  15   13.27    0.53
  -3  -2  15   13.26    0.84
  -3  -2  15   14.02    0.57
  -3  -2  15   13.50    0.54
   2   2 -15   15.08    0.95
   2   2 -15   17.59    1.52
  -2  -2  15   18.81    0.70
  -2  -2  15   18.02    0.73
  -2  -2  15   17.82    0.72
  -2  -2  15   17.98    1.03
   1   2 -15   34.05    1.64
   1   2 -15   39.28    2.33
  -1  -2  15   38.49    1.40
  -1  -2  15   39.17    1.37
  -1  -2  15   39.19    1.76
   0   2 -15   33.63    2.14
   0   2 -15   29.88    1.08
   0   2 -15   28.02    1.41
   0  -2  15   32.31    1.15
   0  -2  15   32.30    1.51
  -1   2 -15   13.90    1.39
  -1   2 -15   10.93    0.75
  -1   2 -15   12.07    0.50
   1  -2  15   13.56    0.66
   1  -2  15   13.61    0.82
   4   1 -15   31.24    1.12
   4   1 -15   31.51    1.14
  -4  -1  15   28.13    1.33
   3   1 -15   11.32    0.49
   3   1 -15   11.14    0.50
   3   1 -15   11.07    0.53
  -3  -1  15    9.89    0.44
  -3  -1  15   10.77    0.48
  -3  -1  15   10.73    0.79
  -3  -1  15   10.43    0.45
   2   1 -15    3.78    0.30
   2   1 -15    3.38    0.26
  -2  -1  15    3.20    0.49
  -2  -1  15    3.34    0.28
  -2  -1  15    3.44    0.30
  -2  -1  15    3.48    0.28
   1   1 -15    0.21    0.26
   1   1 -15    0.31    0.16
   1   1 -15    0.60    0.64
  -1  -1  15    0.17    0.14
  -1  -1  15    0.30    0.12
  -1  -1  15    0.12    0.24
  -1  -1  15    0.27    0.12
   0   1 -15    0.11    0.20
   0   1 -15    0.19    0.62
   0   1 -15    0.13    0.25
   0  -1  15    0.15    0.11
   0  -1  15    0.24    0.24
   0  -1  15    0.17    0.11
   0  -1  15    0.18    0.16
  -1   1 -15    0.20    0.16
  -1   1 -15    0.14    0.23
  -1   1 -15    0.23    0.61
   1  -1  15    0.34    0.20
   1  -1  15    0.46    0.25
   1  -1  15    0.25    0.10
  -2   1 -15   11.01    0.47
  -2   1 -15   10.88    1.24
  -2   1 -15   10.18    0.71
   2  -1  15   11.54    0.61
   2  -1  15   11.22    0.73
   4   0 -15    4.51    0.33
   4   0 -15    3.96    0.35
   4   0 -15    4.16    0.33
  -4   0  15    3.28    0.41
  -4   0  15    3.34    0.42
   3   0 -15   16.67    0.69
   3   0 -15   17.03    0.69
   3   0 -15   17.48    0.71
  -3   0  15   15.40    0.62
  -3   0  15   15.71    0.78
  -3   0  15   15.62    0.58
  -3   0  15   14.80    0.96
   2   0 -15   29.41    1.10
   2   0 -15   28.81    1.08
   2   0 -15   30.51    1.07
  -2   0  15   26.24    1.15
  -2   0  15   27.30    0.98
  -2   0  15   27.05    1.00
  -2   0  15   26.16    0.96
  -2   0  15   25.94    1.40
   1   0 -15   29.61    1.04
   1   0 -15   27.20    1.48
   1   0 -15   29.78    1.07
   1   0 -15   29.75    1.06
  -1   0  15   25.51    0.98
  -1   0  15   26.17    0.99
  -1   0  15   26.90    0.96
  -1   0  15   25.49    1.38
  -1   0  15   26.23    1.16
   0   0 -15   51.31    1.71
   0   0 -15   47.35    2.15
   0   0  15   46.16    1.82
   0   0  15   47.42    1.59
   0   0  15   43.50    2.00
   0   0  15   45.23    1.62
  -1   0 -15   29.04    1.08
  -1   0 -15   28.70    1.48
  -1   0 -15   31.21    2.30
   1   0  15   29.73    1.27
   1   0  15   29.11    1.07
   1   0  15   29.31    1.14
  -2   0 -15    6.24    1.12
  -2   0 -15    6.54    0.35
  -2   0 -15    6.33    0.60
   2   0  15    7.29    0.52
  -3   0 -15    3.07    0.25
  -3   0 -15    2.79    0.41
   4  -1 -15   17.24    0.68
   4  -1 -15   17.31    0.72
  -4   1  15   10.81    0.73
  -4   1  15   13.02    0.76
  -4   1  15   12.57    0.62
   3  -1 -15   13.48    0.62
   3  -1 -15   15.15    0.61
  -3   1  15   10.35    0.78
  -3   1  15   12.65    0.69
  -3   1  15   11.85    0.63
  -3   1  15   11.27    0.77
   2  -1 -15   27.41    1.02
   2  -1 -15   27.68    0.99
   2  -1 -15   25.62    1.00
  -2   1  15   22.68    1.23
  -2   1  15   23.50    0.87
  -2   1  15   25.54    0.92
  -2   1  15   24.59    0.89
  -2   1  15   25.04    1.12
   1  -1 -15    0.59    0.15
   1  -1 -15    0.49    0.14
   1  -1 -15    0.62    0.16
  -1   1  15    0.59    0.13
  -1   1  15    0.50    0.12
  -1   1  15    0.47    0.12
  -1   1  15    0.53    0.21
   0  -1 -15   11.13    0.47
   0  -1 -15    9.89    0.81
   0  -1 -15   10.08    0.48
   0  -1 -15   10.96    0.48
   0   1  15   10.27    0.65
   0   1  15    9.05    0.45
   0   1  15    9.48    0.44
   0   1  15    9.18    0.46
  -1  -1 -15   15.29    1.01
  -1  -1 -15   16.05    0.63
   1   1  15   14.62    0.63
   1   1  15   14.67    0.81
   1   1  15   14.90    0.60
  -2  -1 -15   15.01    0.89
  -2  -1 -15   15.13    1.47
  -2  -1 -15   15.44    0.63
  -2  -1 -15   15.24    0.99
   2   1  15   15.02    0.80
   2   1  15   15.89    0.62
  -3  -1 -15   28.16    1.01
  -3  -1 -15   26.37    1.35
  -3  -1 -15   28.00    1.31
   3   1  15   26.81    1.15
  -4  -1 -15   20.43    1.00
  -4  -1 -15   18.86    1.01
  -4  -1 -15   19.72    0.74
   4   1  15   20.06    0.87
   4  -2 -15    2.33    0.22
  -4   2  15    1.35    0.28
  -4   2  15    1.86    0.25
   3  -2 -15   15.33    0.65
   3  -2 -15   15.63    0.67
  -3   2  15   13.13    0.74
  -3   2  15   11.48    0.79
  -3   2  15   12.70    0.70
   2  -2 -15   24.26    0.92
   2  -2 -15   24.89    0.95
  -2   2  15   19.30    0.75
  -2   2  15   21.35    1.06
  -2   2  15   20.11    1.00
  -2   2  15   19.55    1.10
   1  -2 -15   23.42    0.88
   1  -2 -15   22.75    0.90
   1  -2 -15   24.36    0.91
  -1   2  15   20.15    1.14
  -1   2  15   21.77    0.80
  -1   2  15   20.91    0.78
  -1   2  15   20.91    0.82
  -1   2  15   22.14    1.09
   0  -2 -15   14.85    1.23
   0  -2 -15   15.11    0.64
   0  -2 -15   15.18    0.64
   0  -2 -15   16.69    0.62
   0   2  15   14.42    0.58
   0   2  15   14.14    0.61
   0   2  15   14.14    0.60
   0   2  15   14.79    0.84
  -1  -2 -15   35.36    1.68
  -1  -2 -15   36.08    1.79
  -1  -2 -15   37.62    1.33
  -1  -2 -15   38.90    1.31
   1   2  15   32.62    1.18
   1   2  15   33.53    1.33
   1   2  15   32.18    1.21
   1   2  15   34.09    1.47
  -2  -2 -15   18.36    0.70
  -2  -2 -15   17.99    1.11
  -2  -2 -15   17.89    1.04
   2   2  15   16.33    0.64
   2   2  15   15.69    0.67
   2   2  15   16.60    0.85
  -3  -2 -15    1.61    0.37
  -3  -2 -15    1.68    0.19
  -3  -2 -15    1.83    0.39
   3   2  15    1.97    0.31
   3   2  15    1.58    0.16
  -4  -2 -15    0.57    0.26
  -4  -2 -15    0.89    0.32
  -4  -2 -15    0.68    0.15
   4   2  15    0.60    0.20
  -5  -2 -15    0.24    0.23
  -5  -2 -15    0.14    0.18
   3  -3 -15    2.11    0.21
  -3   3  15    1.55    0.32
  -3   3  15    1.73    0.29
  -3   3  15    1.45    0.16
  -3   3  15    1.72    0.31
   2  -3 -15    1.69    0.21
   2  -3 -15    1.40    0.18
  -2   3  15    1.61    0.35
  -2   3  15    1.30    0.32
  -2   3  15    1.09    0.29
   1  -3 -15    0.53    0.28
   1  -3 -15    0.39    0.15
   1  -3 -15    0.38    0.14
  -1   3  15    0.29    0.11
  -1   3  15    0.35    0.10
  -1   3  15    0.48    0.24
  -1   3  15    0.38    0.21
   0  -3 -15    7.33    0.41
   0  -3 -15    7.32    0.39
   0  -3 -15    7.52    0.70
   0  -3 -15    7.44    0.38
   0   3  15    6.40    0.32
   0   3  15    4.86    0.55
   0   3  15    6.44    0.33
   0   3  15    6.58    0.35
   0   3  15    6.71    0.56
  -1  -3 -15   11.29    0.86
  -1  -3 -15   12.28    0.52
  -1  -3 -15   12.49    0.53
  -1  -3 -15   12.44    0.54
   1   3  15   10.35    0.47
   1   3  15    9.53    0.65
   1   3  15    9.92    0.46
   1   3  15   10.03    0.44
   1   3  15   10.40    0.81
  -2  -3 -15   21.32    1.27
  -2  -3 -15   24.31    0.89
  -2  -3 -15   23.85    1.28
  -2  -3 -15   24.53    0.87
   2   3  15   19.26    0.72
   2   3  15   18.97    0.75
   2   3  15   18.73    1.11
   2   3  15   18.29    0.93
  -3  -3 -15   27.90    1.34
  -3  -3 -15   25.04    1.36
   3   3  15   23.55    0.88
   3   3  15   21.64    1.02
   3   3  15   23.80    0.86
  -4  -3 -15   23.55    0.91
  -4  -3 -15   24.09    1.26
  -4  -3 -15   26.96    1.25
   4   3  15   20.71    0.93
   4   3  15   22.62    0.81
  -5  -3 -15    8.63    0.59
  -5  -3 -15    7.97    0.37
  -5  -3 -15    7.76    0.59
  -3   4  15    2.82    0.36
  -3   4  15    2.60    0.22
  -3   4  15    2.86    0.34
  -3   4  15    3.33    0.34
   2  -4 -15   12.15    1.20
   2  -4 -15   11.88    0.53
  -2   4  15    9.40    0.64
  -2   4  15    8.07    0.40
  -2   4  15    8.44    0.61
  -2   4  15    8.27    0.63
   1  -4 -15   41.64    1.85
   1  -4 -15   41.35    1.50
   1  -4 -15   43.19    1.49
  -1   4  15   34.91    1.48
  -1   4  15   29.26    1.46
  -1   4  15   32.93    1.46
   0  -4 -15   26.74    1.40
   0  -4 -15   28.07    1.02
   0  -4 -15   28.47    1.05
   0   4  15   23.06    0.81
   0   4  15   22.68    0.83
   0   4  15   19.29    1.11
   0   4  15   23.85    1.13
   0   4  15   21.29    1.08
  -1  -4 -15   16.70    0.69
  -1  -4 -15   17.56    0.71
  -1  -4 -15   17.05    1.05
  -1  -4 -15   17.29    0.68
   1   4  15   14.22    0.58
   1   4  15   14.43    0.57
   1   4  15   13.37    0.79
   1   4  15   14.68    0.60
   1   4  15   14.50    1.00
  -2  -4 -15    2.34    0.43
  -2  -4 -15    2.61    0.23
  -2  -4 -15    2.67    0.24
  -2  -4 -15    2.36    0.20
   2   4  15    1.64    0.17
   2   4  15    1.84    0.19
   2   4  15    1.56    0.29
   2   4  15    1.75    0.16
   2   4  15    1.86    0.44
  -3  -4 -15   -0.08    0.19
  -3  -4 -15    0.47    0.31
  -3  -4 -15    0.14    0.14
   3   4  15    0.10    0.22
   3   4  15   -0.02    0.10
   3   4  15    0.14    0.11
   3   4  15    0.15    0.15
   3   4  15    0.02    0.10
  -4  -4 -15    2.70    0.46
  -4  -4 -15    2.70    0.42
   4   4  15    2.41    0.44
   4   4  15    2.07    0.18
   4   4  15    2.65    0.23
  -5  -4 -15    1.13    0.28
  -5  -4 -15    1.72    0.31
   5   4  15    1.54    0.33
   5   4  15    1.05    0.13
   2  -5 -15    5.43    0.59
  -2   5  15    1.95    0.32
  -2   5  15    1.91    0.32
  -2   5  15    1.72    0.16
  -2   5  15    1.95    0.29
   1  -5 -15    0.24    0.40
   1  -5 -15   -0.04    0.15
  -1   5  15    0.06    0.18
  -1   5  15    0.00    0.09
  -1   5  15    0.04    0.16
  -1   5  15    0.07    0.19
   0  -5 -15    2.35    0.21
   0  -5 -15    1.95    0.21
   0  -5 -15    1.76    0.44
   0   5  15    1.40    0.30
   0   5  15    1.47    0.37
   0   5  15    1.34    0.26
   0   5  15    1.30    0.30
  -1  -5 -15    8.93    0.79
  -1  -5 -15    8.89    0.46
  -1  -5 -15    8.75    0.43
  -1  -5 -15    9.04    0.43
   1   5  15    6.23    0.46
   1   5  15    7.81    0.71
   1   5  15    7.37    0.37
   1   5  15    6.90    0.51
   1   5  15    6.28    0.54
   1   5  15    7.73    0.34
  -2  -5 -15    8.98    0.77
  -2  -5 -15    9.11    0.46
  -2  -5 -15    9.82    0.44
  -2  -5 -15    9.34    0.43
   2   5  15    8.02    0.37
   2   5  15    7.13    0.49
   2   5  15    7.78    0.73
   2   5  15    8.01    0.38
   2   5  15    7.69    0.39
  -3  -5 -15   16.29    0.62
  -3  -5 -15   15.70    0.65
  -3  -5 -15   16.06    0.62
  -3  -5 -15   16.04    0.97
   3   5  15   11.57    0.50
   3   5  15   11.80    0.51
   3   5  15   12.16    0.87
   3   5  15   11.95    0.49
  -4  -5 -15   19.55    1.10
  -4  -5 -15   22.99    1.10
  -4  -5 -15   22.80    0.78
   4   5  15   17.40    1.00
   4   5  15   17.45    0.68
   4   5  15   18.42    0.70
   4   5  15   18.49    0.67
  -5  -5 -15   16.91    0.90
  -5  -5 -15   18.44    0.88
   5   5  15   14.22    0.59
   5   5  15   15.50    0.57
   5   5  15   15.64    0.85
   1  -6 -15   13.14    0.86
  -1   6  15    7.89    0.54
  -1   6  15    7.56    0.46
   0  -6 -15    7.03    0.41
   0  -6 -15    6.81    0.72
   0  -6 -15    7.58    0.40
   0   6  15    5.13    0.52
   0   6  15    4.79    0.45
   0   6  15    4.79    0.38
  -1  -6 -15    7.81    0.74
  -1  -6 -15    8.75    0.53
  -1  -6 -15    9.05    0.43
   1   6  15    6.86    0.66
   1   6  15    5.84    0.41
   1   6  15    5.57    0.58
  -2  -6 -15    6.63    0.37
  -2  -6 -15    6.98    0.66
  -2  -6 -15    6.74    0.39
  -2  -6 -15    6.63    0.36
   2   6  15    5.31    0.60
   2   6  15    5.44    0.31
  -3  -6 -15   -0.10    0.13
  -3  -6 -15   -0.12    0.11
  -3  -6 -15   -0.03    0.12
  -3  -6 -15   -0.01    0.26
   3   6  15    0.09    0.10
   3   6  15   -0.10    0.08
   3   6  15   -0.12    0.21
   3   6  15   -0.06    0.09
  -4  -6 -15    6.03    0.32
  -4  -6 -15    5.98    0.56
   4   6  15    4.91    0.51
   4   6  15    4.09    0.26
   4   6  15    4.51    0.25
   4   6  15    4.59    0.27
  -5  -6 -15    4.35    0.44
   5   6  15    3.89    0.24
   5   6  15    3.59    0.41
   5   6  15    4.03    0.28
  -1  -7 -15   12.68    0.52
  -1  -7 -15   11.94    0.61
  -1  -7 -15   12.79    0.76
   1   7  15    8.12    0.60
   1   7  15    7.67    0.51
  -2  -7 -15   15.96    0.86
  -2  -7 -15   14.81    0.62
  -2  -7 -15   16.13    0.64
  -2  -7 -15   16.12    0.61
   2   7  15   11.13    0.72
   2   7  15    9.70    0.59
  -3  -7 -15   14.27    0.79
  -3  -7 -15   14.31    0.56
  -3  -7 -15   14.35    0.58
   3   7  15   10.25    0.69
   3   7  15    9.91    0.40
  -4  -7 -15    6.18    0.56
  -4  -7 -15    6.38    0.31
   4   7  15    5.03    0.25
   4   7  15    4.87    0.45
   3   1 -16   -0.06    0.12
  -3  -1  16   -0.02    0.09
   2   1 -16    0.88    0.56
   2   1 -16    0.99    0.14
  -2  -1  16    0.78    0.13
  -2  -1  16    0.98    0.28
  -2  -1  16    0.87    0.13
  -2  -1  16    0.98    0.15
   1   1 -16    0.95    0.32
   1   1 -16    1.30    0.64
  -1  -1  16    0.96    0.15
  -1  -1  16    0.82    0.13
  -1  -1  16    1.21    0.30
  -1  -1  16    0.94    0.15
   0   1 -16    8.79    0.69
   0   1 -16   11.02    1.29
   0  -1  16    9.57    0.52
   0  -1  16   10.03    0.43
   0  -1  16    9.88    0.45
   0  -1  16    8.91    0.63
  -1   1 -16   23.18    1.61
  -1   1 -16   20.52    1.08
   3   0 -16   13.40    0.55
   3   0 -16   13.48    0.53
   3   0 -16   12.67    0.57
  -3   0  16    9.98    0.81
  -3   0  16   10.86    0.43
   2   0 -16   11.38    0.53
   2   0 -16   11.75    0.51
  -2   0  16   10.02    0.54
  -2   0  16   10.98    0.45
  -2   0  16    9.96    0.43
  -2   0  16   10.33    0.47
  -2   0  16    9.07    0.67
   1   0 -16   31.93    1.14
  -1   0  16   28.96    1.06
  -1   0  16   29.39    1.21
  -1   0  16   30.27    1.04
  -1   0  16   30.35    1.08
  -1   0  16   25.92    1.36
   0   0 -16   11.46    0.85
   0   0 -16   12.97    1.52
   0   0  16   11.78    0.56
   0   0  16   12.13    0.51
   0   0  16   11.48    0.64
  -1   0 -16    1.36    0.34
  -1   0 -16    1.36    0.65
   1   0  16    1.31    0.17
   1   0  16    1.48    0.26
   1   0  16    1.41    0.16
  -2   0 -16    0.69    0.14
  -2   0 -16    0.85    0.27
  -2   0 -16    0.72    0.47
   2   0  16    0.94    0.21
   2   0  16    0.63    0.22
   3  -1 -16    3.40    0.29
   3  -1 -16    2.95    0.23
   3  -1 -16    2.75    0.23
  -3   1  16    2.78    0.31
   2  -1 -16    5.51    0.35
   2  -1 -16    5.17    0.38
   2  -1 -16    5.28    0.34
  -2   1  16    4.96    0.26
  -2   1  16    4.46    0.30
  -2   1  16    4.15    0.39
  -2   1  16    5.11    0.44
   1  -1 -16    6.21    0.38
   1  -1 -16    6.24    0.36
   1  -1 -16    6.17    0.38
  -1   1  16    5.50    0.35
  -1   1  16    5.32    0.45
  -1   1  16    5.46    0.33
  -1   1  16    5.42    0.32
   0  -1 -16   13.95    0.92
   0  -1 -16   15.45    0.61
   0   1  16   14.12    0.60
   0   1  16   13.07    0.58
   0   1  16   14.36    0.76
   0   1  16   14.42    0.58
  -1  -1 -16   24.33    1.87
  -1  -1 -16   22.67    1.25
   1   1  16   24.62    0.92
   1   1  16   23.26    1.07
   1   1  16   24.48    0.90
  -2  -1 -16   10.78    0.76
  -2  -1 -16   10.59    1.17
   2   1  16   11.45    0.49
   2   1  16   11.24    0.63
   2   1  16   12.03    0.58
  -3  -1 -16    6.42    0.56
  -3  -1 -16    7.36    0.36
   3   1  16    7.30    0.45
   3  -2 -16   21.99    0.81
   3  -2 -16   21.24    0.84
  -3   2  16   16.14    0.76
  -3   2  16   15.68    0.85
  -3   2  16   17.27    0.78
   2  -2 -16   20.80    0.81
   2  -2 -16   20.47    0.80
   2  -2 -16   20.66    0.79
  -2   2  16   17.93    0.86
  -2   2  16   16.37    0.93
  -2   2  16   18.50    0.90
   1  -2 -16   11.15    0.55
   1  -2 -16   11.46    0.51
   1  -2 -16   11.43    0.52
  -1   2  16   10.51    0.66
  -1   2  16   10.24    0.48
  -1   2  16    9.91    0.44
   0  -2 -16    8.01    0.41
   0  -2 -16    8.31    0.42
   0  -2 -16    8.29    0.43
   0   2  16    7.66    0.56
   0   2  16    7.62    0.40
   0   2  16    7.27    0.38
   0   2  16    7.22    0.37
  -1  -2 -16    0.18    0.23
  -1  -2 -16    0.20    0.16
  -1  -2 -16    0.28    0.27
   1   2  16    0.53    0.21
   1   2  16    0.18    0.12
   1   2  16    0.25    0.11
   1   2  16    0.23    0.11
  -2  -2 -16    0.72    0.28
  -2  -2 -16    0.26    0.53
  -2  -2 -16    0.44    0.29
   2   2  16    0.49    0.13
   2   2  16    0.71    0.22
   2   2  16    0.94    0.15
  -3  -2 -16    2.21    0.39
  -3  -2 -16    2.27    0.42
   3   2  16    2.28    0.41
   3   2  16    2.35    0.19
   3   2  16    2.08    0.28
   2  -3 -16    0.31    0.18
   2  -3 -16    0.16    0.15
  -2   3  16    0.12    0.18
  -2   3  16    0.17    0.18
  -2   3  16    0.16    0.18
   1  -3 -16    3.63    0.26
   1  -3 -16    3.84    0.29
   1  -3 -16    3.96    0.33
  -1   3  16    3.00    0.40
  -1   3  16    3.75    0.42
  -1   3  16    3.19    0.41
  -1   3  16    3.42    0.26
   0  -3 -16    2.57    0.40
   0  -3 -16    3.17    0.25
   0  -3 -16    2.80    0.22
   0  -3 -16    3.15    0.28
   0   3  16    2.44    0.21
   0   3  16    2.78    0.26
   0   3  16    2.62    0.19
   0   3  16    2.87    0.41
  -1  -3 -16   21.55    0.81
  -1  -3 -16   20.83    1.14
  -1  -3 -16   22.51    0.84
   1   3  16   17.39    0.70
   1   3  16   18.32    0.91
   1   3  16   18.62    0.69
   1   3  16   17.82    0.72
  -2  -3 -16   28.89    1.46
  -2  -3 -16   30.79    1.45
  -2  -3 -16   32.12    1.09
   2   3  16   24.73    1.10
   2   3  16   26.00    1.28
   2   3  16   27.07    0.94
   2   3  16   24.91    0.95
   2   3  16   25.71    0.96
  -3  -3 -16   11.01    0.76
  -3  -3 -16   10.66    0.76
   3   3  16    9.74    0.42
   3   3  16    8.78    0.52
   3   3  16   10.11    0.45
   3   3  16    9.02    0.67
  -4  -3 -16    2.00    0.37
  -4  -3 -16    2.26    0.35
   4   3  16    1.88    0.34
   4   3  16    1.85    0.16
  -2   4  16   12.42    0.64
  -2   4  16   10.90    0.68
  -2   4  16   11.70    0.63
   1  -4 -16   16.65    0.66
   1  -4 -16   16.23    0.68
   1  -4 -16   15.69    0.95
  -1   4  16   12.74    0.71
  -1   4  16   12.02    0.69
  -1   4  16   11.48    0.74
   0  -4 -16    8.57    0.44
   0  -4 -16    8.64    0.80
   0  -4 -16    8.88    0.46
   0  -4 -16    8.49    0.44
   0   4  16    7.44    0.35
   0   4  16    5.95    0.53
   0   4  16    6.23    0.49
   0   4  16    6.97    0.52
  -1  -4 -16    0.05    0.16
  -1  -4 -16    0.24    0.15
  -1  -4 -16    0.12    0.31
  -1  -4 -16    0.11    0.17
   1   4  16    0.09    0.17
   1   4  16    0.08    0.23
   1   4  16   -0.08    0.11
   1   4  16    0.03    0.10
   1   4  16    0.02    0.11
  -2  -4 -16    7.36    0.70
  -2  -4 -16    7.37    0.41
  -2  -4 -16    7.68    0.37
   2   4  16    5.63    0.32
   2   4  16    5.38    0.33
   2   4  16    5.46    0.56
   2   4  16    6.00    0.31
   2   4  16    5.18    0.42
  -3  -4 -16    0.53    0.25
  -3  -4 -16    0.56    0.30
   3   4  16    0.61    0.18
   3   4  16    0.58    0.12
   3   4  16    0.71    0.29
   3   4  16    0.43    0.11
   3   4  16    0.47    0.12
  -4  -4 -16    4.97    0.51
   4   4  16    3.68    0.42
   4   4  16    3.95    0.24
   4   4  16    3.86    0.26
   1  -5 -16    6.16    0.36
  -1   5  16    3.56    0.38
  -1   5  16    3.67    0.34
  -1   5  16    3.43    0.40
   0  -5 -16   11.49    0.50
   0  -5 -16   10.70    0.79
   0  -5 -16   11.19    0.52
   0  -5 -16   10.61    0.62
   0   5  16    6.49    0.44
   0   5  16    7.66    0.49
   0   5  16    7.55    0.55
  -1  -5 -16    6.22    0.64
  -1  -5 -16    5.95    0.36
  -1  -5 -16    6.57    0.38
  -1  -5 -16    5.74    0.37
   1   5  16    4.63    0.39
   1   5  16    5.62    0.30
   1   5  16    4.96    0.51
  -2  -5 -16   18.66    0.72
  -2  -5 -16   18.90    0.71
  -2  -5 -16   19.66    0.75
  -2  -5 -16   19.39    1.05
   2   5  16   14.16    0.90
   2   5  16   14.88    0.55
   2   5  16   12.70    0.67
   2   5  16   15.09    0.57
  -3  -5 -16   18.35    0.96
  -3  -5 -16   18.13    0.68
   3   5  16   14.86    0.57
   3   5  16   13.94    0.85
   3   5  16   14.37    0.54
   3   5  16   14.24    0.56
  -4  -5 -16    5.24    0.48
   4   5  16    4.28    0.45
   4   5  16    4.13    0.25
   4   5  16    4.21    0.26
   0  -6 -16    6.97    0.78
  -1  -6 -16    5.12    0.34
  -1  -6 -16    5.35    0.33
  -1  -6 -16    5.47    0.56
  -1  -6 -16    5.71    0.32
   1   6  16    3.88    0.42
  -2  -6 -16    0.39    0.13
  -2  -6 -16    0.23    0.25
  -2  -6 -16    0.34    0.12
  -2  -6 -16    0.26    0.14
   2   6  16    0.14    0.08
   2   6  16    0.35    0.23
  -3  -6 -16    1.08    0.27
  -3  -6 -16    1.15    0.12
  -3  -6 -16    1.10    0.14
   3   6  16    0.77    0.08
   3   6  16    0.73    0.26
   3   6  16    0.60    0.10
   1   0 -17    1.13    0.56
  -1   0  17    1.21    0.14
  -1   0  17    1.24    0.15
  -1   0  17    1.19    0.14
   0   0 -17    1.09    0.54
   0   0  17    1.03    0.13
   1  -1 -17    8.64    0.40
  -1   1  17    7.78    0.47
  -1   1  17    7.58    0.37
  -1   1  17    7.94    0.35
   0  -1 -17   14.05    1.36
   0   1  17   13.48    0.67
   0   1  17   13.35    0.52
   0   1  17   13.08    0.55
   0   1  17   12.99    0.54
  -1  -1 -17    8.65    1.05
   1   1  17    8.90    0.50
   1   1  17    9.35    0.40
   1   1  17    8.70    0.42
   1  -2 -17    1.59    0.19
   1  -2 -17    2.06    0.18
   1  -2 -17    1.89    0.17
  -1   2  17    1.62    0.26
  -1   2  17    1.65    0.15
  -1   2  17    1.81    0.28
   0  -2 -17    0.94    0.15
   0   2  17    0.64    0.12
   0   2  17    0.81    0.12
   0   2  17    0.72    0.21
  -1  -2 -17    0.17    0.44
   1   2  17    0.32    0.12
   1   2  17    0.61    0.19
   1   2  17    0.30    0.12
   1   2  17    0.45    0.11
   2   2  17    8.66    0.49
   2   2  17    8.50    0.41
   2   2  17    9.41    0.39
   1  -3 -17    9.90    0.46
  -1   3  17    8.57    0.51
  -1   3  17    8.29    0.51
   0  -3 -17   16.96    0.67
   0   3  17   13.31    0.69
   0   3  17   13.61    0.54
   0   3  17   13.82    0.70
  -1  -3 -17   14.39    0.54
  -1  -3 -17   11.51    0.88
   1   3  17   11.96    0.48
   1   3  17   12.06    0.50
   1   3  17   11.67    0.63
   1   3  17   12.13    0.49
  -2  -3 -17    3.67    0.46
   2   3  17    3.54    0.32
   2   3  17    3.42    0.26
   2   3  17    3.62    0.24
   2   3  17    3.86    0.26
   0  -4 -17    1.13    0.17
   0  -4 -17    1.22    0.16
   0   4  17    0.91    0.20
   0   4  17    1.03    0.22
  -1  -4 -17   -0.01    0.13
  -1  -4 -17    0.06    0.25
  -1  -4 -17   -0.07    0.12
   1   4  17    0.11    0.10
   1   4  17   -0.02    0.14
   1   4  17    0.03    0.15
  -2  -4 -17    1.64    0.16
  -2  -4 -17    1.75    0.32
   2   4  17    1.58    0.23
   2   4  17    1.16    0.12
   2   4  17    1.25    0.14
   0   0   0    0.00    0.00
;
_shelx_hkl_checksum              97501
loop_
_space_group_symop_operation_xyz
'x, y, z'
'-x, -y, -z'
loop_
_atom_site_label
_atom_site_type_symbol
_atom_site_fract_x
_atom_site_fract_y
_atom_site_fract_z
_atom_site_U_iso_or_equiv
_atom_site_adp_type
_atom_site_occupancy
_atom_site_site_symmetry_order
_atom_site_calc_flag
_atom_site_refinement_flags_posn
_atom_site_refinement_flags_adp
Au1 Au 0.05558(2) 0.75721(2) 0.10140(2) 0.02671(10) Uani 1 1 d . .
C1 C 0.0193(6) 0.7239(6) -0.0977(3) 0.0377(10) Uani 1 1 d . .
H1 H -0.0777 0.8318 -0.1082 0.045 Uiso 1 1 calc R U
C2 C 0.0604(7) 0.6367(7) -0.1680(3) 0.0418(11) Uani 1 1 d . .
H2 H -0.0077 0.6848 -0.2266 0.050 Uiso 1 1 calc R U
C3 C 0.1991(7) 0.4810(7) -0.1535(3) 0.0391(10) Uani 1 1 d . .
H3 H 0.2272 0.4201 -0.2015 0.047 Uiso 1 1 calc R U
C4 C 0.2987(6) 0.4124(6) -0.0675(3) 0.0321(9) Uani 1 1 d . .
H4 H 0.3955 0.3044 -0.0559 0.039 Uiso 1 1 calc R U
C5 C 0.2537(5) 0.5051(5) 0.0006(3) 0.0268(8) Uani 1 1 d . .
C6 C 0.3449(5) 0.4556(5) 0.0924(3) 0.0270(8) Uani 1 1 d . .
C7 C 0.2890(5) 0.5567(5) 0.1536(3) 0.0242(8) Uani 1 1 d . .
C8 C 0.4021(5) 0.5097(5) 0.2390(3) 0.0285(8) Uani 1 1 d . .
C9 C 0.5308(6) 0.3433(6) 0.2631(3) 0.0316(9) Uani 1 1 d . .
C10 C 0.5401(6) 0.2228(5) 0.2051(3) 0.0305(8) Uani 1 1 d . .
H10 H 0.6634 0.1319 0.2116 0.037 Uiso 1 1 calc R U
C11 C 0.4429(8) 0.0088(7) 0.2054(4) 0.0446(12) Uani 1 1 d . .
H11A H 0.4215 0.0436 0.1365 0.067 Uiso 1 1 calc R U
H11B H 0.3578 -0.0363 0.2337 0.067 Uiso 1 1 calc R U
H11C H 0.5642 -0.0783 0.2217 0.067 Uiso 1 1 calc R U
C12 C 0.3980(6) 0.6202(6) 0.2935(3) 0.0365(9) Uani 1 1 d . .
H12 H 0.3129 0.7341 0.2777 0.044 Uiso 1 1 calc R U
C13 C 0.5179(7) 0.5638(7) 0.3703(3) 0.0436(11) Uani 1 1 d . .
H13 H 0.5133 0.6399 0.4070 0.052 Uiso 1 1 calc R U
C14 C 0.6434(7) 0.4001(7) 0.3946(3) 0.0453(12) Uani 1 1 d . .
H14 H 0.7233 0.3626 0.4482 0.054 Uiso 1 1 calc R U
C15 C 0.6519(7) 0.2905(7) 0.3397(3) 0.0387(11) Uani 1 1 d . .
H15 H 0.7412 0.1783 0.3545 0.046 Uiso 1 1 calc R U
C16 C 0.2450(8) 0.1989(8) 0.4352(3) 0.0410(11) Uani 1 1 d . .
H16 H 0.3550 0.1773 0.3991 0.049 Uiso 1 1 calc R U
N1 N 0.1151(5) 0.6581(5) -0.0142(2) 0.0276(7) Uani 1 1 d . .
O1 O 0.4936(4) 0.3080(4) 0.1072(2) 0.0316(6) Uani 1 1 d . .
O2 O 0.4215(4) 0.1514(4) 0.2410(2) 0.0331(6) Uani 1 1 d . .
Cl1 Cl -0.21521(15) 0.97626(15) 0.02984(8) 0.0385(2) Uani 1 1 d . .
Cl2 Cl -0.01833(18) 0.84040(18) 0.23836(9) 0.0492(3) Uani 1 1 d . .
Cl3 Cl 0.0988(2) 0.40905(19) 0.39388(11) 0.0584(3) Uani 1 1 d . .
Cl4 Cl 0.3054(3) 0.1536(3) 0.55650(10) 0.0772(5) Uani 1 1 d . .
Cl5 Cl 0.1519(2) 0.06228(19) 0.41706(10) 0.0568(3) Uani 1 1 d . .
loop_
_atom_site_aniso_label
_atom_site_aniso_U_11
_atom_site_aniso_U_22
_atom_site_aniso_U_33
_atom_site_aniso_U_23
_atom_site_aniso_U_13
_atom_site_aniso_U_12
Au1 0.02698(13) 0.02337(14) 0.02726(13) -0.00377(8) 0.00486(8) -0.00958(9)
C1 0.035(2) 0.044(3) 0.028(2) -0.0024(19) -0.0007(17) -0.014(2)
C2 0.043(3) 0.056(3) 0.027(2) -0.004(2) 0.0016(18) -0.024(2)
C3 0.047(3) 0.051(3) 0.029(2) -0.012(2) 0.0123(18) -0.029(2)
C4 0.038(2) 0.034(2) 0.0306(19) -0.0074(17) 0.0109(17) -0.0221(19)
C5 0.028(2) 0.027(2) 0.0269(18) 0.0010(15) 0.0057(15) -0.0175(17)
C6 0.0271(19) 0.024(2) 0.0289(18) -0.0018(15) 0.0058(15) -0.0118(16)
C7 0.0230(18) 0.021(2) 0.0257(18) -0.0012(15) 0.0037(14) -0.0092(16)
C8 0.029(2) 0.031(2) 0.0298(19) -0.0042(16) 0.0066(16) -0.0186(18)
C9 0.034(2) 0.033(2) 0.030(2) -0.0011(17) 0.0074(17) -0.0189(19)
C10 0.0269(19) 0.028(2) 0.032(2) -0.0008(17) 0.0049(16) -0.0109(17)
C11 0.050(3) 0.038(3) 0.052(3) -0.014(2) 0.005(2) -0.022(2)
C12 0.044(2) 0.039(3) 0.035(2) -0.0084(19) 0.0061(19) -0.026(2)
C13 0.049(3) 0.053(3) 0.039(2) -0.016(2) 0.004(2) -0.029(3)
C14 0.047(3) 0.059(3) 0.033(2) -0.001(2) -0.003(2) -0.030(3)
C15 0.035(2) 0.046(3) 0.033(2) 0.002(2) -0.0001(18) -0.019(2)
C16 0.049(3) 0.055(3) 0.029(2) -0.007(2) 0.0049(19) -0.033(2)
N1 0.0316(18) 0.0293(19) 0.0237(16) -0.0062(14) 0.0066(13) -0.0148(15)
O1 0.0316(15) 0.0269(15) 0.0298(14) -0.0025(11) 0.0065(11) -0.0085(13)
O2 0.0404(16) 0.0295(15) 0.0343(14) -0.0051(12) 0.0086(12) -0.0212(13)
Cl1 0.0309(5) 0.0331(6) 0.0425(6) -0.0053(4) 0.0023(4) -0.0065(4)
Cl2 0.0472(7) 0.0497(7) 0.0355(6) -0.0175(5) 0.0056(5) -0.0019(6)
Cl3 0.0641(8) 0.0534(8) 0.0569(7) -0.0104(6) 0.0087(6) -0.0255(7)
Cl4 0.1183(15) 0.0946(13) 0.0356(6) -0.0028(7) -0.0128(8) -0.0654(12)
Cl5 0.0637(8) 0.0623(8) 0.0564(7) -0.0054(6) -0.0052(6) -0.0417(7)
loop_
_atom_type_symbol
_atom_type_description
_atom_type_scat_dispersion_real
_atom_type_scat_dispersion_imag
_atom_type_scat_source
C C 0.0181 0.0091 'International Tables Vol C Tables 4.2.6.8 and 6.1.1.4'
H H 0.0000 0.0000 'International Tables Vol C Tables 4.2.6.8 and 6.1.1.4'
Cl Cl 0.3639 0.7018 'International Tables Vol C Tables 4.2.6.8 and 6.1.1.4'
Au Au -4.4197 7.2980 'International Tables Vol C Tables 4.2.6.8 and 6.1.1.4'
N N 0.0311 0.0180 'International Tables Vol C Tables 4.2.6.8 and 6.1.1.4'
O O 0.0492 0.0322 'International Tables Vol C Tables 4.2.6.8 and 6.1.1.4'
loop_
_geom_angle_atom_site_label_1
_geom_angle_atom_site_label_2
_geom_angle_atom_site_label_3
_geom_angle
N1 Au1 C7 81.51(16)
N1 Au1 Cl2 173.01(10)
C7 Au1 Cl2 96.33(12)
N1 Au1 Cl1 93.32(11)
C7 Au1 Cl1 174.59(11)
Cl2 Au1 Cl1 88.62(4)
N1 C1 C2 120.8(5)
N1 C1 H1 119.6
C2 C1 H1 119.6
C3 C2 C1 120.0(4)
C3 C2 H2 120.0
C1 C2 H2 120.0
C2 C3 C4 119.4(4)
C2 C3 H3 120.3
C4 C3 H3 120.3
C5 C4 C3 118.5(4)
C5 C4 H4 120.7
C3 C4 H4 120.7
N1 C5 C4 121.6(4)
N1 C5 C6 112.5(4)
C4 C5 C6 125.9(4)
C7 C6 O1 124.7(4)
C7 C6 C5 120.9(4)
O1 C6 C5 114.3(3)
C6 C7 C8 117.6(4)
C6 C7 Au1 109.7(3)
C8 C7 Au1 132.7(3)
C12 C8 C9 118.6(4)
C12 C8 C7 125.0(4)
C9 C8 C7 116.2(4)
C15 C9 C8 120.2(4)
C15 C9 C10 120.0(4)
C8 C9 C10 119.8(4)
O2 C10 O1 110.3(3)
O2 C10 C9 107.5(3)
O1 C10 C9 110.9(3)
O2 C10 H10 109.4
O1 C10 H10 109.4
C9 C10 H10 109.4
O2 C11 H11A 109.5
O2 C11 H11B 109.5
H11A C11 H11B 109.5
O2 C11 H11C 109.5
H11A C11 H11C 109.5
H11B C11 H11C 109.5
C13 C12 C8 120.1(5)
C13 C12 H12 120.0
C8 C12 H12 120.0
C14 C13 C12 121.4(5)
C14 C13 H13 119.3
C12 C13 H13 119.3
C13 C14 C15 119.1(5)
C13 C14 H14 120.4
C15 C14 H14 120.4
C14 C15 C9 120.6(5)
C14 C15 H15 119.7
C9 C15 H15 119.7
Cl3 C16 Cl4 111.2(3)
Cl3 C16 Cl5 111.2(3)
Cl4 C16 Cl5 109.4(3)
Cl3 C16 H16 108.3
Cl4 C16 H16 108.3
Cl5 C16 H16 108.3
C1 N1 C5 119.6(4)
C1 N1 Au1 125.7(3)
C5 N1 Au1 114.4(3)
C6 O1 C10 114.0(3)
C10 O2 C11 113.4(3)
loop_
_geom_bond_atom_site_label_1
_geom_bond_atom_site_label_2
_geom_bond_distance
Au1 N1 2.034(3)
Au1 C7 2.041(4)
Au1 Cl2 2.2631(12)
Au1 Cl1 2.3625(11)
C1 N1 1.349(6)
C1 C2 1.380(7)
C1 H1 0.9500
C2 C3 1.367(8)
C2 H2 0.9500
C3 C4 1.394(7)
C3 H3 0.9500
C4 C5 1.382(6)
C4 H4 0.9500
C5 N1 1.352(6)
C5 C6 1.448(6)
C6 C7 1.351(6)
C6 O1 1.363(5)
C7 C8 1.463(6)
C8 C12 1.398(6)
C8 C9 1.399(7)
C9 C15 1.392(7)
C9 C10 1.498(6)
C10 O2 1.400(5)
C10 O1 1.435(5)
C10 H10 1.0000
C11 O2 1.432(6)
C11 H11A 0.9800
C11 H11B 0.9800
C11 H11C 0.9800
C12 C13 1.384(7)
C12 H12 0.9500
C13 C14 1.374(9)
C13 H13 0.9500
C14 C15 1.385(8)
C14 H14 0.9500
C15 H15 0.9500
C16 Cl3 1.740(6)
C16 Cl4 1.765(5)
C16 Cl5 1.766(5)
C16 H16 1.0000
