#------------------------------------------------------------------------------
#$Date: 2018-02-04 00:30:57 +0200 (Sun, 04 Feb 2018) $
#$Revision: 206135 $
#$URL: file:///home/coder/svn-repositories/cod/cif/4/51/43/4514333.cif $
#------------------------------------------------------------------------------
#
# This file is available in the Crystallography Open Database (COD),
# http://www.crystallography.net/
#
# All data on this site have been placed in the public domain by the
# contributors.
#
data_4514333
loop_
_publ_author_name
'Liu, Wei'
'Ulaganathan, Mani'
'Abdelwahab, Ibrahim'
'Luo, Xin'
'Chen, Zhongxin'
'Rong Tan, Sherman Jun'
'Wang, Xiaowei'
'Liu, Yanpeng'
'Geng, Dechao'
'Bao, Yang'
'Chen, Jianyi'
'Loh, Kian Ping'
_publ_section_title
;
 Two-Dimensional Polymer Synthesized via Solid-State Polymerization for
 High-Performance Supercapacitors.
;
_journal_issue                   1
_journal_name_full               'ACS nano'
_journal_page_first              852
_journal_page_last               860
_journal_paper_doi               10.1021/acsnano.7b08354
_journal_volume                  12
_journal_year                    2018
_chemical_formula_moiety         'C17 H7 Br2 N2'
_chemical_formula_sum            'C17 H7 Br2 N2'
_chemical_formula_weight         399.07
_space_group_crystal_system      triclinic
_space_group_IT_number           2
_space_group_name_Hall           '-P 1'
_space_group_name_H-M_alt        'P -1'
_symmetry_space_group_name_Hall  '-P 1'
_symmetry_space_group_name_H-M   'P -1'
_atom_sites_solution_hydrogens   geom
_audit_creation_method           SHELXL-2014/6
_cell_angle_alpha                96.687(3)
_cell_angle_beta                 96.766(2)
_cell_angle_gamma                95.701(2)
_cell_formula_units_Z            2
_cell_length_a                   3.8581(2)
_cell_length_b                   10.5438(6)
_cell_length_c                   16.1258(9)
_cell_measurement_reflns_used    2686
_cell_measurement_temperature    100(2)
_cell_measurement_theta_max      28.439
_cell_measurement_theta_min      2.476
_cell_volume                     642.72(6)
_computing_cell_refinement
'SHELXTL, Acta Cryst., Sect. A 2008, 64, 112-122.'
_computing_data_collection       'APEX v2014.11.0'
_computing_data_reduction        'Saint, APEX v2014.11.0.'
_computing_molecular_graphics    Ortep3
_computing_publication_material  'APEX v2014.11.0.'
_computing_structure_refinement  'SHELXL-2014/6 (Sheldrick, 2014)'
_computing_structure_solution
'SHELXT, Acta Cryst., Sect. A 2015, A71, 3-8.'
_diffrn_ambient_temperature      100(2)
_diffrn_measured_fraction_theta_full 0.999
_diffrn_measured_fraction_theta_max 0.993
_diffrn_measurement_device_type  'Bruker AXS D8 Venture '
_diffrn_measurement_method       'profile data from \q/2\q scans'
_diffrn_radiation_type           MoK\a
_diffrn_radiation_wavelength     0.71073
_diffrn_reflns_av_R_equivalents  0.0524
_diffrn_reflns_av_unetI/netI     0.0554
_diffrn_reflns_Laue_measured_fraction_full 0.999
_diffrn_reflns_Laue_measured_fraction_max 0.993
_diffrn_reflns_limit_h_max       4
_diffrn_reflns_limit_h_min       -5
_diffrn_reflns_limit_k_max       14
_diffrn_reflns_limit_k_min       -14
_diffrn_reflns_limit_l_max       21
_diffrn_reflns_limit_l_min       -21
_diffrn_reflns_number            13295
_diffrn_reflns_point_group_measured_fraction_full 0.999
_diffrn_reflns_point_group_measured_fraction_max 0.993
_diffrn_reflns_theta_full        25.242
_diffrn_reflns_theta_max         28.439
_diffrn_reflns_theta_min         2.476
_exptl_absorpt_coefficient_mu    6.298
_exptl_absorpt_correction_T_max  0.858
_exptl_absorpt_correction_T_min  0.304
_exptl_absorpt_correction_type   multi-scan
_exptl_absorpt_process_details   Sadabs
_exptl_crystal_colour            red
_exptl_crystal_density_diffrn    2.062
_exptl_crystal_description       'thin plate'
_exptl_crystal_F_000             386
_exptl_crystal_size_max          0.248
_exptl_crystal_size_mid          0.051
_exptl_crystal_size_min          0.025
_refine_diff_density_max         0.667
_refine_diff_density_min         -0.496
_refine_diff_density_rms         0.137
_refine_ls_extinction_method     none
_refine_ls_goodness_of_fit_ref   1.038
_refine_ls_hydrogen_treatment    constr
_refine_ls_matrix_type           full
_refine_ls_number_parameters     190
_refine_ls_number_reflns         3210
_refine_ls_number_restraints     0
_refine_ls_restrained_S_all      1.038
_refine_ls_R_factor_all          0.0643
_refine_ls_R_factor_gt           0.0352
_refine_ls_shift/su_max          0.001
_refine_ls_shift/su_mean         0.000
_refine_ls_structure_factor_coef Fsqd
_refine_ls_weighting_details
'w=1/[\s^2^(Fo^2^)+(0.0279P)^2^+0.3997P] where P=(Fo^2^+2Fc^2^)/3'
_refine_ls_weighting_scheme      calc
_refine_ls_wR_factor_gt          0.0600
_refine_ls_wR_factor_ref         0.0663
_reflns_Friedel_coverage         0.000
_reflns_number_gt                2420
_reflns_number_total             3210
_reflns_threshold_expression     'I > 2\s(I)'
_cod_data_source_file            nn7b08354_si_003.cif
_cod_data_source_block           shelx
_cod_depositor_comments
'Adding full bibliography for 4514332--4514333.cif.'
_cod_database_code               4514333
_shelx_space_group_comment
;
The symmetry employed for this shelxl refinement is uniquely defined
by the following loop, which should always be used as a source of
symmetry information in preference to the above space-group names.
They are only intended as comments.
;
_shelx_estimated_absorpt_t_min   0.304
_shelx_estimated_absorpt_t_max   0.858
_shelxl_version_number           2014/6
_shelx_res_file
;
TITL f257_final in P-1
CELL  0.71073   3.8581  10.5438  16.1258   96.687   96.766   95.701
ZERR     2.00   0.0002   0.0006   0.0009    0.003    0.002    0.002
LATT   1
SFAC  C    H    N    BR
UNIT  34 14 4 4
MERG   2
CONF
OMIT  0  -1   1
EQIV $1 -x+2, -y+1, -z+1
HTAB C3 Br1_$1
HTAB C3 Br1_$1
FMAP   2
PLAN    5
SIZE     0.025   0.051   0.248
ACTA
BOND   $H
L.S.   10000
TEMP  -173.15
WGHT    0.027900    0.399700
FVAR       0.10871
BR1   4    0.967647    0.242643    0.749260    11.00000    0.01812    0.01223 =
         0.01462    0.00444    0.00326    0.00532
BR2   4    0.261557    0.749315    1.044088    11.00000    0.02064    0.02214 =
         0.01010    0.00439    0.00559    0.00463
N1    3    0.590979    1.042553    0.337258    11.00000    0.01085    0.01056 =
         0.00971    0.00215    0.00132    0.00174
N2    3    0.646598    0.766423    0.550873    11.00000    0.01215    0.00991 =
         0.00915    0.00261    0.00093    0.00051
C1    1    0.516828    1.153777    0.314456    11.00000    0.00687    0.01356 =
         0.01074    0.00102    0.00041   -0.00045
C2    1    0.545491    1.022114    0.417557    11.00000    0.00986    0.01164 =
         0.00953    0.00066    0.00151   -0.00016
C3    1    0.616569    0.904899    0.444018    11.00000    0.01478    0.00759 =
         0.01255   -0.00249    0.00098    0.00249
AFIX  43
H3    2    0.694106    0.840844    0.406323    11.00000   -1.20000
AFIX   0
C4    1    0.573840    0.881898    0.525601    11.00000    0.00900    0.00976 =
         0.01129    0.00112    0.00070    0.00062
C5    1    0.602497    0.749014    0.629030    11.00000    0.00843    0.01170 =
         0.00955    0.00060   -0.00141    0.00074
C6    1    0.678525    0.627091    0.658425    11.00000    0.00847    0.00856 =
         0.01061    0.00137   -0.00144    0.00009
C7    1    0.791473    0.531767    0.603121    11.00000    0.01078    0.01274 =
         0.01253    0.00431    0.00044    0.00050
AFIX  43
H7    2    0.813088    0.546927    0.546929    11.00000   -1.20000
AFIX   0
C8    1    0.871947    0.416422    0.628481    11.00000    0.01213    0.01199 =
         0.01293   -0.00025    0.00040    0.00161
AFIX  43
H8    2    0.946429    0.351978    0.590513    11.00000   -1.20000
AFIX   0
C9    1    0.840733    0.397323    0.711339    11.00000    0.01004    0.00979 =
         0.01561    0.00256   -0.00154    0.00112
C10   1    0.726393    0.488527    0.767030    11.00000    0.00950    0.01452 =
         0.00932    0.00280    0.00131    0.00105
AFIX  43
H10   2    0.705955    0.472177    0.823054    11.00000   -1.20000
AFIX   0
C11   1    0.640177    0.605305    0.741284    11.00000    0.00810    0.01207 =
         0.01238    0.00309    0.00018    0.00050
C12   1    0.513480    0.704011    0.799036    11.00000    0.00805    0.01183 =
         0.01003   -0.00040    0.00119   -0.00276
C13   1    0.440157    0.822322    0.771701    11.00000    0.00963    0.01170 =
         0.00812   -0.00007    0.00204   -0.00050
C14   1    0.326826    0.917115    0.826900    11.00000    0.01283    0.01310 =
         0.01052    0.00365    0.00058    0.00386
AFIX  43
H14   2    0.282497    0.996937    0.808330    11.00000   -1.20000
AFIX   0
C15   1    0.278388    0.896695    0.907742    11.00000    0.01419    0.01416 =
         0.01283   -0.00057    0.00209    0.00248
AFIX  43
H15   2    0.201313    0.961456    0.944997    11.00000   -1.20000
AFIX   0
C16   1    0.344793    0.779145    0.933672    11.00000    0.01115    0.02100 =
         0.00890    0.00334    0.00080   -0.00105
C17   1    0.461161    0.684796    0.881569    11.00000    0.01214    0.01290 =
         0.01064    0.00158    0.00048    0.00044
AFIX  43
H17   2    0.506662    0.605944    0.901438    11.00000   -1.20000
AFIX   0
HKLF    4

REM  f257_final in P-1
REM R1 =  0.0352 for    2420 Fo > 4sig(Fo)  and  0.0643 for all    3210 data
REM    190 parameters refined using      0 restraints

END

WGHT      0.0280      0.3807

REM Highest difference peak  0.667,  deepest hole -0.496,  1-sigma level  0.137
Q1    1   0.2066  0.6753  1.0182  11.00000  0.05    0.67
Q2    1   0.8424  0.4575  0.7285  11.00000  0.05    0.67
Q3    1   0.8617  0.4807  0.6197  11.00000  0.05    0.55
Q4    1   0.6039  0.6858  0.6388  11.00000  0.05    0.55
Q5    1   0.0727  0.9970  0.9488  11.00000  0.05    0.55
;
_shelx_res_checksum              11300
_shelx_hkl_file
;
   1   0  -1   41.96    0.67
   1   0  -1   40.88    0.68
   1   0  -1   42.53    0.72
  -1   0   1   40.46    0.73
  -1   0   1   41.38    0.73
  -1   0   1   40.91    0.73
   2   0  -2   82.23    1.44
  -2   0   2   81.55    1.48
  -2   0   2   82.18    1.48
  -2   0   2   82.61    1.42
   3   0  -3   17.51    0.70
  -3   0   3   18.28    0.84
  -3   0   3   17.95    0.71
  -3   0   3   19.01    0.85
   4   0  -4   12.38    0.91
  -4   0   4   15.21    1.29
  -4   0   4   14.09    1.28
  -5   0   5   10.48    1.72
  -5   0   5   11.69    1.56
  -5  -1   5    0.76    1.45
  -4  -1   4    0.05    0.57
  -4  -1   4    0.38    0.75
  -4  -1   4   -0.06    0.68
  -4  -1   4    0.43    0.83
   4   1  -4    0.14    0.55
  -3  -1   3    0.33    0.36
  -3  -1   3    0.44    0.45
  -3  -1   3    0.50    0.39
  -3  -1   3    0.75    0.41
   3   1  -3    0.51    0.34
  -2  -1   2    0.23    0.20
  -2  -1   2    0.17    0.20
  -2  -1   2    0.01    0.21
   2   1  -2    0.09    0.13
   2   1  -2   -0.05    0.19
   2   1  -2   -0.06    0.17
  -1  -1   1   21.05    0.49
  -1  -1   1   21.68    0.51
  -1  -1   1   21.18    0.55
  -1  -1   1   20.40    0.53
   1   1  -1   21.79    0.48
   1   1  -1   21.69    0.47
   1   1  -1   21.40    0.53
   1  -1  -1    0.28    0.09
   1  -1  -1    0.33    0.10
   1  -1  -1    0.24    0.06
  -1   1   1    0.34    0.12
  -1   1   1    0.19    0.05
  -1   1   1    0.33    0.11
   2  -1  -2    1.54    0.18
  -2   1   2    1.81    0.19
  -2   1   2    2.11    0.28
  -2   1   2    1.83    0.26
   3  -1  -3    2.35    0.30
  -3   1   3    2.30    0.30
  -3   1   3    3.10    0.45
  -3   1   3    3.41    0.47
   4  -1  -4   -0.60    0.37
  -4   1   4    0.52    0.71
  -4   1   4    0.18    0.69
  -5   1   5   -0.49    1.61
  -5   1   5    0.81    1.25
  -4  -2   4   10.15    1.11
  -4  -2   4    9.64    1.00
  -4  -2   4    7.62    1.04
   4   2  -4    7.71    0.86
  -3  -2   3   14.95    1.12
  -3  -2   3   17.37    0.88
  -3  -2   3   18.42    0.90
  -3  -2   3   17.32    0.94
   3   2  -3   17.78    0.90
  -2  -2   2   57.52    1.21
  -2  -2   2   56.80    1.25
  -2  -2   2   56.84    1.27
  -2  -2   2   54.73    1.27
   2   2  -2   57.00    1.29
   2   2  -2   56.07    1.08
   2   2  -2   56.58    1.06
  -1  -2   1    0.67    0.15
  -1  -2   1    0.27    0.14
  -1  -2   1    0.44    0.17
  -1  -2   1    0.29    0.14
   1   2  -1    0.40    0.15
   1   2  -1    0.47    0.17
   1   2  -1    0.48    0.14
   1   2  -1    0.46    0.17
   0  -2   0  172.81    2.46
   0  -2   0  169.06    2.42
   0  -2   0  167.27    2.41
   0  -2   0  169.77    2.41
   0   2   0  164.43    2.40
   0   2   0  169.47    2.46
   0   2   0  174.52    2.43
   0   2   0  161.05    2.41
   1  -2  -1    7.06    0.28
   1  -2  -1    7.15    0.31
  -1   2   1    7.32    0.31
  -1   2   1    7.37    0.32
   2  -2  -2   61.03    0.98
  -2   2   2   60.07    1.20
  -2   2   2   60.80    1.25
  -3   2   3    1.15    0.40
  -3   2   3    2.11    0.43
  -4   2   4   13.38    1.18
  -4   2   4   15.68    1.24
  -5   2   5   16.89    2.02
  -5   2   5   10.90    1.81
  -4  -3   4   -0.24    0.82
  -4  -3   4   -1.07    0.79
  -4  -3   4    0.53    0.83
  -4  -3   4    0.12    0.76
   4   3  -4   -0.38    0.75
  -3  -3   3    0.00    0.47
  -3  -3   3    0.30    0.44
  -3  -3   3   -0.03    0.80
  -3  -3   3    0.08    0.43
   3   3  -3   -0.68    0.41
  -2  -3   2    0.35    0.28
  -2  -3   2    0.01    0.27
  -2  -3   2   -0.01    0.25
  -2  -3   2    0.56    0.24
   2   3  -2    0.12    0.27
   2   3  -2    0.26    0.25
   2   3  -2    0.05    0.21
  -1  -3   1    2.05    0.24
  -1  -3   1    1.64    0.25
  -1  -3   1    2.25    0.23
  -1  -3   1    2.22    0.28
   1   3  -1    2.03    0.25
   1   3  -1    2.40    0.28
   1   3  -1    2.40    0.28
   1   3  -1    2.25    0.27
   0  -3   0    1.79    0.23
   0  -3   0    1.63    0.22
   0  -3   0    1.87    0.23
   0  -3   0    1.96    0.24
   0   3   0    1.84    0.23
   0   3   0    1.72    0.22
   0   3   0    2.32    0.23
   0   3   0    1.63    0.20
   1  -3  -1   -0.16    0.07
   1  -3  -1   -0.16    0.15
   1  -3  -1   -0.21    0.13
  -1   3   1   -0.15    0.07
  -1   3   1   -0.17    0.14
  -1   3   1   -0.07    0.14
   2  -3  -2    2.73    0.28
   2  -3  -2    3.63    0.33
  -2   3   2    3.22    0.35
  -2   3   2    3.32    0.40
  -3   3   3    0.59    0.36
  -3   3   3   -0.17    0.41
  -4   3   4   -0.81    0.72
  -4   3   4    1.82    0.66
  -5   3   5    0.93    2.31
  -5   3   5   -0.72    1.19
  -4  -4   4   10.11    1.25
  -4  -4   4    9.45    1.08
  -4  -4   4    9.66    1.06
  -4  -4   4    7.47    1.10
  -3  -4   3   17.21    0.98
  -3  -4   3   15.31    1.05
  -3  -4   3   12.67    1.50
  -3  -4   3   14.15    1.07
   3   4  -3   16.53    0.67
   3   4  -3   16.04    1.04
   3   4  -3   16.89    0.74
  -2  -4   2   43.76    1.07
  -2  -4   2   43.92    1.27
  -2  -4   2   43.21    1.23
  -2  -4   2   44.17    1.15
   2   4  -2   45.56    1.31
   2   4  -2   43.79    1.10
   2   4  -2   42.93    1.08
  -1  -4   1    9.68    0.40
  -1  -4   1    9.70    0.53
  -1  -4   1    9.56    0.45
  -1  -4   1   10.17    0.55
   1   4  -1   10.22    0.54
   1   4  -1    9.11    0.49
   1   4  -1    9.20    0.45
   1   4  -1    9.53    0.50
   0  -4   0  117.74    1.97
   0  -4   0  115.25    1.94
   0  -4   0  116.51    1.93
   0  -4   0  117.54    2.03
   0   4   0  120.58    1.96
   0   4   0  115.52    2.02
   0   4   0  117.16    1.93
   0   4   0  118.34    1.92
   1  -4  -1    3.15    0.33
   1  -4  -1    2.78    0.33
   1  -4  -1    2.90    0.24
  -1   4   1    2.90    0.31
  -1   4   1    2.96    0.33
  -1   4   1    2.72    0.23
   2  -4  -2   82.60    1.46
   2  -4  -2   77.63    1.41
  -2   4   2   79.99    1.58
  -2   4   2   80.59    1.66
  -3   4   3    7.98    0.74
  -3   4   3    8.36    0.83
  -4   4   4   13.02    1.51
  -4   4   4   13.48    1.36
  -5   4   5    9.56    1.47
  -4  -5   4   -0.44    1.03
  -4  -5   4    2.47    0.98
  -4  -5   4    2.10    0.95
   4   5  -4    0.66    0.96
  -3  -5   3   -0.11    0.56
  -3  -5   3   -0.45    0.55
   3   5  -3   -0.25    0.39
   3   5  -3   -0.58    0.47
   3   5  -3   -0.20    0.53
  -2  -5   2    1.58    0.37
  -2  -5   2    1.36    0.48
  -2  -5   2    1.41    0.31
  -2  -5   2    1.50    0.45
   2   5  -2    1.58    0.41
   2   5  -2    1.40    0.34
   2   5  -2    1.16    0.35
  -1  -5   1    3.88    0.41
  -1  -5   1    3.47    0.42
  -1  -5   1    4.56    0.50
  -1  -5   1    3.90    0.37
   1   5  -1    4.03    0.46
   1   5  -1    3.98    0.41
   1   5  -1    3.59    0.41
   1   5  -1    4.32    0.48
   0  -5   0    1.25    0.29
   0  -5   0    1.47    0.28
   0  -5   0    1.42    0.28
   0  -5   0    1.56    0.27
   0   5   0    1.53    0.26
   0   5   0    1.33    0.27
   0   5   0    1.60    0.31
   0   5   0    1.25    0.24
   1  -5  -1    0.44    0.18
   1  -5  -1    0.48    0.23
   1  -5  -1    0.55    0.27
  -1   5   1    0.52    0.19
  -1   5   1    0.45    0.25
  -1   5   1    0.33    0.28
  -1   5   1    0.51    0.24
   2  -5  -2    1.95    0.36
   2  -5  -2    1.82    0.31
  -2   5   2    1.97    0.39
  -2   5   2    1.86    0.37
  -3   5   3    1.84    0.52
  -3   5   3    2.05    0.57
  -4   5   4   -1.61    0.81
  -4   5   4    0.50    0.70
  -4  -6   4    5.37    1.35
  -4  -6   4    4.76    0.97
  -4  -6   4    5.73    1.23
  -3  -6   3   15.59    1.32
  -3  -6   3   14.37    0.99
  -3  -6   3   16.00    1.29
  -3  -6   3   13.55    1.06
   3   6  -3   13.55    1.08
   3   6  -3   14.70    0.94
  -2  -6   2   12.51    0.97
  -2  -6   2   16.20    0.85
  -2  -6   2   15.60    1.01
  -2  -6   2   15.61    0.71
   2   6  -2   15.11    0.82
   2   6  -2   16.29    0.90
   2   6  -2   15.79    0.92
  -1  -6   1   23.20    0.94
  -1  -6   1   23.66    0.76
  -1  -6   1   23.52    0.98
   1   6  -1   23.27    0.89
   1   6  -1   23.21    0.81
   1   6  -1   22.59    0.94
   1   6  -1   21.82    0.86
   0  -6   0  115.12    2.24
   0  -6   0  117.53    2.12
   0  -6   0  113.04    2.14
   0   6   0  111.94    2.21
   0   6   0  116.47    2.09
   0   6   0  115.33    2.10
   0   6   0  119.33    2.15
   1  -6  -1    0.06    0.26
   1  -6  -1    0.09    0.22
   1  -6  -1    0.24    0.31
  -1   6   1    0.03    0.28
  -1   6   1   -0.12    0.29
  -1   6   1    0.33    0.27
  -1   6   1    0.08    0.20
   2  -6  -2   68.54    1.49
   2  -6  -2   69.19    1.54
  -2   6   2   70.09    1.62
   3  -6  -3   10.32    0.62
  -3   6   3   12.23    1.05
  -3   6   3    9.78    0.88
  -4   6   4   13.86    1.38
  -4   6   4   10.25    1.31
  -4  -7   4    1.60    1.29
  -4  -7   4   -0.26    1.41
  -3  -7   3    0.39    0.77
  -3  -7   3   -0.67    0.54
  -3  -7   3    0.15    0.77
  -3  -7   3    1.63    0.72
   3   7  -3   -0.37    0.98
   3   7  -3   -0.99    0.67
   3   7  -3    0.16    0.77
  -2  -7   2   -0.17    0.50
  -2  -7   2   -0.23    0.37
  -2  -7   2   -0.50    0.50
   2   7  -2    0.61    0.51
   2   7  -2    0.71    0.54
   2   7  -2   -0.26    0.39
   2   7  -2    0.73    0.47
  -1  -7   1    2.40    0.48
  -1  -7   1    2.79    0.54
  -1  -7   1    2.53    0.40
  -1  -7   1    2.23    0.43
   1   7  -1    1.93    0.46
   1   7  -1    2.00    0.42
   1   7  -1    1.14    0.40
   1   7  -1    2.06    0.45
   0  -7   0    3.03    0.49
   0  -7   0    3.33    0.45
   0  -7   0    2.80    0.44
   0   7   0    2.92    0.40
   0   7   0    4.27    0.52
   0   7   0    3.12    0.41
   0   7   0    3.53    0.44
   1  -7  -1    0.42    0.41
   1  -7  -1    0.92    0.29
   1  -7  -1    0.40    0.34
  -1   7   1    0.47    0.36
  -1   7   1    0.19    0.27
  -1   7   1    0.68    0.34
  -1   7   1    0.91    0.37
   2  -7  -2    2.09    0.46
   2  -7  -2    2.25    0.50
  -2   7   2    2.26    0.51
  -2   7   2    1.52    0.50
  -2   7   2    2.43    0.26
  -2   7   2    1.96    0.59
   3  -7  -3    0.43    0.41
   3  -7  -3    0.50    0.37
  -3   7   3    1.37    0.67
  -3   7   3    0.61    0.90
  -4   7   4   -0.49    0.82
  -4   7   4    0.89    1.12
  -3  -8   3    9.34    1.27
  -3  -8   3    6.33    1.26
  -3  -8   3   10.72    1.26
  -3  -8   3    8.56    0.88
   3   8  -3    8.00    1.12
   3   8  -3   11.41    1.29
  -2  -8   2   17.24    0.94
  -2  -8   2   17.88    1.12
  -2  -8   2   17.15    1.29
  -2  -8   2   16.48    1.28
   2   8  -2   18.35    1.15
   2   8  -2   19.70    1.28
   2   8  -2   18.88    1.16
  -1  -8   1    3.52    0.62
  -1  -8   1    3.33    0.52
  -1  -8   1    2.61    0.56
  -1  -8   1    3.89    0.54
   1   8  -1    2.35    0.44
   1   8  -1    2.44    0.55
   1   8  -1    4.13    0.60
   1   8  -1    2.98    0.60
   0  -8   0   68.78    1.84
   0  -8   0   68.19    1.66
   0  -8   0   68.92    1.73
   0   8   0   70.19    1.81
   0   8   0   69.38    1.63
   0   8   0   70.31    1.69
   0   8   0   71.88    1.72
   1  -8  -1   34.66    1.08
   1  -8  -1   35.84    1.20
   1  -8  -1   36.11    1.31
  -1   8   1   34.22    1.27
  -1   8   1   34.55    1.07
  -1   8   1   33.33    1.16
  -1   8   1   33.97    1.26
   2  -8  -2   13.96    0.95
   2  -8  -2   13.88    0.99
  -2   8   2   13.48    0.60
  -2   8   2   13.23    0.98
  -2   8   2   11.79    1.00
  -2   8   2   13.17    1.15
   3  -8  -3    1.80    0.53
   3  -8  -3    1.55    0.56
  -3   8   3    2.72    0.75
  -3   8   3    2.92    0.79
  -3   8   3    2.86    0.85
  -4   8   4   10.60    1.34
  -3  -9   3    1.58    1.16
  -3  -9   3   -0.87    0.79
  -3  -9   3    1.75    1.17
   3   9  -3   -0.79    1.16
   3   9  -3    0.04    0.92
  -2  -9   2    0.06    0.68
  -2  -9   2    0.46    0.69
  -2  -9   2   -0.25    0.77
  -2  -9   2    0.97    0.64
   2   9  -2    0.10    0.75
   2   9  -2    0.36    0.78
   2   9  -2   -0.40    0.77
   2   9  -2    0.08    0.69
  -1  -9   1   -0.06    0.48
  -1  -9   1    0.24    0.58
  -1  -9   1   -0.79    0.52
   1   9  -1   -0.66    0.57
   1   9  -1   -0.54    0.52
   1   9  -1    0.53    0.54
   1   9  -1   -0.50    0.44
   0  -9   0    0.99    0.49
   0  -9   0    1.57    0.59
   0  -9   0    0.83    0.48
   0   9   0    0.63    0.48
   0   9   0    1.52    0.47
   0   9   0    0.95    0.45
   1  -9  -1    0.89    0.58
   1  -9  -1    0.95    0.43
   1  -9  -1    0.93    0.49
  -1   9   1    0.14    0.48
  -1   9   1    1.26    0.48
   2  -9  -2    0.62    0.63
   2  -9  -2    0.88    0.64
   2  -9  -2   -0.19    0.36
  -2   9   2    0.23    0.64
  -2   9   2    0.21    0.58
  -2   9   2    0.26    0.36
  -2   9   2   -1.45    0.58
   3  -9  -3    1.37    0.65
   3  -9  -3    1.52    0.71
  -3   9   3    2.63    0.92
  -3   9   3    1.74    0.91
  -3   9   3    0.66    0.72
  -4   9   4    0.62    1.14
  -3 -10   3    8.77    1.59
  -3 -10   3    7.02    1.56
  -2 -10   2   10.88    1.32
  -2 -10   2    9.98    1.14
  -2 -10   2   12.47    1.26
   2  10  -2   11.31    1.46
   2  10  -2    8.79    1.14
   2  10  -2   10.72    1.29
  -1 -10   1    7.86    1.00
  -1 -10   1    7.86    0.99
   1  10  -1    6.81    0.88
   1  10  -1    7.27    0.89
   1  10  -1    7.48    0.99
   0 -10   0   21.22    1.42
   0 -10   0   20.66    1.27
   0  10   0   19.05    1.17
   0  10   0   19.10    1.23
   0  10   0   21.50    1.15
   1 -10  -1    1.12    0.61
   1 -10  -1    0.16    0.50
  -1  10   1   -0.06    0.54
  -1  10   1    0.86    0.60
  -1  10   1    0.19    0.50
  -1  10   1    0.95    0.57
   2 -10  -2   33.10    1.63
   2 -10  -2   34.90    1.17
   2 -10  -2   35.08    1.64
  -2  10   2   35.16    1.54
  -2  10   2   33.03    1.70
  -2  10   2   34.15    1.71
  -2  10   2   36.07    1.15
   3 -10  -3    1.01    0.86
   3 -10  -3   -0.32    0.79
  -3  10   3    1.18    1.04
  -3  10   3   -0.15    0.94
  -2 -11   2   -0.18    1.02
  -2 -11   2    2.42    1.22
  -2 -11   2    1.36    0.93
   2  11  -2    1.04    1.24
   2  11  -2   -0.01    1.13
   2  11  -2    0.86    1.13
  -1 -11   1    0.62    0.76
  -1 -11   1   -0.47    0.84
   1  11  -1   -0.29    0.79
   1  11  -1   -1.02    0.86
   1  11  -1   -2.31    0.78
   0 -11   0    4.49    0.84
   0 -11   0    3.86    0.81
   0 -11   0    3.97    0.96
   0  11   0    3.47    0.82
   0  11   0    4.16    0.79
   0  11   0    3.90    0.85
   0  11   0    5.29    0.84
   1 -11  -1    2.18    0.81
   1 -11  -1    0.85    0.86
   1 -11  -1    1.34    0.68
  -1  11   1    1.72    0.75
  -1  11   1    1.25    0.71
  -1  11   1    0.87    0.66
  -1  11   1    1.82    0.72
   2 -11  -2    0.69    0.61
   2 -11  -2    2.34    0.97
  -2  11   2    1.05    0.87
  -2  11   2    2.43    0.85
  -2  11   2    2.25    0.96
   3 -11  -3    0.63    1.37
  -3  11   3    0.83    1.12
  -3  11   3   -0.78    1.21
   2  12  -2    6.99    1.69
  -1 -12   1    3.56    1.18
  -1 -12   1    3.34    1.15
   1  12  -1    5.43    1.11
   1  12  -1    5.18    1.25
   0 -12   0   20.42    1.68
   0 -12   0   20.26    1.84
   0  12   0   22.56    1.53
   0  12   0   18.30    1.62
   0  12   0   21.04    1.61
   1 -12  -1    1.52    0.87
   1 -12  -1    2.59    1.79
   1 -12  -1    2.10    1.07
  -1  12   1    0.80    0.84
  -1  12   1    0.92    0.84
  -1  12   1    0.96    0.80
   2 -12  -2   15.91    1.57
   2 -12  -2   16.85    1.55
  -2  12   2   19.96    1.57
  -2  12   2   14.84    1.42
  -2  12   2   19.16    1.82
  -1 -13   1    0.95    2.01
  -1 -13   1   -0.79    1.25
   1  13  -1    0.14    1.20
   1  13  -1    2.09    1.49
   0 -13   0    4.15    1.20
   0 -13   0    3.29    1.33
   0  13   0    4.94    1.16
   0  13   0    4.86    1.14
   1 -13  -1   -1.86    1.24
   1 -13  -1    0.83    1.01
  -1  13   1    2.11    1.07
  -1  13   1    0.10    1.00
  -1  13   1    2.22    1.11
   2 -13  -2   -0.09    1.35
  -2  13   2    0.02    1.29
  -2  13   3   12.52    1.67
   2 -13  -3   12.88    1.73
  -1  13   2    7.81    1.23
  -1  13   2    6.82    1.25
  -1  13   2    6.49    1.24
   1 -13  -2    6.97    1.48
   1 -13  -2    6.61    1.22
   0  13   1    6.05    1.18
   0  13   1    5.52    1.18
   0 -13  -1    7.35    1.46
   0 -13  -1    6.15    1.30
   1  13   0    7.43    1.64
  -1 -13   0   10.61    1.63
  -2  12   3    2.90    1.06
  -2  12   3   -0.12    0.93
   2 -12  -3    0.02    0.77
   2 -12  -3    1.15    1.19
   2 -12  -3   -0.79    1.20
  -1  12   2    3.17    0.94
  -1  12   2    2.82    0.90
  -1  12   2    5.17    1.08
   1 -12  -2    3.46    0.93
   1 -12  -2    3.49    1.16
   0  12   1    1.99    1.46
   0  12   1    1.11    0.90
   0  12   1   -0.87    0.89
   0 -12  -1    0.83    1.07
   0 -12  -1   -0.32    0.88
   1  12   0    2.29    1.22
   1  12   0    2.77    1.01
  -1 -12   0    1.92    1.17
  -1 -12   0    3.39    1.15
   2  12  -1    0.75    1.55
  -3  11   4    2.59    1.33
  -3  11   4    3.05    1.17
   3 -11  -4    0.95    1.18
  -2  11   3   17.14    1.47
  -2  11   3   15.77    1.57
   2 -11  -3   20.75    1.80
   2 -11  -3   19.11    1.19
   2 -11  -3   16.27    1.71
  -1  11   2   14.12    1.24
  -1  11   2   10.37    1.20
  -1  11   2   11.49    1.07
  -1  11   2   12.03    1.26
   1 -11  -2   10.81    1.19
   1 -11  -2   11.99    1.19
   1 -11  -2   13.18    1.55
   0  11   1   10.62    1.09
   0  11   1    8.51    1.13
   0  11   1    8.73    0.94
   0  11   1   10.72    1.12
   0 -11  -1   10.36    1.10
   0 -11  -1   11.55    1.26
   0 -11  -1   11.07    1.12
   1  11   0   10.24    1.17
   1  11   0   11.99    1.12
   1  11   0   11.93    1.35
  -1 -11   0   13.32    1.40
  -1 -11   0   10.29    1.19
   2  11  -1    2.40    1.30
   2  11  -1    0.11    1.09
   2  11  -1    0.97    1.00
  -2 -11   1    1.93    1.07
  -2 -11   1   -1.56    1.12
  -3  10   4   -0.72    1.01
  -3  10   4   -0.48    0.90
   3 -10  -4   -0.27    0.88
   3 -10  -4   -0.36    0.92
  -2  10   3    2.86    0.87
  -2  10   3    3.45    0.80
  -2  10   3    2.36    0.86
  -2  10   3    3.48    0.53
   2 -10  -3    2.69    0.54
   2 -10  -3    3.18    0.87
   2 -10  -3    4.06    0.90
  -1  10   2    0.80    0.59
  -1  10   2   -0.04    0.49
  -1  10   2    1.37    0.62
   1 -10  -2    0.80    0.52
   1 -10  -2    0.44    0.67
   0  10   1   -0.02    0.51
   0  10   1   -0.67    0.50
   0  10   1    0.07    0.58
   0 -10  -1    1.91    0.73
   0 -10  -1   -0.29    0.72
   1  10   0    2.62    0.68
   1  10   0    2.98    0.72
  -1 -10   0    2.33    0.76
  -1 -10   0   -0.01    0.67
  -1 -10   0    3.70    0.86
   2  10  -1    0.43    0.81
   2  10  -1   -0.56    0.97
  -2 -10   1   -1.32    0.84
  -2 -10   1   -0.91    0.91
  -2 -10   1    0.14    0.68
  -3 -10   2    0.93    1.35
  -3 -10   2   -0.44    1.37
  -4   9   5    7.62    1.45
  -3   9   4    1.80    0.84
  -3   9   4    3.47    1.04
  -3   9   4    2.36    0.94
   3  -9  -4    3.16    0.82
   3  -9  -4    2.78    0.79
  -2   9   3   17.87    1.29
  -2   9   3   19.05    1.40
  -2   9   3   16.58    0.77
  -2   9   3   15.75    1.17
   2  -9  -3   17.33    0.81
   2  -9  -3   17.48    1.22
   2  -9  -3   17.93    1.29
  -1   9   2   42.50    1.54
  -1   9   2   45.11    1.63
  -1   9   2   47.78    1.58
  -1   9   2   42.21    1.54
   1  -9  -2   47.63    1.69
   1  -9  -2   48.31    1.53
   1  -9  -2   44.21    1.35
   0   9   1   12.05    0.86
   0   9   1   11.16    0.92
   0   9   1   10.83    0.95
   0   9   1    9.97    0.91
   0  -9  -1   13.24    1.10
   0  -9  -1   12.81    1.42
   0  -9  -1   12.56    0.99
   1   9   0   12.03    1.04
   1   9   0    8.34    0.90
   1   9   0   11.02    0.99
  -1  -9   0   14.12    1.24
  -1  -9   0   12.65    1.14
   2   9  -1    1.12    0.80
   2   9  -1    2.08    0.72
   2   9  -1    2.27    0.74
   2   9  -1    1.79    0.87
  -2  -9   1    1.52    0.77
  -2  -9   1    2.65    0.63
  -2  -9   1    0.77    0.81
  -2  -9   1    1.72    0.77
   3   9  -2    7.22    1.03
   3   9  -2    8.30    1.27
  -3  -9   2   10.38    1.43
  -3  -9   2    8.63    1.40
  -4   8   5    2.49    1.19
  -3   8   4    1.75    0.88
  -3   8   4    1.20    0.71
   3  -8  -4    1.05    0.62
   3  -8  -4    0.94    0.62
  -2   8   3   13.01    1.15
  -2   8   3   14.51    1.11
  -2   8   3   14.03    1.09
   2  -8  -3   13.94    1.06
   2  -8  -3   15.97    1.04
   2  -8  -3   14.81    0.65
  -1   8   2   32.16    1.03
  -1   8   2   34.79    1.28
  -1   8   2   31.49    1.16
  -1   8   2   31.71    1.24
   1  -8  -2   31.96    1.18
   1  -8  -2   31.90    1.30
   1  -8  -2   31.12    1.06
   0   8   1    0.17    0.38
   0   8   1    0.15    0.37
   0   8   1    0.67    0.37
   0   8   1   -0.48    0.31
   0  -8  -1    0.33    0.45
   0  -8  -1   -0.32    0.34
   0  -8  -1   -0.03    0.37
   1   8   0    8.00    0.80
   1   8   0    8.61    0.87
   1   8   0    8.44    0.76
  -1  -8   0    9.68    0.72
  -1  -8   0   10.43    1.00
  -1  -8   0   10.14    0.81
  -1  -8   0    8.34    0.90
   2   8  -1    0.02    0.64
   2   8  -1    0.65    0.55
   2   8  -1    0.42    0.56
  -2  -8   1   -0.02    0.63
  -2  -8   1    0.03    0.57
  -2  -8   1    0.13    0.59
  -2  -8   1   -0.67    0.43
   3   8  -2    8.58    1.08
   3   8  -2    6.99    0.85
  -3  -8   2    8.80    1.23
  -3  -8   2    7.87    1.12
  -3  -8   2    8.03    1.03
  -3  -8   2    8.33    1.01
  -4   7   5   17.53    1.61
  -4   7   5   17.10    1.69
  -3   7   4   -0.17    0.58
  -3   7   4    0.93    0.72
   3  -7  -4    0.14    0.44
   3  -7  -4    0.45    0.51
  -2   7   3   38.86    1.31
  -2   7   3   40.24    1.40
   2  -7  -3   38.38    1.30
   2  -7  -3   38.30    0.84
  -1   7   2   31.95    1.16
  -1   7   2   29.06    1.04
  -1   7   2   31.30    0.92
  -1   7   2   31.97    1.15
   1  -7  -2   31.17    1.08
   1  -7  -2   30.70    0.94
   1  -7  -2   29.46    1.13
   0   7   1   38.42    1.14
   0   7   1   38.77    1.15
   0   7   1   39.20    1.09
   0   7   1   38.17    1.23
   0  -7  -1   39.44    1.19
   0  -7  -1   40.24    1.29
   0  -7  -1   37.81    1.14
   1   7   0   20.57    0.97
   1   7   0   21.19    0.85
   1   7   0   22.83    0.98
  -1  -7   0   21.94    1.06
  -1  -7   0   23.51    0.83
  -1  -7   0   21.14    1.00
  -1  -7   0   21.01    0.88
   2   7  -1   23.30    1.80
   2   7  -1   24.86    1.09
   2   7  -1   25.96    1.19
  -2  -7   1   26.24    1.11
  -2  -7   1   26.32    1.33
  -2  -7   1   25.14    0.89
  -2  -7   1   19.95    1.88
   3   7  -2   19.10    1.47
   3   7  -2   20.64    1.08
   3   7  -2   25.96    1.34
  -3  -7   2   24.31    1.40
  -3  -7   2   19.60    1.56
  -3  -7   2   21.72    1.06
  -3  -7   2   26.83    1.65
  -4  -7   3    0.45    1.36
  -4  -7   3   -0.22    1.33
  -4   6   5    4.98    1.20
  -4   6   5    3.52    0.92
  -3   6   4    0.29    0.50
  -3   6   4    1.36    0.56
   3  -6  -4    0.91    0.43
   3  -6  -4    1.19    0.40
  -2   6   3    5.59    0.59
  -2   6   3    6.08    0.67
   2  -6  -3    5.67    0.60
   2  -6  -3    5.16    0.56
  -1   6   2   11.79    0.73
  -1   6   2   10.67    0.51
  -1   6   2   11.01    0.67
  -1   6   2   11.36    0.64
   1  -6  -2    9.64    0.63
   1  -6  -2   12.34    0.72
   1  -6  -2   10.93    0.54
   0   6   1    7.69    0.52
   0   6   1    6.62    0.56
   0   6   1    6.51    0.53
   0   6   1    6.80    0.48
   0  -6  -1    6.92    0.55
   0  -6  -1    7.50    0.62
   0  -6  -1    7.00    0.54
   1   6   0   12.12    0.72
   1   6   0   11.81    0.60
   1   6   0   12.61    0.70
  -1  -6   0   11.87    0.74
  -1  -6   0   11.92    0.79
  -1  -6   0   12.89    0.57
   2   6  -1    1.14    0.47
   2   6  -1    1.26    0.45
   2   6  -1    0.73    0.42
  -2  -6   1    1.24    0.54
  -2  -6   1    1.25    0.33
  -2  -6   1    1.04    0.40
  -2  -6   1    1.23    0.44
   3   6  -2    4.78    0.55
   3   6  -2    4.89    0.63
  -3  -6   2    4.98    0.59
  -3  -6   2    4.00    0.83
  -3  -6   2    6.67    0.93
  -3  -6   2    5.76    0.74
  -4  -6   3    1.36    1.12
  -4  -6   3    0.00    0.90
  -4  -6   3   -0.43    1.16
  -4   5   5   16.19    1.37
  -4   5   5   15.44    1.35
  -3   5   4    0.20    0.48
  -3   5   4    0.71    0.52
   3  -5  -4    0.54    0.30
   3  -5  -4    0.26    0.36
  -2   5   3   41.46    1.16
  -2   5   3   43.03    1.25
   2  -5  -3   41.61    1.13
   2  -5  -3   42.22    1.08
  -1   5   2   22.33    0.80
  -1   5   2   21.02    0.75
  -1   5   2   21.39    0.61
   1  -5  -2   22.04    0.62
   1  -5  -2   22.23    0.75
   1  -5  -2   21.29    0.80
   0   5   1   24.02    0.70
   0   5   1   24.07    0.74
   0   5   1   24.99    0.76
   0   5   1   24.41    0.82
   0  -5  -1   24.22    0.83
   0  -5  -1   23.72    0.74
   0  -5  -1   22.92    0.76
   1   5   0   58.88    1.33
   1   5   0   59.63    1.32
   1   5   0   57.92    1.17
   1   5   0   58.23    1.41
  -1  -5   0   58.40    1.13
  -1  -5   0   57.26    1.40
  -1  -5   0   55.72    1.39
  -1  -5   0   60.31    1.27
   2   5  -1    7.51    0.60
   2   5  -1    9.09    0.72
   2   5  -1    8.63    0.66
  -2  -5   1    7.61    0.48
  -2  -5   1    7.63    0.75
  -2  -5   1    8.81    0.76
   3   5  -2   18.62    0.77
   3   5  -2   18.06    0.69
   3   5  -2   14.75    1.15
  -3  -5   2   18.44    0.94
  -3  -5   2   19.74    1.22
  -3  -5   2   18.37    1.39
   4   5  -3   -0.94    0.93
  -4  -5   3    0.00    0.93
  -4  -5   3   -1.16    0.97
  -4  -5   3    1.58    0.89
  -4   4   5    7.71    0.93
  -4   4   5    8.36    1.01
  -3   4   4    1.81    0.51
  -3   4   4    0.97    0.46
   3  -4  -4    2.11    0.28
   3  -4  -4    1.53    0.31
  -2   4   3   22.07    0.79
  -2   4   3   22.48    0.83
   2  -4  -3   21.62    0.76
   2  -4  -3   22.21    0.71
  -1   4   2    4.20    0.38
  -1   4   2    3.80    0.37
  -1   4   2    3.79    0.25
   1  -4  -2    3.70    0.37
   1  -4  -2    4.04    0.27
   1  -4  -2    4.73    0.43
   0   4   1    5.44    0.36
   0   4   1    5.63    0.37
   0   4   1    5.43    0.39
   0   4   1    5.62    0.34
   0  -4  -1    6.17    0.43
   0  -4  -1    5.73    0.38
   0  -4  -1    5.73    0.38
   1   4   0   23.16    0.77
   1   4   0   22.01    0.60
   1   4   0   23.55    0.69
   1   4   0   22.10    0.70
  -1  -4   0   21.77    0.66
  -1  -4   0   21.46    0.76
  -1  -4   0   21.63    0.76
  -1  -4   0   22.19    0.55
   2   4  -1    1.60    0.33
   2   4  -1    1.79    0.30
   2   4  -1    1.74    0.43
  -2  -4   1    2.32    0.33
  -2  -4   1    1.65    0.40
  -2  -4   1    1.78    0.40
   3   4  -2   11.00    0.96
  -3  -4   2   10.72    0.99
  -3  -4   2   11.10    0.87
  -3  -4   2   10.60    0.81
  -3  -4   2   10.35    1.00
  -4  -4   3   -1.65    0.85
  -4  -4   3    0.37    0.84
  -4  -4   3   -0.11    0.79
  -4  -4   3    0.48    0.83
  -5   3   6   -0.87    1.28
  -4   3   5   23.45    1.52
  -3   3   4    0.61    0.38
  -3   3   4    0.19    0.45
  -2   3   3   42.73    1.04
  -2   3   3   41.81    1.10
   2  -3  -3   42.97    0.98
   2  -3  -3   41.44    0.91
  -1   3   2   25.58    0.72
  -1   3   2   25.65    0.50
  -1   3   2   25.22    0.67
   1  -3  -2   27.37    0.68
   1  -3  -2   26.17    0.71
   0   3   1   51.96    0.96
   0   3   1   53.65    1.01
   0   3   1   51.55    1.05
   0   3   1   52.38    0.99
   0  -3  -1   52.64    1.02
   0  -3  -1   51.79    0.99
   0  -3  -1   53.72    1.07
   1   3   0   35.97    0.75
   1   3   0   35.29    0.82
   1   3   0   37.75    0.92
   1   3   0   36.81    0.81
  -1  -3   0   37.03    0.79
  -1  -3   0   36.65    0.92
  -1  -3   0   35.57    0.69
  -1  -3   0   37.01    0.89
   2   3  -1    6.99    0.41
   2   3  -1    7.16    0.44
   2   3  -1    6.88    0.56
  -2  -3   1    7.12    0.46
  -2  -3   1    7.20    0.59
  -2  -3   1    7.05    0.50
  -2  -3   1    8.36    0.57
   3   3  -2   26.10    1.10
  -3  -3   2   24.37    1.31
  -3  -3   2   25.28    1.10
  -3  -3   2   25.81    1.03
  -3  -3   2   25.53    1.13
   4   3  -3    1.71    0.78
  -4  -3   3   -0.74    0.77
  -4  -3   3   -0.28    0.85
  -4  -3   3    0.72    0.74
  -4  -3   3   -0.93    0.81
  -5   2   6    3.11    1.30
  -4   2   5    5.24    0.85
  -4   2   5    5.71    0.91
  -3   2   4    0.97    0.43
  -3   2   4    1.18    0.41
   3  -2  -4    1.14    0.18
  -2   2   3  103.20    1.83
  -2   2   3  106.72    2.09
   2  -2  -3  103.73    1.73
   2  -2  -3  102.29    1.69
  -1   2   2   23.76    0.59
  -1   2   2   23.70    0.62
   1  -2  -2   23.53    0.39
   1  -2  -2   22.78    0.56
   1  -2  -2   23.73    0.61
   0   2   1  113.85    1.76
   0   2   1  112.84    1.72
   0   2   1  112.69    1.70
   0  -2  -1  113.26    1.73
   0  -2  -1  112.24    1.71
   0  -2  -1  115.24    1.77
   1   2   0    2.65    0.29
   1   2   0    2.58    0.23
   1   2   0    2.71    0.23
  -1  -2   0    2.53    0.22
  -1  -2   0    2.69    0.28
  -1  -2   0    2.50    0.19
  -1  -2   0    2.40    0.27
   2   2  -1    5.64    0.49
   2   2  -1    5.91    0.27
  -2  -2   1    5.42    0.45
  -2  -2   1    5.40    0.47
  -2  -2   1    5.53    0.42
  -2  -2   1    5.03    0.45
   3   2  -2   19.44    0.92
  -3  -2   2   18.48    0.95
  -3  -2   2   18.80    0.94
  -3  -2   2   19.59    0.94
  -3  -2   2   19.36    0.87
   4   2  -3    0.04    0.64
  -4  -2   3   -0.06    0.79
  -4  -2   3    0.66    0.76
  -4  -2   3   -0.54    0.73
  -4  -2   3    1.04    0.64
  -5  -2   4    6.43    1.46
  -5   1   6    2.23    1.32
  -4   1   5   15.56    1.38
  -4   1   5   17.20    1.34
   4  -1  -5   15.33    0.79
  -3   1   4    1.57    0.42
  -3   1   4    1.49    0.44
   3  -1  -4    0.97    0.26
  -2   1   3   38.46    0.94
  -2   1   3   37.96    0.95
   2  -1  -3   39.16    0.75
   2  -1  -3   38.53    0.79
   2  -1  -3   39.09    0.84
  -1   1   2   11.35    0.37
  -1   1   2   11.29    0.38
   1  -1  -2   11.24    0.38
   1  -1  -2   11.58    0.24
   1  -1  -2   10.97    0.35
   0   1   1    2.63    0.13
   0   1   1    2.82    0.14
   0   1   1    2.38    0.12
   0  -1  -1    2.37    0.12
   0  -1  -1    2.70    0.14
   0  -1  -1    2.60    0.15
   1   1   0   11.08    0.39
   1   1   0   11.16    0.26
   1   1   0   11.28    0.26
  -1  -1   0   11.17    0.31
  -1  -1   0   10.96    0.39
  -1  -1   0   11.44    0.34
   2   1  -1   36.77    0.92
  -2  -1   1   36.95    0.86
  -2  -1   1   36.34    0.91
  -2  -1   1   37.45    0.84
   3   1  -2   26.18    0.95
  -3  -1   2   27.22    0.97
  -3  -1   2   26.75    0.99
  -3  -1   2   28.85    0.97
   4   1  -3    0.27    0.55
  -4  -1   3    1.00    0.59
  -4  -1   3    0.33    0.78
  -4  -1   3    1.32    0.72
  -4  -1   3    0.87    0.68
  -5  -1   4    9.81    1.59
  -5   0   6    3.80    1.45
  -4   0   5    9.82    1.02
  -4   0   5   10.03    1.09
  -4   0   5   11.27    1.47
   4   0  -5   11.44    0.90
  -3   0   4    0.36    0.28
  -3   0   4    0.80    0.43
  -3   0   4    0.57    0.39
   3   0  -4    0.61    0.30
  -2   0   3   23.75    0.72
  -2   0   3   23.14    0.60
  -2   0   3   22.37    0.71
   2   0  -3   22.68    0.62
   2   0  -3   22.03    0.58
   2   0  -3   22.19    0.61
  -1   0   2   61.24    0.97
  -1   0   2   60.77    1.05
  -1   0   2   61.20    1.06
   1   0  -2   59.92    1.04
   1   0  -2   60.25    0.98
   1   0  -2   59.62    1.01
   1   0   0   18.76    0.43
  -1   0   0   19.28    0.34
  -1   0   0   19.88    0.45
  -1   0   0   18.88    0.35
   2   0  -1    4.02    0.33
  -2   0   1    4.59    0.35
  -2   0   1    4.23    0.35
  -2   0   1    3.93    0.33
   3   0  -2    9.96    0.60
  -3   0   2   10.89    0.62
  -3   0   2   11.12    0.72
  -3   0   2   10.80    0.67
   4   0  -3    1.27    0.50
  -4   0   3    1.42    0.72
  -4   0   3    0.59    0.48
  -4   0   3    1.26    0.66
  -5   0   4    5.73    1.44
  -5  -1   6    2.03    1.56
  -4  -1   5   20.87    1.44
  -4  -1   5   19.63    1.57
   4   1  -5   19.09    1.25
  -3  -1   4    0.14    0.40
  -3  -1   4    0.76    0.49
  -3  -1   4    0.49    0.43
  -3  -1   4    0.64    0.35
   3   1  -4    0.53    0.35
  -2  -1   3   55.76    1.22
  -2  -1   3   57.07    1.36
  -2  -1   3   53.05    1.33
  -2  -1   3   56.41    1.16
   2   1  -3   54.24    1.09
   2   1  -3   57.21    1.18
   2   1  -3   54.79    1.07
  -1  -1   2   19.66    0.52
  -1  -1   2   19.13    0.50
  -1  -1   2   19.08    0.50
  -1  -1   2   18.30    0.55
   1   1  -2   19.65    0.49
   1   1  -2   19.33    0.50
   1   1  -2   19.70    0.50
   0   1  -1   -0.04    0.05
   0   1  -1   -0.02    0.05
  -1   1   0  151.25    2.06
  -1   1   0  149.55    2.06
  -1   1   0  147.72    2.05
   2  -1  -1   22.05    0.53
  -2   1   1   23.02    0.62
  -2   1   1   23.02    0.60
  -2   1   1   23.37    0.54
   3  -1  -2   67.10    1.29
  -3   1   2   67.23    1.26
  -3   1   2   65.21    1.47
  -3   1   2   66.06    1.45
  -4   1   3   -0.07    0.65
  -4   1   3    1.14    0.67
  -5   1   4    7.14    1.35
  -4  -2   5    6.63    0.82
  -4  -2   5   10.12    1.07
  -4  -2   5    8.28    1.09
  -4  -2   5    9.39    1.02
   4   2  -5    8.73    0.88
  -3  -2   4    0.36    0.45
  -3  -2   4    0.77    0.41
  -3  -2   4    1.22    0.48
  -3  -2   4    1.06    0.58
   3   2  -4    0.25    0.30
   3   2  -4    0.55    0.41
   3   2  -4    0.64    0.25
  -2  -2   3   31.58    0.93
  -2  -2   3   31.66    0.90
  -2  -2   3   30.91    0.94
  -2  -2   3   32.05    0.89
   2   2  -3   31.44    0.80
   2   2  -3   31.54    0.83
   2   2  -3   31.84    0.91
  -1  -2   2    5.35    0.31
  -1  -2   2    5.61    0.35
  -1  -2   2    5.23    0.34
  -1  -2   2    5.63    0.32
   1   2  -2    5.30    0.35
   1   2  -2    5.11    0.31
   1   2  -2    5.38    0.32
   1   2  -2    5.00    0.30
   0  -2   1   45.66    0.79
   0  -2   1   46.21    0.81
   0  -2   1   46.10    0.82
   0  -2   1   44.60    0.83
   0   2  -1   45.61    0.83
   0   2  -1   47.18    0.80
   0   2  -1   46.84    0.82
   0   2  -1   46.77    0.82
   1  -2   0   27.02    0.49
   1  -2   0   26.24    0.48
  -1   2   0   26.79    0.55
  -1   2   0   27.43    0.57
  -1   2   0   26.85    0.42
  -2   2   1   17.44    0.56
  -2   2   1   17.73    0.55
  -3   2   2   14.78    0.74
  -3   2   2   13.67    0.75
  -4   2   3    0.26    0.63
  -4   2   3    1.13    0.64
  -5   2   4   10.59    1.39
  -4  -3   5   15.87    1.58
  -4  -3   5   15.92    1.35
  -4  -3   5   12.92    1.47
  -4  -3   5   17.82    1.64
   4   3  -5   14.09    1.37
  -3  -3   4    2.35    0.55
  -3  -3   4    1.10    0.53
  -3  -3   4    1.39    0.50
  -3  -3   4    1.26    0.52
   3   3  -4    1.02    0.47
   3   3  -4    1.77    0.41
   3   3  -4    1.08    0.34
  -2  -3   3   45.35    1.20
  -2  -3   3   47.21    1.17
  -2  -3   3   46.32    1.21
  -2  -3   3   47.89    1.17
   2   3  -3   47.26    1.22
   2   3  -3   46.66    1.09
   2   3  -3   46.46    1.11
  -1  -3   2    5.24    0.32
  -1  -3   2    5.05    0.39
  -1  -3   2    4.76    0.37
   1   3  -2    5.47    0.37
   1   3  -2    5.43    0.38
   1   3  -2    5.11    0.36
   1   3  -2    5.24    0.37
   0  -3   1   76.16    1.29
   0  -3   1   74.96    1.32
   0  -3   1   76.63    1.33
   0  -3   1   76.79    1.36
   0   3  -1   80.93    1.33
   0   3  -1   77.97    1.32
   0   3  -1   77.50    1.29
   0   3  -1   77.05    1.36
   1  -3   0   17.07    0.45
   1  -3   0   16.94    0.47
  -1   3   0   16.66    0.49
  -1   3   0   16.53    0.51
  -1   3   0   17.37    0.37
  -2   3   1   11.08    0.52
  -2   3   1   10.63    0.50
  -3   3   2   29.99    1.03
  -3   3   2   31.06    0.98
  -4   3   3    3.32    0.68
  -4   3   3    2.08    0.74
  -5   3   4    6.58    1.32
  -4  -4   5   25.42    1.64
  -4  -4   5   21.89    1.65
  -4  -4   5   24.17    1.73
  -4  -4   5   26.70    1.89
  -3  -4   4   -0.33    0.54
  -3  -4   4   -0.11    0.50
  -3  -4   4    0.48    0.51
  -3  -4   4    0.62    0.54
   3   4  -4   -0.05    0.45
   3   4  -4   -0.10    0.35
   3   4  -4    0.18    0.44
  -2  -4   3   20.73    0.91
  -2  -4   3   22.67    0.93
  -2  -4   3   23.65    0.81
  -2  -4   3   22.80    0.85
   2   4  -3   21.87    0.80
   2   4  -3   21.73    0.83
   2   4  -3   22.44    0.92
  -1  -4   2    6.51    0.36
  -1  -4   2    6.52    0.40
  -1  -4   2    6.71    0.48
  -1  -4   2    6.46    0.49
   1   4  -2    6.16    0.43
   1   4  -2    6.81    0.45
   1   4  -2    6.71    0.46
   1   4  -2    6.91    0.46
   0  -4   1   66.07    1.26
   0  -4   1   68.81    1.31
   0  -4   1   65.90    1.33
   0  -4   1   68.96    1.30
   0   4  -1   71.59    1.31
   0   4  -1   67.76    1.28
   0   4  -1   69.14    1.35
   0   4  -1   67.72    1.26
   1  -4   0   15.88    0.53
   1  -4   0   16.05    0.55
   1  -4   0   15.45    0.42
  -1   4   0   15.71    0.55
  -1   4   0   15.50    0.66
  -1   4   0   15.81    0.56
  -1   4   0   15.35    0.42
   2  -4  -1   14.50    0.42
   2  -4  -1   14.81    0.46
  -2   4   1   14.31    0.63
  -2   4   1   13.23    0.60
  -3   4   2   18.47    0.86
  -3   4   2   19.24    0.93
  -4   4   3    0.94    0.62
  -4   4   3   -1.02    0.72
  -5   4   4    2.84    1.31
  -4  -5   5    6.90    1.26
  -4  -5   5    5.03    1.09
  -4  -5   5    6.62    1.14
  -4  -5   5    6.71    1.09
   4   5  -5    3.80    1.07
  -3  -5   4    0.47    0.54
  -3  -5   4   -0.28    0.57
  -3  -5   4    0.19    0.64
  -3  -5   4    0.85    0.59
   3   5  -4    0.83    0.56
   3   5  -4    1.14    0.47
   3   5  -4   -0.22    0.55
  -2  -5   3   22.00    0.84
  -2  -5   3   23.52    0.82
  -2  -5   3   23.56    1.03
  -2  -5   3   21.44    1.00
   2   5  -3   23.29    0.94
   2   5  -3   22.90    0.88
   2   5  -3   24.23    0.99
  -1  -5   2    4.66    0.42
  -1  -5   2    4.62    0.50
  -1  -5   2    4.27    0.40
  -1  -5   2    3.67    0.45
   1   5  -2    3.34    0.43
   1   5  -2    3.89    0.42
   1   5  -2    4.25    0.49
   1   5  -2    4.12    0.44
   0  -5   1   58.29    1.26
   0  -5   1   58.19    1.31
   0  -5   1   56.48    1.25
   0  -5   1   59.22    1.22
   0   5  -1   58.08    1.31
   0   5  -1   58.47    1.23
   0   5  -1   58.18    1.22
   0   5  -1   61.42    1.26
   1  -5   0   18.93    0.69
   1  -5   0   18.13    0.55
   1  -5   0   18.05    0.66
  -1   5   0   18.33    0.55
  -1   5   0   18.01    0.66
  -1   5   0   18.77    0.69
  -1   5   0   18.31    0.78
   2  -5  -1   20.48    0.62
   2  -5  -1   21.21    0.67
  -2   5   1   19.66    0.80
  -2   5   1   22.11    0.79
  -3   5   2   12.41    0.84
  -4   5   3    2.10    0.90
  -4  -6   5    8.17    1.47
  -4  -6   5    6.96    1.09
  -4  -6   5    7.10    1.26
  -3  -6   4    0.57    0.74
  -3  -6   4    0.78    0.71
  -3  -6   4   -0.65    0.56
  -3  -6   4    1.15    0.56
   3   6  -4   -0.13    0.64
  -2  -6   3   26.61    1.21
  -2  -6   3   31.39    1.27
  -2  -6   3   29.40    0.94
  -2  -6   3   29.54    1.04
   2   6  -3   29.96    1.14
   2   6  -3   27.91    1.14
   2   6  -3   29.98    1.19
   2   6  -3   29.06    1.15
  -1  -6   2   46.31    1.33
  -1  -6   2   47.37    1.13
  -1  -6   2   46.99    1.33
   1   6  -2   46.90    1.20
   1   6  -2   46.38    1.39
   1   6  -2   45.55    1.24
   1   6  -2   46.35    1.27
   0  -6   1   15.84    0.75
   0  -6   1   16.03    0.70
   0  -6   1   15.42    0.70
   0  -6   1   15.22    0.66
   0   6  -1   16.54    0.68
   0   6  -1   16.25    0.75
   0   6  -1   16.15    0.67
   0   6  -1   16.86    0.69
   1  -6   0   24.73    0.73
   1  -6   0   24.28    0.87
   1  -6   0   25.01    0.84
  -1   6   0   25.52    0.89
  -1   6   0   24.93    0.96
  -1   6   0   23.71    0.83
  -1   6   0   25.96    0.73
   2  -6  -1   14.45    0.65
   2  -6  -1   16.13    0.71
  -2   6   1   16.32    0.79
  -2   6   1   15.12    0.82
  -2   6   1   15.42    0.40
  -3   6   2   21.43    1.11
  -3   6   2   20.32    1.03
  -4   6   3    1.27    0.96
  -4   6   3    0.70    0.74
  -4  -7   5    5.19    1.40
  -4  -7   5    3.70    1.55
  -3  -7   4   -0.71    0.56
  -3  -7   4   -0.07    0.85
  -3  -7   4   -0.21    0.69
  -3  -7   4    0.84    0.82
   3   7  -4    1.58    0.69
   3   7  -4    1.45    0.84
   3   7  -4    0.82    0.73
  -2  -7   3   26.69    1.91
  -2  -7   3   28.32    1.35
  -2  -7   3   29.17    1.05
  -2  -7   3   29.83    1.15
   2   7  -3   27.32    1.16
   2   7  -3   30.25    1.30
   2   7  -3   29.41    1.27
   2   7  -3   30.29    1.30
  -1  -7   2    0.65    0.34
  -1  -7   2    0.53    0.35
  -1  -7   2    0.29    0.31
  -1  -7   2    1.53    0.46
   1   7  -2    0.53    0.32
   1   7  -2    0.22    0.40
   1   7  -2    0.88    0.43
   1   7  -2    0.89    0.40
   0  -7   1   34.09    1.09
   0  -7   1   31.98    1.14
   0  -7   1   33.02    1.04
   0  -7   1   33.28    1.08
   0   7  -1   33.65    1.04
   0   7  -1   34.52    1.05
   0   7  -1   32.84    1.03
   0   7  -1   33.73    1.13
   1  -7   0    5.81    0.52
   1  -7   0    8.03    0.69
   1  -7   0    6.46    0.61
  -1   7   0    6.52    0.64
  -1   7   0    6.61    0.62
  -1   7   0    6.56    0.60
  -1   7   0    6.06    0.53
   2  -7  -1   46.42    1.24
   2  -7  -1   44.45    1.24
  -2   7   1   43.97    1.57
  -2   7   1   43.88    1.41
  -2   7   1   45.77    1.34
  -2   7   1   45.08    0.92
  -3   7   2   17.15    1.21
  -3   7   2   18.66    1.17
  -4   7   3    1.17    1.05
  -4   7   3   -0.06    0.84
  -3  -8   4    0.07    0.72
  -3  -8   4   -1.54    1.08
  -3  -8   4   -0.95    0.88
   3   8  -4   -0.32    0.79
   3   8  -4    0.23    1.03
  -2  -8   3   10.85    1.01
  -2  -8   3   11.39    1.14
  -2  -8   3   10.33    1.18
  -2  -8   3   10.44    1.35
   2   8  -3   10.85    1.14
   2   8  -3   12.58    1.03
   2   8  -3   10.25    1.17
  -1  -8   2    1.79    0.57
  -1  -8   2    2.72    0.48
  -1  -8   2    1.82    0.53
  -1  -8   2    2.06    0.48
   1   8  -2    1.11    0.51
   1   8  -2    1.18    0.45
   1   8  -2    0.90    0.37
   1   8  -2    0.93    0.53
   0  -8   1   15.24    0.88
   0  -8   1   15.70    0.83
   0  -8   1   13.73    0.95
   0   8  -1   14.90    0.83
   0   8  -1   15.11    0.82
   0   8  -1   13.47    0.84
   0   8  -1   15.67    0.87
   1  -8   0    7.98    0.66
   1  -8   0    6.86    0.73
   1  -8   0    8.33    0.83
  -1   8   0    7.28    0.77
  -1   8   0    8.35    0.80
  -1   8   0    7.16    0.70
  -1   8   0    7.85    0.63
   2  -8  -1   55.76    1.51
   2  -8  -1   50.63    1.46
  -2   8   1   51.32    1.55
  -2   8   1   51.87    1.79
  -2   8   1   52.82    1.13
  -2   8   1   50.80    1.65
   3  -8  -2   10.39    0.67
  -3   8   2   10.62    1.28
  -3   8   2   10.92    1.16
  -3   8   2   11.84    1.33
  -4   8   3    1.39    1.16
  -4   8   3   -0.16    1.29
  -4   8   3    2.25    1.06
  -3  -9   4   -0.92    1.10
  -3  -9   4    0.79    1.07
  -3  -9   4    1.40    0.88
   3   9  -4   -0.57    1.20
   3   9  -4   -0.86    0.98
  -2  -9   3   11.23    1.16
  -2  -9   3    8.20    1.06
  -2  -9   3   10.92    1.20
  -2  -9   3    7.29    0.98
   2   9  -3   10.74    1.34
   2   9  -3    6.82    1.32
   2   9  -3    7.53    0.90
  -1  -9   2    0.40    0.52
  -1  -9   2   -0.97    0.53
  -1  -9   2    0.14    0.54
   1   9  -2    0.13    0.42
   1   9  -2    0.75    0.53
   1   9  -2   -0.59    0.54
   1   9  -2    0.10    0.60
   0  -9   1   14.06    1.08
   0  -9   1   13.79    0.92
   0  -9   1   15.05    0.99
   0   9  -1   15.05    0.95
   0   9  -1   14.02    0.96
   0   9  -1   14.01    0.90
   1  -9   0    1.58    0.59
   1  -9   0    1.33    0.52
   1  -9   0    1.51    0.44
  -1   9   0    1.23    0.50
  -1   9   0    0.44    0.51
  -1   9   0    1.31    0.49
   2  -9  -1    5.02    0.76
   2  -9  -1    5.02    0.74
  -2   9   1    5.03    0.85
  -2   9   1    5.11    0.75
  -2   9   1    4.98    0.79
  -2   9   1    5.37    0.62
   3  -9  -2    7.88    0.90
   3  -9  -2    6.29    0.66
  -3   9   2    6.65    1.18
  -3   9   2    5.59    1.03
  -3   9   2    5.46    0.96
  -4   9   3   -0.83    1.12
  -4   9   3   -0.72    1.44
  -3 -10   4   -2.33    1.30
  -3 -10   4    1.07    1.31
   3  10  -4   -2.65    1.44
  -2 -10   3   16.43    1.56
  -2 -10   3   16.14    1.69
  -2 -10   3   15.30    1.33
   2  10  -3   11.35    1.30
   2  10  -3   16.44    1.64
   2  10  -3   13.23    1.52
  -1 -10   2    1.20    0.74
  -1 -10   2    2.27    0.72
  -1 -10   2    1.75    0.75
   1  10  -2    1.89    0.68
   1  10  -2    1.98    0.77
   1  10  -2    2.49    0.86
   1  10  -2    0.68    0.69
   0 -10   1   12.54    1.12
   0 -10   1   12.49    1.24
   0  10  -1   13.05    1.07
   0  10  -1   13.96    1.05
   0  10  -1   13.10    1.06
   1 -10   0   13.47    1.11
   1 -10   0   12.00    0.99
   1 -10   0   12.09    1.21
  -1  10   0   11.70    1.09
  -1  10   0   10.35    0.92
  -1  10   0   10.47    1.02
  -1  10   0   10.52    1.09
   2 -10  -1    9.18    1.00
   2 -10  -1   10.30    1.00
  -2  10   1   10.92    1.18
  -2  10   1    8.33    1.03
  -2  10   1   10.76    0.83
  -2  10   1   10.43    1.10
   3 -10  -2   12.81    1.26
   3 -10  -2   14.11    1.18
  -3  10   2   12.82    1.31
  -3  10   2   14.47    1.58
  -2 -11   3   11.48    1.46
  -2 -11   3    9.91    1.30
  -2 -11   3   13.73    1.65
   2  11  -3    9.55    1.48
   2  11  -3   12.30    1.51
  -1 -11   2   -0.35    0.79
  -1 -11   2   -1.64    0.82
   1  11  -2    0.91    0.88
   1  11  -2   -1.09    0.89
   1  11  -2    0.88    0.86
   1  11  -2   -0.12    0.80
   0 -11   1   11.94    1.26
   0 -11   1   12.23    1.29
   0 -11   1   12.31    1.47
   0  11  -1   10.63    1.27
   0  11  -1   14.77    1.18
   0  11  -1   10.82    1.24
   0  11  -1   14.25    1.26
   1 -11   0    4.08    0.97
   1 -11   0    4.43    0.94
   1 -11   0    3.50    0.73
  -1  11   0    2.32    0.69
  -1  11   0    2.93    0.71
  -1  11   0    2.94    0.79
  -1  11   0    1.58    0.71
   2 -11  -1    9.88    1.14
   2 -11  -1    7.03    1.10
  -2  11   1    8.31    1.10
  -2  11   1    8.96    1.07
  -3  11   2    2.14    1.07
  -3  11   2    5.04    1.36
   2  12  -3    3.67    1.63
  -1 -12   2    1.18    1.12
  -1 -12   2   -1.18    0.98
   1  12  -2    0.39    1.09
   0 -12   1   11.93    1.36
   0 -12   1   13.69    1.56
   0  12  -1    7.65    1.06
   0  12  -1   10.31    1.38
   0  12  -1   14.17    1.44
   1 -12   0    5.66    1.13
   1 -12   0    6.61    1.08
   1 -12   0    5.88    0.93
  -1  12   0    6.05    0.98
  -1  12   0    7.31    1.07
  -1  12   0    5.89    0.98
   2 -12  -1    4.72    1.24
   2 -12  -1    2.42    1.12
  -2  12   1    4.23    1.08
  -2  12   1    2.35    0.97
  -2  12   1    4.47    0.82
  -3  12   2    9.55    1.84
  -1 -13   2    1.91    1.29
  -1 -13   2    1.52    1.44
   1  13  -2    0.73    1.26
   1  13  -2    1.85    1.48
   0 -13   1    4.32    1.20
   0 -13   1    3.16    1.35
   0  13  -1    5.98    1.19
   0  13  -1    6.41    1.14
   1 -13   0    1.83    1.04
   1 -13   0    1.17    1.28
  -1  13   0    1.20    1.07
  -1  13   0    1.32    1.07
  -1  13   0    2.57    1.18
   2 -13  -1    6.49    1.49
  -2  13   1    5.83    1.42
   0  14  -1    1.48    1.33
  -1  13   3    8.03    1.26
  -1  13   3    8.01    1.32
  -1  13   3    9.86    1.34
   1 -13  -3   10.37    1.68
   1 -13  -3    9.16    1.30
   0  13   2    1.67    1.17
   0  13   2    1.66    1.04
   0 -13  -2    0.72    1.10
   0 -13  -2    4.71    1.45
   1  13   1    4.83    1.61
  -1 -13  -1   10.88    1.60
  -2  12   4    1.53    1.04
  -2  12   4    2.30    1.11
   2 -12  -4    3.35    1.32
   2 -12  -4    2.30    0.89
  -1  12   3    7.22    1.01
  -1  12   3    7.01    1.11
  -1  12   3    4.96    1.01
   1 -12  -3    6.44    1.28
   1 -12  -3    5.46    1.00
   0  12   2    1.44    0.93
   0  12   2    0.96    0.82
   0  12   2    1.27    0.92
   0 -12  -2    2.94    1.14
   0 -12  -2   -0.64    0.82
   1  12   1    5.83    1.05
   1  12   1    6.90    1.38
  -1 -12  -1    7.40    1.38
  -1 -12  -1    6.71    1.28
   2  12   0    0.40    1.57
  -3  11   5   19.95    1.99
  -3  11   5   20.26    2.02
  -2  11   4    0.11    0.84
  -2  11   4    0.63    0.91
   2 -11  -4    1.04    0.67
   2 -11  -4    0.87    1.07
   2 -11  -4    1.20    1.04
  -1  11   3   21.60    1.45
  -1  11   3   18.62    1.39
  -1  11   3   23.11    1.34
   1 -11  -3   22.16    1.77
   1 -11  -3   20.47    1.35
   1 -11  -3   18.76    1.50
   0  11   2   -0.20    0.76
   0  11   2    0.76    0.63
   0  11   2    0.19    0.69
   0  11   2    0.16    0.72
   0 -11  -2    0.39    0.86
   0 -11  -2   -1.45    0.74
   0 -11  -2   -0.14    0.71
   1  11   1    5.40    1.08
   1  11   1    6.20    0.91
  -1 -11  -1    9.01    1.23
  -1 -11  -1    8.98    1.31
   2  11   0    3.03    1.35
   2  11   0    1.81    1.13
  -2 -11   0    3.14    1.28
  -2 -11   0    0.52    1.12
  -3  10   5   -0.59    0.98
  -3  10   5    1.45    1.11
   3 -10  -5    0.33    0.98
   3 -10  -5    0.66    1.01
  -2  10   4    3.37    0.79
  -2  10   4    3.17    0.86
  -2  10   4    4.31    0.98
   2 -10  -4    2.99    0.94
   2 -10  -4    3.34    0.62
  -1  10   3    5.32    0.78
  -1  10   3    4.94    0.78
  -1  10   3    6.25    0.72
   1 -10  -3    3.71    0.88
   1 -10  -3    3.94    0.70
   0  10   2   -1.39    0.53
   0  10   2    0.30    0.61
   0  10   2    0.09    0.53
   0 -10  -2    0.08    0.70
   0 -10  -2    0.88    0.82
   1  10   1    2.47    0.67
   1  10   1    1.90    0.68
  -1 -10  -1    1.98    0.81
  -1 -10  -1    4.66    0.76
  -1 -10  -1    3.34    0.90
   2  10   0   -0.18    1.01
   2  10   0    0.15    0.72
  -2 -10   0    1.40    0.99
  -2 -10   0   -1.24    0.92
  -3 -10   1    2.16    1.62
  -3 -10   1    0.44    1.43
  -4   9   6    8.85    1.50
  -3   9   5    9.27    1.11
  -3   9   5   12.91    1.50
   3  -9  -5   10.70    1.09
   3  -9  -5   11.03    1.09
  -2   9   4    3.64    0.77
  -2   9   4    3.67    0.79
  -2   9   4    3.78    0.90
   2  -9  -4    3.69    0.75
   2  -9  -4    3.16    0.49
   2  -9  -4    3.10    0.79
  -1   9   3   14.41    0.98
  -1   9   3   13.11    1.02
  -1   9   3   14.19    0.87
   1  -9  -3   13.07    0.90
   1  -9  -3   15.26    1.21
   1  -9  -3   13.35    1.04
   0   9   2   37.03    1.39
   0   9   2   36.55    1.33
   0   9   2   36.46    1.42
   0   9   2   35.98    1.22
   0  -9  -2   35.37    1.39
   1   9   1   32.16    1.23
   1   9   1   38.80    1.49
   1   9   1   39.38    1.51
  -1  -9  -1   38.47    1.67
  -1  -9  -1   38.70    1.58
  -1  -9  -1   37.39    1.39
   2   9   0    1.54    0.85
   2   9   0    1.38    0.73
   2   9   0    2.72    0.86
  -2  -9   0    2.20    0.85
  -2  -9   0    2.57    0.59
  -2  -9   0    2.25    0.76
  -2  -9   0    1.42    0.78
   3   9  -1    6.62    1.20
  -3  -9   1    5.92    1.35
  -3  -9   1    7.72    1.41
  -4   8   6    2.36    1.20
  -3   8   5    2.18    0.89
  -3   8   5    2.75    0.83
   3  -8  -5    1.23    0.72
   3  -8  -5    1.16    0.77
  -2   8   4    2.56    0.62
  -2   8   4    4.20    0.68
   2  -8  -4    5.14    0.75
   2  -8  -4    3.92    0.67
   2  -8  -4    3.44    0.41
  -1   8   3    0.66    0.44
  -1   8   3    0.67    0.43
  -1   8   3    1.26    0.37
  -1   8   3    0.46    0.45
   1  -8  -3    1.03    0.53
   1  -8  -3    0.98    0.40
   1  -8  -3    0.65    0.44
   0   8   2    0.31    0.35
   0   8   2    0.06    0.40
   0   8   2    1.00    0.41
   0   8   2    0.44    0.36
   0  -8  -2    0.62    0.41
   0  -8  -2    0.62    0.47
   0  -8  -2    0.25    0.41
   1   8   1    8.28    0.73
   1   8   1    9.78    0.85
   1   8   1   10.46    0.90
  -1  -8  -1    9.99    0.81
  -1  -8  -1   10.39    1.05
  -1  -8  -1    9.79    0.96
   2   8   0    1.61    0.69
   2   8   0    0.93    0.57
  -2  -8   0    1.01    0.45
  -2  -8   0    1.44    0.64
  -2  -8   0    1.16    0.73
  -2  -8   0    1.99    0.61
   3   8  -1    1.84    0.79
   3   8  -1    1.35    0.85
  -3  -8   1    1.01    1.01
  -3  -8   1    2.70    0.91
  -3  -8   1    1.59    1.02
  -3  -8   1    1.18    0.61
  -4   7   6    7.01    1.14
  -3   7   5   14.30    1.17
  -3   7   5   15.28    1.37
   3  -7  -5   14.36    1.09
   3  -7  -5   15.31    1.41
  -2   7   4    8.82    0.81
  -2   7   4   10.33    0.88
   2  -7  -4    7.66    0.82
   2  -7  -4    9.06    0.50
   2  -7  -4    8.57    0.91
  -1   7   3   58.37    1.59
  -1   7   3   60.50    1.51
  -1   7   3   60.13    1.34
  -1   7   3   59.49    1.61
   1  -7  -3   57.90    1.51
   1  -7  -3   59.02    1.37
   1  -7  -3   56.85    1.60
   0   7   2    0.11    0.27
   0   7   2    0.01    0.30
   0   7   2   -0.39    0.26
   0   7   2    0.23    0.31
   0  -7  -2    0.27    0.35
   0  -7  -2   -0.21    0.32
   0  -7  -2    0.31    0.34
   1   7   1   50.29    1.23
   1   7   1   54.43    1.51
   1   7   1   53.12    1.51
  -1  -7  -1   53.97    1.40
  -1  -7  -1   54.57    1.56
  -1  -7  -1   52.47    1.59
   2   7   0   10.24    0.96
   2   7   0    9.49    1.03
  -2  -7   0    8.55    1.00
  -2  -7   0    9.62    0.86
  -2  -7   0    8.09    0.62
  -2  -7   0    9.25    0.92
   3   7  -1    4.07    0.88
   3   7  -1    3.99    0.57
   3   7  -1    3.13    0.70
  -3  -7   1    2.79    0.92
  -3  -7   1    4.07    0.96
  -3  -7   1    2.77    0.81
  -3  -7   1    2.35    0.56
  -4  -7   2    5.06    1.45
  -4  -7   2    4.04    1.47
  -4   6   6    3.20    0.96
  -4   6   6    1.49    1.13
  -3   6   5    3.22    0.76
   3  -6  -5    2.81    0.56
   3  -6  -5    2.89    0.52
  -2   6   4    7.82    0.71
  -2   6   4    5.86    0.61
   2  -6  -4    5.27    0.64
   2  -6  -4    6.41    0.77
   2  -6  -4    6.02    0.35
  -1   6   3   12.43    0.68
  -1   6   3   12.13    0.54
   1  -6  -3   13.16    0.69
   1  -6  -3   11.53    0.75
   1  -6  -3   11.92    0.58
   0   6   2    0.71    0.24
   0   6   2    0.32    0.26
   0   6   2    0.19    0.26
   0   6   2    0.16    0.27
   0  -6  -2    0.39    0.33
   0  -6  -2    0.41    0.29
   0  -6  -2    0.10    0.25
   1   6   1   10.13    0.69
   1   6   1    9.85    0.69
   1   6   1    9.66    0.53
  -1  -6  -1   11.51    0.53
  -1  -6  -1    9.78    0.72
  -1  -6  -1   11.60    0.79
   2   6   0    3.41    0.48
   2   6   0    1.94    0.51
   2   6   0    2.66    0.51
  -2  -6   0    2.53    0.56
  -2  -6   0    3.69    0.51
  -2  -6   0    3.32    0.61
  -2  -6   0    3.00    0.35
  -3  -6   1    4.22    0.81
  -3  -6   1    5.14    0.91
  -3  -6   1    4.73    0.68
  -3  -6   1    3.92    0.51
  -4  -6   2    0.26    1.06
  -4  -6   2   -2.08    1.09
  -4  -6   2    1.76    1.13
  -4   5   6   19.34    1.49
  -4   5   6   19.49    1.68
  -3   5   5   20.58    1.08
  -3   5   5   21.32    1.24
   3  -5  -5   19.52    0.83
   3  -5  -5   19.62    0.94
  -2   5   4   11.93    0.71
   2  -5  -4   13.03    0.78
   2  -5  -4   11.51    0.68
  -1   5   3   76.57    1.57
  -1   5   3   73.57    1.63
  -1   5   3   73.35    1.36
   1  -5  -3   74.42    1.37
   1  -5  -3   74.29    1.56
   1  -5  -3   73.51    1.63
   0   5   2    2.28    0.33
   0   5   2    2.48    0.31
   0   5   2    2.42    0.33
   0   5   2    2.70    0.33
   0  -5  -2    2.41    0.33
   0  -5  -2    2.06    0.32
   0  -5  -2    2.12    0.36
   1   5   1   69.22    1.57
   1   5   1   68.73    1.48
   1   5   1   67.76    1.24
  -1  -5  -1   68.22    1.58
  -1  -5  -1   68.12    1.22
  -1  -5  -1   67.86    1.40
  -1  -5  -1   66.74    1.56
   2   5   0    2.21    0.41
   2   5   0    2.51    0.40
   2   5   0    2.91    0.40
  -2  -5   0    2.06    0.29
  -2  -5   0    2.57    0.49
  -2  -5   0    3.30    0.46
  -2  -5   0    2.58    0.49
   3   5  -1   15.62    1.15
  -3  -5   1   16.26    0.83
  -3  -5   1   17.53    1.19
  -3  -5   1   16.49    0.94
   4   5  -2    6.98    1.18
  -4  -5   2    5.98    0.91
  -4  -5   2    4.91    1.11
  -4  -5   2    6.24    1.15
  -4   4   6    6.17    0.95
  -4   4   6    6.17    1.08
  -3   4   5    3.99    0.64
  -3   4   5    3.35    0.57
   3  -4  -5    3.66    0.42
   3  -4  -5    2.94    0.46
  -2   4   4    1.94    0.39
  -2   4   4    1.76    0.37
   2  -4  -4    1.42    0.31
   2  -4  -4    1.70    0.39
  -1   4   3   25.91    0.78
  -1   4   3   26.58    0.62
  -1   4   3   27.62    0.84
   1  -4  -3   25.76    0.84
   1  -4  -3   25.94    0.63
   1  -4  -3   27.29    0.79
   0   4   2    0.59    0.21
   0   4   2    0.67    0.19
   0   4   2    0.64    0.20
   0   4   2    0.45    0.19
   0  -4  -2    0.70    0.23
   0  -4  -2    0.33    0.23
   0  -4  -2    0.74    0.22
   1   4   1    9.41    0.50
   1   4   1    9.38    0.54
   1   4   1    9.65    0.37
   1   4   1    9.42    0.49
  -1  -4  -1    9.87    0.34
  -1  -4  -1    9.00    0.55
  -1  -4  -1    9.70    0.55
  -1  -4  -1   10.03    0.46
   2   4   0    2.19    0.32
   2   4   0    2.57    0.59
   2   4   0    1.91    0.29
  -2  -4   0    1.77    0.38
  -2  -4   0    2.37    0.34
  -2  -4   0    2.63    0.43
  -2  -4   0    2.08    0.28
   3   4  -1    0.82    0.52
  -3  -4   1    0.61    0.54
  -3  -4   1    1.76    0.56
  -3  -4   1    1.60    0.45
  -3  -4   1    2.19    0.50
  -4  -4   2    0.21    0.76
  -4  -4   2    1.18    0.85
  -4  -4   2   -0.61    0.90
  -4  -4   2    0.39    0.80
  -4   3   6   16.66    1.33
  -4   3   6   20.71    1.51
  -3   3   5   14.64    0.97
  -3   3   5   14.31    0.88
   3  -3  -5   15.82    0.64
   3  -3  -5   14.97    0.72
  -2   3   4    3.14    0.39
  -2   3   4    3.29    0.40
   2  -3  -4    3.16    0.33
   2  -3  -4    3.64    0.41
  -1   3   3   70.27    1.41
  -1   3   3   71.93    1.36
   1  -3  -3   70.35    1.34
   1  -3  -3   71.77    1.16
   1  -3  -3   72.08    1.41
   0   3   2   15.83    0.50
   0   3   2   14.89    0.52
   0   3   2   15.75    0.49
   0  -3  -2   15.72    0.52
   0  -3  -2   15.09    0.49
   0  -3  -2   14.99    0.55
   1   3   1   87.31    1.51
   1   3   1   86.89    1.47
   1   3   1   86.24    1.65
  -1  -3  -1   87.37    1.31
  -1  -3  -1   87.44    1.67
  -1  -3  -1   87.04    1.58
  -1  -3  -1   89.22    1.48
   2   3   0   -0.10    0.25
   2   3   0    0.22    0.15
   2   3   0   -0.19    0.25
  -2  -3   0   -0.06    0.28
  -2  -3   0    0.04    0.24
  -2  -3   0    0.25    0.21
  -2  -3   0    0.39    0.29
   3   3  -1   30.27    1.19
  -3  -3   1   31.91    1.16
  -3  -3   1   28.63    1.19
  -3  -3   1   31.30    1.07
  -3  -3   1   31.49    1.06
   4   3  -2    7.60    0.93
  -4  -3   2    4.92    1.20
  -4  -3   2    7.44    0.94
  -4  -3   2    5.45    0.90
  -4  -3   2    6.62    1.16
  -5   2   7    3.30    1.30
  -4   2   6    2.00    0.72
  -4   2   6    2.10    0.88
  -3   2   5    1.74    0.60
  -3   2   5    1.24    0.45
   3  -2  -5    1.40    0.36
   3  -2  -5    1.14    0.29
   3  -2  -5    1.18    0.21
  -2   2   4   15.40    0.67
  -2   2   4   14.50    0.64
   2  -2  -4   14.52    0.63
   2  -2  -4   14.85    0.36
   2  -2  -4   14.50    0.56
  -1   2   3   35.22    0.84
  -1   2   3   36.45    0.81
   1  -2  -3   35.35    0.84
   1  -2  -3   35.77    0.79
   0   2   2   -0.02    0.10
   0   2   2   -0.09    0.11
   0   2   2   -0.08    0.11
   0  -2  -2   -0.11    0.11
   0  -2  -2   -0.04    0.13
   0  -2  -2   -0.09    0.11
   1   2   1   26.71    0.71
   1   2   1   26.78    0.55
   1   2   1   26.22    0.56
  -1  -2  -1   26.86    0.64
  -1  -2  -1   26.25    0.50
  -1  -2  -1   27.20    0.73
   2   2   0   11.65    0.60
  -2  -2   0   11.28    0.60
  -2  -2   0   11.28    0.52
  -2  -2   0   11.68    0.55
  -2  -2   0   11.74    0.50
   3   2  -1    5.05    0.59
  -3  -2   1    5.33    0.57
  -3  -2   1    5.19    0.57
  -3  -2   1    5.67    0.63
  -3  -2   1    5.26    0.60
   4   2  -2   -0.74    0.62
  -4  -2   2    0.19    0.65
  -4  -2   2   -0.40    0.69
  -4  -2   2   -0.81    0.78
  -4  -2   2   -0.18    0.74
  -5  -2   3    0.80    1.39
  -5   1   7    2.11    1.33
  -4   1   6   19.50    1.50
  -4   1   6   21.16    1.40
   4  -1  -6   18.76    0.82
  -3   1   5   21.56    0.99
   3  -1  -5   22.10    0.75
   3  -1  -5   21.06    0.66
   3  -1  -5   20.99    0.69
  -2   1   4   23.30    0.77
  -2   1   4   25.65    0.81
   2  -1  -4   24.26    0.69
   2  -1  -4   25.05    0.58
   2  -1  -4   25.39    0.76
  -1   1   3  147.87    2.23
  -1   1   3  144.64    2.26
   1  -1  -3  142.28    2.24
   1  -1  -3  143.63    2.21
   0   1   2   34.24    0.62
   0   1   2   34.04    0.64
   0  -1  -2   34.21    0.64
   0  -1  -2   33.55    0.64
   0  -1  -2   34.04    0.62
   1   1   1  986.18   13.33
  -1  -1  -1 1000.00   13.29
  -1  -1  -1  970.74   13.31
   2   1   0   23.55    0.74
  -2  -1   0   23.48    0.63
  -2  -1   0   23.73    0.74
  -2  -1   0   23.73    0.61
   3   1  -1   32.66    1.04
  -3  -1   1   30.56    0.97
  -3  -1   1   32.24    1.05
  -3  -1   1   31.71    1.01
   4   1  -2   10.45    1.04
  -4  -1   2    8.69    0.93
  -4  -1   2    8.37    0.89
  -4  -1   2    9.03    1.08
  -4  -1   2    9.42    1.02
  -5  -1   3    7.12    1.51
  -5   0   7    2.12    1.43
  -4   0   6    1.95    0.95
  -4   0   6    3.79    0.85
  -4   0   6    2.92    0.90
   4   0  -6    1.84    0.54
  -3   0   5    2.33    0.50
   3   0  -5    2.61    0.40
   3   0  -5    2.51    0.33
   3   0  -5    2.75    0.38
  -2   0   4    5.95    0.47
  -2   0   4    5.74    0.47
   2   0  -4    5.66    0.37
   2   0  -4    4.91    0.38
   2   0  -4    5.27    0.44
  -1   0   3    8.75    0.37
  -1   0   3    8.96    0.37
   1   0  -3    8.39    0.35
   1   0  -3    9.08    0.39
   1   0  -3    8.40    0.29
   0   0   2   13.13    0.28
   0   0   2   12.37    0.29
   0   0   2   12.71    0.28
   0   0  -2   12.52    0.28
   0   0  -2   12.63    0.29
   0   0  -2   12.96    0.29
   1   0   1   13.79    0.39
  -1   0  -1   13.51    0.39
   2   0   0   -0.36    0.15
  -2   0   0   -0.14    0.16
  -2   0   0    0.04    0.16
  -2   0   0    0.12    0.14
   3   0  -1    2.09    0.36
  -3   0   1    2.08    0.39
  -3   0   1    1.69    0.36
  -3   0   1    1.75    0.36
   4   0  -2   -0.19    0.46
  -4   0   2    0.78    0.65
  -4   0   2   -0.58    0.56
  -4   0   2    0.43    0.52
  -5   0   3    1.98    1.34
  -4  -1   6   22.38    1.56
  -4  -1   6   21.56    1.66
  -4  -1   6   20.99    1.53
   4   1  -6   20.37    1.17
  -3  -1   5   10.43    0.92
  -3  -1   5   11.75    0.86
  -3  -1   5   10.68    0.68
  -3  -1   5   12.09    0.86
   3   1  -5   11.36    0.58
   3   1  -5   10.96    0.64
   3   1  -5   11.32    0.73
  -2  -1   4   37.78    1.00
  -2  -1   4   38.58    0.92
  -2  -1   4   37.84    1.11
  -2  -1   4   38.29    1.02
   2   1  -4   37.00    0.90
   2   1  -4   37.54    0.95
   2   1  -4   39.28    0.94
  -1  -1   3   71.20    1.36
  -1  -1   3   72.50    1.25
  -1  -1   3   73.64    1.31
  -1  -1   3   72.33    1.30
   1   1  -3   74.22    1.26
   1   1  -3   75.35    1.31
   1   1  -3   73.79    1.28
   0  -1   2    0.79    0.12
   0  -1   2    0.82    0.12
   0   1  -2    0.88    0.12
   0   1  -2    0.83    0.10
  -1   1  -1  133.08    2.00
  -2   1   0    0.57    0.15
  -2   1   0    0.29    0.17
  -2   1   0    0.27    0.15
  -3   1   1   34.00    0.87
  -3   1   1   33.51    0.95
  -3   1   1   33.29    0.94
  -4   1   2    0.73    0.80
  -4   1   2    1.02    0.64
  -4   1   2   -0.06    0.41
  -5   1   3   10.71    1.38
  -4  -2   6   -0.36    0.84
  -4  -2   6    0.52    0.77
  -4  -2   6    0.76    0.86
   4   2  -6   -0.80    0.66
  -3  -2   5    2.14    0.52
  -3  -2   5    1.46    0.43
  -3  -2   5    0.92    0.51
  -3  -2   5    1.54    0.55
   3   2  -5    1.03    0.35
   3   2  -5    1.27    0.41
   3   2  -5    1.44    0.44
  -2  -2   4    5.58    0.52
  -2  -2   4    5.72    0.51
  -2  -2   4    5.38    0.54
  -2  -2   4    5.44    0.47
   2   2  -4    4.72    0.43
   2   2  -4    5.36    0.49
   2   2  -4    5.07    0.46
  -1  -2   3   10.09    0.43
  -1  -2   3   10.56    0.43
  -1  -2   3   10.39    0.43
  -1  -2   3   10.10    0.44
   1   2  -3   10.71    0.45
   1   2  -3   10.43    0.48
   1   2  -3   10.10    0.42
   1   2  -3   10.42    0.43
   0  -2   2    0.01    0.10
   0  -2   2    0.12    0.11
   0  -2   2   -0.05    0.09
   0  -2   2    0.13    0.10
   0   2  -2    0.14    0.10
   0   2  -2    0.08    0.09
   0   2  -2    0.07    0.10
   0   2  -2   -0.07    0.10
  -1   2  -1    1.66    0.15
  -2   2   0    0.04    0.13
  -2   2   0    0.24    0.17
  -2   2   0    0.11    0.16
  -3   2   1    1.10    0.35
  -3   2   1    1.21    0.23
  -3   2   1    0.90    0.36
  -4   2   2    0.72    0.59
  -4   2   2    1.00    0.68
  -5   2   3    1.02    1.12
  -4  -3   6   14.12    1.58
  -4  -3   6   11.40    1.07
  -4  -3   6   15.50    1.60
  -4  -3   6   11.05    1.47
   4   3  -6    8.87    0.99
  -3  -3   5   14.89    0.93
  -3  -3   5   16.06    1.00
  -3  -3   5   17.30    1.11
  -3  -3   5   15.65    0.99
   3   3  -5   14.85    0.86
   3   3  -5   14.69    0.76
   3   3  -5   14.62    0.94
  -2  -3   4   31.41    1.03
  -2  -3   4   30.21    0.97
  -2  -3   4   30.76    0.97
  -2  -3   4   31.26    0.98
   2   3  -4   31.23    0.96
   2   3  -4   31.67    0.91
   2   3  -4   32.83    1.00
  -1  -3   3   70.62    1.41
  -1  -3   3   73.00    1.36
  -1  -3   3   71.28    1.40
  -1  -3   3   72.72    1.36
   1   3  -3   74.11    1.42
   1   3  -3   70.71    1.37
   1   3  -3   70.44    1.41
   1   3  -3   70.48    1.38
   0  -3   2   23.19    0.56
   0  -3   2   22.58    0.61
   0  -3   2   23.00    0.61
   0  -3   2   23.25    0.59
   0   3  -2   23.37    0.60
   0   3  -2   23.44    0.57
   0   3  -2   23.92    0.60
   1  -3   1  114.25    1.69
   1  -3   1  109.38    1.63
  -1   3  -1  111.31    1.75
  -1   3  -1  105.35    1.95
  -1   3  -1  110.01    1.63
  -1   3  -1  110.75    1.72
  -2   3   0    1.42    0.24
  -2   3   0    1.18    0.24
  -3   3   1   53.93    1.25
  -3   3   1   53.75    1.31
  -4   3   2    4.84    0.71
  -4   3   2    4.19    0.71
  -5   3   3    7.30    1.30
  -4  -4   6    2.59    0.88
  -4  -4   6    4.57    1.14
  -4  -4   6    3.73    1.09
  -4  -4   6    3.37    1.04
  -3  -4   5    9.15    0.96
  -3  -4   5    9.53    0.92
  -3  -4   5    8.84    1.06
  -3  -4   5    9.74    0.97
   3   4  -5    9.23    0.77
   3   4  -5    9.37    0.95
   3   4  -5    8.53    0.87
  -2  -4   4    2.14    0.37
  -2  -4   4    2.30    0.42
  -2  -4   4    2.01    0.37
  -2  -4   4    1.71    0.43
   2   4  -4    1.92    0.37
   2   4  -4    1.92    0.43
   2   4  -4    2.48    0.41
  -1  -4   3    0.74    0.25
  -1  -4   3    0.91    0.22
  -1  -4   3    0.77    0.26
  -1  -4   3    0.62    0.20
   1   4  -3    0.91    0.24
   1   4  -3    0.73    0.26
   1   4  -3    0.73    0.26
   1   4  -3    0.77    0.24
   0  -4   2    1.60    0.24
   0  -4   2    1.69    0.24
   0  -4   2    2.10    0.24
   0  -4   2    2.32    0.30
   0   4  -2    2.24    0.27
   0   4  -2    1.77    0.24
   0   4  -2    1.93    0.26
   0   4  -2    2.39    0.27
   1  -4   1    4.14    0.30
   1  -4   1    3.75    0.33
  -1   4  -1    3.37    0.41
  -1   4  -1    4.00    0.25
  -1   4  -1    3.69    0.32
  -1   4  -1    3.63    0.32
  -2   4   0    0.52    0.24
  -2   4   0    0.85    0.25
  -3   4   1    0.92    0.38
  -3   4   1    1.03    0.37
  -4   4   2   -0.38    0.68
  -4   4   2    0.40    0.62
  -5   4   3   -0.07    1.18
  -4  -5   6    9.81    1.35
  -4  -5   6    8.83    1.22
  -4  -5   6    7.54    1.18
   4   5  -6    6.93    1.22
  -3  -5   5   11.09    1.16
  -3  -5   5   12.23    1.05
  -3  -5   5   11.46    1.15
  -3  -5   5   12.19    1.01
   3   5  -5    9.92    0.95
   3   5  -5   10.94    1.07
   3   5  -5   11.93    1.02
  -2  -5   4   35.69    1.05
  -2  -5   4   33.37    1.20
  -2  -5   4   34.42    1.22
   2   5  -4   35.03    1.26
   2   5  -4   33.96    1.10
   2   5  -4   36.47    1.21
   2   5  -4   36.43    1.15
  -1  -5   3   36.08    0.94
  -1  -5   3   35.15    1.08
  -1  -5   3   37.66    0.98
  -1  -5   3   37.45    1.07
   1   5  -3   35.78    1.02
   1   5  -3   35.71    1.02
   1   5  -3   36.67    1.06
   1   5  -3   35.09    1.03
   0  -5   2   43.21    1.00
   0  -5   2   43.16    1.07
   0  -5   2   42.24    1.04
   0  -5   2   42.75    1.09
   0   5  -2   42.79    1.01
   0   5  -2   43.82    1.04
   0   5  -2   44.90    1.05
   0   5  -2   44.03    1.10
   1  -5   1  138.18    2.28
   1  -5   1  138.58    2.30
   1  -5   1  136.20    2.18
  -1   5  -1  137.42    2.53
  -1   5  -1  144.25    2.41
  -1   5  -1  141.09    2.20
  -1   5  -1  139.10    2.31
   2  -5   0    0.34    0.17
   2  -5   0    0.42    0.19
  -2   5   0    0.19    0.28
  -2   5   0    0.19    0.29
  -3   5   1   46.61    1.29
  -3   5   1   45.45    1.36
  -4   5   2    7.34    0.98
  -4   5   2   10.06    1.12
  -4  -6   6    1.08    1.08
  -4  -6   6   -0.44    1.04
  -4  -6   6    2.62    1.32
  -3  -6   5    0.20    0.73
  -3  -6   5    0.33    0.55
  -3  -6   5    0.56    0.65
   3   6  -5   -0.11    0.55
   3   6  -5    0.04    0.72
  -2  -6   4    2.18    0.46
  -2  -6   4    2.71    0.44
  -2  -6   4    2.51    0.55
  -2  -6   4    1.65    0.52
   2   6  -4    2.53    0.54
   2   6  -4    3.38    0.61
   2   6  -4    2.53    0.48
   2   6  -4    2.36    0.51
  -1  -6   3    2.03    0.42
  -1  -6   3    2.03    0.43
  -1  -6   3    2.18    0.41
  -1  -6   3    2.24    0.36
   1   6  -3    2.29    0.41
   1   6  -3    2.80    0.46
   1   6  -3    2.44    0.41
   1   6  -3    2.71    0.45
   0  -6   2    3.26    0.43
   0  -6   2    3.64    0.45
   0  -6   2    2.53    0.34
   0  -6   2    2.67    0.38
   0   6  -2    3.15    0.42
   0   6  -2    3.14    0.42
   0   6  -2    3.10    0.40
   0   6  -2    3.08    0.36
   1  -6   1    0.93    0.25
   1  -6   1    0.71    0.30
   1  -6   1    0.85    0.30
  -1   6  -1    0.79    0.23
  -1   6  -1    0.71    0.30
  -1   6  -1    0.22    0.28
  -1   6  -1    0.83    0.29
   2  -6   0    0.27    0.28
   2  -6   0    1.26    0.27
  -2   6   0    0.72    0.36
  -2   6   0    0.02    0.40
  -2   6   0    0.60    0.19
  -2   6   0    0.86    0.35
  -3   6   1   10.43    0.92
  -3   6   1   10.91    0.85
  -4   6   2    0.03    0.76
  -4   6   2    0.79    0.89
  -4  -7   6   14.27    1.65
  -4  -7   6   13.20    1.78
  -3  -7   5    3.00    0.78
  -3  -7   5    4.85    1.00
  -3  -7   5    4.87    0.96
  -3  -7   5    4.65    0.74
   3   7  -5    4.67    0.80
   3   7  -5    3.06    0.84
   3   7  -5    4.50    0.95
  -2  -7   4   21.11    1.04
  -2  -7   4   17.08    1.43
   2   7  -4   20.77    1.09
   2   7  -4   19.30    1.09
   2   7  -4   22.14    1.19
   2   7  -4   20.97    1.22
  -1  -7   3   27.29    0.96
  -1  -7   3   25.93    1.09
  -1  -7   3   27.11    1.13
  -1  -7   3   27.80    0.99
   1   7  -3   26.76    1.09
   1   7  -3   26.75    1.06
   1   7  -3   28.55    1.09
   1   7  -3   27.53    1.05
   0  -7   2    5.63    0.60
   0  -7   2    5.47    0.59
   0  -7   2    5.96    0.61
   0  -7   2    5.08    0.60
   0   7  -2    5.47    0.52
   0   7  -2    4.71    0.57
   0   7  -2    5.27    0.60
   0   7  -2    4.76    0.54
   1  -7   1   75.38    1.55
   1  -7   1   77.46    1.69
   1  -7   1   79.55    1.73
  -1   7  -1   76.53    1.66
  -1   7  -1   73.93    2.19
  -1   7  -1   78.97    1.58
  -1   7  -1   78.18    1.84
   2  -7   0   21.02    0.84
   2  -7   0   20.43    0.83
  -2   7   0   21.10    0.63
  -2   7   0   20.05    1.13
  -2   7   0   21.65    0.96
  -2   7   0   22.36    1.04
  -3   7   1    8.03    1.08
  -3   7   1    7.59    0.81
  -3   7   1    8.53    0.97
  -4   7   2    1.46    1.03
  -4   7   2    1.20    0.89
  -4   7   2   -0.63    0.98
  -3  -8   5   -0.30    0.94
  -3  -8   5    0.97    0.92
  -3  -8   5   -1.68    0.71
   3   8  -5   -1.38    1.01
   3   8  -5    0.50    0.84
  -2  -8   4    0.16    0.61
  -2  -8   4    1.12    0.58
  -2  -8   4    0.82    0.63
  -2  -8   4    0.82    0.52
   2   8  -4    1.54    0.74
   2   8  -4    0.58    0.66
   2   8  -4   -0.64    0.60
  -1  -8   3   -0.04    0.42
  -1  -8   3    0.56    0.42
  -1  -8   3   -0.28    0.49
  -1  -8   3    0.75    0.49
   1   8  -3    0.07    0.43
   1   8  -3    0.00    0.47
   1   8  -3    0.62    0.36
   1   8  -3    0.25    0.49
   0  -8   2    0.52    0.43
   0  -8   2    0.36    0.38
   0  -8   2    0.59    0.76
   0  -8   2    0.65    0.46
   0   8  -2    0.39    0.39
   0   8  -2    0.84    0.39
   0   8  -2    0.40    0.36
   0   8  -2    0.58    0.38
   1  -8   1    0.14    0.40
   1  -8   1   -0.02    0.43
   1  -8   1   -0.07    0.32
  -1   8  -1    0.18    0.38
  -1   8  -1    0.21    0.41
  -1   8  -1    0.02    0.29
  -1   8  -1   -0.12    0.38
   2  -8   0    0.40    0.44
   2  -8   0    1.78    0.48
  -2   8   0    0.52    0.51
  -2   8   0    1.10    0.50
  -2   8   0    0.70    0.56
  -2   8   0    0.16    0.28
  -3   8   1    3.25    0.75
  -3   8   1    2.24    0.75
  -3   8   1    2.42    0.88
  -4   8   2    2.82    1.00
  -4   8   2    3.71    1.31
  -4   8   2    0.44    1.21
  -3  -9   5    1.45    1.11
  -3  -9   5    3.04    0.98
  -3  -9   5    2.73    1.20
   3   9  -5    3.78    1.50
  -2  -9   4   21.78    1.33
  -2  -9   4   20.17    1.22
  -2  -9   4   18.67    1.43
  -2  -9   4   22.38    1.53
   2   9  -4   22.78    1.60
   2   9  -4   18.17    1.50
   2   9  -4   17.99    1.42
  -1  -9   3   22.43    1.35
  -1  -9   3   21.21    1.14
  -1  -9   3   22.95    1.28
   1   9  -3   22.04    1.15
   1   9  -3   19.45    1.18
   1   9  -3   20.15    1.20
   1   9  -3   18.61    2.05
   0  -9   2   13.60    0.97
   0  -9   2   13.37    1.08
   0  -9   2   15.71    0.95
   0   9  -2   14.49    0.93
   0   9  -2   14.25    0.92
   0   9  -2   15.38    0.96
   1  -9   1   29.94    1.29
   1  -9   1   32.01    1.24
   1  -9   1   31.43    1.12
  -1   9  -1   30.58    1.28
  -1   9  -1   30.09    1.19
  -1   9  -1   30.06    1.28
  -1   9  -1   28.01    1.29
   2  -9   0   -0.17    0.52
   2  -9   0    0.20    0.55
  -2   9   0    0.29    0.58
  -2   9   0    0.46    0.37
  -2   9   0    0.88    0.53
  -2   9   0   -0.24    0.58
  -3   9   1   37.60    1.92
  -3   9   1   38.06    1.65
  -3   9   1   36.43    1.79
  -4   9   2    1.20    1.11
  -4   9   2    0.20    1.38
  -3 -10   5    0.55    1.33
  -3 -10   5    0.87    1.19
   3  10  -5   -1.62    1.56
   3  10  -5    0.75    1.31
  -2 -10   4    0.11    0.83
  -2 -10   4    0.13    0.81
  -2 -10   4    1.23    0.89
   2  10  -4    0.69    0.93
   2  10  -4    2.21    1.08
   2  10  -4    1.16    0.98
  -1 -10   3    0.17    0.71
  -1 -10   3    0.96    0.64
  -1 -10   3    0.01    0.67
   1  10  -3    0.81    0.74
   1  10  -3   -0.69    0.66
   1  10  -3    0.29    0.65
   1  10  -3   -0.35    0.66
   0 -10   2    0.36    0.60
   0 -10   2   -0.33    0.61
   0  10  -2    0.21    0.54
   0  10  -2    0.66    0.52
   0  10  -2    0.18    0.52
   1 -10   1    0.16    0.48
   1 -10   1    0.57    0.57
   1 -10   1    0.45    0.62
  -1  10  -1   -0.22    0.57
  -1  10  -1    0.37    0.48
  -1  10  -1    0.22    0.53
   2 -10   0    1.29    0.72
   2 -10   0    1.57    0.75
  -2  10   0    2.20    0.71
  -2  10   0    2.19    0.79
  -2  10   0    1.76    0.49
  -2  10   0    3.15    0.88
  -3  10   1    0.23    0.90
  -3  10   1    0.67    0.90
  -3  10   1    0.84    1.02
  -2 -11   4   15.79    1.76
  -2 -11   4   13.58    1.53
  -2 -11   4   14.86    1.53
   2  11  -4   20.43    2.63
   2  11  -4   12.02    1.46
  -1 -11   3    9.46    1.13
  -1 -11   3    8.90    1.17
  -1 -11   3   10.62    1.42
   1  11  -3    8.79    1.12
   1  11  -3    8.75    1.07
   1  11  -3    9.51    1.12
   1  11  -3   11.77    1.50
   0 -11   2    8.46    0.97
   0 -11   2    6.39    1.03
   0 -11   2    7.77    0.96
   0  11  -2   10.71    1.20
   0  11  -2   10.08    1.35
   0  11  -2    8.67    0.98
   1 -11   1   27.16    1.37
   1 -11   1   26.74    1.60
  -1  11  -1   28.73    1.42
  -1  11  -1   28.12    1.52
  -1  11  -1   28.16    1.61
  -1  11  -1   27.95    1.38
   2 -11   0    1.47    0.87
   2 -11   0    2.13    0.96
  -2  11   0    0.31    0.79
  -2  11   0    3.10    0.96
  -2  11   0    2.60    1.22
  -3  11   1   16.85    1.71
  -3  11   1   13.96    1.57
   2  12  -4    2.72    1.53
   2  12  -4    4.63    1.64
  -1 -12   3    2.08    1.11
  -1 -12   3    0.47    1.01
   1  12  -3   -0.25    1.01
   1  12  -3    0.64    1.09
   0 -12   2    2.24    1.04
   0 -12   2    1.01    0.86
   0  12  -2    1.31    0.83
   0  12  -2    0.51    0.78
   0  12  -2   -0.57    0.83
   1 -12   1    1.84    1.02
   1 -12   1    1.97    0.96
   1 -12   1   -0.40    0.77
  -1  12  -1    0.90    0.81
  -1  12  -1    1.20    0.84
  -1  12  -1    0.27    0.83
   2 -12   0    1.96    1.07
  -2  12   0    0.40    0.92
  -2  12   0    1.92    1.11
  -2  12   0    0.64    0.76
  -3  12   1    1.61    1.29
  -1 -13   3    6.66    1.50
  -1 -13   3    7.51    1.44
   1  13  -3    8.17    1.50
   1  13  -3    6.31    1.59
   0 -13   2    7.28    1.37
   0 -13   2    5.84    1.23
   0  13  -2    5.96    1.19
   0  13  -2    6.71    1.11
   1 -13   1   24.04    1.80
   1 -13   1   27.89    2.22
  -1  13  -1   22.84    1.84
  -1  13  -1   24.08    1.91
  -1  13  -1   26.34    1.98
   2 -13   0    1.70    1.29
   2 -13   0    1.26    1.58
  -2  13   0    0.84    1.24
  -2  13   0   -1.30    1.13
   0 -14   2    3.28    1.65
   0 -14   2    1.38    1.32
   0  14  -2    0.39    1.36
   1 -14   1   -0.15    1.18
   1 -14   1    5.13    1.56
  -1  14  -1    2.42    1.35
  -1  13   4    0.79    1.18
  -1  13   4   -0.69    1.07
  -1  13   4    0.05    1.17
   1 -13  -4    1.00    1.48
   1 -13  -4    0.37    1.05
   0  13   3   -0.11    1.20
   0  13   3    2.31    1.03
   0 -13  -3   -0.50    1.14
   0 -13  -3    3.05    1.48
   1  13   2   -1.31    1.56
  -1 -13  -2   -0.44    1.92
  -2  12   5    1.97    1.16
  -2  12   5    3.36    1.05
   2 -12  -5    1.69    1.33
   2 -12  -5    2.77    0.98
  -1  12   4   17.87    1.62
  -1  12   4   15.90    1.61
  -1  12   4   17.42    1.58
   1 -12  -4   14.22    1.57
   1 -12  -4   16.76    1.62
   0  12   3    8.28    1.05
   0  12   3    7.27    1.21
   0 -12  -3    9.88    1.46
   0 -12  -3    6.25    1.11
   1  12   2    3.49    1.30
   1  12   2    6.32    1.01
  -1 -12  -2    5.40    1.29
  -1 -12  -2    6.64    1.46
   2  12   1    4.23    1.76
  -3  11   6    0.26    1.48
  -3  11   6    2.29    1.66
   3 -11  -6    3.48    1.34
  -2  11   5    2.05    1.04
  -2  11   5    2.05    0.92
   2 -11  -5    0.78    1.14
   2 -11  -5    2.18    0.74
   2 -11  -5    1.36    1.14
  -1  11   4    1.07    0.70
  -1  11   4   -0.09    0.74
  -1  11   4    0.68    0.72
   1 -11  -4    0.04    0.72
   1 -11  -4    0.30    0.95
   1 -11  -4    2.16    0.87
   0  11   3    0.75    0.64
   0  11   3    1.07    0.82
   0  11   3    0.73    0.74
   0  11   3   -0.04    0.80
   0 -11  -3   -0.17    0.74
   0 -11  -3    0.14    0.93
   1  11   2   -0.05    0.91
   1  11   2   -0.60    0.70
  -1 -11  -2    0.73    0.94
  -1 -11  -2    2.34    1.05
   2  11   1    0.79    1.20
   2  11   1    0.20    1.37
  -2 -11  -1    0.42    1.28
  -2 -11  -1   -0.74    1.09
  -3  10   6    9.66    1.46
  -3  10   6   14.16    1.43
  -2  10   5    3.43    0.83
  -2  10   5    2.79    0.95
   2 -10  -5    3.89    0.64
   2 -10  -5    3.86    0.99
   2 -10  -5    2.92    0.96
  -1  10   4   18.66    1.13
  -1  10   4   19.65    1.28
  -1  10   4   17.11    1.22
   1 -10  -4   22.79    1.56
   1 -10  -4   19.24    1.22
   1 -10  -4   19.83    1.34
   0  10   3   30.20    1.45
   0  10   3   29.59    1.23
   0  10   3   29.42    1.42
   0  10   3   28.47    1.46
   0 -10  -3   27.10    1.44
   0 -10  -3   27.65    1.62
   1  10   2    8.43    1.01
   1  10   2   12.74    1.17
  -1 -10  -2    9.73    1.10
  -1 -10  -2    9.07    0.98
  -1 -10  -2   11.13    1.16
  -2 -10  -1    6.95    1.18
  -2 -10  -1    9.44    1.34
  -3 -10   0    1.03    1.51
  -3   9   6    1.28    0.86
   3  -9  -6   -0.03    0.92
   3  -9  -6    1.33    0.97
  -2   9   5    0.80    0.66
  -2   9   5    1.37    0.71
  -2   9   5    1.02    0.75
   2  -9  -5    1.09    0.44
   2  -9  -5    0.89    0.78
   2  -9  -5    0.37    0.71
  -1   9   4    5.12    0.62
  -1   9   4    5.89    0.76
  -1   9   4    6.59    0.76
   1  -9  -4    5.50    0.65
   1  -9  -4    6.21    0.76
   0   9   3   15.04    1.05
   0   9   3   15.57    0.91
   0   9   3   15.23    1.05
   0  -9  -3   15.11    1.23
   0  -9  -3   13.94    1.10
   1   9   2    2.83    0.62
   1   9   2    4.74    0.75
   1   9   2    3.38    0.58
  -1  -9  -2    4.39    0.72
  -1  -9  -2    4.01    0.88
  -1  -9  -2    4.93    0.87
   2   9   1    0.03    0.83
   2   9   1    1.61    0.74
   2   9   1    0.94    0.79
  -2  -9  -1    1.54    0.82
  -2  -9  -1    0.73    0.81
  -2  -9  -1    0.21    0.84
  -3  -9   0   -1.99    1.14
  -3  -9   0    1.57    1.26
  -4   8   7    0.78    1.21
  -3   8   6   28.96    1.85
  -3   8   6   29.82    1.61
   3  -8  -6   31.09    1.56
   3  -8  -6   31.61    1.62
  -2   8   5    0.30    0.51
  -2   8   5    0.52    0.59
   2  -8  -5    0.94    0.61
   2  -8  -5    0.14    0.35
   2  -8  -5    0.15    0.61
  -1   8   4   43.14    1.53
  -1   8   4   43.59    1.39
  -1   8   4   44.86    1.50
  -1   8   4   45.44    1.27
   1  -8  -4   43.28    1.56
   1  -8  -4   44.60    1.43
   1  -8  -4   45.59    1.30
   0   8   3   30.43    1.17
   0   8   3   32.16    1.06
   0   8   3   32.39    1.24
   0   8   3   32.91    1.22
   0  -8  -3   32.15    1.21
   0  -8  -3   32.00    1.24
   0  -8  -3   32.09    1.35
   1   8   2   32.02    1.18
   1   8   2   30.47    1.26
   1   8   2   31.53    1.25
  -1  -8  -2   32.69    1.37
  -1  -8  -2   32.86    1.21
  -1  -8  -2   30.99    1.40
   2   8   1   16.27    1.23
   2   8   1   16.77    1.10
  -2  -8  -1   16.91    1.17
  -2  -8  -1   15.89    1.28
  -2  -8  -1   17.29    1.37
   3   8   0   14.25    1.11
   3   8   0   12.45    1.24
  -3  -8   0   11.72    1.34
  -3  -8   0   12.33    0.87
  -3  -8   0   10.96    1.27
  -3  -8   0   14.45    1.58
  -4   7   7   -0.51    0.98
  -3   7   6    1.13    0.77
  -3   7   6    0.96    0.69
   3  -7  -6    0.51    0.60
   3  -7  -6    0.61    0.67
  -2   7   5    0.37    0.52
  -2   7   5    0.22    0.43
   2  -7  -5    0.07    0.53
   2  -7  -5   -0.65    0.44
   2  -7  -5    0.46    0.30
  -1   7   4    0.39    0.36
  -1   7   4    0.19    0.28
  -1   7   4   -0.09    0.37
  -1   7   4    0.01    0.37
   1  -7  -4    0.02    0.43
   1  -7  -4    0.28    0.32
   1  -7  -4    0.09    0.34
   0   7   3    2.65    0.39
   0   7   3    2.89    0.80
   0   7   3    2.01    0.44
   0   7   3    1.62    0.40
   0  -7  -3    2.42    0.45
   0  -7  -3    1.73    0.42
   0  -7  -3    2.16    0.51
   1   7   2    0.45    0.38
   1   7   2    0.23    0.34
   1   7   2    0.79    0.33
   1   7   2    0.93    0.39
  -1  -7  -2    0.25    0.37
  -1  -7  -2    0.70    0.45
  -1  -7  -2    0.25    0.36
   2   7   1    0.44    0.55
   2   7   1    0.76    0.53
  -2  -7  -1    0.65    0.53
  -2  -7  -1    0.57    0.60
  -2  -7  -1    0.99    0.33
  -2  -7  -1    0.70    0.56
   3   7   0    0.45    0.82
  -3  -7   0    0.65    0.81
  -3  -7   0   -0.32    0.44
  -3  -7   0    0.46    0.72
  -3  -7   0   -0.01    0.76
  -4  -7   1   -1.34    1.27
  -4  -7   1   -1.97    1.29
  -4   6   7    0.94    0.87
  -3   6   6   29.66    1.54
  -3   6   6   27.84    1.30
   3  -6  -6   31.26    1.28
  -2   6   5    0.26    0.42
  -2   6   5    1.65    0.48
   2  -6  -5    0.58    0.24
   2  -6  -5    0.76    0.49
   2  -6  -5    0.36    0.41
  -1   6   4   53.99    1.48
  -1   6   4   56.32    1.23
  -1   6   4   56.54    1.39
   1  -6  -4   54.24    1.50
   1  -6  -4   55.73    1.25
   0   6   3   19.15    0.79
   0   6   3   19.39    0.78
   0   6   3   18.39    0.69
   0   6   3   19.28    0.82
   0  -6  -3   18.61    0.89
   0  -6  -3   19.40    0.82
   0  -6  -3   18.88    0.81
   1   6   2   21.08    0.65
   1   6   2   22.80    0.82
   1   6   2   22.25    0.91
   1   6   2   20.65    0.87
  -1  -6  -2   21.18    0.97
  -1  -6  -2   21.56    0.96
  -1  -6  -2   20.47    0.99
   2   6   1   34.15    1.10
   2   6   1   33.53    1.27
   2   6   1   33.86    1.05
  -2  -6  -1   34.06    1.13
  -2  -6  -1   34.04    1.35
  -2  -6  -1   33.21    1.32
  -2  -6  -1   31.88    0.79
   3   6   0    4.86    0.78
  -3  -6   0    6.89    0.80
  -3  -6   0    5.00    0.83
  -3  -6   0    5.43    0.54
  -3  -6   0    5.99    1.14
  -4  -6   1    8.52    1.43
  -4  -6   1    7.62    1.35
  -4  -6   1    7.89    1.13
  -4   5   7    3.96    0.98
  -4   5   7    4.12    1.14
  -3   5   6    2.09    0.70
  -3   5   6    2.56    0.63
   3  -5  -6    2.54    0.52
   3  -5  -6    2.50    0.60
  -2   5   5    0.96    0.38
  -2   5   5    1.95    0.44
   2  -5  -5    1.01    0.20
   2  -5  -5    0.49    0.36
   2  -5  -5    0.74    0.42
  -1   5   4    6.07    0.53
  -1   5   4    5.85    0.52
  -1   5   4    4.88    0.38
   1  -5  -4    6.44    0.61
   1  -5  -4    5.34    0.52
   1  -5  -4    5.37    0.43
   0   5   3    0.39    0.21
   0   5   3    0.03    0.22
   0   5   3    0.16    0.23
   0   5   3    0.01    0.20
   0  -5  -3    0.32    0.29
   0  -5  -3   -0.17    0.22
   0  -5  -3    0.20    0.25
   1   5   2    0.43    0.27
   1   5   2    0.61    0.19
   1   5   2    0.51    0.27
  -1  -5  -2    0.55    0.32
  -1  -5  -2   -0.16    0.31
  -1  -5  -2    0.49    0.25
   2   5   1    2.92    0.40
   2   5   1    2.50    0.48
   2   5   1    3.18    0.42
  -2  -5  -1    2.39    0.51
  -2  -5  -1    2.93    0.42
  -2  -5  -1    2.93    0.55
  -2  -5  -1    3.09    0.30
   3   5   0    0.15    0.60
  -3  -5   0    0.44    0.36
  -3  -5   0   -0.40    0.46
  -3  -5   0   -0.15    0.58
  -3  -5   0   -0.19    0.58
   4   5  -1    2.46    0.96
  -4  -5   1    0.08    1.02
  -4  -5   1    0.08    1.01
  -4  -5   1    0.45    0.75
  -4  -5   1    1.07    0.85
  -4   4   7   -1.17    0.72
  -4   4   7   -1.99    0.91
  -3   4   6   45.25    1.57
  -3   4   6   48.36    1.49
   3  -4  -6   44.86    1.22
   3  -4  -6   48.20    1.35
  -2   4   5    0.68    0.34
  -2   4   5    0.44    0.33
   2  -4  -5    0.40    0.37
   2  -4  -5    0.67    0.30
  -1   4   4   72.05    1.48
  -1   4   4   71.75    1.55
   1  -4  -4   70.92    1.56
   1  -4  -4   73.18    1.31
   1  -4  -4   72.64    1.49
   0   4   3   16.76    0.60
   0   4   3   16.82    0.64
   0   4   3   16.93    0.59
   0  -4  -3   15.85    0.63
   0  -4  -3   15.62    0.59
   0  -4  -3   16.75    0.68
   1   4   2   45.31    1.17
   1   4   2   47.56    1.06
  -1  -4  -2   46.14    1.21
  -1  -4  -2   46.13    1.02
  -1  -4  -2   45.73    1.15
   2   4   1   23.02    0.65
   2   4   1   23.98    0.63
   2   4   1   21.81    0.93
  -2  -4  -1   22.60    0.91
  -2  -4  -1   22.22    0.75
  -2  -4  -1   22.80    0.97
  -2  -4  -1   21.98    0.58
   3   4   0    6.18    0.78
  -3  -4   0    6.05    0.64
  -3  -4   0    6.89    0.73
  -3  -4   0    6.66    0.78
   4   4  -1   13.53    1.49
  -4  -4   1   13.19    1.26
  -4  -4   1   13.95    1.26
  -4  -4   1   11.78    1.19
  -4   3   7    0.90    0.94
  -4   3   7    0.41    0.72
  -3   3   6    2.58    0.54
  -3   3   6    1.38    0.48
   3  -3  -6    1.48    0.47
   3  -3  -6    1.77    0.40
  -2   3   5    1.14    0.36
  -2   3   5    1.33    0.36
   2  -3  -5    1.33    0.15
   2  -3  -5    1.20    0.28
   2  -3  -5    1.44    0.37
  -1   3   4  102.53    1.82
  -1   3   4  101.10    1.89
   1  -3  -4  103.25    1.90
   1  -3  -4  104.30    1.64
   1  -3  -4  101.92    1.82
   0   3   3   12.54    0.47
   0   3   3   11.95    0.46
   0   3   3   12.13    0.48
   0  -3  -3   12.26    0.49
   0  -3  -3   11.63    0.46
   0  -3  -3   11.39    0.52
   1   3   2   20.56    0.71
   1   3   2   21.23    0.59
   1   3   2   21.20    0.57
  -1  -3  -2   20.73    0.67
  -1  -3  -2   20.90    0.57
  -1  -3  -2   20.65    0.74
   2   3   1    0.57    0.30
  -2  -3  -1    0.85    0.20
  -2  -3  -1    0.10    0.29
  -2  -3  -1    0.36    0.30
   3   3   0    1.00    0.48
  -3  -3   0    0.96    0.40
  -3  -3   0    0.81    0.48
  -3  -3   0    0.59    0.41
  -3  -3   0    0.53    0.45
   4   3  -1    2.65    0.84
  -4  -3   1    3.60    0.82
  -4  -3   1    3.55    0.80
  -4  -3   1    3.73    1.08
  -4  -3   1    2.65    0.83
  -4   2   7    3.72    0.98
  -4   2   7    5.18    0.86
  -3   2   6   40.53    1.37
  -3   2   6   42.53    1.33
   3  -2  -6   41.90    1.18
   3  -2  -6   41.28    1.08
   3  -2  -6   40.95    0.85
  -2   2   5    3.14    0.39
  -2   2   5    2.76    0.39
   2  -2  -5    2.77    0.40
   2  -2  -5    2.77    0.24
   2  -2  -5    2.44    0.32
  -1   2   4   77.75    1.52
  -1   2   4   85.92    1.51
   1  -2  -4   83.11    1.48
   1  -2  -4   79.85    1.54
   0   2   3   15.45    0.46
   0   2   3   15.25    0.48
   0   2   3   15.18    0.46
   0  -2  -3   15.61    0.51
   0  -2  -3   15.25    0.46
   0  -2  -3   14.39    0.47
   1   2   2   37.03    0.68
   1   2   2   37.53    0.90
  -1  -2  -2   37.75    0.92
  -1  -2  -2   37.82    0.80
  -1  -2  -2   37.17    0.71
   2   2   1   15.12    0.68
  -2  -2  -1   14.08    0.52
  -2  -2  -1   13.18    0.68
  -2  -2  -1   13.19    0.55
  -2  -2  -1   13.96    0.54
   3   2   0   16.17    1.00
  -3  -2   0   17.25    0.77
  -3  -2   0   17.78    0.93
  -3  -2   0   16.93    0.87
  -3  -2   0   18.06    0.85
   4   2  -1   20.15    1.30
  -4  -2   1   17.53    1.33
  -4  -2   1   18.18    1.39
  -4  -2   1   16.99    1.33
  -4  -2   1   19.52    1.29
  -5  -2   2    2.29    1.36
  -4   1   7    1.32    1.01
  -4   1   7    1.95    0.75
  -4   1   7    1.17    0.87
   4  -1  -7    0.91    0.45
  -3   1   6    5.87    0.65
  -3   1   6    6.01    0.66
   3  -1  -6    5.25    0.50
   3  -1  -6    5.95    0.68
   3  -1  -6    4.62    0.55
  -2   1   5    0.44    0.29
  -2   1   5    0.64    0.26
   2  -1  -5    0.38    0.23
   2  -1  -5    0.15    0.27
   2  -1  -5    0.50    0.18
  -1   1   4    6.13    0.36
  -1   1   4    6.11    0.37
   1  -1  -4    5.62    0.34
   1  -1  -4    5.98    0.39
   0   1   3   33.71    0.68
   0   1   3   34.51    0.66
   0   1   3   33.30    0.63
   0  -1  -3   33.03    0.66
   0  -1  -3   35.15    0.70
   1   1   2    0.41    0.14
  -1  -1  -2    0.27    0.16
  -1  -1  -2    0.30    0.15
  -1  -1  -2    0.34    0.09
   2   1   1   31.07    0.86
  -2  -1  -1   30.52    0.66
  -2  -1  -1   30.56    0.89
  -2  -1  -1   30.67    0.70
   3   1   0    0.30    0.37
  -3  -1   0    1.37    0.37
  -3  -1   0    0.79    0.38
  -3  -1   0    0.94    0.33
   4   1  -1    1.17    0.59
  -4  -1   1    2.12    0.73
  -4  -1   1    1.61    0.63
  -4  -1   1    1.52    0.83
  -4  -1   1    2.26    0.70
  -5  -1   2   -1.77    1.76
  -5  -1   2    1.02    1.25
  -4   0   7    6.62    1.13
  -4   0   7    5.94    0.94
  -4   0   7    5.12    1.01
   4   0  -7    4.62    0.63
  -3   0   6   47.30    1.42
  -3   0   6   45.67    1.43
  -3   0   6   45.78    1.60
   3   0  -6   45.07    1.13
   3   0  -6   46.31    1.16
   3   0  -6   46.00    1.24
  -2   0   5    0.33    0.27
  -2   0   5    0.58    0.26
   2   0  -5    0.68    0.29
   2   0  -5    0.30    0.19
   2   0  -5    0.62    0.23
  -1   0   4  105.91    1.90
  -1   0   4  106.44    1.78
  -1   0   4  103.17    1.79
   1   0  -4  107.80    1.77
   1   0  -4  110.06    1.67
   1   0  -4  108.55    1.81
   0   0   3   29.81    0.56
   0   0   3   29.13    0.57
   0   0   3   29.20    0.56
   0   0  -3   29.03    0.56
   0   0  -3   29.05    0.58
   0   0  -3   29.04    0.57
  -1   0  -2   15.52    0.46
   2   0   1   75.20    1.42
  -2   0  -1   76.75    1.44
   3   0   0   15.66    0.72
  -3   0   0   15.16    0.68
  -3   0   0   16.67    0.67
  -3   0   0   15.68    0.75
  -4   0   1   34.40    1.34
  -4   0   1   33.88    1.25
  -4   0   1   33.54    1.36
  -5   0   2    0.47    1.24
  -4  -1   7    1.83    0.90
  -4  -1   7    2.45    0.91
  -4  -1   7    1.81    0.98
   4   1  -7    0.23    0.64
  -3  -1   6    5.57    0.67
  -3  -1   6    6.44    0.69
  -3  -1   6    6.10    0.75
   3   1  -6    5.71    0.65
   3   1  -6    5.24    0.57
   3   1  -6    5.52    0.52
  -2  -1   5    1.33    0.34
  -2  -1   5    1.09    0.33
  -2  -1   5    0.78    0.29
   2   1  -5    1.03    0.30
   2   1  -5    0.81    0.23
   2   1  -5    1.01    0.27
  -1  -1   4   21.98    0.63
  -1  -1   4   22.26    0.67
  -1  -1   4   21.53    0.63
   1   1  -4   21.66    0.57
   1   1  -4   21.45    0.61
   1   1  -4   21.31    0.63
   0  -1   3    3.26    0.20
   0  -1   3    3.03    0.20
   0  -1   3    3.09    0.18
   0   1  -3    3.24    0.21
   0   1  -3    3.16    0.19
   0   1  -3    3.45    0.21
  -1   1  -2   24.56    0.63
  -2   1  -1    5.08    0.36
  -3   1   0    6.46    0.52
  -3   1   0    4.32    0.47
  -3   1   0    5.69    0.52
  -4   1   1    2.69    0.51
  -4   1   1    2.41    0.65
  -4   1   1    1.61    0.62
  -5   1   2    1.42    1.15
  -4  -2   7    5.25    1.04
  -4  -2   7    5.40    1.02
  -4  -2   7    4.36    0.98
   4   2  -7    3.28    0.83
  -3  -2   6   46.12    1.49
  -3  -2   6   49.16    1.49
  -3  -2   6   46.55    1.32
  -3  -2   6   47.83    1.58
   3   2  -6   46.14    1.40
   3   2  -6   47.08    1.32
   3   2  -6   47.01    1.23
  -2  -2   5    6.39    0.54
  -2  -2   5    5.93    0.55
  -2  -2   5    6.36    0.57
  -2  -2   5    5.27    0.49
   2   2  -5    5.33    0.48
   2   2  -5    5.15    0.47
   2   2  -5    6.16    0.55
  -1  -2   4  123.77    2.09
  -1  -2   4  122.06    2.07
  -1  -2   4  122.67    2.02
  -1  -2   4  124.92    2.05
   1   2  -4  121.03    2.05
   1   2  -4  123.71    2.06
   1   2  -4  125.56    2.04
   1   2  -4  123.02    2.15
   0  -2   3    6.26    0.30
   0  -2   3    6.50    0.26
   0  -2   3    7.18    0.31
   0   2  -3    6.63    0.31
   0   2  -3    6.54    0.29
   0   2  -3    7.05    0.31
  -1   2  -2  102.11    1.78
  -1   2  -2  103.82    1.45
  -1   2  -2  104.96    1.46
  -2   2  -1   21.51    0.54
  -2   2  -1   20.83    0.47
  -2   2  -1   20.75    0.47
  -3   2   0   13.26    0.64
  -3   2   0   13.22    0.63
  -3   2   0   13.55    0.54
  -4   2   1   20.84    1.14
  -4   2   1   21.16    0.74
  -4   2   1   22.72    1.15
  -5   2   2    2.24    1.07
  -4  -3   7    0.93    0.92
  -4  -3   7    2.05    1.04
  -4  -3   7    2.18    0.99
   4   3  -7    1.09    0.86
  -3  -3   6   26.43    1.20
  -3  -3   6   26.41    1.30
  -3  -3   6   26.01    1.22
  -3  -3   6   25.96    1.12
   3   3  -6   27.48    1.17
   3   3  -6   27.06    1.12
   3   3  -6   25.75    1.01
  -2  -3   5    0.15    0.32
  -2  -3   5    0.22    0.30
  -2  -3   5   -0.03    0.29
  -2  -3   5    0.02    0.25
   2   3  -5   -0.29    0.25
   2   3  -5    0.04    0.31
   2   3  -5    0.18    0.26
  -1  -3   4   12.61    0.52
  -1  -3   4   11.49    0.56
  -1  -3   4   12.41    0.53
  -1  -3   4   12.04    0.52
   1   3  -4   11.20    0.53
   1   3  -4   11.91    0.52
   1   3  -4   12.21    0.57
   1   3  -4   12.54    0.54
   0  -3   3    2.84    0.28
   0  -3   3    2.48    0.26
   0  -3   3    2.63    0.24
   0  -3   3    2.60    0.28
   0   3  -3    2.92    0.27
   0   3  -3    2.63    0.25
   0   3  -3    2.61    0.24
   0   3  -3    3.08    0.27
   1  -3   2   30.17    0.51
   1  -3   2   30.68    0.51
  -1   3  -2   29.73    0.84
  -1   3  -2   30.50    0.65
  -1   3  -2   30.49    0.64
  -2   3  -1    5.43    0.33
  -2   3  -1    5.66    0.27
  -2   3  -1    5.14    0.33
  -3   3   0    5.69    0.53
  -3   3   0    5.74    0.54
  -4   3   1    5.23    0.71
  -4   3   1    2.55    0.70
  -5   3   2   -0.25    1.07
  -4  -4   7    1.44    0.91
  -4  -4   7    2.94    1.07
  -4  -4   7    3.16    1.09
  -4  -4   7    1.56    1.08
  -3  -4   6   22.11    1.16
  -3  -4   6   20.18    1.16
  -3  -4   6   18.62    1.13
  -3  -4   6   21.24    1.27
   3   4  -6   20.70    1.11
   3   4  -6   22.25    1.18
   3   4  -6   18.95    1.04
  -2  -4   5    0.51    0.38
  -2  -4   5    1.31    0.36
  -2  -4   5    1.24    0.37
  -2  -4   5    1.56    0.42
   2   4  -5    0.92    0.35
   2   4  -5    1.12    0.38
   2   4  -5    0.85    0.55
  -1  -4   4   57.06    1.33
  -1  -4   4   57.28    1.23
  -1  -4   4   58.50    1.31
   1   4  -4   60.75    1.33
   1   4  -4   59.35    1.31
   1   4  -4   57.49    1.32
   1   4  -4   57.71    1.29
   0  -4   3    6.88    0.41
   0  -4   3    8.14    0.45
   0  -4   3    7.19    0.41
   0  -4   3    7.66    0.38
   0   4  -3    7.57    0.40
   0   4  -3    7.10    0.42
   0   4  -3    7.57    0.43
   0   4  -3    7.10    0.39
   1  -4   2  119.71    1.85
   1  -4   2  117.48    1.85
  -1   4  -2  120.60    1.87
  -1   4  -2  115.73    1.91
  -1   4  -2  122.90    1.99
  -1   4  -2  119.33    2.17
  -2   4  -1   21.47    0.65
  -2   4  -1   20.29    0.92
  -2   4  -1   21.02    0.45
  -2   4  -1   21.24    0.67
  -3   4   0   20.69    0.80
  -3   4   0   19.19    0.82
  -4   4   1   12.85    1.20
  -4   4   1   13.63    1.06
  -5   4   2    0.31    1.11
  -4  -5   7    2.20    1.21
  -4  -5   7    0.86    0.99
  -4  -5   7    3.39    1.18
   4   5  -7    0.09    1.07
  -3  -5   6    9.14    1.02
  -3  -5   6    7.20    0.81
  -3  -5   6    6.62    0.89
   3   5  -6    7.16    0.82
   3   5  -6    5.36    0.69
   3   5  -6    6.94    0.71
  -2  -5   5    1.34    0.40
  -2  -5   5    1.35    0.47
  -2  -5   5    1.41    0.38
   2   5  -5    1.13    0.46
   2   5  -5    1.06    0.38
   2   5  -5    1.17    0.45
   2   5  -5    0.92    0.48
  -1  -5   4   22.01    0.76
  -1  -5   4   22.11    0.86
  -1  -5   4   22.30    0.84
  -1  -5   4   22.07    0.76
   1   5  -4   22.08    0.82
   1   5  -4   21.80    0.82
   1   5  -4   21.50    0.83
   1   5  -4   23.94    0.87
   0  -5   3   62.78    1.33
   0  -5   3   61.39    1.36
   0  -5   3   63.33    1.27
   0  -5   3   63.02    1.36
   0   5  -3   63.78    1.35
   0   5  -3   63.79    1.33
   0   5  -3   61.61    1.27
   1  -5   2    3.04    0.31
   1  -5   2    3.07    0.33
  -1   5  -2    2.90    0.29
  -1   5  -2    3.18    0.36
  -1   5  -2    2.47    0.38
  -1   5  -2    2.18    0.29
  -2   5  -1    7.15    0.73
  -2   5  -1    7.37    0.54
  -2   5  -1    6.80    0.30
  -2   5  -1    7.29    0.54
  -3   5   0    3.23    0.50
  -3   5   0    3.82    0.52
  -4   5   1    7.17    0.94
  -4   5   1    5.75    0.77
  -4  -6   7    3.19    1.40
  -4  -6   7    2.45    1.17
  -4  -6   7    1.74    1.13
  -3  -6   6   19.04    1.51
  -3  -6   6   19.02    1.33
  -3  -6   6   19.86    1.16
   3   6  -6   19.41    1.20
   3   6  -6   17.44    1.36
  -2  -6   5    2.70    0.53
  -2  -6   5    2.17    0.55
  -2  -6   5    2.94    0.48
  -2  -6   5    2.66    0.53
   2   6  -5    2.19    0.62
   2   6  -5    2.31    0.47
   2   6  -5    2.38    0.51
   2   6  -5    2.01    0.54
  -1  -6   4   67.61    1.65
  -1  -6   4   65.79    1.61
  -1  -6   4   69.35    1.51
  -1  -6   4   69.95    1.53
   1   6  -4   68.70    1.64
   1   6  -4   58.53    1.76
   1   6  -4   69.89    1.61
   1   6  -4   70.00    1.62
   0  -6   3    3.05    0.39
   0  -6   3    3.73    0.47
   0  -6   3    3.56    0.39
   0  -6   3    3.64    0.45
   0   6  -3    2.81    0.39
   0   6  -3    4.12    0.43
   0   6  -3    3.33    0.39
   0   6  -3    3.42    0.42
   1  -6   2   62.77    1.37
   1  -6   2   62.17    1.35
  -1   6  -2   65.55    1.47
  -1   6  -2   64.70    1.30
  -1   6  -2   62.50    1.54
  -1   6  -2   61.58    1.35
   2  -6   1   13.72    0.48
   2  -6   1   14.11    0.51
  -2   6  -1   15.88    0.97
  -2   6  -1   14.50    0.74
  -2   6  -1   15.99    0.76
  -2   6  -1   15.05    0.48
  -3   6   0   39.88    1.69
  -3   6   0   41.39    1.28
  -4   6   1   12.70    1.43
  -4   6   1   13.56    1.28
  -4   6   1   13.97    1.49
  -4  -7   7   -2.27    1.44
  -4  -7   7    0.30    1.22
  -4  -7   7    1.91    1.50
  -3  -7   6    4.12    0.93
  -3  -7   6    3.85    0.98
  -3  -7   6    1.86    0.78
  -3  -7   6    4.28    0.77
   3   7  -6    2.59    0.96
   3   7  -6    4.12    0.83
   3   7  -6    2.77    0.80
  -2  -7   5    0.08    0.72
  -2  -7   5    0.08    0.56
  -2  -7   5   -0.03    0.45
  -2  -7   5    0.05    0.47
   2   7  -5    0.03    0.49
   2   7  -5    0.66    0.44
   2   7  -5   -0.41    0.54
   2   7  -5    0.43    0.61
  -1  -7   4    7.13    0.76
  -1  -7   4    6.73    0.73
  -1  -7   4    7.97    0.68
  -1  -7   4    7.12    0.64
   1   7  -4    7.13    0.77
   1   7  -4    7.44    0.69
   1   7  -4    6.37    0.67
   1   7  -4    6.73    0.73
   0  -7   3    0.88    0.35
   0  -7   3    0.27    0.30
   0  -7   3    1.01    0.38
   0  -7   3    0.79    0.38
   0   7  -3    0.68    0.26
   0   7  -3    0.83    0.36
   0   7  -3    0.79    0.37
   0   7  -3    1.43    0.33
   1  -7   2   10.66    0.69
   1  -7   2    8.59    0.57
   1  -7   2    9.74    0.69
  -1   7  -2    9.60    0.65
  -1   7  -2   10.74    0.76
  -1   7  -2   10.55    0.57
   2  -7   1    2.21    0.38
   2  -7   1    1.83    0.36
  -2   7  -1    1.81    0.45
  -2   7  -1    2.07    0.60
  -2   7  -1    1.76    0.47
  -2   7  -1    1.84    0.29
  -3   7   0   34.43    1.70
  -3   7   0   34.46    1.39
  -3   7   0   38.87    1.36
  -4   7   1    5.01    1.22
  -4   7   1    6.33    1.11
  -4   7   1    5.30    0.99
  -3  -8   6   14.36    1.60
  -3  -8   6   17.85    1.84
  -3  -8   6   15.73    1.44
   3   8  -6   13.11    1.52
   3   8  -6   15.14    1.63
  -2  -8   5    1.97    0.60
  -2  -8   5    2.38    0.68
  -2  -8   5    1.24    0.72
  -2  -8   5    1.48    0.59
   2   8  -5    2.22    0.83
   2   8  -5    1.99    0.75
   2   8  -5    2.11    0.65
  -1  -8   4   28.82    1.28
  -1  -8   4   29.71    1.77
  -1  -8   4   28.81    1.24
  -1  -8   4   29.20    1.24
   1   8  -4   28.76    1.18
   1   8  -4   28.45    1.20
   1   8  -4   28.76    1.20
   1   8  -4   28.05    1.23
   0  -8   3    0.12    0.38
   0  -8   3    0.24    0.36
   0  -8   3    0.24    0.41
   0  -8   3    0.88    0.46
   0   8  -3    0.08    0.37
   0   8  -3   -0.22    0.31
   0   8  -3    0.43    0.38
   0   8  -3    0.42    0.36
   1  -8   2   32.08    1.35
   1  -8   2   30.35    1.15
   1  -8   2   30.49    1.02
  -1   8  -2   30.69    1.10
  -1   8  -2   31.05    1.19
  -1   8  -2   33.06    1.23
  -1   8  -2   32.49    1.02
   2  -8   1    5.54    0.57
   2  -8   1    4.56    0.54
  -2   8  -1    4.07    0.74
  -2   8  -1    4.92    0.65
  -2   8  -1    4.60    0.66
  -2   8  -1    4.20    0.42
  -3   8   0   12.64    1.30
  -3   8   0   10.92    1.05
  -3   8   0   11.75    1.40
  -4   8   1    8.47    1.33
  -4   8   1    5.30    1.31
  -4   8   1    6.58    1.14
  -3  -9   6    2.81    1.05
  -3  -9   6    5.64    1.26
  -3  -9   6    4.07    1.27
   3   9  -6    6.44    1.17
   3   9  -6    4.34    1.37
  -2  -9   5    0.65    0.69
  -2  -9   5    0.10    0.73
  -2  -9   5    1.74    0.67
  -2  -9   5    0.02    0.74
   2   9  -5    1.58    0.97
   2   9  -5    0.35    0.65
   2   9  -5   -0.09    0.77
  -1  -9   4   12.38    1.05
  -1  -9   4   11.60    1.05
  -1  -9   4   12.81    1.17
   1   9  -4    9.75    1.01
   1   9  -4   12.40    1.00
   1   9  -4   11.02    1.04
   1   9  -4   12.04    1.18
   0  -9   3    1.74    0.52
   0  -9   3    1.59    0.50
   0  -9   3    1.85    0.60
   0  -9   3    2.10    0.59
   0   9  -3    1.94    0.52
   0   9  -3    2.31    0.54
   0   9  -3    2.48    0.53
   1  -9   2    6.65    0.71
   1  -9   2    6.15    0.62
   1  -9   2    7.11    0.78
  -1   9  -2    6.54    0.72
  -1   9  -2    6.24    0.70
  -1   9  -2    6.59    0.88
  -1   9  -2    7.67    0.80
   2  -9   1    8.23    0.92
   2  -9   1    9.78    0.88
  -2   9  -1    8.83    0.71
  -2   9  -1   10.37    1.13
  -2   9  -1    8.66    0.93
  -3   9   0    4.00    0.96
  -3   9   0    4.02    0.92
  -3   9   0    5.24    0.89
  -4   9   1    4.46    1.38
  -4   9   1    5.74    1.24
  -3 -10   6    6.29    1.39
  -3 -10   6    4.96    2.24
   3  10  -6    4.01    1.69
   3  10  -6    5.45    1.43
  -2 -10   5    0.44    0.89
  -2 -10   5   -1.06    0.89
  -2 -10   5   -0.65    0.79
   2  10  -5   -0.34    1.00
   2  10  -5    2.07    1.10
   2  10  -5   -0.13    0.90
  -1 -10   4   29.77    1.49
  -1 -10   4   27.41    1.56
  -1 -10   4   27.48    1.52
   1  10  -4   27.42    1.47
   1  10  -4   28.98    1.43
   1  10  -4   28.55    1.55
   1  10  -4   23.95    1.45
   0 -10   3    0.41    0.64
   0 -10   3    0.65    0.89
   0  10  -3    0.90    0.55
   0  10  -3    0.16    0.50
   0  10  -3    1.15    0.54
   1 -10   2   26.30    1.39
   1 -10   2   26.62    1.19
   1 -10   2   28.59    1.35
  -1  10  -2   27.93    1.20
  -1  10  -2   28.06    1.38
  -1  10  -2   25.69    1.24
  -1  10  -2   25.75    1.33
   2 -10   1    5.56    0.85
   2 -10   1    6.05    0.79
  -2  10  -1    7.87    1.03
  -2  10  -1    6.37    0.83
  -2  10  -1    6.16    0.99
  -2  10  -1    5.36    0.63
  -3  10   0   11.75    1.38
  -3  10   0    9.04    1.22
  -3  10   0   11.68    1.22
  -2 -11   5    2.95    1.10
  -2 -11   5   -0.20    1.01
  -2 -11   5    1.86    0.98
   2  11  -5   -0.14    1.29
   2  11  -5    3.57    1.42
  -1 -11   4    4.70    1.01
  -1 -11   4    1.73    0.82
  -1 -11   4    1.99    0.93
   1  11  -4    3.07    1.08
   1  11  -4    3.29    1.49
   1  11  -4    2.60    0.94
   0 -11   3   -0.49    0.61
   0 -11   3    1.02    0.74
   0 -11   3    0.70    0.77
   0  11  -3    0.60    0.66
   0  11  -3    0.76    0.63
   0  11  -3    0.54    0.62
   0  11  -3   -0.35    0.81
   1 -11   2    7.77    0.89
   1 -11   2    8.64    1.06
  -1  11  -2    9.46    1.10
  -1  11  -2    7.84    0.96
  -1  11  -2    8.22    0.97
  -1  11  -2   10.76    1.23
   2 -11   1    3.66    0.93
   2 -11   1    5.16    0.91
  -2  11  -1    3.69    0.91
  -2  11  -1    2.31    0.94
  -2  11  -1    3.32    0.68
  -2  11  -1    2.52    0.89
  -3  11   0    1.65    1.09
  -3  11   0    1.97    1.04
   2  12  -5    0.96    1.62
   2  12  -5    6.95    1.80
  -1 -12   4   16.27    1.73
  -1 -12   4   18.98    1.95
  -1 -12   4   17.55    1.88
   1  12  -4   14.15    1.53
   1  12  -4   16.89    1.81
   0 -12   3    1.65    0.99
   0 -12   3    1.51    0.85
   0  12  -3    0.67    0.77
   0  12  -3    1.06    0.86
   0  12  -3    2.32    0.80
   1 -12   2   11.62    1.34
   1 -12   2   16.32    1.57
   1 -12   2   15.07    1.66
  -1  12  -2   14.03    1.51
  -1  12  -2   14.17    1.49
  -1  12  -2   13.83    1.59
   2 -12   1    5.80    1.15
   2 -12   1    6.71    1.27
  -2  12  -1    5.12    0.84
  -2  12  -1    4.02    1.08
  -2  12  -1    6.32    1.22
  -3  12   0    9.38    1.41
  -1 -13   4    6.34    1.45
  -1 -13   4    9.29    1.52
   1  13  -4    5.60    1.56
   1  13  -4    6.37    1.48
   0 -13   3    0.10    1.00
   0 -13   3   -0.78    1.16
   0  13  -3    2.41    1.15
   1 -13   2    0.48    1.17
   1 -13   2    0.03    0.99
  -1  13  -2    2.21    1.03
  -1  13  -2   -0.72    1.04
  -1  13  -2   -0.39    1.00
   2 -13   1   -0.73    1.17
  -2  13  -1   -1.64    1.11
  -2  13  -1   -2.40    1.20
   0 -14   3   -2.92    1.21
   0 -14   3    0.39    1.52
   0  14  -3   -0.54    1.37
   1 -14   2    7.78    1.69
  -1  14  -2    5.75    1.47
  -1  13   5    3.79    1.27
   1 -13  -5    2.16    1.58
   1 -13  -5    3.98    1.19
   0  13   4   12.78    1.67
   0  13   4    7.53    1.45
   0 -13  -4    9.61    2.05
   0 -13  -4    5.11    1.34
  -2  12   6    9.80    1.44
  -2  12   6   12.13    1.50
   2 -12  -6   13.82    1.77
  -1  12   5    0.87    0.91
  -1  12   5   -0.77    0.91
  -1  12   5   -0.42    0.95
   1 -12  -5    0.02    1.30
   1 -12  -5    0.43    0.95
   0  12   4    7.80    1.06
   0  12   4    7.58    1.26
   0 -12  -4    8.07    1.50
   0 -12  -4    6.09    1.17
  -1 -12  -3    0.67    1.12
  -1 -12  -3    1.67    1.30
  -3  11   7    4.65    1.60
   3 -11  -7    4.15    1.50
  -2  11   6   -0.25    0.87
  -2  11   6   -0.99    1.00
   2 -11  -6    0.72    0.73
   2 -11  -6   -0.95    1.08
  -1  11   5    7.50    1.00
  -1  11   5    5.79    0.95
  -1  11   5    6.26    0.90
   1 -11  -5    8.11    1.26
   1 -11  -5    6.38    1.21
   0  11   4    9.55    1.05
   0  11   4   10.87    1.14
   0  11   4    9.54    1.03
   0 -11  -4   10.30    1.26
   0 -11  -4    7.76    1.07
   1  11   3    0.01    0.66
   1  11   3    1.71    1.01
  -1 -11  -3   -0.03    0.99
  -1 -11  -3   -0.63    0.89
   2  11   2    2.26    1.47
   2  11   2    3.13    1.18
  -2 -11  -2    1.87    1.30
  -2 -11  -2    2.22    1.32
  -3  10   7    5.04    1.17
  -3  10   7    7.07    1.53
   3 -10  -7    5.29    1.34
   3 -10  -7    5.22    1.35
  -2  10   6    7.58    1.12
  -2  10   6    9.17    1.05
   2 -10  -6   10.56    1.21
   2 -10  -6    8.17    0.80
   2 -10  -6    8.00    1.13
  -1  10   5    3.08    0.68
  -1  10   5    2.28    0.66
  -1  10   5    2.61    0.71
   1 -10  -5    2.89    0.91
   1 -10  -5    3.63    0.77
   1 -10  -5    2.82    0.72
   0  10   4    9.58    0.98
   0  10   4    8.85    0.94
   0  10   4    6.59    0.93
   0  10   4    8.17    0.92
   0 -10  -4    7.83    0.98
   0 -10  -4    7.60    1.05
   1  10   3   24.76    1.16
   1  10   3   25.23    1.52
  -1 -10  -3   23.45    1.77
  -1 -10  -3   23.44    1.60
  -1 -10  -3   25.27    1.45
   2  10   2   14.97    1.57
   2  10   2   12.83    1.57
  -2 -10  -2   19.01    2.00
  -2 -10  -2   17.19    1.57
  -3 -10  -1   -1.24    1.49
  -3   9   7   13.00    1.57
  -2   9   6    7.02    0.97
  -2   9   6    7.32    1.03
  -2   9   6    4.66    0.83
   2  -9  -6    5.52    0.63
   2  -9  -6    4.93    0.96
  -1   9   5    7.29    0.81
  -1   9   5    7.20    0.83
  -1   9   5    6.87    0.80
   1  -9  -5    8.22    1.01
   1  -9  -5    6.39    0.71
   0   9   4    7.78    0.77
   0   9   4    8.27    0.90
   0   9   4    6.01    0.87
   0   9   4    7.94    0.92
   0  -9  -4    8.85    0.87
   0  -9  -4    8.93    0.99
   1   9   3    0.69    0.62
   1   9   3    0.35    0.46
   1   9   3    1.48    0.66
   1   9   3    1.31    0.57
  -1  -9  -3   -0.14    0.56
  -1  -9  -3   -0.11    0.70
  -1  -9  -3    0.11    0.56
   2   9   2   10.30    1.16
   2   9   2   11.99    1.16
  -2  -9  -2   12.04    1.38
  -2  -9  -2   11.74    1.29
  -2  -9  -2   11.10    1.34
  -3  -9  -1    0.87    1.23
  -3  -9  -1   -2.55    1.17
  -4   8   8    1.41    1.32
  -3   8   7    8.61    1.05
  -3   8   7    5.62    1.33
   3  -8  -7    5.72    1.00
   3  -8  -7    4.79    0.96
  -2   8   6   10.20    0.95
  -2   8   6   10.29    1.12
   2  -8  -6    9.41    1.01
   2  -8  -6    8.73    0.94
   2  -8  -6    9.34    0.71
  -1   8   5    3.83    0.52
  -1   8   5    4.22    0.61
  -1   8   5    4.72    0.70
   1  -8  -5    4.50    0.57
   1  -8  -5    5.29    0.81
   1  -8  -5    5.73    0.68
   0   8   4   31.85    1.27
   0   8   4   33.62    1.21
   0   8   4   32.26    1.05
   0   8   4   30.52    1.22
   0  -8  -4   31.88    1.26
   0  -8  -4   31.95    1.54
   0  -8  -4   31.68    1.39
   1   8   3    0.45    0.50
   1   8   3    0.55    0.44
   1   8   3   -0.09    0.34
   1   8   3    0.46    0.46
  -1  -8  -3    0.50    0.50
  -1  -8  -3    0.31    0.53
  -1  -8  -3    0.61    0.94
   2   8   2   17.43    1.24
   2   8   2   15.78    1.06
  -2  -8  -2   15.92    1.42
  -2  -8  -2   14.37    1.19
  -2  -8  -2   16.00    1.33
  -3  -8  -1    3.60    1.12
  -3  -8  -1    3.15    1.00
  -3  -8  -1    1.87    1.02
  -4   7   8    1.96    1.09
  -3   7   7   10.13    1.03
  -3   7   7    9.79    1.17
   3  -7  -7   10.58    1.04
   3  -7  -7    9.50    0.92
  -2   7   6    9.81    0.98
   2  -7  -6   10.00    0.94
   2  -7  -6    7.80    0.59
   2  -7  -6    7.17    0.80
  -1   7   5   11.79    0.68
  -1   7   5   11.47    0.82
  -1   7   5   13.08    0.87
   1  -7  -5   12.02    0.82
   1  -7  -5   11.57    0.74
   1  -7  -5   11.07    0.95
   0   7   4   20.58    0.80
   0   7   4   20.54    0.90
   0   7   4   21.26    0.99
   0   7   4   20.98    0.93
   0  -7  -4   18.73    0.92
   0  -7  -4   20.46    0.96
   0  -7  -4   20.39    1.07
   1   7   3    0.04    0.27
   1   7   3    0.43    0.44
   1   7   3    1.06    0.42
   1   7   3    0.28    0.41
  -1  -7  -3    0.00    0.38
  -1  -7  -3    0.20    0.38
  -1  -7  -3    0.00    0.48
   2   7   2   15.95    0.91
   2   7   2   15.46    1.01
  -2  -7  -2   15.23    1.02
  -2  -7  -2   15.22    1.18
  -2  -7  -2   14.43    1.24
   3   7   1    0.99    0.76
  -3  -7  -1    1.70    0.90
  -3  -7  -1    1.32    0.79
  -3  -7  -1    1.90    0.90
  -4  -7   0    3.15    1.53
  -4  -7   0    7.29    1.49
  -4   6   8    5.23    1.09
  -3   6   7   20.79    1.21
  -3   6   7   18.91    1.46
   3  -6  -7   22.27    1.30
   3  -6  -7   20.22    1.13
  -2   6   6   16.22    0.97
  -2   6   6   17.95    1.06
   2  -6  -6   17.07    0.94
   2  -6  -6   17.14    0.62
   2  -6  -6   19.33    1.10
  -1   6   5    9.68    0.69
  -1   6   5    8.79    0.71
   1  -6  -5    8.44    0.79
   1  -6  -5    8.96    0.61
   1  -6  -5    9.73    0.70
   0   6   4   35.48    1.07
   0   6   4   35.87    1.08
   0   6   4   37.08    0.97
   0   6   4   34.95    1.30
   0  -6  -4   36.81    1.14
   0  -6  -4   36.33    1.13
   0  -6  -4   35.74    1.21
   1   6   3    1.26    0.37
   1   6   3    1.55    0.41
   1   6   3    1.02    0.36
   1   6   3    0.77    0.23
  -1  -6  -3    1.63    0.36
  -1  -6  -3    2.12    0.47
  -1  -6  -3    0.71    0.43
   2   6   2   25.51    0.92
   2   6   2   25.19    1.19
   2   6   2   24.34    0.96
  -2  -6  -2   25.85    1.22
  -2  -6  -2   25.51    1.04
  -2  -6  -2   25.79    1.21
   3   6   1   -0.22    0.66
  -3  -6  -1   -0.08    0.72
  -3  -6  -1    0.16    0.64
  -3  -6  -1   -0.24    0.34
  -4  -6   0    3.50    1.29
  -4  -6   0    4.91    1.12
  -4  -6   0    4.81    1.22
  -4   5   8   -0.68    1.34
  -4   5   8    1.81    0.93
   4  -5  -8    0.03    0.64
  -3   5   7   20.64    1.16
  -3   5   7   21.93    1.34
   3  -5  -7   23.63    1.25
   3  -5  -7   22.50    1.05
  -2   5   6    9.80    0.75
  -2   5   6   11.22    0.83
   2  -5  -6   10.70    0.75
   2  -5  -6    9.50    0.85
   2  -5  -6   10.48    0.48
  -1   5   5    6.24    0.55
  -1   5   5    5.92    0.58
   1  -5  -5    5.29    0.48
   1  -5  -5    5.12    0.52
   1  -5  -5    6.03    0.64
   0   5   4   44.97    1.18
   0   5   4   44.85    1.14
   0   5   4   43.70    1.02
   0   5   4   44.86    1.12
   0  -5  -4   44.25    1.17
   0  -5  -4   43.51    1.24
   0  -5  -4   43.43    1.13
   1   5   3    2.09    0.32
   1   5   3    2.23    0.44
   1   5   3    2.00    0.33
  -1  -5  -3    1.70    0.39
  -1  -5  -3    1.57    0.33
  -1  -5  -3    2.04    0.43
   2   5   2   13.44    0.88
   2   5   2   14.23    0.62
   2   5   2   13.66    0.63
  -2  -5  -2   14.00    0.73
  -2  -5  -2   13.37    0.93
  -2  -5  -2   14.71    0.92
   3   5   1    0.57    1.03
  -3  -5  -1    1.00    0.62
  -3  -5  -1    1.35    0.64
  -3  -5  -1    2.45    0.54
  -3  -5  -1    0.71    0.34
   4   5   0    0.29    1.22
  -4  -5   0    2.65    0.84
  -4  -5   0    2.57    1.08
  -4  -5   0    2.37    0.90
  -4  -5   0    2.61    0.99
  -4   4   8    4.93    1.14
  -4   4   8    5.80    1.04
   4  -4  -8    4.20    0.61
  -3   4   7   19.88    1.14
  -3   4   7   21.10    1.23
   3  -4  -7   21.18    1.11
   3  -4  -7   22.29    1.07
  -2   4   6   10.28    0.70
  -2   4   6   10.57    0.77
   2  -4  -6   10.22    0.69
   2  -4  -6   11.44    0.43
   2  -4  -6   11.06    0.79
  -1   4   5    5.38    0.51
  -1   4   5    3.94    0.45
   1  -4  -5    4.82    0.51
   1  -4  -5    4.23    0.38
   1  -4  -5    4.09    0.44
   0   4   4   41.83    1.00
   0   4   4   41.38    1.02
   0   4   4   40.91    1.05
   0  -4  -4   41.91    1.10
   0  -4  -4   41.02    1.01
   0  -4  -4   40.59    1.04
   1   4   3    9.42    0.50
   1   4   3    8.85    0.58
  -1  -4  -3    9.30    0.47
  -1  -4  -3    9.38    0.63
  -1  -4  -3    8.88    0.60
   2   4   2   34.34    1.16
  -2  -4  -2   32.02    0.63
  -2  -4  -2   33.84    0.93
  -2  -4  -2   33.38    1.06
  -2  -4  -2   31.03    1.16
   3   4   1    1.29    0.52
  -3  -4  -1   -0.24    0.34
  -3  -4  -1    0.34    0.54
  -3  -4  -1   -0.31    0.46
  -3  -4  -1    0.08    0.52
   4   4   0   12.28    1.24
  -4  -4   0   13.19    1.26
  -4  -4   0   10.44    1.17
  -4  -4   0    9.41    1.21
  -4   3   8    0.85    0.84
  -4   3   8    1.43    1.03
  -3   3   7   12.89    0.98
  -3   3   7   13.08    1.02
   3  -3  -7   12.51    0.80
   3  -3  -7   11.49    0.93
  -2   3   6    5.75    0.60
  -2   3   6    6.44    0.63
   2  -3  -6    6.26    0.55
   2  -3  -6    6.72    0.66
  -1   3   5   37.51    1.03
  -1   3   5   38.17    0.97
   1  -3  -5   38.34    0.98
   1  -3  -5   38.22    1.05
   1  -3  -5   38.00    0.84
   0   3   4   89.53    1.64
   0   3   4   88.19    1.58
   0   3   4   88.43    1.61
   0  -3  -4   88.79    1.59
   0  -3  -4   89.78    1.68
   0  -3  -4   89.46    1.63
   1   3   3    0.99    0.22
   1   3   3    1.14    0.20
  -1  -3  -3    0.91    0.25
  -1  -3  -3    1.01    0.26
  -1  -3  -3    1.34    0.22
   2   3   2   36.49    1.10
  -2  -3  -2   35.36    1.14
  -2  -3  -2   36.33    0.99
  -2  -3  -2   34.65    0.73
  -2  -3  -2   35.50    0.84
   3   3   1    5.86    0.66
  -3  -3  -1    5.80    0.62
  -3  -3  -1    6.44    0.61
  -3  -3  -1    5.86    0.72
  -3  -3  -1    6.73    0.65
   4   3   0    6.72    1.00
  -4  -3   0    7.43    0.99
  -4  -3   0    7.71    1.00
  -4  -3   0    6.14    0.85
  -4  -3   0    7.66    0.87
  -4   2   8    2.34    0.84
  -4   2   8    2.84    0.99
  -3   2   7   25.17    1.11
  -3   2   7   26.34    1.17
   3  -2  -7   24.87    0.94
   3  -2  -7   25.13    0.70
   3  -2  -7   23.67    1.06
  -2   2   6   22.18    0.84
  -2   2   6   23.93    0.89
   2  -2  -6   22.72    0.79
   2  -2  -6   22.22    0.88
   2  -2  -6   22.84    0.58
  -1   2   5   17.51    0.65
  -1   2   5   19.34    0.65
   1  -2  -5   18.73    0.63
   1  -2  -5   18.45    0.68
   0   2   4  120.85    1.95
   0   2   4  121.40    1.91
   0  -2  -4  116.75    1.91
   0  -2  -4  116.99    1.97
   0  -2  -4  120.31    1.96
   1   2   3   10.67    0.31
   1   2   3   11.30    0.31
   1   2   3   11.95    0.52
  -1  -2  -3   11.80    0.45
  -1  -2  -3   11.53    0.54
  -1  -2  -3   11.69    0.37
   2   2   2  271.73    4.22
  -2  -2  -2  267.26    3.92
  -2  -2  -2  269.86    3.85
  -2  -2  -2  266.63    4.23
   3   2   1   11.96    0.88
  -3  -2  -1   11.97    0.75
  -3  -2  -1   11.26    0.77
  -3  -2  -1   12.18    0.87
  -3  -2  -1   12.13    0.69
   4   2   0    6.86    0.83
  -4  -2   0    7.82    0.89
  -4  -2   0    7.70    0.95
  -4  -2   0    7.34    0.85
  -4  -2   0    7.92    0.91
  -4   1   8    4.62    1.00
  -4   1   8    3.14    1.04
  -4   1   8    4.00    0.89
   4  -1  -8    2.68    0.54
  -3   1   7   16.98    0.99
  -3   1   7   14.60    1.01
   3  -1  -7   16.00    0.81
   3  -1  -7   15.95    0.67
   3  -1  -7   15.26    0.91
  -2   1   6   12.85    0.66
  -2   1   6   11.36    0.65
   2  -1  -6   10.85    0.66
   2  -1  -6   11.35    0.46
   2  -1  -6   10.60    0.58
  -1   1   5   20.11    0.66
  -1   1   5   19.93    0.63
   1  -1  -5   20.07    0.62
   1  -1  -5   20.06    0.68
   0   1   4   33.07    0.68
   0   1   4   32.21    0.67
   0   1   4   33.05    0.71
   0  -1  -4   32.90    0.69
   0  -1  -4   31.99    0.73
   1   1   3    2.64    0.28
  -1  -1  -3    2.34    0.15
  -1  -1  -3    2.11    0.26
  -1  -1  -3    2.32    0.16
  -1  -1  -3    2.24    0.25
   2   1   2   30.04    0.89
  -2  -1  -2   29.22    0.91
  -2  -1  -2   29.53    0.61
  -2  -1  -2   30.71    0.65
   3   1   1    0.52    0.39
  -3  -1  -1    0.90    0.41
  -3  -1  -1    0.24    0.32
  -3  -1  -1    0.35    0.31
   4   1   0    4.38    0.68
  -4  -1   0    5.32    0.77
  -4  -1   0    4.64    0.75
  -4  -1   0    5.03    0.70
  -5  -1   1   -0.66    1.24
  -4   0   8    1.63    0.88
  -4   0   8    1.55    0.98
  -4   0   8   -0.34    0.92
   4   0  -8    0.56    0.59
  -3   0   7   32.72    1.40
  -3   0   7   33.23    1.28
  -3   0   7   33.49    1.30
   3   0  -7   32.57    1.12
   3   0  -7   31.67    1.05
   3   0  -7   34.02    1.02
  -2   0   6   10.86    0.71
  -2   0   6   10.09    0.64
  -2   0   6   10.69    0.62
   2   0  -6   10.29    0.48
   2   0  -6    9.80    0.57
   2   0  -6    9.88    0.64
  -1   0   5   56.57    1.18
  -1   0   5   57.22    1.16
  -1   0   5   55.42    1.24
   1   0  -5   58.45    1.16
   1   0  -5   57.34    1.20
   0   0   4   56.08    0.99
   0   0   4   57.09    0.97
   0   0   4   55.80    0.97
   0   0  -4   56.30    0.98
   0   0  -4   57.67    1.01
   0   0  -4   55.39    1.00
  -1   0  -3    0.06    0.15
  -1   0  -3    0.17    0.11
  -2   0  -2   71.61    1.42
  -3   0  -1    0.46    0.27
  -3   0  -1    0.33    0.36
  -3   0  -1    0.60    0.29
  -4   0   0   12.67    1.05
  -4   0   0   11.62    1.01
  -4   0   0   11.74    1.02
  -5   0   1    0.54    1.22
  -5   0   1    2.74    2.89
  -4  -1   8   -0.69    0.92
  -4  -1   8    0.75    0.94
  -4  -1   8    0.28    0.90
   4   1  -8   -0.51    0.56
   4   1  -8    0.31    0.65
   4   1  -8   -0.36    0.47
  -3  -1   7    9.74    0.91
  -3  -1   7   11.29    0.97
  -3  -1   7    9.35    0.96
   3   1  -7   10.09    0.73
   3   1  -7   11.03    0.76
   3   1  -7   10.06    0.85
  -2  -1   6    8.54    0.59
  -2  -1   6    7.66    0.60
  -2  -1   6    8.27    0.62
   2   1  -6    7.96    0.60
   2   1  -6    8.12    0.49
   2   1  -6    8.59    0.56
  -1  -1   5   34.76    0.86
  -1  -1   5   33.65    0.85
  -1  -1   5   33.83    0.90
   1   1  -5   33.87    0.78
   1   1  -5   33.26    0.94
   1   1  -5   33.81    0.87
   1   1  -5   33.22    0.84
   0  -1   4   38.29    0.78
   0  -1   4   39.03    0.73
   0  -1   4   37.45    0.73
   0   1  -4   37.99    0.79
   0   1  -4   39.02    0.76
   0   1  -4   37.94    0.74
  -1   1  -3    1.68    0.22
  -2   1  -2   11.77    0.49
  -3   1  -1   -0.20    0.25
  -3   1  -1   -0.08    0.25
  -3   1  -1    0.06    0.29
  -4   1   0    6.01    0.66
  -4   1   0    4.88    0.66
  -4   1   0    5.15    0.63
  -5   1   1    1.59    1.21
  -4  -2   8   -0.11    0.92
  -4  -2   8    0.72    1.02
  -4  -2   8    0.72    0.93
   4   2  -8    0.55    0.54
   4   2  -8    0.27    0.62
   4   2  -8    0.48    0.73
  -3  -2   7   23.96    1.20
  -3  -2   7   22.85    1.16
  -3  -2   7   22.95    1.18
   3   2  -7   22.41    1.22
   3   2  -7   23.42    1.09
   3   2  -7   22.75    0.98
  -2  -2   6   16.68    0.78
  -2  -2   6   16.09    0.75
  -2  -2   6   17.12    0.80
   2   2  -6   17.43    0.72
   2   2  -6   17.19    0.79
   2   2  -6   16.28    0.72
  -1  -2   5   35.35    0.92
  -1  -2   5   35.82    0.92
  -1  -2   5   36.35    0.90
   1   2  -5   35.24    0.98
   1   2  -5   35.57    0.89
   1   2  -5   36.47    0.87
   1   2  -5   34.99    0.90
   0  -2   4   68.64    1.19
   0  -2   4   68.81    1.13
   0  -2   4   69.57    1.25
   0   2  -4   68.81    1.19
   0   2  -4   67.20    1.24
   0   2  -4   70.66    1.22
   1  -2   3   19.18    0.63
  -1   2  -3   19.84    0.61
  -2   2  -2   53.05    1.04
  -3   2  -1    0.33    0.25
  -3   2  -1    0.81    0.28
  -3   2  -1    0.37    0.27
  -4   2   0   23.84    1.11
  -4   2   0   26.07    1.15
  -4   2   0   24.04    0.88
  -5   2   1    2.40    1.16
  -4  -3   8    0.94    1.01
  -4  -3   8    1.58    1.02
  -4  -3   8    0.29    1.06
   4   3  -8    0.55    0.86
   4   3  -8   -0.57    0.66
   4   3  -8    0.40    0.62
  -3  -3   7   18.66    1.13
  -3  -3   7   16.53    1.00
  -3  -3   7   18.25    1.21
  -3  -3   7   17.97    1.11
   3   3  -7   18.20    1.04
   3   3  -7   17.39    1.07
  -2  -3   6   41.23    1.23
  -2  -3   6   38.80    1.13
  -2  -3   6   39.79    1.19
   2   3  -6   40.11    1.15
   2   3  -6   41.16    1.17
   2   3  -6   41.28    1.20
  -1  -3   5   16.28    0.63
  -1  -3   5   16.27    0.62
  -1  -3   5   16.17    0.62
  -1  -3   5   15.49    0.65
   1   3  -5   15.77    0.62
   1   3  -5   15.70    0.67
   1   3  -5   14.85    0.62
   1   3  -5   15.59    0.60
   0  -3   4   13.92    0.44
   0  -3   4   12.59    0.50
   0  -3   4   13.33    0.49
   0   3  -4   12.84    0.49
   0   3  -4   13.55    0.48
   0   3  -4   13.31    0.48
   1  -3   3    0.41    0.22
  -1   3  -3    0.37    0.13
  -1   3  -3    0.36    0.14
  -1   3  -3    0.57    0.22
  -2   3  -2   17.72    0.47
  -2   3  -2   16.79    0.51
  -2   3  -2   17.19    0.81
  -2   3  -2   18.03    0.46
  -3   3  -1    1.27    0.25
  -3   3  -1    1.18    0.32
  -3   3  -1    1.40    0.32
  -4   3   0    5.52    0.68
  -4   3   0    3.88    0.69
  -5   3   1   -0.38    1.08
  -4  -4   8   -0.28    1.06
  -4  -4   8   -0.70    1.10
   4   4  -8   -0.20    0.76
   4   4  -8   -0.85    0.92
   4   4  -8   -0.50    0.83
  -3  -4   7   16.83    1.19
  -3  -4   7   16.12    1.36
  -3  -4   7   14.24    1.13
  -3  -4   7   16.40    1.09
   3   4  -7   17.21    1.01
   3   4  -7   14.20    1.13
   3   4  -7   17.45    1.11
  -2  -4   6   13.75    0.93
  -2  -4   6   12.99    0.79
  -2  -4   6   15.01    0.81
  -2  -4   6   14.13    0.88
   2   4  -6   13.97    0.78
   2   4  -6   13.18    0.78
   2   4  -6   14.19    0.82
  -1  -4   5   55.56    1.33
  -1  -4   5   54.87    1.29
  -1  -4   5   54.91    1.24
   1   4  -5   55.46    1.30
   1   4  -5   54.16    1.28
   1   4  -5   58.23    1.31
   1   4  -5   57.03    1.35
   0  -4   4   54.04    1.06
   0  -4   4   52.90    1.17
   0  -4   4   53.10    1.14
   0   4  -4   53.74    1.13
   0   4  -4   50.96    1.05
   0   4  -4   51.62    1.15
   0   4  -4   52.08    1.14
   1  -4   3   39.94    1.10
   1  -4   3   41.55    0.78
   1  -4   3   40.41    0.78
  -1   4  -3   39.15    0.85
  -1   4  -3   40.34    1.06
  -1   4  -3   41.61    0.91
  -1   4  -3   40.65    0.86
  -2   4  -2   83.26    1.44
  -2   4  -2   83.03    1.49
  -2   4  -2   80.42    1.89
  -3   4  -1    0.24    0.30
  -3   4  -1   -0.30    0.31
  -4   4   0   21.84    1.13
  -4   4   0   21.80    1.21
  -5   4   1    3.10    1.17
  -4  -5   8    1.81    1.18
  -4  -5   8    2.38    1.20
   4   5  -8   -1.31    0.98
   4   5  -8    1.19    1.11
  -3  -5   7    3.09    0.75
  -3  -5   7    2.33    0.68
  -3  -5   7    5.52    0.82
  -3  -5   7    4.05    0.81
   3   5  -7    4.11    0.69
   3   5  -7    2.99    0.68
   3   5  -7    3.43    0.77
  -2  -5   6    1.93    0.47
  -2  -5   6    1.82    0.53
  -2  -5   6    2.16    0.44
  -2  -5   6    2.77    0.49
   2   5  -6    1.88    0.47
   2   5  -6    1.70    0.47
   2   5  -6    2.00    0.55
   2   5  -6    1.58    0.49
  -1  -5   5   15.64    0.67
  -1  -5   5   15.96    0.77
  -1  -5   5   17.01    0.75
  -1  -5   5   14.98    0.66
   1   5  -5   15.99    0.73
   1   5  -5   15.53    0.77
   1   5  -5   16.04    0.77
   1   5  -5   16.69    0.74
   0  -5   4   16.32    0.64
   0  -5   4   17.42    0.61
   0  -5   4   17.04    0.68
   0  -5   4   16.23    0.67
   0   5  -4   16.20    0.66
   0   5  -4   16.56    0.60
   0   5  -4   17.08    0.66
   0   5  -4   17.90    0.66
   1  -5   3    2.69    0.30
   1  -5   3    3.12    0.46
   1  -5   3    2.20    0.28
  -1   5  -3    2.82    0.31
  -1   5  -3    2.43    0.27
  -1   5  -3    2.73    0.33
  -1   5  -3    3.15    0.43
  -2   5  -2    8.85    0.74
  -2   5  -2    9.09    0.40
  -2   5  -2   10.00    0.55
  -2   5  -2   10.45    0.57
  -3   5  -1   -0.01    0.40
  -3   5  -1    0.01    0.33
  -3   5  -1    0.16    0.60
  -4   5   0   15.61    1.25
  -4   5   0   16.41    1.67
  -4   5   0   16.85    1.16
  -4  -6   8    0.34    1.15
  -4  -6   8   -2.71    1.68
  -4  -6   8    1.43    1.42
  -3  -6   7   21.81    1.42
  -3  -6   7   26.73    1.34
  -3  -6   7   24.05    1.64
   3   6  -7   23.47    1.33
   3   6  -7   22.68    1.59
   3   6  -7   24.01    1.56
  -2  -6   6    5.83    0.75
  -2  -6   6    6.16    0.71
  -2  -6   6    4.27    0.50
  -2  -6   6    5.26    0.70
   2   6  -6    4.66    0.62
   2   6  -6    5.52    0.70
   2   6  -6    6.60    0.86
   2   6  -6    5.54    0.66
  -1  -6   5   32.34    1.02
  -1  -6   5   32.18    1.01
  -1  -6   5   31.51    1.09
  -1  -6   5   28.84    1.09
   1   6  -5   30.03    1.07
   1   6  -5   32.48    1.08
   1   6  -5   32.27    1.13
   1   6  -5   32.34    1.08
   0  -6   4   27.28    0.93
   0  -6   4   28.00    0.85
   0  -6   4   25.65    0.88
   0  -6   4   26.86    0.93
   0   6  -4   26.88    0.92
   0   6  -4   26.46    0.84
   0   6  -4   26.71    0.90
   0   6  -4   26.82    0.88
   1  -6   3    3.89    0.47
   1  -6   3    4.76    0.48
  -1   6  -3    5.05    0.55
  -1   6  -3    4.74    0.43
  -1   6  -3    4.13    0.48
  -1   6  -3    4.57    0.49
  -2   6  -2   52.55    1.27
  -2   6  -2   51.69    1.59
  -2   6  -2   53.57    1.34
  -2   6  -2   54.20    1.05
  -3   6  -1    7.51    0.94
  -3   6  -1    7.69    0.81
  -3   6  -1    8.49    0.83
  -4   6   0    0.81    0.73
  -4   6   0    3.12    0.86
  -4   6   0   -0.61    0.95
  -4  -7   8   -1.93    1.28
  -4  -7   8    0.70    1.72
  -3  -7   7    2.47    0.82
  -3  -7   7    0.80    0.76
  -3  -7   7    1.40    0.78
  -3  -7   7    1.10    0.97
   3   7  -7    2.09    0.87
   3   7  -7    2.43    0.84
   3   7  -7    1.03    0.95
  -2  -7   6    0.72    0.48
  -2  -7   6    0.76    0.48
  -2  -7   6    0.50    0.59
  -2  -7   6   -0.15    0.46
   2   7  -6    0.76    0.70
   2   7  -6   -0.05    0.54
   2   7  -6    1.18    0.46
   2   7  -6    0.83    0.62
  -1  -7   5    6.77    0.78
  -1  -7   5    7.53    0.66
  -1  -7   5    6.68    0.76
  -1  -7   5    7.04    0.74
   1   7  -5    6.38    0.70
   1   7  -5    8.61    0.81
   1   7  -5    6.83    0.77
   1   7  -5    8.14    0.73
   0  -7   4    5.49    0.60
   0  -7   4    5.15    0.61
   0  -7   4    5.35    0.60
   0  -7   4    4.36    0.53
   0   7  -4    4.99    0.56
   0   7  -4    5.46    0.59
   0   7  -4    4.32    0.68
   0   7  -4    5.56    0.60
   1  -7   3    4.69    0.50
   1  -7   3    3.91    0.47
  -1   7  -3    2.87    0.55
  -1   7  -3    3.04    0.38
  -1   7  -3    2.96    0.44
  -1   7  -3    3.88    0.53
   2  -7   2    3.66    0.36
   2  -7   2    3.89    0.35
  -2   7  -2    3.69    0.37
  -2   7  -2    4.09    0.68
  -2   7  -2    4.17    0.54
  -3   7  -1    0.95    0.54
  -3   7  -1   -0.28    0.65
  -3   7  -1    0.56    0.54
  -4   7   0    6.97    1.37
  -4   7   0    8.86    1.07
  -4   7   0    8.60    1.11
  -3  -8   7   28.18    2.12
  -3  -8   7   27.25    1.63
  -3  -8   7   27.28    1.84
   3   8  -7   31.86    2.07
  -2  -8   6    5.37    0.75
  -2  -8   6    5.14    0.83
  -2  -8   6    5.32    0.74
  -2  -8   6    5.30    0.69
   2   8  -6    7.83    1.07
   2   8  -6    5.77    0.83
  -1  -8   5   32.22    1.23
  -1  -8   5   30.55    1.27
  -1  -8   5   31.34    1.33
   1   8  -5   31.80    1.31
   1   8  -5   33.45    1.33
   1   8  -5   32.51    1.27
   1   8  -5   32.06    1.25
   0  -8   4   30.62    1.22
   0  -8   4   28.86    1.18
   0  -8   4   30.81    1.10
   0  -8   4   30.60    1.14
   0   8  -4   29.16    1.05
   0   8  -4   31.54    1.11
   0   8  -4   31.19    1.18
   0   8  -4   31.44    1.14
   1  -8   3   15.57    0.98
   1  -8   3   14.18    0.86
  -1   8  -3   14.81    0.95
  -1   8  -3   14.92    0.89
  -1   8  -3   13.89    0.82
  -1   8  -3   14.82    0.76
   2  -8   2   32.13    0.97
   2  -8   2   29.05    0.95
  -2   8  -2   30.54    0.93
  -2   8  -2   32.82    1.18
  -2   8  -2   31.43    1.26
  -3   8  -1    0.34    0.63
  -3   8  -1    0.57    0.67
  -3   8  -1   -0.69    0.74
  -4   8   0   24.33    1.70
  -4   8   0   28.24    1.92
  -4   8   0   20.37    2.04
  -3  -9   7    5.22    1.36
  -3  -9   7    4.07    1.20
  -3  -9   7    3.57    1.17
   3   9  -7    6.28    1.25
   3   9  -7    5.70    1.44
  -2  -9   6    0.25    0.76
  -2  -9   6    2.61    0.74
  -2  -9   6    1.53    0.68
  -2  -9   6    1.91    0.77
   2   9  -6    1.15    0.77
   2   9  -6    2.93    1.01
   2   9  -6    0.37    0.86
   2   9  -6    1.42    0.59
  -1  -9   5    6.27    0.87
  -1  -9   5    5.02    0.73
  -1  -9   5    6.14    0.79
   1   9  -5    5.44    0.82
   1   9  -5    4.33    0.62
   1   9  -5    5.92    0.77
   0  -9   4    4.75    0.80
   0  -9   4    2.87    0.62
   0  -9   4    2.24    0.53
   0  -9   4    2.73    0.60
   0   9  -4    3.18    0.57
   0   9  -4    3.20    0.57
   0   9  -4    3.21    0.58
   0   9  -4    0.78    0.54
   1  -9   3    4.08    0.63
   1  -9   3    3.87    0.60
  -1   9  -3    3.03    0.62
  -1   9  -3    3.48    0.51
  -1   9  -3    2.61    0.55
  -1   9  -3    2.10    0.59
   2  -9   2   -0.14    0.46
   2  -9   2    1.07    0.54
  -2   9  -2    1.85    0.70
  -2   9  -2    2.06    0.66
  -2   9  -2    1.33    0.41
  -2   9  -2    1.57    0.59
  -3   9  -1    1.95    0.85
  -3   9  -1    2.99    0.89
  -3   9  -1    2.45    0.82
  -4   9   0    1.79    1.10
  -4   9   0    3.59    1.33
  -4   9   0    1.43    1.27
  -3 -10   7   14.77    2.21
   3  10  -7   10.36    1.80
  -2 -10   6    1.51    0.93
  -2 -10   6    0.83    0.95
  -2 -10   6    2.28    0.89
   2  10  -6    2.25    1.16
   2  10  -6    0.22    0.99
   2  10  -6    0.66    1.04
  -1 -10   5   25.22    1.47
  -1 -10   5   28.06    1.79
  -1 -10   5   24.24    1.50
  -1 -10   5   24.90    1.44
   1  10  -5   24.58    1.41
   1  10  -5   24.77    1.49
   1  10  -5   25.00    1.55
   1  10  -5   23.14    1.42
   0 -10   4   12.02    1.18
   0 -10   4   11.39    1.21
   0 -10   4   12.32    1.36
   0  10  -4   11.28    0.96
   0  10  -4   11.89    1.05
   0  10  -4   12.60    1.09
   1 -10   3   10.12    1.10
   1 -10   3   13.39    1.10
  -1  10  -3    9.36    0.97
  -1  10  -3   10.29    1.07
  -1  10  -3   10.60    0.95
  -1  10  -3   10.50    1.03
   2 -10   2   23.38    1.22
   2 -10   2   26.71    1.68
  -2  10  -2   28.04    1.56
  -2  10  -2   25.85    1.12
  -2  10  -2   24.92    1.52
  -2  10  -2   25.71    1.40
  -3  10  -1    1.07    0.85
  -3  10  -1    2.50    1.05
  -3  10  -1    0.32    0.92
  -2 -11   6   -0.27    1.13
  -2 -11   6   -1.46    1.03
  -2 -11   6   -0.55    0.96
   2  11  -6   -0.55    1.22
   2  11  -6    3.23    1.46
  -1 -11   5    1.75    0.96
  -1 -11   5   -0.64    0.89
  -1 -11   5    0.94    0.78
   1  11  -5   -0.02    0.95
   1  11  -5    0.87    0.86
   0 -11   4    0.37    0.74
   0 -11   4    0.31    0.68
   0 -11   4    0.61    0.75
   0  11  -4    0.43    0.70
   0  11  -4    0.05    0.61
   0  11  -4   -0.81    0.68
   0  11  -4    1.74    0.63
   1 -11   3    3.06    0.82
  -1  11  -3    3.46    0.83
  -1  11  -3    1.93    0.75
  -1  11  -3    2.68    0.69
  -1  11  -3    2.67    0.74
   2 -11   2   -0.68    0.73
   2 -11   2    2.08    0.86
  -2  11  -2    1.18    0.97
  -2  11  -2    0.72    0.81
  -2  11  -2    0.64    0.80
  -2  11  -2    1.01    0.64
  -3  11  -1    2.88    1.15
  -3  11  -1    1.35    1.04
   2  12  -6   -1.01    1.50
   2  12  -6    4.92    1.85
  -1 -12   5   10.65    1.24
  -1 -12   5   15.02    1.98
  -1 -12   5   13.27    1.56
   1  12  -5   11.55    1.42
   1  12  -5   13.04    1.53
   0 -12   4    9.85    1.17
   0 -12   4   10.24    1.26
   0  12  -4    6.22    0.96
   0  12  -4   12.67    1.47
   1 -12   3    5.41    1.09
   1 -12   3    5.60    1.04
  -1  12  -3    6.73    1.06
  -1  12  -3    6.11    1.00
  -1  12  -3    4.56    0.93
   2 -12   2   21.24    1.74
   2 -12   2   23.26    1.91
  -2  12  -2   26.68    1.76
  -2  12  -2   24.66    1.51
  -2  12  -2   27.43    2.02
  -3  12  -1   -1.96    1.20
  -1 -13   5   -0.69    1.38
  -1 -13   5   -1.09    1.21
   1  13  -5    2.61    1.39
   1  13  -5    1.25    1.43
   0 -13   4   -0.82    1.19
   0 -13   4   -1.27    0.91
   0  13  -4    1.23    1.14
   1 -13   3   -0.39    1.17
  -1  13  -3    1.40    1.12
  -1  13  -3    1.66    1.09
  -1  13  -3    2.45    1.08
   2 -13   2   -1.02    1.36
  -2  13  -2   -0.95    1.24
  -2  13  -2    0.21    1.13
   0 -14   4   -0.30    1.23
   0 -14   4    1.79    1.58
   0  14  -4    4.81    1.54
   1 -14   3    4.55    1.60
  -1  14  -3    7.05    1.55
   0  13   5    9.71    1.50
   0 -13  -5    7.67    1.47
  -2  12   7    4.02    1.32
   2 -12  -7    0.08    1.49
  -1  12   6    0.84    1.04
  -1  12   6    1.15    0.95
  -1  12   6    3.85    1.08
   1 -12  -6    3.39    1.36
   1 -12  -6    3.55    1.11
   0  12   5   -1.56    1.06
   0  12   5    0.74    0.84
   0 -12  -5   -0.89    1.22
   0 -12  -5   -0.69    0.97
  -1 -12  -4    0.54    1.27
  -1 -12  -4    1.89    1.39
  -2  11   7   13.11    1.54
  -2  11   7   11.84    1.47
   2 -11  -7   14.59    1.63
   2 -11  -7   11.47    1.35
  -1  11   6    4.30    0.94
  -1  11   6    1.61    0.80
  -1  11   6    1.21    0.87
   1 -11  -6    4.26    1.15
   1 -11  -6    1.53    0.85
   0  11   5   13.90    1.49
   0  11   5   15.38    1.53
   0  11   5   14.18    1.19
   0 -11  -5   13.21    1.53
   0 -11  -5   18.29    1.82
   1  11   4   12.55    1.07
   1  11   4   12.61    1.36
  -1 -11  -4   13.57    1.46
  -1 -11  -4   11.14    1.45
   2  11   3    8.46    1.45
   2  11   3    4.02    1.57
  -2 -11  -3    4.59    1.29
  -2 -11  -3    7.54    1.57
  -3  10   8   -0.10    1.07
   3 -10  -8   -1.99    1.35
   3 -10  -8    0.79    1.32
  -2  10   7    0.39    0.90
  -2  10   7    0.52    0.79
   2 -10  -7    0.16    0.97
   2 -10  -7    0.01    0.62
   2 -10  -7    2.61    1.04
  -1  10   6    0.90    0.79
  -1  10   6    0.93    0.69
  -1  10   6    1.31    0.66
  -1  10   6   -0.27    0.60
   1 -10  -6    0.75    0.77
   1 -10  -6    0.64    0.70
   1 -10  -6    0.51    0.88
   0  10   5    1.20    0.75
   0  10   5    1.03    0.67
   0  10   5   -0.40    0.50
   0  10   5   -0.41    0.63
   0 -10  -5    0.88    1.05
   0 -10  -5    0.92    0.73
   0 -10  -5    0.50    0.79
   1  10   4    3.79    0.81
   1  10   4    4.78    1.04
   1  10   4    4.48    0.62
  -1 -10  -4    4.81    1.00
  -1 -10  -4    4.64    1.04
  -1 -10  -4    5.31    0.96
   2  10   3   15.22    1.68
   2  10   3    8.86    1.37
  -2 -10  -3   12.72    1.43
  -2 -10  -3   14.50    1.55
  -3   9   8    1.74    0.97
   3  -9  -8    2.38    1.13
   3  -9  -8    0.99    1.11
  -2   9   7   31.75    1.65
  -2   9   7   29.29    1.49
   2  -9  -7   30.40    1.19
   2  -9  -7   32.00    1.73
   2  -9  -7   30.67    1.78
  -1   9   6    0.44    0.57
  -1   9   6    0.67    0.47
  -1   9   6    0.72    0.58
   1  -9  -6    0.85    0.55
   1  -9  -6    0.38    0.75
   0   9   5   30.96    1.36
   0   9   5   33.17    1.39
   0   9   5   31.73    1.14
   0  -9  -5   31.24    1.41
   0  -9  -5   29.80    1.57
   1   9   4   23.71    1.31
   1   9   4   21.31    1.33
   1   9   4   21.88    1.23
   1   9   4   20.74    0.88
  -1  -9  -4   22.54    1.49
  -1  -9  -4   19.51    1.36
  -1  -9  -4   21.88    1.29
   2   9   3   16.71    1.58
   2   9   3   21.02    1.44
  -2  -9  -3   16.45    1.54
  -2  -9  -3   18.33    1.47
  -2  -9  -3   18.58    1.76
  -3  -9  -2    6.76    1.37
  -3  -9  -2    6.02    1.48
  -3   8   8    1.43    0.82
  -2   8   7    1.56    0.61
  -2   8   7    1.18    0.69
   2  -8  -7    0.99    0.45
   2  -8  -7    0.36    0.66
  -1   8   6    0.13    0.57
  -1   8   6   -0.38    0.50
   1  -8  -6   -0.04    0.48
   1  -8  -6    0.03    0.42
   1  -8  -6    0.35    0.62
   0   8   5    1.36    0.53
   0   8   5    2.38    0.45
   0   8   5    2.91    0.57
   0   8   5    0.99    0.50
   0  -8  -5    2.77    0.60
   0  -8  -5    0.76    0.56
   1   8   4    0.17    0.50
   1   8   4   -0.49    0.46
   1   8   4    0.22    0.49
   1   8   4   -0.11    0.34
  -1  -8  -4   -0.14    0.61
  -1  -8  -4   -0.34    0.50
  -1  -8  -4    0.41    0.57
   2   8   3    1.58    0.63
   2   8   3    0.13    0.68
  -2  -8  -3   -0.21    0.65
  -2  -8  -3    0.28    0.64
  -2  -8  -3   -1.68    0.73
  -3  -8  -2    0.52    1.03
  -3  -8  -2    0.46    0.99
  -3  -8  -2    2.15    1.10
  -4   7   9   10.02    1.38
  -3   7   8    4.71    0.89
  -3   7   8    4.87    1.03
   3  -7  -8    4.83    0.93
   3  -7  -8    3.58    0.87
  -2   7   7   34.51    1.48
  -2   7   7   35.56    1.38
   2  -7  -7   34.30    1.01
   2  -7  -7   32.44    1.39
   2  -7  -7   35.62    1.57
  -1   7   6    0.79    0.44
  -1   7   6    0.00    0.38
   1  -7  -6   -0.20    0.36
   1  -7  -6    0.00    0.49
   1  -7  -6   -0.30    0.40
   0   7   5   41.66    1.31
   0   7   5   42.88    1.36
   0   7   5   41.76    1.29
   0   7   5   42.69    1.13
   0  -7  -5   40.38    1.34
   0  -7  -5   42.51    1.47
   0  -7  -5   44.14    1.34
   1   7   4    9.45    0.50
   1   7   4   10.65    0.81
   1   7   4   11.00    0.80
   1   7   4   11.17    0.83
  -1  -7  -4    9.01    0.92
  -1  -7  -4   10.57    0.83
  -1  -7  -4    9.29    0.97
   2   7   3   13.92    0.99
   2   7   3   15.97    0.95
  -2  -7  -3   12.79    1.03
  -2  -7  -3   12.91    1.15
  -2  -7  -3   13.25    1.28
  -3  -7  -2   14.68    1.61
  -3  -7  -2   14.22    1.63
  -3  -7  -2   14.96    1.36
  -4  -7  -1    1.56    1.50
  -4  -7  -1    5.53    1.50
  -4   6   9    0.30    0.94
   4  -6  -9   -0.25    1.66
  -3   6   8    2.19    0.69
  -3   6   8    0.59    0.82
   3  -6  -8    3.03    0.85
   3  -6  -8    1.17    0.66
  -2   6   7    0.40    0.45
  -2   6   7    0.52    0.50
   2  -6  -7    0.38    0.53
   2  -6  -7   -0.22    0.42
   2  -6  -7    0.03    0.30
  -1   6   6    0.77    0.38
  -1   6   6    0.49    0.35
   1  -6  -6    0.48    0.32
   1  -6  -6    0.38    0.45
   1  -6  -6   -0.09    0.33
   0   6   5    0.19    0.27
   0   6   5   -0.09    0.33
   0   6   5    0.46    0.32
   0   6   5    0.05    0.29
   0  -6  -5    0.10    0.39
   0  -6  -5    0.20    0.30
   0  -6  -5    0.15    0.39
   1   6   4    0.53    0.34
   1   6   4    0.81    0.35
   1   6   4    0.68    0.35
  -1  -6  -4    0.01    0.37
  -1  -6  -4    0.63    0.37
  -1  -6  -4    0.51    0.44
   2   6   3    0.41    0.39
   2   6   3    0.93    0.44
   2   6   3    0.66    0.42
  -2  -6  -3    0.72    0.45
  -2  -6  -3   -0.10    0.45
  -2  -6  -3    0.83    0.55
   3   6   2    1.01    0.67
  -3  -6  -2    0.15    0.68
  -3  -6  -2   -0.11    0.61
  -3  -6  -2    0.59    1.29
  -4  -6  -1    0.21    1.13
  -4  -6  -1    0.50    1.17
  -4  -6  -1    1.77    1.19
  -4   5   9   15.99    1.63
   4  -5  -9   16.11    1.44
  -3   5   8    1.58    0.60
  -3   5   8    0.64    0.75
   3  -5  -8    0.57    0.53
   3  -5  -8    0.41    0.66
  -2   5   7   56.14    1.55
  -2   5   7   60.94    1.72
   2  -5  -7   59.12    1.59
   2  -5  -7   60.07    1.20
   2  -5  -7   60.03    1.70
  -1   5   6    0.30    0.31
  -1   5   6    0.66    0.35
   1  -5  -6    0.59    0.28
   1  -5  -6    1.04    0.39
   1  -5  -6    0.72    0.38
   0   5   5   67.51    1.57
   0   5   5   69.47    1.54
   0   5   5   66.93    1.48
   0  -5  -5   68.29    1.52
   0  -5  -5   70.02    1.66
   0  -5  -5   65.71    1.54
   1   5   4    5.70    0.58
   1   5   4    6.72    0.56
   1   5   4    6.34    0.53
  -1  -5  -4    6.44    0.54
  -1  -5  -4    6.05    0.67
  -1  -5  -4    6.22    0.67
   2   5   3   27.82    0.76
   2   5   3   28.67    0.77
   2   5   3   28.64    1.16
  -2  -5  -3   27.67    1.06
  -2  -5  -3   28.22    1.24
  -2  -5  -3   28.48    1.15
  -3  -5  -2   11.59    1.24
  -3  -5  -2   11.98    0.92
  -3  -5  -2   11.74    1.17
  -3  -5  -2    8.55    0.48
  -4  -5  -1    3.77    1.09
  -4  -5  -1    3.43    0.93
  -4  -5  -1    3.92    1.14
  -4   4   9   -0.15    0.90
   4  -4  -9    0.93    0.79
   4  -4  -9   -1.34    0.84
  -3   4   8    0.82    0.62
  -3   4   8    0.37    0.55
   3  -4  -8   -0.02    0.58
   3  -4  -8   -0.79    0.46
  -2   4   7    0.78    0.40
  -2   4   7    0.14    0.34
   2  -4  -7    0.38    0.23
   2  -4  -7    0.53    0.35
   2  -4  -7    0.39    0.43
  -1   4   6    0.52    0.30
  -1   4   6    0.60    0.29
   1  -4  -6   -0.08    0.21
   1  -4  -6    0.49    0.33
   1  -4  -6    0.54    0.27
   0   4   5   37.14    0.98
   0   4   5   37.23    1.02
   0   4   5   37.35    0.97
   0  -4  -5   37.22    1.02
   0  -4  -5   36.57    1.08
   0  -4  -5   36.06    0.97
   1   4   4    3.04    0.37
   1   4   4    2.71    0.38
   1   4   4    3.76    0.42
  -1  -4  -4    3.41    0.46
  -1  -4  -4    2.89    0.42
  -1  -4  -4    3.05    0.34
   2   4   3    0.55    0.36
  -2  -4  -3    0.06    0.40
  -2  -4  -3    0.32    0.37
  -2  -4  -3    0.35    0.27
   3   4   2   -1.15    0.52
  -3  -4  -2    0.42    0.59
  -3  -4  -2    0.45    0.53
  -3  -4  -2    0.48    0.33
   4   4   1    0.86    0.93
  -4  -4  -1    0.54    0.87
  -4  -4  -1    0.50    0.64
  -4  -4  -1    0.20    0.71
  -4   3   9   13.77    1.50
  -4   3   9   13.35    1.42
   4  -3  -9   13.46    1.12
   4  -3  -9   18.02    1.31
  -3   3   8    7.78    0.85
  -3   3   8    6.53    0.75
   3  -3  -8    7.15    0.44
   3  -3  -8    6.69    0.67
   3  -3  -8    6.80    0.77
  -2   3   7   65.48    1.63
  -2   3   7   64.83    1.57
   2  -3  -7   64.61    1.53
   2  -3  -7   63.97    1.61
  -1   3   6    3.73    0.41
  -1   3   6    3.50    0.40
   1  -3  -6    3.95    0.43
   1  -3  -6    3.20    0.42
   1  -3  -6    3.34    0.36
   0   3   5   86.53    1.64
   0   3   5   86.27    1.57
   0  -3  -5   83.77    1.59
   0  -3  -5   87.57    1.65
   0  -3  -5   87.93    1.70
   1   3   4    8.58    0.55
   1   3   4    8.47    0.40
  -1  -3  -4    8.35    0.42
  -1  -3  -4    7.91    0.51
  -1  -3  -4    8.10    0.56
  -2  -3  -3   37.38    1.23
  -2  -3  -3   37.25    1.02
  -2  -3  -3   36.77    0.67
  -2  -3  -3   37.16    0.88
   3   3   2    9.06    0.92
  -3  -3  -2    7.87    0.59
  -3  -3  -2    9.53    0.83
  -3  -3  -2    9.33    0.97
  -4  -3  -1    6.65    0.90
  -4  -3  -1    6.22    0.98
  -4   2   9    0.92    0.83
  -4   2   9    0.40    1.05
   4  -2  -9    0.07    0.71
   4  -2  -9    0.29    0.63
   4  -2  -9   -0.03    0.36
  -3   2   8    1.18    0.52
  -3   2   8    0.30    0.52
   3  -2  -8    0.48    0.52
   3  -2  -8    0.24    0.28
  -2   2   7   -0.18    0.28
  -2   2   7    0.11    0.39
   2  -2  -7   -0.01    0.27
   2  -2  -7    0.22    0.33
  -1   2   6    0.75    0.25
  -1   2   6    0.90    0.27
   1  -2  -6    0.27    0.25
   1  -2  -6    0.57    0.21
   0   2   5    0.44    0.16
   0   2   5    0.23    0.17
   0   2   5    0.47    0.18
   0  -2  -5    0.64    0.22
   0  -2  -5    0.32    0.20
   0  -2  -5    0.30    0.17
   1   2   4    3.23    0.36
   1   2   4    3.18    0.19
  -1  -2  -4    3.10    0.35
  -1  -2  -4    3.07    0.32
  -1  -2  -4    3.21    0.26
   2   2   3    3.36    0.40
  -2  -2  -3    3.21    0.45
  -2  -2  -3    2.91    0.34
   3   2   2   28.13    1.15
  -3  -2  -2   28.41    0.89
  -3  -2  -2   29.30    0.98
  -3  -2  -2   27.63    1.16
   4   2   1   -1.39    0.59
  -4  -2  -1    0.57    0.71
  -4  -2  -1   -0.99    0.68
  -4  -2  -1    0.09    0.71
  -4   1   9   19.87    1.55
  -4   1   9   23.61    1.83
   4  -1  -9   19.90    1.04
   4  -1  -9   20.84    1.26
   4  -1  -9   18.10    1.10
  -3   1   8   15.69    1.06
  -3   1   8   15.45    1.13
  -3   1   8   13.94    1.00
   3  -1  -8   14.66    0.71
   3  -1  -8   14.99    1.01
   3  -1  -8   14.34    1.09
  -2   1   7   72.09    1.66
  -2   1   7   70.38    1.60
   2  -1  -7   72.01    1.57
   2  -1  -7   71.18    1.35
   2  -1  -7   72.38    1.66
  -1   1   6    0.05    0.19
  -1   1   6   -0.04    0.17
  -1   1   6    0.16    0.19
   1  -1  -6   -0.04    0.16
   1  -1  -6    0.01    0.22
   0   1   5  109.76    1.77
   0   1   5  111.07    1.82
   0   1   5  111.46    1.78
   0  -1  -5  112.27    1.82
   0  -1  -5  114.34    1.87
  -1  -1  -4   16.85    0.43
  -1  -1  -4   16.26    0.61
  -1  -1  -4   13.55    0.44
  -1  -1  -4   16.01    0.37
   2   1   3   20.80    0.76
  -2  -1  -3   21.92    0.83
  -2  -1  -3   20.36    0.47
  -2  -1  -3   21.09    0.52
   3   1   2   26.21    1.03
  -3  -1  -2   27.44    1.10
  -3  -1  -2   29.00    0.86
  -3  -1  -2   29.66    0.81
  -4  -1  -1    7.71    0.81
  -4  -1  -1    7.12    0.76
  -4  -1  -1    8.00    0.87
  -4   0   9    2.36    0.92
  -4   0   9    0.86    1.01
   4   0  -9    1.01    0.73
   4   0  -9    1.38    0.65
   4   0  -9    0.33    0.61
  -3   0   8    0.74    0.55
  -3   0   8    1.33    0.55
  -3   0   8    1.13    0.55
   3   0  -8    0.66    0.51
   3   0  -8    0.66    0.60
   3   0  -8    0.52    0.36
  -2   0   7    0.20    0.28
  -2   0   7   -0.31    0.38
  -2   0   7    0.75    0.33
   2   0  -7    0.36    0.36
   2   0  -7    0.19    0.22
   2   0  -7    0.50    0.29
  -1   0   6    0.21    0.20
  -1   0   6    0.10    0.20
  -1   0   6   -0.04    0.21
   1   0  -6   -0.04    0.16
   1   0  -6    0.04    0.21
   0   0   5    2.83    0.25
   0   0   5    2.48    0.24
   0   0   5    2.30    0.24
   0   0  -5    2.30    0.24
   0   0  -5    2.52    0.26
   0   0  -5    2.44    0.27
   1   0   4    1.48    0.20
  -1   0  -4    1.52    0.21
  -1   0  -4    1.35    0.22
  -2   0  -3    4.30    0.43
  -2   0  -3    3.93    0.44
  -3   0  -2    0.15    0.25
  -3   0  -2    0.25    0.39
  -3   0  -2   -0.05    0.25
  -4   0  -1    0.64    0.58
  -4   0  -1    0.58    0.58
  -4   0  -1    0.19    0.55
  -5   0   0    2.46    2.55
  -4  -1   9   38.97    2.21
  -4  -1   9   41.72    2.06
  -4  -1   9   44.55    1.99
   4   1  -9   41.16    1.43
   4   1  -9   41.88    1.57
   4   1  -9   41.30    1.62
  -3  -1   8    9.06    1.05
  -3  -1   8    9.06    0.95
  -3  -1   8    8.62    0.99
   3   1  -8   10.65    0.77
   3   1  -8   10.80    0.97
  -2  -1   7   95.34    1.97
  -2  -1   7   89.53    2.32
  -2  -1   7   95.76    1.97
   2   1  -7   99.51    1.93
   2   1  -7   96.06    1.97
   2   1  -7   97.44    1.82
  -1  -1   6   13.32    0.58
  -1  -1   6   12.92    0.59
  -1  -1   6   13.86    0.58
   1   1  -6   12.43    0.63
   1   1  -6   13.45    0.56
   1   1  -6   12.87    0.59
   0  -1   5  178.17    2.56
   0  -1   5  170.99    2.55
   0  -1   5  170.13    2.62
   0   1  -5  172.51    2.59
   0   1  -5  173.67    2.64
   0   1  -5  173.41    2.59
   1  -1   4    4.40    0.33
  -1   1  -4    4.60    0.30
  -2   1  -3   66.09    1.44
  -2   1  -3   67.70    1.35
  -3   1  -2   14.59    0.50
  -3   1  -2   14.68    0.51
  -3   1  -2   15.28    0.76
  -4   1  -1   10.26    0.90
  -4   1  -1    9.48    0.92
  -4   1  -1   10.77    0.89
  -5   1   0   11.42    2.05
  -4  -2   9    0.65    1.16
  -4  -2   9    1.42    1.02
  -4  -2   9    1.69    1.08
   4   2  -9    0.67    0.77
   4   2  -9    1.08    0.81
  -3  -2   8    1.01    0.63
  -3  -2   8    0.50    0.54
  -3  -2   8    0.53    0.61
   3   2  -8   -0.45    0.41
   3   2  -8    0.17    0.55
   3   2  -8   -0.51    0.45
  -2  -2   7   15.52    0.80
   2   2  -7   14.75    0.74
   2   2  -7   14.65    0.80
   2   2  -7   15.87    0.71
  -1  -2   6    0.47    0.24
  -1  -2   6    0.08    0.22
  -1  -2   6    0.20    0.21
   1   2  -6    0.36    0.23
   1   2  -6    0.30    0.24
   1   2  -6    0.05    0.15
   1   2  -6    0.41    0.23
   0  -2   5   -0.02    0.15
   0  -2   5   -0.04    0.15
   0   2  -5    0.10    0.16
   0   2  -5   -0.11    0.13
   0   2  -5    0.04    0.17
   1  -2   4    0.16    0.21
  -1   2  -4    0.10    0.10
  -1   2  -4    0.09    0.09
  -1   2  -4    0.20    0.17
  -2   2  -3    3.33    0.43
  -2   2  -3    2.90    0.31
  -3   2  -2    0.98    0.34
  -3   2  -2    1.11    0.24
  -3   2  -2    1.48    0.26
  -4   2  -1    0.80    0.43
  -4   2  -1    0.04    0.53
  -4   2  -1    0.62    0.55
  -4  -3   9    9.58    1.30
  -4  -3   9   10.25    1.54
   4   3  -9    6.54    1.08
   4   3  -9    7.54    1.02
   4   3  -9    6.88    1.26
  -3  -3   8    6.57    0.75
  -3  -3   8    7.93    1.01
   3   3  -8    6.79    0.72
   3   3  -8    7.30    0.81
   3   3  -8    6.39    0.72
  -2  -3   7   43.03    1.25
  -2  -3   7   40.83    1.30
  -2  -3   7   42.75    1.29
   2   3  -7   42.81    1.23
   2   3  -7   42.96    1.21
   2   3  -7   42.16    1.28
  -1  -3   6    6.85    0.53
  -1  -3   6    7.87    0.51
  -1  -3   6    8.13    0.50
   1   3  -6    7.66    0.52
   1   3  -6    7.76    0.51
   1   3  -6    7.63    0.55
   1   3  -6    8.18    0.47
   0  -3   5   92.63    1.54
   0  -3   5   91.36    1.61
   0  -3   5   91.27    1.68
   0   3  -5   93.59    1.61
   0   3  -5   91.82    1.68
   0   3  -5   93.72    1.65
   0   3  -5   92.13    1.65
   1  -3   4    6.35    0.48
  -1   3  -4    6.43    0.29
  -1   3  -4    6.25    0.30
  -1   3  -4    5.93    0.43
  -2   3  -3  108.53    1.58
  -2   3  -3  103.27    2.13
  -3   3  -2   15.10    0.58
  -3   3  -2   15.15    0.59
  -3   3  -2   15.36    0.63
  -3   3  -2   14.82    1.02
  -4   3  -1   14.04    0.93
  -4   3  -1   13.12    0.65
  -4   3  -1   13.24    1.01
  -5   3   0    7.00    1.66
  -4  -4   9    1.51    1.11
   4   4  -9   -0.37    0.84
   4   4  -9    0.05    0.97
   4   4  -9   -0.23    1.00
  -3  -4   8   -0.95    0.63
  -3  -4   8    0.12    0.66
  -3  -4   8    0.68    0.68
   3   4  -8   -0.74    0.51
   3   4  -8   -0.27    0.54
   3   4  -8   -0.23    0.64
  -2  -4   7    2.31    0.43
  -2  -4   7    4.18    0.60
  -2  -4   7    3.96    0.52
  -2  -4   7    4.02    0.57
   2   4  -7    2.88    0.51
   2   4  -7    2.56    0.41
   2   4  -7    2.66    0.45
  -1  -4   6    0.89    0.32
  -1  -4   6    1.20    0.29
  -1  -4   6    1.64    0.32
  -1  -4   6    1.20    0.31
   1   4  -6    1.16    0.31
   1   4  -6    1.36    0.31
   1   4  -6    1.74    0.37
   1   4  -6    0.73    0.25
   0  -4   5    3.86    0.33
   0  -4   5    4.15    0.40
   0  -4   5    4.25    0.41
   0   4  -5    3.52    0.38
   0   4  -5    4.18    0.40
   0   4  -5    3.90    0.36
   0   4  -5    3.67    0.35
   1  -4   4   39.39    0.71
   1  -4   4   38.05    1.10
   1  -4   4   38.98    0.85
  -1   4  -4   39.19    0.88
  -1   4  -4   37.56    0.82
  -1   4  -4   39.32    0.88
  -1   4  -4   36.78    1.03
  -2   4  -3    1.45    0.25
  -2   4  -3    1.64    0.37
  -2   4  -3    1.71    0.24
  -3   4  -2    0.31    0.32
  -3   4  -2    0.12    0.53
  -3   4  -2   -0.11    0.29
  -3   4  -2    0.23    0.25
  -4   4  -1   -1.16    0.80
  -4   4  -1    0.18    0.62
  -4   4  -1    1.17    0.56
  -5   4   0    0.38    1.49
  -4  -5   9    6.73    1.41
   4   5  -9    8.33    1.25
   4   5  -9    7.85    1.50
  -3  -5   8    8.29    0.90
  -3  -5   8   13.54    1.17
  -3  -5   8    9.46    0.96
  -3  -5   8   10.84    1.15
   3   5  -8   10.24    1.13
   3   5  -8   10.14    1.02
   3   5  -8   11.48    1.10
  -2  -5   7   42.94    1.48
  -2  -5   7   40.42    1.34
  -2  -5   7   40.62    1.29
   2   5  -7   41.73    1.33
   2   5  -7   43.58    1.55
   2   5  -7   41.59    1.39
   2   5  -7   42.70    1.36
  -1  -5   6    4.56    0.50
  -1  -5   6    5.34    0.50
  -1  -5   6    5.35    0.57
  -1  -5   6    5.79    0.59
   1   5  -6    5.61    0.55
   1   5  -6    5.33    0.60
   1   5  -6    5.87    0.60
   1   5  -6    5.74    0.55
   0  -5   5  104.23    2.00
   0  -5   5  100.81    1.93
   0  -5   5  103.51    1.83
   0   5  -5  105.15    1.95
   0   5  -5  102.98    1.96
   0   5  -5  104.01    1.98
   1  -5   4    4.85    0.40
   1  -5   4    4.36    0.38
   1  -5   4    4.15    0.55
  -1   5  -4    4.17    0.42
  -1   5  -4    3.91    0.39
  -1   5  -4    4.30    0.37
  -1   5  -4    4.76    0.50
  -2   5  -3   70.66    1.42
  -2   5  -3   66.67    1.25
  -2   5  -3   68.04    1.75
  -2   5  -3   68.80    1.35
  -3   5  -2   14.75    0.74
  -3   5  -2   13.30    0.76
  -3   5  -2   14.19    1.16
  -4   5  -1   25.00    1.22
  -4   5  -1   25.06    1.84
  -4  -6   9   -0.02    1.41
  -3  -6   8    1.80    0.85
  -3  -6   8    2.54    0.75
  -3  -6   8   -0.21    0.65
   3   6  -8    0.06    0.84
   3   6  -8    1.15    0.75
   3   6  -8   -0.39    0.70
  -2  -6   7    0.75    0.45
  -2  -6   7    0.78    0.49
  -2  -6   7    0.81    0.54
  -2  -6   7    0.22    0.39
   2   6  -7    0.60    0.50
   2   6  -7    1.09    0.54
   2   6  -7    0.69    0.61
   2   6  -7    1.85    0.52
  -1  -6   6    0.14    0.35
  -1  -6   6   -0.32    0.34
  -1  -6   6   -0.19    0.31
  -1  -6   6    0.48    0.31
   1   6  -6    0.43    0.37
   1   6  -6    0.01    0.37
   1   6  -6    0.14    0.33
   1   6  -6   -0.17    0.29
   0  -6   5    0.54    0.30
   0  -6   5    0.91    0.30
   0  -6   5    0.86    0.30
   0  -6   5    0.67    0.33
   0   6  -5    0.72    0.28
   0   6  -5    0.83    0.27
   0   6  -5    0.82    0.30
   0   6  -5    0.66    0.25
   1  -6   4    0.39    0.68
   1  -6   4   -0.04    0.27
   1  -6   4    0.07    0.27
  -1   6  -4    0.39    0.23
  -1   6  -4    0.46    0.31
  -1   6  -4    0.26    0.25
  -1   6  -4   -0.18    0.24
  -2   6  -3    2.70    0.42
  -2   6  -3    2.60    0.56
  -2   6  -3    3.14    0.43
  -2   6  -3    3.39    0.39
  -3   6  -2   -0.03    0.45
  -3   6  -2    0.11    0.60
  -3   6  -2   -0.19    0.44
  -4   6  -1   16.65    1.23
  -4   6  -1   16.67    2.53
  -4   6  -1   17.83    1.33
  -3  -7   8    3.80    0.89
  -3  -7   8    4.74    0.90
  -3  -7   8    6.38    1.14
   3   7  -8    5.14    1.45
   3   7  -8    3.66    0.88
  -2  -7   7   41.80    1.42
  -2  -7   7   41.68    1.54
  -2  -7   7   40.47    1.36
  -2  -7   7   39.98    1.63
   2   7  -7   44.41    1.79
   2   7  -7   42.10    1.58
   2   7  -7   39.41    1.50
  -1  -7   6    6.64    0.70
  -1  -7   6    5.18    0.61
  -1  -7   6    6.80    0.69
  -1  -7   6    5.78    0.63
   1   7  -6    5.91    0.69
   1   7  -6    5.17    0.63
   1   7  -6    6.16    0.69
   1   7  -6    5.92    0.68
   0  -7   5   56.10    1.52
   0  -7   5   56.68    1.39
   0  -7   5   53.63    1.42
   0  -7   5   53.07    1.45
   0   7  -5   55.43    1.35
   0   7  -5   57.20    1.44
   0   7  -5   55.80    1.48
   0   7  -5   55.60    1.46
   1  -7   4    0.39    0.34
   1  -7   4   -0.07    0.32
   1  -7   4    0.57    0.38
  -1   7  -4    0.47    0.26
  -1   7  -4    0.18    0.37
  -1   7  -4   -0.14    0.28
  -1   7  -4   -0.36    0.37
  -2   7  -3   39.78    1.26
  -2   7  -3   40.05    1.18
  -2   7  -3   41.50    1.01
  -2   7  -3   41.17    1.48
  -3   7  -2    5.29    0.86
  -3   7  -2    6.19    0.73
  -3   7  -2    6.03    0.70
  -4   7  -1   14.04    1.53
  -4   7  -1   13.58    1.82
  -4   7  -1   13.01    1.68
  -3  -8   8    1.66    1.14
  -3  -8   8   -1.83    0.89
  -3  -8   8   -0.19    0.92
   3   8  -8    0.00    1.17
   3   8  -8    1.52    1.04
  -2  -8   7    1.47    0.70
  -2  -8   7   -0.22    0.67
  -2  -8   7    0.86    0.65
  -2  -8   7    1.38    0.62
   2   8  -7    1.38    0.76
   2   8  -7    1.87    0.92
   2   8  -7    0.91    0.62
  -1  -8   6    0.34    0.43
  -1  -8   6   -0.24    0.48
  -1  -8   6   -0.15    0.43
   1   8  -6    0.12    0.50
   1   8  -6   -0.91    0.43
   1   8  -6    0.00    0.37
   1   8  -6   -0.73    0.50
   0  -8   5    3.22    0.53
   0  -8   5    3.41    0.55
   0  -8   5    2.75    0.48
   0  -8   5    2.53    0.56
   0   8  -5    3.29    0.53
   0   8  -5    3.56    0.50
   0   8  -5    2.71    0.52
   0   8  -5    1.97    0.46
   1  -8   4    1.37    0.44
   1  -8   4    0.77    0.42
  -1   8  -4    1.34    0.43
  -1   8  -4    1.42    0.47
  -1   8  -4    0.83    0.46
  -1   8  -4    1.15    0.38
   2  -8   3    0.64    0.34
   2  -8   3   -0.08    0.32
  -2   8  -3    1.14    0.58
  -2   8  -3    0.24    0.47
  -2   8  -3    0.74    0.34
  -2   8  -3    0.51    0.47
  -3   8  -2    4.16    0.76
  -3   8  -2    3.61    0.86
  -3   8  -2    3.59    0.79
  -4   8  -1    1.59    0.95
  -4   8  -1    1.71    1.10
  -4   8  -1    0.81    1.20
  -3  -9   8    1.04    1.16
  -3  -9   8   -0.35    1.10
  -3  -9   8    1.26    1.36
   3   9  -8    0.79    1.23
   3   9  -8    1.25    1.41
  -2  -9   7   14.18    1.29
  -2  -9   7   13.95    1.36
  -2  -9   7   13.10    1.28
  -2  -9   7   13.03    1.47
   2   9  -7   14.29    1.35
   2   9  -7   14.05    1.40
   2   9  -7   13.37    1.50
   2   9  -7   17.26    1.73
  -1  -9   6    1.21    0.67
  -1  -9   6    1.67    0.56
  -1  -9   6    1.94    0.62
   1   9  -6    1.81    0.68
   1   9  -6    1.84    0.69
   1   9  -6    1.31    0.53
   0  -9   5   48.42    1.62
   0  -9   5   50.09    1.52
   0  -9   5   50.49    1.70
   0  -9   5   49.67    1.54
   0   9  -5   48.96    1.53
   0   9  -5   46.10    1.56
   0   9  -5   50.53    1.60
   1  -9   4   -0.34    0.47
   1  -9   4   -0.33    0.49
  -1   9  -4    0.32    0.41
  -1   9  -4    1.36    0.55
  -1   9  -4    0.91    0.53
  -1   9  -4    1.09    0.49
   2  -9   3   37.26    1.14
   2  -9   3   33.65    1.11
  -2   9  -3   33.03    1.45
  -2   9  -3   32.48    1.40
  -2   9  -3   35.39    1.56
  -2   9  -3   34.60    1.11
  -3   9  -2    5.57    0.98
  -3   9  -2    5.80    0.89
  -3   9  -2    5.31    0.96
  -4   9  -1    9.17    1.61
  -4   9  -1    7.72    1.27
  -4   9  -1    7.82    1.46
   3  10  -8    1.98    1.68
  -2 -10   7    0.82    0.97
  -2 -10   7    1.09    0.82
  -2 -10   7   -0.17    0.89
   2  10  -7    3.01    1.33
   2  10  -7    1.33    1.16
  -1 -10   6    0.58    0.74
  -1 -10   6    0.61    0.79
  -1 -10   6    0.14    0.71
  -1 -10   6    1.12    0.68
   1  10  -6    0.95    0.76
   1  10  -6    0.59    0.64
   1  10  -6    0.28    0.70
   1  10  -6    0.95    0.86
   0 -10   5   -0.15    0.66
   0 -10   5    1.10    0.77
   0 -10   5    0.38    0.57
   0  10  -5    1.43    0.59
   1 -10   4    0.29    0.63
   1 -10   4    0.67    0.62
  -1  10  -4   -0.08    0.49
  -1  10  -4    0.64    0.56
  -1  10  -4    0.64    0.66
  -1  10  -4   -0.01    0.62
   2 -10   3    3.12    0.70
   2 -10   3    2.27    0.63
  -2  10  -3    3.54    0.83
  -2  10  -3    2.88    0.66
  -2  10  -3    2.82    0.81
  -2  10  -3    1.89    0.69
  -3  10  -2    1.48    1.04
  -3  10  -2    1.48    0.87
  -3  10  -2    1.64    0.89
  -2 -11   7    4.27    1.27
  -2 -11   7    5.46    1.31
  -2 -11   7    6.63    1.19
   2  11  -7    8.97    1.72
   2  11  -7    4.68    1.39
  -1 -11   6    4.96    1.05
  -1 -11   6    2.82    1.04
  -1 -11   6    4.74    1.01
   1  11  -6    4.05    1.06
   1  11  -6    6.56    1.12
   0 -11   5   34.53    1.82
   0 -11   5   34.56    1.78
   0 -11   5   37.81    1.64
   0 -11   5   35.37    1.62
   0  11  -5   37.40    1.73
   0  11  -5   35.21    1.64
   0  11  -5   39.77    1.71
   1 -11   4   -0.34    0.71
   1 -11   4    1.49    0.76
  -1  11  -4    0.62    0.73
  -1  11  -4    0.56    0.74
  -1  11  -4   -0.20    0.62
  -1  11  -4    0.33    0.76
   2 -11   3   21.08    1.40
   2 -11   3   22.26    1.47
  -2  11  -3   18.26    1.46
  -2  11  -3   22.31    1.70
  -2  11  -3   20.93    1.64
  -2  11  -3   20.22    1.26
  -3  11  -2    6.21    1.22
  -3  11  -2    6.86    1.16
   2  12  -7    5.56    1.91
   2  12  -7    2.34    1.66
  -1 -12   6   -1.49    0.94
  -1 -12   6    3.03    1.26
  -1 -12   6   -0.96    1.12
   1  12  -6    1.63    1.19
   1  12  -6    1.62    1.17
   0 -12   5    3.04    1.11
   0 -12   5    2.97    0.99
   0  12  -5    3.31    0.99
   0  12  -5    5.10    1.07
   1 -12   4    0.25    0.95
   1 -12   4    1.76    0.95
  -1  12  -4    1.75    0.96
  -1  12  -4    1.67    0.80
  -1  12  -4    1.75    0.90
   2 -12   3   -1.42    0.92
   2 -12   3    1.91    1.04
  -2  12  -3   -1.26    1.02
  -2  12  -3   -0.22    0.89
  -2  12  -3   -0.25    0.81
  -3  12  -2   -0.31    1.19
  -1 -13   6    4.12    1.45
  -1 -13   6    0.82    1.18
   1  13  -6    6.17    1.55
   1  13  -6    5.81    1.60
   0 -13   5   14.61    1.67
   0 -13   5   14.28    1.49
   0  13  -5   14.09    1.90
   1 -13   4    1.37    1.35
   1 -13   4   -3.27    1.07
  -1  13  -4    0.01    1.05
  -1  13  -4   -0.44    1.11
  -1  13  -4    0.54    1.02
  -2  13  -3   10.21    1.46
  -2  13  -3    8.04    1.53
  -1  14  -4    4.71    1.42
  -1  12   7    0.69    1.10
  -1  12   7    2.31    1.04
   1 -12  -7    1.92    1.09
   1 -12  -7    3.69    1.46
   0  12   6    7.45    1.00
   0  12   6    5.79    1.30
   0 -12  -6   10.02    1.42
   0 -12  -6    6.02    1.47
  -1 -12  -5    6.13    1.38
  -2  11   8    1.22    1.11
  -2  11   8    2.33    1.00
   2 -11  -8    3.95    1.44
   2 -11  -8    1.58    0.90
  -1  11   7    4.69    0.97
  -1  11   7    3.00    0.97
   1 -11  -7    4.73    1.02
   1 -11  -7    4.74    1.26
   0  11   6    2.62    0.93
   0  11   6    1.12    0.94
   0  11   6    1.40    0.71
   0 -11  -6    3.14    1.04
   0 -11  -6    2.14    0.92
   1  11   5    1.71    0.75
   1  11   5    2.81    1.19
  -1 -11  -5   -0.50    1.15
  -1 -11  -5    2.14    1.07
   2  11   4    9.52    1.74
  -2 -11  -4   17.37    1.91
  -2 -11  -4   13.61    2.20
   3 -10  -9    2.34    1.45
  -2  10   8   15.55    1.53
  -2  10   8   14.91    1.74
   2 -10  -8   15.01    1.27
   2 -10  -8   13.79    1.45
  -1  10   7    9.33    1.04
  -1  10   7   11.17    1.20
   1 -10  -7    7.51    1.17
   1 -10  -7    7.97    1.19
   1 -10  -7    8.65    0.97
   0  10   6    8.18    0.98
   0  10   6    8.40    1.08
   0  10   6    7.19    0.94
   0  10   6    7.40    0.90
   0 -10  -6    7.67    1.17
   0 -10  -6    7.26    0.98
   0 -10  -6    5.83    0.86
   1  10   5   13.28    1.57
   1  10   5   11.12    0.80
   1  10   5   13.78    1.35
  -1 -10  -5    9.04    1.11
  -1 -10  -5   11.05    1.27
   2  10   4   -1.20    1.16
   2  10   4    0.55    1.03
  -2 -10  -4    0.22    0.99
  -2 -10  -4    1.18    1.26
  -3   9   9    0.60    1.00
   3  -9  -9   -0.76    1.23
   3  -9  -9    0.94    1.20
  -2   9   8    2.60    0.76
   2  -9  -8    2.77    0.62
   2  -9  -8    2.79    1.01
   2  -9  -8    1.31    0.93
  -1   9   7    4.92    0.73
  -1   9   7    4.49    1.16
  -1   9   7    2.89    0.73
   1  -9  -7    3.89    0.72
   1  -9  -7    3.97    0.90
   1  -9  -7    2.98    0.74
   0   9   6    0.76    0.60
   0   9   6    0.78    0.59
   0   9   6    0.60    0.45
   0  -9  -6    0.24    0.63
   0  -9  -6    0.22    0.72
   1   9   5   10.95    1.07
   1   9   5   10.08    0.65
   1   9   5   11.20    1.16
   1   9   5   10.76    1.24
  -1  -9  -5    9.09    0.98
  -1  -9  -5    8.61    1.06
  -1  -9  -5   10.95    1.22
   2   9   4   -0.06    0.94
   2   9   4    0.77    0.82
  -2  -9  -4   -1.63    0.94
  -2  -9  -4   -0.85    0.84
  -2  -9  -4    0.81    0.90
  -3  -9  -3    4.07    1.42
  -3  -9  -3    2.84    1.27
  -3   8   9    5.45    1.07
   3  -8  -9    1.08    1.07
   3  -8  -9    3.01    1.12
  -2   8   8   16.90    1.24
  -2   8   8   18.87    1.40
   2  -8  -8   19.33    1.59
   2  -8  -8   16.72    0.97
  -1   8   7    9.19    0.96
   1  -8  -7   10.37    1.24
   1  -8  -7    9.51    0.94
   0   8   6   14.85    1.13
   0   8   6   13.28    0.98
   0   8   6   13.40    0.77
   0   8   6   12.90    0.99
   0  -8  -6   13.04    1.18
   0  -8  -6   13.26    1.07
   1   8   5   19.90    1.10
   1   8   5   16.75    1.15
   1   8   5   17.86    0.63
   1   8   5   20.48    1.21
  -1  -8  -5   17.26    1.10
  -1  -8  -5   18.98    1.32
  -1  -8  -5   16.72    1.22
   2   8   4    0.22    0.70
   2   8   4    0.17    0.69
  -2  -8  -4    0.95    0.76
  -2  -8  -4    0.47    0.64
  -2  -8  -4    1.17    0.85
  -3  -8  -3   10.51    1.45
  -3  -8  -3    9.52    1.38
  -3  -8  -3    8.27    1.30
  -4   7  10    2.90    1.28
  -3   7   9    1.74    0.86
   3  -7  -9   -0.04    1.06
  -2   7   8   13.43    1.08
  -2   7   8   13.68    1.17
   2  -7  -8   13.08    0.82
   2  -7  -8   10.44    1.06
   2  -7  -8   12.87    1.26
  -1   7   7   10.95    1.44
  -1   7   7    8.62    0.84
   1  -7  -7   10.37    0.98
   1  -7  -7    8.53    0.86
   1  -7  -7    8.75    0.78
   0   7   6    3.27    0.56
   0   7   6    3.32    0.48
   0   7   6    3.76    0.59
   0   7   6    3.53    0.53
   0  -7  -6    3.47    0.56
   0  -7  -6    3.88    0.70
   0  -7  -6    3.07    0.49
   1   7   5   11.74    0.91
   1   7   5    9.70    0.85
   1   7   5    9.98    0.87
  -1  -7  -5   10.36    1.00
  -1  -7  -5    9.83    1.01
  -1  -7  -5    9.22    0.85
   2   7   4    0.30    0.48
   2   7   4    0.17    0.52
  -2  -7  -4   -0.84    0.52
  -2  -7  -4   -0.53    0.55
  -3  -7  -3    5.94    0.97
  -3  -7  -3    6.82    1.15
  -3  -7  -3    6.73    1.11
  -4  -7  -2    0.86    1.46
  -4   6  10   11.34    1.38
   4  -6 -10    7.92    1.86
  -3   6   9   -2.28    0.79
  -3   6   9   -0.37    0.63
   3  -6  -9   -0.11    0.67
   3  -6  -9    0.54    0.82
  -2   6   8   39.68    1.77
  -2   6   8   45.32    1.64
   2  -6  -8   46.48    1.17
   2  -6  -8   48.50    1.54
   2  -6  -8   47.42    1.69
  -1   6   7   17.04    0.89
  -1   6   7   16.31    0.98
   1  -6  -7   17.84    0.84
   1  -6  -7   17.28    0.91
   1  -6  -7   15.87    1.03
   0   6   6    9.48    0.70
   0   6   6   10.59    0.70
   0   6   6   11.15    0.79
   0  -6  -6   10.40    0.73
   0  -6  -6   10.16    0.86
   0  -6  -6   10.89    0.80
   1   6   5   38.16    1.20
   1   6   5   35.40    1.26
   1   6   5   36.10    1.12
  -1  -6  -5   36.47    1.15
  -1  -6  -5   36.59    1.33
  -1  -6  -5   37.57    1.36
   2   6   4    3.26    0.44
   2   6   4    2.21    0.45
  -2  -6  -4    2.66    0.64
  -2  -6  -4    2.49    0.53
  -2  -6  -4    1.80    0.64
   3   6   3    9.36    1.07
  -3  -6  -3   10.24    1.15
  -3  -6  -3   12.24    1.25
  -3  -6  -3   13.22    1.13
  -4  -6  -2   -0.12    1.09
  -4  -6  -2   -0.92    1.23
  -4  -6  -2    0.55    1.30
  -4   5  10    4.61    1.15
   4  -5 -10    4.52    1.06
   4  -5 -10    6.19    1.80
  -3   5   9    3.20    0.75
  -3   5   9    2.77    0.76
   3  -5  -9    4.42    0.86
   3  -5  -9    3.44    0.66
  -2   5   8   14.34    1.00
  -2   5   8   13.50    0.87
   2  -5  -8   15.07    0.67
   2  -5  -8   14.54    1.06
   2  -5  -8   13.51    0.92
  -1   5   7    3.68    0.46
  -1   5   7    4.85    0.59
   1  -5  -7    4.44    0.61
   1  -5  -7    3.43    0.47
   1  -5  -7    4.12    0.45
   0   5   6    3.49    0.47
   0   5   6    3.80    0.44
   0   5   6    4.57    0.47
   0  -5  -6    3.65    0.47
   0  -5  -6    3.20    0.50
   0  -5  -6    3.78    0.61
   1   5   5   12.68    0.78
   1   5   5   12.68    0.69
   1   5   5   12.20    0.64
  -1  -5  -5   12.42    0.83
  -1  -5  -5   12.53    0.81
  -1  -5  -5   12.72    0.68
   2   5   4    2.29    0.50
  -2  -5  -4    2.84    0.56
  -2  -5  -4    2.04    0.56
  -3  -5  -3    8.41    0.90
  -3  -5  -3   10.23    1.07
  -3  -5  -3    8.87    0.94
  -4  -5  -2    0.91    1.08
  -4  -5  -2    0.15    0.91
  -4  -5  -2    0.30    1.05
  -4   4  10   16.29    1.75
   4  -4 -10   19.23    1.63
   4  -4 -10   19.82    1.50
  -3   4   9    1.34    0.63
  -3   4   9    1.54    0.74
   3  -4  -9    1.86    0.32
   3  -4  -9    1.20    0.69
   3  -4  -9    2.07    0.31
   3  -4  -9    1.36    0.60
  -2   4   8   30.08    1.13
  -2   4   8   31.75    1.24
   2  -4  -8   32.36    0.87
   2  -4  -8   30.12    1.11
   2  -4  -8   32.10    1.26
  -1   4   7   10.88    0.66
  -1   4   7    9.69    0.80
   1  -4  -7   11.33    0.58
   1  -4  -7   11.06    0.66
   1  -4  -7   11.64    0.77
   0   4   6   44.69    1.11
   0   4   6   42.76    1.16
   0  -4  -6   44.93    1.18
   0  -4  -6   44.39    1.12
   0  -4  -6   45.03    1.24
   1   4   5   80.67    1.82
   1   4   5   82.69    1.57
   1   4   5   85.99    1.51
  -1  -4  -5   82.29    1.85
  -1  -4  -5   82.66    1.76
  -1  -4  -5   81.34    1.60
   2   4   4    2.50    0.44
  -2  -4  -4    2.15    0.55
  -2  -4  -4    1.91    0.47
  -2  -4  -4    2.48    0.38
   3   4   3   29.54    1.40
  -3  -4  -3   25.80    0.64
  -3  -4  -3   22.08    2.24
  -3  -4  -3   27.20    1.26
  -3  -4  -3   25.73    0.73
   4   4   2    3.51    1.10
  -4  -4  -2    4.37    1.07
  -4  -4  -2    2.33    0.79
  -4  -4  -2    3.68    0.64
  -4   3  10    8.75    1.13
   4  -3 -10    6.88    1.02
   4  -3 -10    4.99    0.88
  -3   3   9    1.76    0.61
  -3   3   9    1.25    0.61
   3  -3  -9    0.14    0.52
   3  -3  -9   -0.07    0.61
   3  -3  -9    0.92    0.32
  -2   3   8   16.99    0.87
  -2   3   8   18.19    0.93
   2  -3  -8   17.34    0.98
   2  -3  -8   17.59    0.86
  -1   3   7   12.63    0.62
  -1   3   7   11.69    0.67
   1  -3  -7   12.53    0.56
   1  -3  -7   11.12    0.67
   1  -3  -7   11.85    0.63
   0   3   6    5.53    0.45
   0   3   6    6.22    0.44
   0  -3  -6    5.53    0.50
   0  -3  -6    5.75    0.46
   0  -3  -6    5.43    0.42
   1   3   5   41.64    0.82
   1   3   5   42.04    1.13
   1   3   5   41.40    0.87
  -1  -3  -5   40.09    1.05
  -1  -3  -5   41.62    0.97
  -1  -3  -5   38.87    1.13
   2   3   4    3.05    0.43
  -2  -3  -4    2.91    0.41
  -2  -3  -4    2.11    0.48
  -2  -3  -4    3.55    0.35
   3   3   3   68.22    1.88
  -3  -3  -3   66.40    1.62
  -3  -3  -3   66.14    1.33
  -3  -3  -3   66.59    1.91
  -3  -3  -3   64.79    1.39
  -4  -3  -2    7.16    0.95
  -4  -3  -2    6.58    1.05
  -4  -3  -2    6.48    0.77
  -4   2  10    9.98    1.20
   4  -2 -10    9.34    0.95
   4  -2 -10    9.62    0.80
   4  -2 -10   10.11    1.04
  -3   2   9    4.47    0.77
  -3   2   9    3.98    1.14
   3  -2  -9    5.15    0.63
   3  -2  -9    4.58    0.46
   3  -2  -9    4.78    0.73
  -2   2   8   40.04    1.26
  -2   2   8   39.61    1.20
   2  -2  -8   39.15    1.26
  -1   2   7   21.96    0.81
  -1   2   7   23.22    0.78
   1  -2  -7   21.59    0.76
   1  -2  -7   21.54    0.83
   0   2   6   30.71    0.76
   0   2   6   31.71    0.83
   0   2   6   33.62    0.82
   0  -2  -6   31.74    0.89
   0  -2  -6   32.41    0.83
   0  -2  -6   32.06    0.87
  -1  -2  -5   35.17    1.00
  -1  -2  -5   34.16    0.84
  -1  -2  -5   34.16    0.76
   2   2   4    1.57    0.36
  -2  -2  -4    1.65    0.21
  -2  -2  -4    1.84    0.44
  -2  -2  -4    1.79    0.23
  -2  -2  -4    1.76    0.31
   3   2   3   24.68    1.11
  -3  -2  -3   24.76    1.20
  -3  -2  -3   24.74    0.92
  -3  -2  -3   26.13    0.82
  -4  -2  -2    0.54    0.66
  -4  -2  -2    1.91    0.69
  -4  -2  -2    1.84    0.82
  -4   1  10   13.30    1.59
  -4   1  10   11.82    1.39
   4  -1 -10   11.21    1.24
   4  -1 -10    9.93    1.07
   4  -1 -10   10.16    1.03
  -3   1   9    0.95    0.59
  -3   1   9    0.85    0.62
  -3   1   9    1.01    0.62
   3  -1  -9    0.41    0.51
   3  -1  -9    1.60    0.50
   3  -1  -9    0.82    0.38
  -2   1   8   32.39    1.08
  -2   1   8   31.31    1.19
  -2   1   8   33.21    1.12
   2  -1  -8   33.00    0.87
   2  -1  -8   32.50    1.04
   2  -1  -8   32.16    1.14
  -1   1   7    4.84    0.44
  -1   1   7    4.70    0.46
  -1   1   7    4.42    0.45
   1  -1  -7    4.72    0.48
   1  -1  -7    4.57    0.43
   0   1   6   41.46    0.88
   0   1   6   40.61    0.88
   0   1   6   40.83    0.90
   0  -1  -6   40.93    0.91
   0  -1  -6   40.29    0.95
   1   1   5   22.27    0.51
  -1  -1  -5   21.93    0.51
  -1  -1  -5   21.98    0.55
  -1  -1  -5   22.03    0.48
  -1  -1  -5   21.20    0.74
  -2  -1  -4    0.62    0.15
  -2  -1  -4    0.62    0.22
  -2  -1  -4    0.44    0.18
  -2  -1  -4    0.75    0.32
  -3  -1  -3   22.77    0.77
  -3  -1  -3   22.82    1.08
  -3  -1  -3   23.89    0.70
  -4  -1  -2   -0.03    0.58
  -4  -1  -2    1.31    0.73
  -4  -1  -2    1.28    0.60
  -5  -1  -1    2.17    1.80
  -4   0  10    0.96    0.92
  -4   0  10   -0.30    1.12
   4   0 -10    0.49    0.81
   4   0 -10   -0.30    0.72
  -3   0   9    0.72    0.62
  -3   0   9    0.65    0.58
  -3   0   9   -0.26    0.53
   3   0  -9    0.07    0.41
   3   0  -9    0.34    0.47
   3   0  -9   -0.67    0.50
  -2   0   8   42.49    1.36
  -2   0   8   43.10    1.28
  -2   0   8   42.91    1.25
   2   0  -8   44.68    1.31
   2   0  -8   41.95    1.20
   2   0  -8   43.00    1.07
  -1   0   7   16.83    0.66
  -1   0   7   17.16    0.70
  -1   0   7   17.54    0.67
   1   0  -7   16.40    0.69
   1   0  -7   16.73    0.65
   0   0   6   71.76    1.27
   0   0   6   72.03    1.29
   0   0   6   72.38    1.32
   0   0  -6   70.90    1.31
   0   0  -6   72.60    1.36
   0   0  -6   73.37    1.35
   1   0   5   45.89    0.92
  -1   0  -5   44.14    0.73
  -1   0  -5   44.05    0.80
  -1   0  -5   45.64    0.86
  -2   0  -4    3.90    0.41
  -2   0  -4    4.55    0.47
  -3   0  -3   17.42    0.52
  -3   0  -3   16.08    0.90
  -3   0  -3   17.86    0.94
  -4   0  -2   -0.52    0.60
  -4   0  -2   -0.56    0.53
  -4   0  -2   -0.14    0.52
  -5   0  -1    4.77    1.51
  -4  -1  10    4.59    1.09
   4   1 -10    0.68    0.78
   4   1 -10    3.18    0.84
   4   1 -10    1.20    0.87
  -3  -1   9    0.34    0.56
  -3  -1   9    0.01    0.58
   3   1  -9   -0.61    0.53
   3   1  -9   -0.26    0.47
   3   1  -9    0.13    0.42
  -2  -1   8   24.11    0.96
  -2  -1   8   24.49    1.02
  -2  -1   8   24.85    0.99
   2   1  -8   24.70    0.84
   2   1  -8   26.09    0.95
   2   1  -8   25.91    1.02
  -1  -1   7    8.56    0.51
  -1  -1   7    7.99    0.52
  -1  -1   7    7.79    0.49
   1   1  -7    7.94    0.49
   1   1  -7    7.23    0.55
   1   1  -7    7.92    0.53
   0  -1   6   17.47    0.51
   0  -1   6   16.34    0.50
   0  -1   6   16.43    0.54
   0   1  -6   16.08    0.53
   0   1  -6   16.15    0.52
   0   1  -6   16.42    0.56
   1  -1   5   28.80    0.75
  -1   1  -5   27.89    0.70
  -1   1  -5   27.53    0.48
  -2   1  -4    7.33    0.52
  -2   1  -4    7.79    0.51
  -3   1  -3   17.39    0.96
  -3   1  -3   17.24    0.85
  -4   1  -2    0.17    0.51
  -4   1  -2   -1.71    0.72
  -4   1  -2    0.19    0.58
  -4   1  -2    0.45    0.50
  -5   1  -1    5.05    1.50
  -4  -2  10   13.00    1.41
   4   2 -10   10.99    1.32
   4   2 -10   13.16    1.52
   4   2 -10   10.91    1.09
  -3  -2   9    0.71    0.64
  -3  -2   9    0.74    0.64
  -3  -2   9    0.53    0.62
   3   2  -9    1.32    0.53
   3   2  -9   -0.12    0.44
   3   2  -9    0.53    0.62
  -2  -2   8   50.15    1.40
  -2  -2   8   50.35    1.44
  -2  -2   8   49.31    1.38
   2   2  -8   52.17    1.31
   2   2  -8   50.65    1.42
  -1  -2   7  105.91    1.95
  -1  -2   7  103.59    1.95
  -1  -2   7  103.01    2.00
   1   2  -7  105.16    1.97
   1   2  -7  103.65    2.08
   1   2  -7  101.14    1.96
   1   2  -7  107.40    1.91
   0  -2   6   39.06    0.92
   0  -2   6   38.63    0.86
   0  -2   6   39.20    0.84
   0   2  -6   39.51    0.89
   0   2  -6   39.73    0.95
   0   2  -6   38.43    0.88
   1  -2   5   27.65    0.81
  -1   2  -5   28.01    0.55
  -1   2  -5   27.43    0.52
  -1   2  -5   28.30    0.77
  -2   2  -4    5.60    0.46
  -2   2  -4    5.41    0.52
  -3   2  -3   21.19    1.08
  -3   2  -3   22.60    0.86
  -4   2  -2    1.11    0.51
  -4   2  -2    0.18    0.49
  -4   2  -2    1.86    0.53
  -4   2  -2   -1.03    1.69
  -5   2  -1    4.84    1.51
  -4  -3  10    8.21    1.37
   4   3 -10    7.71    1.01
   4   3 -10    6.09    1.12
  -3  -3   9    1.13    0.65
  -3  -3   9    0.35    0.64
  -3  -3   9    0.56    0.58
   3   3  -9    0.74    0.65
   3   3  -9    0.10    0.51
   3   3  -9    0.25    0.55
  -2  -3   8   20.21    0.95
  -2  -3   8   20.62    0.93
  -2  -3   8   18.80    0.96
   2   3  -8   17.55    1.31
   2   3  -8   18.62    0.97
   2   3  -8   18.08    0.87
  -1  -3   7   11.23    0.59
  -1  -3   7   11.62    0.64
  -1  -3   7   11.52    0.61
   1   3  -7   11.13    0.56
   1   3  -7   10.98    0.60
   1   3  -7   11.21    0.62
   1   3  -7   10.37    0.65
   0  -3   6   50.56    1.07
   0  -3   6   49.97    1.14
   0  -3   6   49.24    0.99
   0   3  -6   51.63    1.09
   0   3  -6   50.61    1.10
   0   3  -6   50.30    1.15
   1  -3   5   38.28    1.04
  -1   3  -5   37.82    0.98
  -1   3  -5   37.31    0.77
  -1   3  -5   37.08    0.73
  -2   3  -4   18.73    0.83
  -3   3  -3   28.99    0.89
  -3   3  -3   28.15    0.68
  -3   3  -3   28.70    1.26
  -4   3  -2    0.15    0.82
  -4   3  -2    0.29    0.42
  -4   3  -2    0.67    0.53
  -4   3  -2    0.72    0.49
  -5   3  -1    7.02    1.64
  -4  -4  10    7.99    1.42
   4   4 -10    6.90    1.23
   4   4 -10    7.44    1.12
   4   4 -10    7.83    1.24
  -3  -4   9    0.60    0.68
  -3  -4   9   -1.05    0.63
  -3  -4   9   -0.46    0.67
   3   4  -9    0.36    0.59
   3   4  -9   -1.00    0.70
   3   4  -9   -1.29    0.56
  -2  -4   8   19.35    0.95
  -2  -4   8   20.83    1.00
  -2  -4   8   22.18    1.08
   2   4  -8   19.53    0.96
   2   4  -8   19.24    1.15
   2   4  -8   19.02    1.02
   2   4  -8   20.15    0.95
  -1  -4   7    7.37    0.53
  -1  -4   7    7.54    0.64
  -1  -4   7    7.92    0.57
   1   4  -7    6.68    0.62
   1   4  -7    7.12    0.53
   1   4  -7    6.51    0.58
   1   4  -7    6.85    0.55
   0  -4   6   43.54    0.96
   0  -4   6   43.01    1.10
   0  -4   6   42.13    1.03
   0   4  -6   43.48    1.04
   0   4  -6   43.27    1.06
   0   4  -6   43.25    1.10
   0   4  -6   44.79    1.07
   1  -4   5   33.02    1.03
   1  -4   5   31.36    0.68
  -1   4  -5   33.55    0.98
  -1   4  -5   32.36    0.75
  -1   4  -5   33.87    0.81
  -2   4  -4    0.35    0.35
  -2   4  -4    0.54    0.22
  -2   4  -4    0.33    0.20
  -3   4  -3   13.78    1.07
  -3   4  -3   14.70    0.64
  -3   4  -3   16.35    0.64
  -3   4  -3   14.43    0.61
  -4   4  -2    0.70    0.57
  -4   4  -2   -0.12    0.84
  -4   4  -2    0.00    0.51
  -5   4  -1   10.27    1.79
  -4  -5  10    9.89    1.57
   4   5 -10   11.59    1.50
  -3  -5   9    0.83    0.75
  -3  -5   9    0.09    0.72
  -3  -5   9   -0.71    0.75
   3   5  -9   -0.68    0.80
   3   5  -9    0.47    0.67
  -2  -5   8   31.95    1.34
   2   5  -8   33.11    1.23
   2   5  -8   30.92    1.28
   2   5  -8   32.45    1.43
   2   5  -8   33.13    1.23
  -1  -5   7    3.18    0.40
  -1  -5   7    4.32    0.49
  -1  -5   7    4.08    0.50
   1   5  -7    4.36    0.52
   1   5  -7    3.55    0.48
   1   5  -7    3.48    0.54
   1   5  -7    4.15    0.48
   0  -5   6   31.41    0.99
   0  -5   6   30.23    0.93
   0  -5   6   29.77    0.83
   0   5  -6   28.69    0.89
   0   5  -6   29.86    0.95
   0   5  -6   28.62    0.89
   0   5  -6   30.67    0.93
   1  -5   5   15.47    0.52
   1  -5   5   14.55    0.53
   1  -5   5   14.90    0.78
  -1   5  -5   15.50    0.63
  -1   5  -5   15.31    0.74
  -1   5  -5   16.19    0.63
  -1   5  -5   14.90    0.57
  -2   5  -4    3.67    0.51
  -2   5  -4    3.91    0.39
  -2   5  -4    3.79    0.39
  -2   5  -4    4.32    0.39
  -3   5  -3   21.86    0.69
  -3   5  -3   20.91    0.61
  -3   5  -3   20.93    1.25
  -3   5  -3   21.55    0.83
  -3   5  -3   21.29    0.81
  -4   5  -2    1.88    0.62
  -4   5  -2    1.34    0.98
  -4   5  -2    2.89    0.67
  -4  -6  10    4.65    1.61
  -3  -6   9    0.39    0.76
  -3  -6   9    0.54    0.89
   3   6  -9   -0.03    0.78
   3   6  -9    0.68    0.95
  -2  -6   8   14.97    0.96
  -2  -6   8   14.61    1.00
   2   6  -8   14.84    0.98
   2   6  -8   18.07    1.13
   2   6  -8   15.27    1.27
   2   6  -8   14.35    1.03
  -1  -6   7    1.81    0.44
  -1  -6   7    1.61    0.47
  -1  -6   7    2.10    0.39
  -1  -6   7    1.45    0.40
   1   6  -7    1.69    0.50
   1   6  -7    1.65    0.35
   1   6  -7    1.69    0.39
   1   6  -7    1.85    0.46
   0  -6   6   26.59    1.10
   0  -6   6   30.37    0.90
   0  -6   6   27.52    0.98
   0   6  -6   28.97    0.99
   0   6  -6   28.40    0.95
   0   6  -6   28.18    0.99
   1  -6   5   11.12    0.59
   1  -6   5   11.15    0.83
   1  -6   5   10.08    0.58
  -1   6  -5   11.79    0.59
  -1   6  -5   10.05    0.58
  -1   6  -5    9.93    0.61
  -1   6  -5   11.34    0.71
  -2   6  -4    7.51    0.50
  -2   6  -4    8.13    0.60
  -2   6  -4    8.27    0.80
  -2   6  -4    7.42    0.61
  -3   6  -3    8.14    1.06
  -3   6  -3    9.89    0.79
  -3   6  -3    9.37    0.78
  -3   6  -3    8.82    0.46
  -3   6  -3    8.14    0.50
  -4   6  -2    0.07    0.96
  -4   6  -2    0.73    0.76
  -4   6  -2   -0.01    0.66
  -3  -7   9    0.65    0.88
  -3  -7   9    1.50    1.01
   3   7  -9    2.26    1.08
   3   7  -9   -0.92    0.91
  -2  -7   8   41.52    1.57
  -2  -7   8   44.81    1.53
  -2  -7   8   44.46    1.73
   2   7  -8   48.61    1.93
   2   7  -8   45.18    1.63
  -1  -7   7    6.30    0.73
  -1  -7   7    6.22    0.74
  -1  -7   7    5.77    0.66
  -1  -7   7    6.70    0.68
   1   7  -7    5.50    0.68
   1   7  -7    6.08    0.71
   1   7  -7    6.68    0.78
   1   7  -7    5.94    0.69
   0  -7   6   31.91    1.02
   0  -7   6   30.48    1.13
   0  -7   6   29.25    1.11
   0   7  -6   30.64    1.12
   0   7  -6   31.16    1.07
   0   7  -6   29.66    1.08
   1  -7   5   23.91    0.89
   1  -7   5   24.67    0.90
   1  -7   5   23.14    1.09
  -1   7  -5   23.68    1.02
  -1   7  -5   23.56    0.89
  -1   7  -5   25.03    0.89
  -2   7  -4    8.53    0.72
  -2   7  -4    9.23    0.87
  -2   7  -4    6.55    0.68
  -2   7  -4    7.92    0.57
  -3   7  -3   17.44    1.09
  -3   7  -3   17.40    0.63
  -3   7  -3   17.23    0.59
  -3   7  -3   18.34    1.03
  -3   7  -3   16.81    1.30
  -4   7  -2   -1.03    0.95
  -4   7  -2    1.01    0.78
  -4   7  -2   -0.30    0.84
  -3  -8   9    9.23    1.28
  -3  -8   9   11.52    1.46
  -3  -8   9    7.88    1.17
   3   8  -9   11.24    1.33
   3   8  -9   11.91    1.51
  -2  -8   8   25.18    1.35
  -2  -8   8   22.27    1.37
  -2  -8   8   24.36    1.56
   2   8  -8   25.63    1.89
   2   8  -8   24.53    1.50
   2   8  -8   24.50    1.39
  -1  -8   7    6.21    0.69
  -1  -8   7    6.19    0.75
  -1  -8   7    5.40    0.75
   1   8  -7    4.82    0.87
   1   8  -7    6.39    0.85
   0  -8   6   21.32    0.95
   0  -8   6   21.00    1.08
   0  -8   6   20.25    1.08
   0   8  -6   21.93    1.08
   0   8  -6   20.42    1.00
   0   8  -6   19.78    0.97
   1  -8   5    9.66    0.91
   1  -8   5    9.90    0.82
   1  -8   5    8.84    0.78
  -1   8  -5    8.66    0.76
  -1   8  -5    9.10    0.81
  -1   8  -5    9.70    0.85
  -1   8  -5    9.03    0.72
  -2   8  -4    6.76    0.69
  -2   8  -4    5.56    0.74
  -2   8  -4    7.30    0.85
  -2   8  -4    7.27    0.63
  -3   8  -3    5.18    0.80
  -3   8  -3    6.05    0.81
  -3   8  -3    4.13    0.85
  -3   8  -3    5.37    0.52
  -4   8  -2    0.20    0.90
  -4   8  -2    1.85    1.19
  -4   8  -2    1.33    1.07
  -3  -9   9    0.04    1.06
  -3  -9   9    2.99    1.39
   3   9  -9   -0.64    1.46
  -2  -9   8   23.85    1.54
  -2  -9   8   21.14    1.50
  -2  -9   8   22.82    1.73
   2   9  -8   29.38    1.95
   2   9  -8   24.63    1.61
   2   9  -8   22.46    1.68
  -1  -9   7    1.72    0.64
  -1  -9   7    1.39    0.70
  -1  -9   7    1.03    0.68
   1   9  -7    1.99    0.74
   1   9  -7    1.83    0.77
   1   9  -7    2.69    0.64
   0  -9   6   26.58    1.33
   0  -9   6   25.62    1.36
   0  -9   6   28.12    1.20
   0   9  -6   27.58    1.20
   0   9  -6   28.38    1.28
   0   9  -6   27.15    1.24
   1  -9   5    8.07    0.76
   1  -9   5    9.09    0.92
  -1   9  -5    8.39    0.94
  -1   9  -5    7.53    0.79
  -1   9  -5    7.25    0.74
   2  -9   4    8.01    0.73
   2  -9   4   10.03    0.72
  -2   9  -4    7.47    0.76
  -2   9  -4    9.11    0.93
  -2   9  -4    8.58    1.03
  -2   9  -4    8.31    0.97
  -3   9  -3   14.90    1.47
  -3   9  -3   16.73    1.51
  -3   9  -3   15.48    1.30
  -3   9  -3   15.12    0.71
  -4   9  -2   -1.33    1.28
  -4   9  -2   -1.40    1.08
  -4   9  -2    1.95    1.29
   3  10  -9   -2.17    1.65
  -2 -10   8    2.80    0.95
  -2 -10   8    2.46    1.03
  -2 -10   8    2.43    1.10
   2  10  -8    5.22    1.41
   2  10  -8    3.02    1.19
  -1 -10   7    0.10    0.78
  -1 -10   7    0.98    0.83
  -1 -10   7    0.72    0.75
  -1 -10   7    2.11    0.75
   1  10  -7    0.35    0.61
   1  10  -7    2.01    0.76
   1  10  -7    1.07    0.79
   1  10  -7    1.30    0.84
   0 -10   6    2.47    0.79
   0 -10   6    1.19    0.74
   0  10  -6    0.89    0.56
   0  10  -6    2.40    0.72
   0  10  -6    0.46    0.59
   1 -10   5    2.22    0.68
   1 -10   5    1.30    0.65
  -1  10  -5    1.54    0.67
  -1  10  -5    2.22    0.57
  -1  10  -5    1.78    0.64
  -1  10  -5    2.71    0.72
   2 -10   4    8.73    0.78
   2 -10   4    8.05    0.95
  -2  10  -4    8.00    1.04
  -2  10  -4    8.12    0.89
  -2  10  -4    6.17    0.84
  -2  10  -4    5.97    0.95
  -3  10  -3    4.91    0.96
  -3  10  -3    4.50    0.60
  -3  10  -3    6.40    1.12
  -3  10  -3    5.07    1.18
  -2 -11   8    7.91    1.54
  -2 -11   8    7.17    1.16
  -2 -11   8   11.12    1.55
   2  11  -8   10.86    1.60
   2  11  -8   11.49    1.85
  -1 -11   7    1.63    1.00
  -1 -11   7    2.29    1.00
   1  11  -7    1.96    1.02
   1  11  -7    2.50    1.01
   0 -11   6   15.74    1.55
   0 -11   6   18.08    1.45
   0 -11   6   18.41    1.68
   0  11  -6   18.29    1.44
   0  11  -6   16.09    1.34
   0  11  -6   16.72    1.40
   1 -11   5   10.06    1.03
   1 -11   5    8.91    1.05
  -1  11  -5    8.12    1.05
  -1  11  -5    7.03    0.85
  -1  11  -5    9.75    1.00
  -1  11  -5   10.11    1.14
   2 -11   4    3.67    0.77
  -2  11  -4    4.30    0.88
  -2  11  -4    4.57    1.01
  -2  11  -4    2.50    0.71
  -2  11  -4    2.88    0.88
  -3  11  -3   17.03    1.94
  -3  11  -3   14.63    1.41
   2  12  -8    4.32    1.74
   2  12  -8    8.57    2.06
  -1 -12   7    1.58    2.31
  -1 -12   7    0.05    1.13
   1  12  -7    1.93    1.25
   1  12  -7    1.34    1.20
   0 -12   6    6.58    1.25
   0 -12   6    7.84    1.34
   0  12  -6    7.07    1.23
   0  12  -6    3.63    1.02
   1 -12   5    3.57    1.06
   1 -12   5    3.40    1.06
  -1  12  -5    2.16    0.86
  -1  12  -5    3.84    0.94
  -1  12  -5    1.84    0.94
   2 -12   4    4.05    0.99
   2 -12   4    3.71    1.26
  -2  12  -4    5.53    1.20
  -2  12  -4    3.42    1.05
  -2  12  -4    3.19    0.92
  -3  12  -3    0.36    1.27
  -1 -13   7    1.48    1.50
  -1 -13   7   -0.39    1.30
   1  13  -7    1.38    1.55
   1  13  -7    1.37    1.67
   0 -13   6   10.97    1.58
   0  13  -6    7.73    1.35
   0  13  -6    9.01    1.45
   1 -13   5    6.20    1.28
   1 -13   5    5.04    1.34
  -1  13  -5    4.53    1.18
  -1  13  -5    5.76    1.28
  -1  13  -5    7.18    1.18
  -2  13  -4    5.40    1.41
  -2  13  -4    4.19    1.27
  -1  12   8    7.26    1.33
  -1  12   8   13.35    1.76
   1 -12  -8    8.57    1.35
   1 -12  -8    8.53    1.69
   0  12   7    1.21    1.23
   0 -12  -7    2.31    1.23
   0 -12  -7    3.43    1.44
  -1 -12  -6    5.46    1.50
  -2  11   9    0.33    1.24
  -2  11   9    1.10    1.14
   2 -11  -9    1.35    1.06
   2 -11  -9    0.79    1.43
  -1  11   8    3.04    0.97
  -1  11   8    3.01    1.05
   1 -11  -8    1.81    1.26
   1 -11  -8    4.05    1.00
   0  11   7    1.63    1.00
   0  11   7    0.51    0.68
   0 -11  -7    1.82    1.19
   0 -11  -7    0.39    0.96
   1  11   6    0.50    1.28
  -1 -11  -6    2.34    1.08
  -1 -11  -6    1.94    1.23
  -2  10   9    2.45    0.95
  -2  10   9    0.42    1.02
   2 -10  -9    0.77    1.23
   2 -10  -9    1.96    0.81
  -1  10   8   17.31    1.42
  -1  10   8   20.98    1.46
   1 -10  -8   18.62    1.86
   1 -10  -8   21.02    1.46
   0  10   7    0.65    0.91
   0  10   7    0.87    0.59
   0  10   7   -0.08    0.73
   0  10   7    0.35    0.75
   0 -10  -7   -0.46    0.86
   0 -10  -7    1.35    0.83
   1  10   6   13.74    1.36
   1  10   6   17.35    1.46
  -1 -10  -6   16.15    1.57
  -1 -10  -6   13.89    1.58
   2  10   5   10.42    1.29
   2  10   5    9.32    1.43
  -2 -10  -5    7.78    1.30
  -2 -10  -5    9.59    1.63
  -3   9  10    2.10    1.10
   3  -9 -10    1.39    1.37
  -2   9   9    0.00    0.75
   2  -9  -9    2.55    1.08
   2  -9  -9    0.78    0.63
   2  -9  -9   -2.41    0.89
  -1   9   8    5.78    0.86
  -1   9   8    6.67    0.85
  -1   9   8    6.12    0.90
   1  -9  -8    4.82    0.77
   1  -9  -8    4.51    0.84
   1  -9  -8    5.18    0.98
   0   9   7   -0.12    0.64
   0   9   7    0.07    0.61
   0   9   7    0.10    0.45
   0  -9  -7   -0.44    0.74
   0  -9  -7    0.08    0.59
   0  -9  -7    0.31    0.66
   1   9   6    5.21    0.82
   1   9   6    8.61    1.00
   1   9   6    6.64    0.95
  -1  -9  -6    5.78    0.91
  -1  -9  -6    4.55    1.00
  -1  -9  -6    4.56    0.86
   2   9   5    0.36    0.83
   2   9   5   -0.31    0.91
  -2  -9  -5    0.25    0.83
  -2  -9  -5    1.91    1.08
  -3  -9  -4    3.73    1.70
  -3  -9  -4    4.52    1.54
  -3   8  10   17.29    1.69
   3  -8 -10   13.18    1.52
   3  -8 -10   13.29    1.49
  -2   8   9    6.54    0.90
  -2   8   9    4.45    0.98
   2  -8  -9    6.88    1.10
   2  -8  -9    6.00    0.70
   2  -8  -9    5.46    0.93
  -1   8   8   27.22    1.30
   1  -8  -8   25.39    1.55
   1  -8  -8   25.96    1.23
   0   8   7   -0.75    0.59
   0   8   7   -0.20    0.46
   0   8   7   -0.13    0.51
   0   8   7   -0.47    0.36
   0  -8  -7   -0.02    0.54
   0  -8  -7   -0.05    0.62
   0  -8  -7    0.21    0.47
   1   8   6   19.52    1.25
   1   8   6   20.35    1.20
   1   8   6   22.11    1.26
  -1  -8  -6   22.10    1.45
  -1  -8  -6   19.67    1.32
  -1  -8  -6   22.77    1.26
   2   8   5    5.21    0.87
   2   8   5    3.72    0.78
   2   8   5    4.20    0.90
  -2  -8  -5    5.56    1.06
  -2  -8  -5    5.12    0.90
  -2  -8  -5    3.66    0.89
  -3  -8  -4    6.11    1.29
  -3  -8  -4    6.83    1.35
  -3   7  10    1.20    0.88
   3  -7 -10    2.28    1.04
   3  -7 -10    0.76    0.97
  -2   7   9    0.34    0.57
  -2   7   9   -0.51    0.82
   2  -7  -9    0.68    0.74
   2  -7  -9    0.16    0.44
  -1   7   8    6.89    1.09
  -1   7   8    6.62    0.86
   1  -7  -8    5.63    0.63
   1  -7  -8    5.40    1.05
   0   7   7    0.12    0.40
   0   7   7    0.17    0.48
   0   7   7   -0.01    0.38
   0   7   7   -0.05    0.42
   0  -7  -7    0.62    0.51
   0  -7  -7   -0.28    0.50
   0  -7  -7   -0.15    0.42
   1   7   6    6.03    0.68
   1   7   6    5.20    0.62
   1   7   6    4.79    0.71
  -1  -7  -6    4.58    0.68
  -1  -7  -6    3.90    1.34
  -1  -7  -6    6.33    0.83
   2   7   5    1.10    0.55
   2   7   5    0.48    0.47
  -2  -7  -5    0.19    0.73
  -2  -7  -5    0.52    0.60
  -2  -7  -5    0.39    0.66
  -3  -7  -4    1.47    1.03
  -3  -7  -4    0.63    0.83
  -3  -7  -4    1.71    1.01
  -4   6  11    7.73    1.34
  -3   6  10   22.30    1.73
  -3   6  10   20.22    1.43
   3  -6 -10   20.30    1.87
  -2   6   9    1.31    0.57
  -2   6   9   -0.13    0.54
   2  -6  -9    1.22    0.72
   2  -6  -9    2.40    0.62
   2  -6  -9    2.04    0.46
  -1   6   8   42.75    1.36
  -1   6   8   43.83    1.48
   1  -6  -8   44.69    1.30
   1  -6  -8   42.60    1.52
   0   6   7    0.58    0.43
   0   6   7    0.27    0.38
   0  -6  -7    0.36    0.46
   0  -6  -7    0.33    0.39
   0  -6  -7    0.26    0.34
   1   6   6   37.53    1.16
   1   6   6   37.83    1.31
   1   6   6   39.26    1.24
  -1  -6  -6   40.74    1.46
  -1  -6  -6   38.27    1.43
  -1  -6  -6   38.51    1.24
   2   6   5    1.43    0.40
   2   6   5    1.25    0.35
  -2  -6  -5    0.86    0.61
  -2  -6  -5    1.23    0.65
  -2  -6  -5    0.53    0.47
   3   6   4    8.84    1.08
  -3  -6  -4   12.33    1.21
  -3  -6  -4   15.33    1.52
  -3  -6  -4   11.12    1.17
  -4  -6  -3    3.44    1.36
  -4  -6  -3    7.30    1.33
  -4  -6  -3    3.95    1.39
  -4   5  11    0.91    1.16
   4  -5 -11    2.70    1.22
  -3   5  10    1.08    0.70
  -3   5  10    2.68    0.90
   3  -5 -10    1.98    0.86
   3  -5 -10    2.31    0.40
   3  -5 -10    1.82    0.67
   3  -5 -10    1.88    0.37
  -2   5   9    0.07    0.44
  -2   5   9   -0.04    0.49
   2  -5  -9   -0.36    0.47
   2  -5  -9   -0.39    0.56
   2  -5  -9    0.17    0.35
  -1   5   8    8.15    0.77
  -1   5   8    7.98    0.70
   1  -5  -8    8.00    0.65
   1  -5  -8    7.54    0.68
   1  -5  -8    8.39    0.83
   0   5   7    0.36    0.32
   0   5   7   -0.12    0.34
   0  -5  -7   -0.29    0.30
   0  -5  -7    0.37    0.30
   0  -5  -7    0.13    0.39
   1   5   6    3.32    0.49
   1   5   6    2.92    0.43
   1   5   6    3.16    0.42
  -1  -5  -6    3.14    0.53
  -1  -5  -6    2.79    0.51
   2   5   5    1.10    0.50
  -2  -5  -5    0.66    0.50
  -2  -5  -5    0.66    0.55
  -2  -5  -5    0.59    0.44
   3   5   4    1.68    0.76
  -3  -5  -4    2.64    0.63
  -3  -5  -4    0.30    0.68
  -3  -5  -4    1.01    0.77
  -4  -5  -3    0.16    0.94
  -4  -5  -3   -0.03    1.04
  -4  -5  -3    0.96    1.18
  -4   4  11   13.43    1.37
   4  -4 -11   14.99    1.67
   4  -4 -11    9.75    1.26
  -3   4  10   18.69    1.31
  -3   4  10   17.95    1.39
   3  -4 -10   17.09    1.17
   3  -4 -10   17.88    0.74
   3  -4 -10   17.61    0.73
   3  -4 -10   19.39    1.41
  -2   4   9    7.20    0.77
  -2   4   9    8.99    0.85
   2  -4  -9    9.26    0.96
   2  -4  -9    8.72    0.63
   2  -4  -9    8.47    0.78
  -1   4   8   61.81    1.50
  -1   4   8   60.38    1.58
   1  -4  -8   61.02    1.39
   1  -4  -8   61.07    1.52
   1  -4  -8   59.36    1.62
   0   4   7    2.03    0.38
   0   4   7    2.05    0.37
   0  -4  -7    2.06    0.42
   0  -4  -7    1.71    0.38
   0  -4  -7    2.19    0.37
   1   4   6   49.64    1.36
   1   4   6   48.99    1.13
   1   4   6   51.80    1.10
  -1  -4  -6   50.42    1.20
  -1  -4  -6   49.96    1.36
  -1  -4  -6   50.77    1.42
   2   4   5    2.83    0.48
  -2  -4  -5    2.70    0.52
  -2  -4  -5    3.80    0.45
  -2  -4  -5    3.08    0.58
  -3  -4  -4   19.55    1.36
  -3  -4  -4   22.00    1.20
   4   4   3    1.46    1.00
  -4  -4  -3    2.88    0.64
  -4  -4  -3    3.11    0.84
  -4  -4  -3    1.74    1.03
  -4   3  11    0.46    1.01
   4  -3 -11    0.69    1.02
   4  -3 -11    2.65    0.98
  -3   3  10    3.69    0.78
  -3   3  10    1.58    0.66
   3  -3 -10    3.37    0.77
   3  -3 -10    3.37    0.67
   3  -3 -10    2.96    0.43
  -2   3   9    0.06    0.41
  -2   3   9    0.48    0.40
   2  -3  -9    0.26    0.39
   2  -3  -9    0.60    0.50
  -1   3   8    5.11    0.51
  -1   3   8    5.31    0.54
   1  -3  -8    4.09    0.46
   1  -3  -8    5.68    0.49
   1  -3  -8    5.19    0.61
   0   3   7    1.02    0.27
   0   3   7    0.96    0.27
   0   3   7    0.74    0.23
   0  -3  -7    0.88    0.30
   0  -3  -7    0.87    0.30
   0  -3  -7    0.80    0.25
   1   3   6    7.16    0.38
   1   3   6    7.73    0.41
  -1  -3  -6    6.99    0.61
  -1  -3  -6    6.62    0.47
  -1  -3  -6    7.27    0.56
   2   3   5   -0.62    0.28
  -2  -3  -5    0.43    0.36
  -2  -3  -5   -0.13    0.36
  -2  -3  -5    0.16    0.28
   3   3   4    5.61    0.74
  -3  -3  -4    7.07    0.64
  -3  -3  -4    6.52    0.52
  -3  -3  -4    7.08    0.85
  -3  -3  -4    5.82    0.80
  -3  -3  -4    5.95    0.47
  -4  -3  -3   21.23    1.16
  -4  -3  -3   20.93    1.08
  -4  -3  -3   20.93    1.74
  -4  -3  -3   19.82    1.16
  -4  -3  -3   18.90    1.41
  -4   2  11    5.49    1.07
   4  -2 -11    9.89    1.12
   4  -2 -11    6.62    1.09
   4  -2 -11    6.83    0.98
  -3   2  10   26.18    1.43
  -3   2  10   25.07    1.29
   3  -2 -10   27.57    0.96
   3  -2 -10   26.09    1.41
   3  -2 -10   25.55    1.22
  -2   2   9   26.72    1.05
  -2   2   9   25.89    1.15
  -2   2   9   27.28    1.10
   2  -2  -9   26.13    1.13
   2  -2  -9   26.36    1.01
  -1   2   8   70.40    1.59
  -1   2   8   69.82    1.52
  -1   2   8   68.72    1.60
   1  -2  -8   69.71    1.54
   1  -2  -8   69.02    1.62
   0   2   7    0.58    0.19
   0   2   7    0.40    0.21
   0   2   7    0.51    0.21
   0  -2  -7    0.50    0.27
   0  -2  -7    0.61    0.26
   0  -2  -7    0.51    0.22
   1   2   6   62.05    0.98
  -1  -2  -6   62.65    1.28
  -1  -2  -6   60.61    1.18
  -1  -2  -6   63.02    1.45
  -2  -2  -5    6.66    0.33
  -2  -2  -5    6.73    0.52
  -2  -2  -5    7.12    0.72
  -2  -2  -5    6.19    0.38
  -3  -2  -4   12.90    1.06
  -3  -2  -4   13.26    0.69
  -3  -2  -4   13.62    0.77
  -4  -2  -3    7.83    0.89
  -4  -2  -3    7.36    0.82
  -4  -2  -3    6.64    0.86
  -4  -2  -3    7.27    1.03
  -4   1  11    4.36    1.03
   4  -1 -11    3.41    0.93
   4  -1 -11    2.88    1.02
   4  -1 -11    2.94    0.72
  -3   1  10   -0.36    0.62
  -3   1  10    0.74    0.56
   3  -1 -10   -0.69    0.57
   3  -1 -10    0.82    0.55
   3  -1 -10    0.16    0.43
  -2   1   9    0.77    0.40
  -2   1   9    1.67    0.42
  -2   1   9    0.85    0.42
   2  -1  -9    0.66    0.43
   2  -1  -9    0.63    0.34
   2  -1  -9    0.98    0.27
  -1   1   8    4.52    0.49
  -1   1   8    5.80    0.49
  -1   1   8    4.89    0.49
   1  -1  -8    4.64    0.46
   1  -1  -8    4.52    0.53
   0   1   7    0.57    0.20
   0   1   7    0.51    0.19
   0   1   7    0.65    0.21
   0  -1  -7    0.63    0.21
   0  -1  -7    0.68    0.23
   1   1   6    2.80    0.27
  -1  -1  -6    1.95    0.32
  -1  -1  -6    2.70    0.25
  -1  -1  -6    2.61    0.27
  -1  -1  -6    2.57    0.27
  -2  -1  -5    0.10    0.14
  -2  -1  -5    0.47    0.20
  -2  -1  -5    0.07    0.20
  -2  -1  -5    0.53    0.30
  -3  -1  -4    0.30    0.32
  -3  -1  -4   -0.26    0.46
  -3  -1  -4    0.18    0.26
  -3  -1  -4   -0.26    0.38
  -4  -1  -3    0.62    0.73
  -4  -1  -3    1.53    0.60
  -4  -1  -3    0.19    0.56
  -4  -1  -3    1.75    0.74
  -4   0  11   38.41    2.02
   4   0 -11   39.42    1.73
   4   0 -11   34.86    1.89
   4   0 -11   40.03    1.63
  -3   0  10   82.67    2.14
  -3   0  10   79.38    2.30
  -3   0  10   83.11    2.22
   3   0 -10   79.68    2.10
   3   0 -10   82.33    2.02
   3   0 -10   84.36    1.86
  -2   0   9   14.27    0.89
  -2   0   9   14.02    0.83
  -2   0   9   15.22    0.85
   2   0  -9   15.09    0.79
   2   0  -9   13.71    0.66
   2   0  -9   15.05    0.92
  -1   0   8  120.42    2.29
  -1   0   8  123.09    2.25
  -1   0   8  120.54    2.19
   1   0  -8  119.64    2.28
   1   0  -8  125.32    2.24
   0   0   7   14.63    0.51
   0   0   7   13.20    0.49
   0   0   7   14.18    0.53
   0   0  -7   13.44    0.55
   0   0  -7   13.69    0.52
   0   0  -7   13.46    0.56
   1   0   6  107.31    1.79
  -1   0  -6  107.96    1.66
  -1   0  -6  107.15    1.73
  -1   0  -6  106.50    1.64
  -2   0  -5    2.95    0.39
  -2   0  -5    1.49    0.35
  -3   0  -4   34.38    1.25
  -3   0  -4   33.47    1.14
  -4   0  -3    7.41    0.87
  -4   0  -3    7.25    0.95
  -4   0  -3    7.25    0.83
  -4   0  -3    6.53    0.66
  -5   0  -2    2.25    1.45
  -4  -1  11    5.98    1.14
   4   1 -11    4.69    0.96
   4   1 -11    5.32    1.07
   4   1 -11    5.84    1.00
  -3  -1  10    0.03    0.61
  -3  -1  10    0.41    0.61
  -3  -1  10    0.65    0.60
   3   1 -10   -0.45    0.46
   3   1 -10   -0.89    0.59
   3   1 -10   -0.05    0.56
  -2  -1   9   -0.02    0.37
  -2  -1   9    0.70    0.41
  -2  -1   9    0.67    0.37
   2   1  -9    0.36    0.35
   2   1  -9   -0.04    0.39
   2   1  -9    0.27    0.31
  -1  -1   8    1.27    0.29
  -1  -1   8    1.58    0.32
  -1  -1   8    1.47    0.33
   1   1  -8    1.43    0.38
   1   1  -8    1.25    0.32
   1   1  -8    1.53    0.31
   0  -1   7    1.77    0.25
   0  -1   7    1.97    0.25
   0  -1   7    1.75    0.24
   0   1  -7    2.40    0.31
   0   1  -7    1.82    0.25
   0   1  -7    2.28    0.33
   1  -1   6    6.25    0.42
  -1   1  -6    6.89    0.30
  -1   1  -6    7.22    0.39
  -1   1  -6    6.39    0.28
  -2   1  -5    0.07    0.24
  -2   1  -5    0.03    0.27
  -3   1  -4    1.20    0.45
  -3   1  -4    0.50    0.43
  -4   1  -3    0.30    0.48
  -4   1  -3   -0.75    0.58
  -4   1  -3    0.58    0.47
  -4   1  -3   -0.79    0.73
  -5   1  -2   -1.79    1.31
  -4  -2  11   11.05    1.36
   4   2 -11    9.60    1.24
   4   2 -11   11.12    1.19
   4   2 -11    7.98    1.11
  -3  -2  10   13.86    1.20
  -3  -2  10   16.05    1.21
  -3  -2  10   15.44    1.27
   3   2 -10   14.56    1.02
   3   2 -10   14.11    1.23
   3   2 -10   14.09    1.09
  -2  -2   9   11.35    0.86
  -2  -2   9   12.67    0.83
  -2  -2   9   12.75    0.82
   2   2  -9   11.18    0.71
   2   2  -9   13.44    0.79
   2   2  -9   11.99    0.87
  -1  -2   8   52.25    1.28
  -1  -2   8   54.57    1.28
  -1  -2   8   51.69    1.31
   1   2  -8   52.33    1.29
   1   2  -8   52.40    1.40
   1   2  -8   52.44    1.23
   1   2  -8   51.66    1.31
   0  -2   7   23.47    0.65
   0  -2   7   22.71    0.72
   0  -2   7   23.28    0.66
   0   2  -7   24.32    0.71
   0   2  -7   23.49    0.71
   0   2  -7   22.04    0.74
   1  -2   6   76.37    1.55
  -1   2  -6   76.18    1.25
  -1   2  -6   75.48    1.47
  -2   2  -5    4.11    0.50
  -2   2  -5    3.05    0.37
  -3   2  -4   59.66    1.44
  -3   2  -4   60.06    1.65
  -4   2  -3    7.57    0.74
  -4   2  -3    5.07    1.57
  -4   2  -3    7.68    0.72
  -4   2  -3    7.86    0.76
  -5   2  -2    3.91    1.47
  -4  -3  11    0.58    1.27
   4   3 -11   -1.56    0.99
   4   3 -11    0.91    1.14
  -3  -3  10    1.58    0.74
  -3  -3  10    2.11    0.73
  -3  -3  10    0.86    0.66
   3   3 -10    1.25    0.60
   3   3 -10    1.12    0.71
   3   3 -10    1.43    0.66
  -2  -3   9    0.51    0.40
  -2  -3   9    0.62    0.44
  -2  -3   9    0.52    0.41
   2   3  -9    0.60    0.46
   2   3  -9    0.40    0.37
   2   3  -9    0.11    0.39
  -1  -3   8    0.25    0.32
  -1  -3   8   -0.16    0.26
  -1  -3   8    0.12    0.30
   1   3  -8   -0.17    0.25
   1   3  -8   -0.17    0.31
   1   3  -8    0.06    0.20
   1   3  -8    0.37    0.29
   0  -3   7    0.43    0.23
   0  -3   7    0.75    0.25
   0  -3   7    0.64    0.19
   0   3  -7    0.63    0.25
   0   3  -7    0.63    0.27
   0   3  -7    0.55    0.21
   1  -3   6    1.92    0.33
  -1   3  -6    1.85    0.24
  -1   3  -6    1.63    0.33
  -1   3  -6    1.99    0.23
  -2   3  -5   10.42    0.67
  -3   3  -4    7.57    0.66
  -3   3  -4    7.00    0.86
  -4   3  -3   -0.29    0.81
  -4   3  -3    1.38    0.51
  -4   3  -3    0.79    0.46
  -4   3  -3    0.98    0.50
  -5   3  -2   -1.21    1.42
  -4  -4  11   10.57    1.59
   4   4 -11    8.06    1.49
   4   4 -11   10.31    1.41
   4   4 -11    9.14    1.42
  -3  -4  10   12.58    1.25
  -3  -4  10   13.58    1.39
  -3  -4  10   15.58    1.27
   3   4 -10   12.57    1.37
   3   4 -10   14.17    1.20
   3   4 -10   16.21    1.23
  -2  -4   9   24.33    1.17
  -2  -4   9   24.30    1.11
  -2  -4   9   22.71    1.04
   2   4  -9   24.25    1.05
   2   4  -9   23.28    1.13
   2   4  -9   24.02    1.08
   2   4  -9   22.73    1.27
  -1  -4   8   59.68    1.63
  -1  -4   8   62.11    1.52
  -1  -4   8   58.40    1.54
   1   4  -8   63.24    1.61
   1   4  -8   62.30    1.56
   1   4  -8   60.20    1.49
   0  -4   7   10.03    0.57
   0  -4   7    9.40    0.57
   0  -4   7   10.41    0.49
   0   4  -7   10.48    0.56
   0   4  -7    9.90    0.60
   0   4  -7    9.55    0.56
   0   4  -7   10.53    0.55
   1  -4   6   90.72    1.92
  -1   4  -6   92.14    1.57
  -1   4  -6   90.46    1.84
  -1   4  -6   91.69    1.64
  -2   4  -5    2.81    0.29
  -2   4  -5    2.95    0.28
  -2   4  -5    2.84    0.47
  -3   4  -4   46.38    1.01
  -3   4  -4   48.71    0.99
  -3   4  -4   46.31    1.16
  -3   4  -4   45.91    1.59
  -4   4  -3    8.79    0.87
  -4   4  -3    7.43    0.73
  -4   4  -3    8.22    1.13
  -4   4  -3    7.07    0.65
  -4  -5  11    0.46    1.45
  -3  -5  10    0.75    0.82
  -3  -5  10    0.12    0.78
  -3  -5  10    0.56    0.78
   3   5 -10    0.12    1.53
   3   5 -10   -0.50    0.71
  -2  -5   9    0.28    0.46
  -2  -5   9    0.57    0.45
  -2  -5   9    0.18    0.52
   2   5  -9    0.08    0.41
   2   5  -9   -0.65    0.49
   2   5  -9    0.64    0.49
   2   5  -9    0.56    0.62
  -1  -5   8    1.57    0.38
  -1  -5   8    0.24    0.29
  -1  -5   8    0.26    0.38
   1   5  -8    1.06    0.35
   1   5  -8    1.24    0.38
   1   5  -8    1.23    0.47
   1   5  -8    1.10    0.37
   0  -5   7    0.77    0.26
   0  -5   7    0.52    0.32
   0  -5   7    0.52    0.31
   0   5  -7    0.82    0.35
   0   5  -7    0.54    0.25
   0   5  -7    0.34    0.25
   0   5  -7    0.74    0.30
   1  -5   6    2.34    0.44
   1  -5   6    2.14    0.28
   1  -5   6    2.20    0.27
  -1   5  -6    2.75    0.44
  -1   5  -6    2.45    0.33
  -1   5  -6    2.36    0.35
  -1   5  -6    3.23    0.37
  -2   5  -5   -0.02    0.25
  -2   5  -5    0.09    0.25
  -2   5  -5   -0.12    0.33
  -3   5  -4   -0.16    0.34
  -3   5  -4    0.57    0.56
  -3   5  -4    0.08    0.32
  -3   5  -4   -0.38    0.35
  -4   5  -3    0.72    0.63
  -4   5  -3    0.63    0.93
  -4   5  -3    0.92    0.58
  -3  -6  10    8.54    1.16
  -3  -6  10   10.40    1.33
   3   6 -10    7.59    1.17
   3   6 -10    6.56    1.07
  -2  -6   9   14.22    1.20
  -2  -6   9   15.20    1.02
   2   6  -9   14.94    1.11
   2   6  -9   15.48    1.04
   2   6  -9   16.29    1.19
   2   6  -9   16.70    1.35
  -1  -6   8   68.88    1.71
  -1  -6   8   69.88    1.79
   1   6  -8   69.33    1.84
   1   6  -8   69.10    1.74
   1   6  -8   65.18    1.72
   1   6  -8   69.27    1.76
   0  -6   7    9.08    0.67
   0  -6   7   10.29    0.72
   0  -6   7   10.39    0.62
   0   6  -7    9.33    0.77
   0   6  -7    9.96    0.71
   0   6  -7    9.36    0.68
   0   6  -7   10.47    0.66
   1  -6   6   64.10    1.71
   1  -6   6   62.97    1.28
   1  -6   6   60.62    1.29
  -1   6  -6   63.99    1.47
  -1   6  -6   63.92    1.62
  -1   6  -6   65.97    1.41
  -1   6  -6   64.62    1.44
  -2   6  -5    0.23    0.32
  -2   6  -5    0.02    0.31
  -2   6  -5    0.52    0.41
  -2   6  -5   -0.10    0.26
  -3   6  -4   29.93    1.51
  -3   6  -4   29.51    0.91
  -3   6  -4   30.81    1.09
  -3   6  -4   32.09    1.07
  -3   6  -4   29.53    0.83
  -4   6  -3    4.38    0.79
  -4   6  -3    4.24    1.13
  -3  -7  10    0.61    1.04
  -3  -7  10   -0.28    0.88
   3   7 -10   -0.24    1.00
   3   7 -10    1.05    1.12
  -2  -7   9   -0.35    0.53
  -2  -7   9    0.92    0.69
   2   7  -9    0.35    0.96
   2   7  -9    0.72    0.65
  -1  -7   8    2.39    0.48
  -1  -7   8    2.00    0.59
  -1  -7   8    1.52    0.49
   1   7  -8    1.53    0.62
   1   7  -8    2.20    0.55
   1   7  -8    2.23    0.52
   1   7  -8    2.37    0.57
   0  -7   7    0.15    0.40
   0  -7   7    0.10    0.39
   0  -7   7    0.52    0.37
   0   7  -7    0.51    0.35
   0   7  -7   -0.11    0.37
   0   7  -7   -0.27    0.33
   0   7  -7    0.45    0.40
   1  -7   6    0.73    0.38
   1  -7   6    1.10    0.51
   1  -7   6    0.44    0.38
  -1   7  -6    0.32    0.35
  -1   7  -6    0.65    0.32
  -1   7  -6    0.35    0.36
  -1   7  -6    0.63    0.46
  -2   7  -5    0.11    0.41
  -2   7  -5    0.95    0.35
  -2   7  -5    0.38    0.39
  -2   7  -5    1.29    0.54
  -3   7  -4    1.91    0.36
  -3   7  -4    0.77    0.71
  -3   7  -4    0.77    0.54
  -4   7  -3    0.90    1.08
  -4   7  -3    1.03    0.85
  -4   7  -3    0.24    0.80
  -3  -8  10   12.27    1.54
   3   8 -10   13.52    1.57
  -2  -8   9    1.89    0.73
  -2  -8   9    1.73    0.83
  -2  -8   9    0.31    0.80
   2   8  -9    3.09    0.78
   2   8  -9    2.90    0.71
   2   8  -9    1.78    0.84
   2   8  -9    3.59    1.02
  -1  -8   8   23.91    1.09
   1   8  -8   23.90    1.35
   1   8  -8   20.71    1.24
   0  -8   7    6.16    0.73
   0  -8   7    5.54    0.76
   0  -8   7    5.72    0.63
   0   8  -7    5.28    0.63
   0   8  -7    4.49    0.58
   0   8  -7    6.30    0.81
   0   8  -7    3.90    0.61
   1  -8   6   53.87    1.77
   1  -8   6   56.47    1.46
   1  -8   6   55.69    1.46
  -1   8  -6   57.42    1.50
  -1   8  -6   56.86    1.50
  -1   8  -6   55.42    1.57
  -1   8  -6   54.36    1.67
  -2   8  -5    0.54    0.47
  -2   8  -5    0.31    0.56
  -2   8  -5    0.47    0.38
  -2   8  -5    0.49    0.54
  -3   8  -4   27.44    1.35
  -3   8  -4   26.72    1.27
  -3   8  -4   30.81    1.63
  -3   8  -4   26.69    0.89
  -4   8  -3    4.65    1.34
  -4   8  -3    3.74    1.11
  -4   8  -3    4.62    1.06
  -3  -9  10   -0.91    1.42
   3   9 -10   -1.03    1.49
  -2  -9   9   -0.54    0.81
  -2  -9   9    0.86    0.93
   2   9  -9    0.33    0.90
   2   9  -9   -1.79    0.85
   2   9  -9    1.85    1.15
  -1  -9   8    1.00    1.00
  -1  -9   8   -0.61    0.65
  -1  -9   8   -1.06    0.67
   1   9  -8    0.49    0.76
   1   9  -8    0.41    0.53
   1   9  -8    0.06    0.64
   0  -9   7    1.63    0.66
   0  -9   7    2.11    0.63
   0  -9   7    1.93    0.58
   0   9  -7    1.29    0.59
   0   9  -7    1.56    0.52
   0   9  -7    1.70    0.56
   0   9  -7    1.43    0.85
   1  -9   6    0.64    0.55
   1  -9   6    1.41    0.57
   1  -9   6    1.33    0.65
  -1   9  -6    1.35    0.58
  -1   9  -6    2.11    0.51
  -1   9  -6    0.02    0.52
  -1   9  -6    1.18    0.65
  -2   9  -5    1.87    0.68
  -2   9  -5    0.44    0.60
  -2   9  -5   -0.13    0.55
  -3   9  -4    0.28    0.43
  -3   9  -4    0.97    0.84
  -3   9  -4    1.50    0.84
  -3   9  -4    0.07    0.72
  -4   9  -3    0.36    1.24
  -4   9  -3    1.40    1.13
  -2 -10   9   10.31    1.31
  -2 -10   9   12.05    1.47
   2  10  -9   11.32    1.42
   2  10  -9   18.03    2.23
  -1 -10   8   12.32    1.44
  -1 -10   8   16.81    1.37
  -1 -10   8   14.33    1.31
   1  10  -8   14.70    1.26
   1  10  -8   15.02    1.35
   1  10  -8   17.70    1.56
   1  10  -8   14.90    1.50
   0 -10   7    9.57    1.02
   0 -10   7    8.70    1.10
   0  10  -7    9.14    1.19
   0  10  -7    8.81    0.96
   0  10  -7    8.38    0.95
   0  10  -7    6.89    0.79
   1 -10   6   53.88    1.72
   1 -10   6   54.57    1.78
  -1  10  -6   52.72    1.69
  -1  10  -6   51.87    1.65
  -1  10  -6   52.96    1.86
  -1  10  -6   56.91    1.91
   2 -10   5    1.15    0.52
   2 -10   5    0.54    0.49
  -2  10  -5    0.21    0.52
  -2  10  -5    0.43    0.67
  -2  10  -5   -0.71    0.71
  -2  10  -5   -1.43    0.72
  -3  10  -4   22.12    1.40
  -3  10  -4   23.70    1.86
  -3  10  -4   19.07    1.55
  -3  10  -4   21.87    1.79
  -2 -11   9    0.55    1.36
   2  11  -9    2.83    1.67
   2  11  -9    0.00    1.35
  -1 -11   8    0.90    1.05
  -1 -11   8   -1.54    0.96
   1  11  -8   -0.33    0.94
   1  11  -8    1.53    1.11
   0 -11   7    3.41    1.02
   0 -11   7   -0.15    0.82
   0 -11   7    1.86    0.91
   0  11  -7   -0.14    0.80
   0  11  -7    0.55    0.79
   0  11  -7    0.25    0.64
   1 -11   6    1.36    0.81
   1 -11   6    0.49    0.81
  -1  11  -6    0.66    0.71
  -1  11  -6   -0.11    0.71
  -1  11  -6    0.26    0.64
  -1  11  -6    1.28    0.84
   2 -11   5    0.68    0.73
   2 -11   5    1.09    0.69
  -2  11  -5    1.14    0.69
  -2  11  -5    1.75    0.86
  -2  11  -5    0.81    0.85
  -2  11  -5    0.97    1.02
  -3  11  -4    1.68    1.20
  -3  11  -4   -0.49    0.98
  -1 -12   8    7.68    1.43
   1  12  -8   12.06    1.63
   1  12  -8    7.10    1.40
   0 -12   7    5.47    1.21
   0  12  -7    3.99    1.07
   0  12  -7    3.45    1.15
   1 -12   6   20.07    1.83
  -1  12  -6   24.89    1.62
  -1  12  -6   24.39    1.75
  -1  12  -6   22.10    1.62
   2 -12   5    0.13    0.96
  -2  12  -5    2.39    0.91
  -2  12  -5    0.06    0.98
  -2  12  -5    2.14    1.12
  -3  12  -4   10.04    1.48
  -1 -13   8   -1.02    1.56
   1  13  -8    1.32    1.63
   0 -13   7   -0.81    1.27
   0  13  -7    0.12    1.20
   0  13  -7   -0.54    1.14
   1 -13   6   -0.49    1.26
   1 -13   6   -0.30    1.18
  -1  13  -6    1.75    1.13
  -1  13  -6    1.63    1.00
  -2  13  -5   -0.91    1.80
  -2  13  -5    0.08    1.29
  -1  12   9    3.45    1.13
   1 -12  -9   -0.64    1.21
   0  12   8   -1.02    1.21
   0 -12  -8    2.22    1.29
  -2  11  10    2.16    1.37
   2 -11 -10    0.85    1.57
  -1  11   9   14.01    1.59
  -1  11   9   12.36    1.38
   1 -11  -9   15.89    1.46
   1 -11  -9   15.03    1.73
   0  11   8    8.17    0.91
   0  11   8    6.92    1.21
   0 -11  -8    7.30    1.44
   0 -11  -8    5.88    1.18
   1  11   7    5.50    1.66
  -1 -11  -7    4.46    1.37
  -1 -11  -7    5.12    1.43
  -2  10  10    0.92    1.00
   2 -10 -10    0.67    0.86
   2 -10 -10   -0.24    1.29
  -1  10   9    0.26    0.82
   1 -10  -9    0.31    0.86
   1 -10  -9    2.10    1.08
   0  10   8   -0.12    0.80
   0  10   8    2.02    1.01
   0  10   8    0.63    0.60
   0 -10  -8    0.58    0.87
   0 -10  -8   -0.07    0.97
   1  10   7    1.06    0.88
   1  10   7   -1.03    0.98
  -1 -10  -7   -0.14    1.07
  -1 -10  -7    1.04    0.94
   2  10   6    1.24    1.72
  -2 -10  -6    0.97    1.40
  -2 -10  -6    1.72    1.20
   3  -9 -11   13.44    1.80
  -2   9  10    2.10    0.86
   2  -9 -10    3.79    1.24
   2  -9 -10    1.74    0.75
  -1   9   9   19.94    1.39
  -1   9   9   17.95    1.37
  -1   9   9   20.91    1.63
   1  -9  -9   20.41    1.72
   1  -9  -9   17.69    1.39
   1  -9  -9   15.85    1.40
   0   9   8    8.75    0.83
   0   9   8    6.00    0.87
   0   9   8    7.02    0.98
   0  -9  -8    9.33    1.10
   0  -9  -8    6.36    1.01
   0  -9  -8    8.38    1.05
   1   9   7    8.13    1.05
   1   9   7   11.34    1.27
   1   9   7    9.28    1.05
  -1  -9  -7    8.80    1.21
  -1  -9  -7   10.76    1.20
  -1  -9  -7    8.78    1.04
   2   9   6   10.78    1.14
   2   9   6    8.17    0.96
  -2  -9  -6    8.80    1.14
  -2  -9  -6   12.57    1.47
  -3  -9  -5    2.62    1.64
  -3   8  11    1.44    1.03
   3  -8 -11    2.47    1.36
  -2   8  10    1.16    0.74
   2  -8 -10    0.68    0.94
   2  -8 -10   -1.46    0.78
   2  -8 -10    1.20    0.64
  -1   8   9    2.64    0.69
  -1   8   9    2.84    0.82
   1  -8  -9    1.20    0.80
   1  -8  -9    2.77    0.67
   0   8   8    3.28    0.74
   0   8   8    2.88    0.50
   0  -8  -8    4.00    0.84
   0  -8  -8    4.05    0.63
   1   8   7    0.54    0.65
   1   8   7    0.74    0.54
   1   8   7    0.01    0.62
  -1  -8  -7   -0.39    0.65
  -1  -8  -7    0.71    0.80
  -1  -8  -7   -0.20    0.59
   2   8   6    1.05    0.73
   2   8   6    0.65    0.61
  -2  -8  -6    1.38    0.96
  -2  -8  -6    0.69    0.79
  -2  -8  -6    2.26    0.85
  -3  -8  -5    1.20    1.31
  -3  -8  -5   -1.45    1.18
  -3   7  11   16.21    1.62
   3  -7 -11   12.98    0.83
   3  -7 -11   19.26    1.85
   3  -7 -11   19.04    1.97
  -2   7  10    0.33    0.63
   2  -7 -10    0.29    0.50
   2  -7 -10   -0.42    0.79
   2  -7 -10    0.03    0.66
  -1   7   9   59.83    1.75
   1  -7  -9   61.32    1.71
   1  -7  -9   61.21    2.00
   0   7   8   16.06    1.11
   0   7   8   15.32    1.00
   0   7   8   13.93    0.79
   0  -7  -8   15.77    0.99
   0  -7  -8   13.29    1.06
   1   7   7    8.49    0.89
   1   7   7   10.59    0.98
   1   7   7    9.22    0.90
  -1  -7  -7    9.45    1.69
  -1  -7  -7    8.11    0.94
  -1  -7  -7    9.07    0.96
   2   7   6   20.04    0.90
   2   7   6   21.26    1.01
  -2  -7  -6   20.54    1.27
  -2  -7  -6   19.77    1.48
  -2  -7  -6   19.35    1.52
  -3  -7  -5   -0.24    0.92
  -3  -7  -5    1.06    1.11
  -3  -7  -5    2.94    1.05
  -3   6  11    1.43    0.80
   3  -6 -11    1.37    0.47
   3  -6 -11    2.41    0.47
   3  -6 -11    1.38    1.04
   3  -6 -11    0.66    0.89
  -2   6  10    1.29    0.61
   2  -6 -10    1.48    0.46
   2  -6 -10    2.31    0.74
  -1   6   9    5.39    0.71
  -1   6   9    5.12    0.64
   1  -6  -9    4.35    0.56
   1  -6  -9    4.34    0.71
   0   6   8    0.74    0.43
   0   6   8    0.89    0.48
   0  -6  -8    0.58    0.43
   0  -6  -8    0.47    0.50
   0  -6  -8    0.13    0.38
   1   6   7    0.43    0.43
   1   6   7    0.73    0.45
   1   6   7    0.88    0.42
  -1  -6  -7    0.65    0.57
  -1  -6  -7    0.69    0.51
  -1  -6  -7    0.35    0.43
  -2  -6  -6    1.42    0.57
  -2  -6  -6    1.98    0.72
  -2  -6  -6    3.21    0.75
  -3  -6  -5    0.38    0.87
  -3  -6  -5    0.71    0.90
  -3  -6  -5   -0.98    0.73
  -4  -6  -4    0.47    1.40
  -4  -6  -4    1.42    1.41
  -4   5  12   -2.77    1.13
   4  -5 -12    0.11    1.33
  -3   5  11   24.72    1.71
  -3   5  11   27.07    1.49
   3  -5 -11   28.43    0.99
   3  -5 -11   28.96    0.97
   3  -5 -11   27.82    1.72
  -2   5  10    2.37    0.57
   2  -5 -10    2.78    0.63
   2  -5 -10    2.38    0.48
   2  -5 -10    2.14    0.71
  -1   5   9   44.02    1.45
  -1   5   9   46.57    1.40
   1  -5  -9   46.18    1.55
   1  -5  -9   46.29    1.42
   1  -5  -9   45.03    1.30
   0   5   8   10.24    0.76
   0   5   8   10.76    0.72
   0  -5  -8   10.36    0.87
   0  -5  -8   10.95    0.80
   0  -5  -8   10.20    0.72
   1   5   7   30.18    0.96
   1   5   7   33.06    1.19
   1   5   7   34.29    1.03
  -1  -5  -7   34.11    1.28
  -1  -5  -7   33.49    1.26
  -1  -5  -7   31.81    1.07
  -2  -5  -6   55.29    1.43
  -2  -5  -6   55.76    1.65
  -2  -5  -6   44.97    2.07
   3   5   5    0.06    0.75
  -3  -5  -5    3.00    0.67
  -3  -5  -5    1.98    0.86
  -3  -5  -5    2.68    0.78
  -4  -5  -4   12.42    1.49
  -4  -5  -4   15.65    1.47
  -4  -5  -4   16.48    1.87
  -4   4  12    0.22    1.12
  -3   4  11    2.86    0.79
  -3   4  11    3.25    0.79
   3  -4 -11    2.39    0.49
   3  -4 -11    1.05    1.05
   3  -4 -11    1.83    0.48
   3  -4 -11    1.37    0.71
  -2   4  10    0.34    0.51
  -2   4  10   -0.03    0.42
   2  -4 -10   -0.10    0.46
   2  -4 -10    0.23    0.57
   2  -4 -10   -0.26    0.34
  -1   4   9    5.37    0.57
  -1   4   9    5.18    0.59
   1  -4  -9    5.70    0.64
   1  -4  -9    5.94    0.69
   1  -4  -9    4.84    0.51
   0   4   8    2.87    0.43
   0   4   8    3.00    0.36
   0   4   8    3.46    0.47
   0  -4  -8    2.52    0.40
   0  -4  -8    3.51    0.52
   1   4   7   -0.05    0.26
   1   4   7    0.44    0.28
  -1  -4  -7    0.33    0.38
  -1  -4  -7   -0.17    0.32
  -1  -4  -7   -0.20    0.28
   2   4   6    6.78    0.74
  -2  -4  -6    8.44    0.98
  -2  -4  -6    6.98    0.63
  -2  -4  -6    7.43    0.83
  -3  -4  -5    0.07    0.68
  -3  -4  -5   -0.42    0.59
  -4  -4  -4   10.49    1.03
  -4  -4  -4   14.15    1.48
  -4   3  12   -0.68    1.08
   4  -3 -12    3.53    1.54
   4  -3 -12    1.75    1.17
  -3   3  11   23.48    1.51
  -3   3  11   22.83    1.38
   3  -3 -11   26.57    1.39
   3  -3 -11   25.26    1.00
   3  -3 -11   26.78    1.54
  -2   3  10    3.75    0.59
  -2   3  10    4.56    0.60
   2  -3 -10    4.33    0.60
   2  -3 -10    3.86    0.66
  -1   3   9   57.70    1.43
  -1   3   9   57.27    1.52
  -1   3   9   57.87    1.52
   1  -3  -9   59.02    1.58
   1  -3  -9   59.04    1.49
   0   3   8   20.43    0.80
   0   3   8   20.94    0.76
   0   3   8   19.99    0.67
   0  -3  -8   20.33    0.79
   0  -3  -8   20.33    0.86
   0  -3  -8   20.52    0.85
   1   3   7   28.07    0.69
   1   3   7   27.39    0.71
  -1  -3  -7   27.50    1.04
  -1  -3  -7   27.48    0.83
  -1  -3  -7   26.55    0.93
  -2  -3  -6   23.77    0.96
  -2  -3  -6   24.39    1.14
  -2  -3  -6   24.69    0.79
  -3  -3  -5    0.75    0.41
  -3  -3  -5    1.90    0.56
  -4  -3  -4   15.43    1.01
  -4  -3  -4   15.92    1.02
  -4  -3  -4   16.05    1.70
  -4  -3  -4   14.31    1.44
  -4  -3  -4   13.91    1.15
  -4   2  12   -0.30    1.06
   4  -2 -12   -1.08    1.09
   4  -2 -12    0.95    1.05
  -3   2  11   11.43    1.21
  -3   2  11   10.04    1.14
   3  -2 -11    8.92    1.02
   3  -2 -11   11.11    0.85
   3  -2 -11    9.55    0.92
  -2   2  10    2.92    0.53
  -2   2  10    2.81    0.58
  -2   2  10    2.35    0.51
   2  -2 -10    2.86    0.59
   2  -2 -10    2.63    0.48
  -1   2   9   15.38    0.78
  -1   2   9   15.44    0.73
  -1   2   9   15.04    0.77
   1  -2  -9   14.27    1.10
   1  -2  -9   14.63    0.81
   0   2   8    1.04    0.29
   0   2   8    1.29    0.29
   0   2   8    1.27    0.26
   0  -2  -8    1.53    0.33
   0  -2  -8    0.88    0.28
   1   2   7   11.63    0.39
  -1  -2  -7   11.74    0.53
  -1  -2  -7   11.64    0.70
  -1  -2  -7   12.15    0.61
  -2  -2  -6    5.66    0.54
  -2  -2  -6    5.57    0.42
  -2  -2  -6    5.31    0.59
  -3  -2  -5    0.10    0.32
  -3  -2  -5    0.68    0.61
  -3  -2  -5    0.15    0.33
  -3  -2  -5    0.50    0.42
  -4  -2  -4    4.58    0.77
  -4  -2  -4    4.64    0.76
  -4  -2  -4    5.15    0.74
  -4  -2  -4    6.02    1.04
  -4   1  12    1.62    1.06
   4  -1 -12    3.94    1.12
   4  -1 -12   -0.12    0.97
  -3   1  11    4.15    0.72
  -3   1  11    3.38    0.70
   3  -1 -11    3.32    0.69
   3  -1 -11    2.20    0.78
   3  -1 -11    2.85    0.53
  -2   1  10    0.30    0.40
  -2   1  10   -0.40    0.36
  -2   1  10    0.74    0.42
   2  -1 -10   -0.01    0.35
   2  -1 -10   -0.17    0.44
  -1   1   9   87.61    1.90
  -1   1   9   88.52    1.87
  -1   1   9   88.98    1.82
   1  -1  -9   89.82    1.94
   0   1   8   16.84    0.61
   0   1   8   18.61    0.66
   0   1   8   17.77    0.62
   0  -1  -8   17.35    0.71
   0  -1  -8   18.35    0.66
   1   1   7   62.04    1.15
  -1  -1  -7   60.90    1.46
  -1  -1  -7   61.23    1.17
  -1  -1  -7   62.04    1.12
  -1  -1  -7   61.97    1.23
  -2  -1  -6   32.43    0.76
  -2  -1  -6   32.17    1.14
  -2  -1  -6   32.98    0.68
  -2  -1  -6   33.64    0.77
  -3  -1  -5    3.91    0.42
  -3  -1  -5    5.18    0.63
  -3  -1  -5    3.93    0.70
  -4  -1  -4   12.26    1.01
  -4  -1  -4   12.66    1.16
  -4  -1  -4   11.94    0.90
  -4   0  12    0.93    1.10
   4   0 -12    1.16    0.98
   4   0 -12    0.79    0.89
   4   0 -12    0.36    1.08
  -3   0  11   -0.37    0.60
  -3   0  11    1.03    0.62
  -3   0  11    0.32    0.66
   3   0 -11    0.55    0.60
   3   0 -11   -0.66    0.67
   3   0 -11    0.35    0.59
  -2   0  10    1.53    0.49
  -2   0  10    0.77    0.44
  -2   0  10    1.81    0.47
   2   0 -10    0.55    0.39
   2   0 -10    1.17    0.33
   2   0 -10    0.90    0.49
  -1   0   9   11.86    0.66
  -1   0   9   12.43    0.66
  -1   0   9   11.91    0.66
   1   0  -9   12.07    0.71
   1   0  -9   12.42    0.66
   0   0   8    0.66    0.21
   0   0   8    0.77    0.23
   0   0   8    1.03    0.26
   0   0  -8    0.60    0.26
   0   0  -8    1.52    0.29
   0   0  -8    0.69    0.23
   1   0   7    1.75    0.28
  -1   0  -7    1.95    0.27
  -1   0  -7    1.86    0.24
  -1   0  -7    1.96    0.23
  -2   0  -6    5.18    0.59
  -2   0  -6    5.22    0.45
  -3   0  -5    1.13    0.45
  -3   0  -5    1.62    0.55
  -4   0  -4    3.39    0.54
  -4   0  -4    3.07    0.80
  -4   0  -4    4.70    0.57
  -4   0  -4    3.63    0.81
  -4  -1  12    3.19    1.19
   4   1 -12    2.26    1.07
   4   1 -12    1.43    1.05
   4   1 -12    3.34    1.01
  -3  -1  11   27.08    1.43
  -3  -1  11   27.05    1.39
  -3  -1  11   23.97    1.40
   3   1 -11   28.99    1.38
   3   1 -11   25.64    1.46
   3   1 -11   25.48    1.22
  -2  -1  10    1.56    0.50
  -2  -1  10    1.89    0.49
  -2  -1  10    1.80    0.44
   2   1 -10    1.72    0.53
   2   1 -10    1.25    0.37
   2   1 -10    1.27    0.42
  -1  -1   9   90.42    1.84
  -1  -1   9   90.82    1.82
  -1  -1   9   88.73    1.89
   1   1  -9   89.49    1.90
   1   1  -9   87.97    1.99
   1   1  -9   89.53    1.85
   0  -1   8  123.09    2.06
   0  -1   8  125.02    2.18
   0  -1   8  126.44    2.08
   0   1  -8  123.92    2.15
   0   1  -8  125.24    2.18
   0   1  -8  126.45    2.22
   1  -1   7   39.97    1.00
  -1   1  -7   41.42    0.82
  -1   1  -7   40.02    0.94
  -1   1  -7   40.22    0.82
  -2   1  -6   24.00    0.92
  -2   1  -6   24.14    0.81
  -3   1  -5    6.36    0.74
  -3   1  -5    6.93    0.78
  -4   1  -4   16.18    0.78
  -4   1  -4   15.12    1.31
  -4   1  -4   13.49    1.23
  -4   1  -4   13.35    0.80
  -4  -2  12    1.29    1.19
   4   2 -12    0.83    1.06
   4   2 -12   -0.94    1.43
  -3  -2  11    4.84    0.85
  -3  -2  11    4.94    0.83
  -3  -2  11    3.74    0.81
   3   2 -11    3.83    0.69
   3   2 -11    3.62    0.84
   3   2 -11    3.79    0.74
  -2  -2  10   -0.12    0.39
  -2  -2  10    0.57    0.43
  -2  -2  10   -0.16    0.39
   2   2 -10    0.23    0.46
   2   2 -10   -0.37    0.34
   2   2 -10    0.31    0.39
  -1  -2   9   13.52    0.74
  -1  -2   9   14.08    0.69
  -1  -2   9   14.41    0.74
   1   2  -9   13.46    0.73
   1   2  -9   12.64    0.69
   1   2  -9   13.09    0.78
   0  -2   8    3.56    0.38
   0  -2   8    3.24    0.37
   0  -2   8    3.19    0.37
   0   2  -8    3.86    0.38
   0   2  -8    4.02    0.40
   0   2  -8    3.60    0.43
   1  -2   7   17.34    0.71
  -1   2  -7   17.77    0.53
  -1   2  -7   18.63    0.53
  -1   2  -7   18.17    0.66
  -2   2  -6   12.93    0.68
  -2   2  -6   12.54    0.68
  -3   2  -5    5.66    0.68
  -3   2  -5    6.77    0.73
  -4   2  -4    4.44    0.72
  -4   2  -4    4.11    1.01
  -4  -3  12    3.46    1.37
   4   3 -12    2.99    1.21
   4   3 -12    2.84    1.65
  -3  -3  11   25.09    1.42
  -3  -3  11   26.03    1.63
  -3  -3  11   24.66    1.47
   3   3 -11   26.62    1.38
   3   3 -11   26.49    1.58
   3   3 -11   29.61    1.44
  -2  -3  10    0.32    0.43
  -2  -3  10    1.27    0.51
  -2  -3  10    0.61    0.47
   2   3 -10    0.68    0.44
   2   3 -10    0.13    0.38
   2   3 -10    0.08    0.48
  -1  -3   9   46.78    1.30
  -1  -3   9   46.44    1.27
   1   3  -9   45.90    1.30
   1   3  -9   46.54    1.38
   0  -3   8   10.80    0.56
   0  -3   8   10.92    0.48
   0  -3   8   11.37    0.59
   0   3  -8   11.47    0.56
   0   3  -8   11.70    0.63
   0   3  -8   10.86    0.58
   1  -3   7   58.63    1.41
  -1   3  -7   56.41    1.12
  -1   3  -7   56.62    1.32
  -2   3  -6   30.75    1.04
  -3   3  -5   -0.29    0.39
  -3   3  -5    0.27    0.51
  -4   3  -4   10.97    1.03
  -4   3  -4   13.26    0.79
  -4   3  -4   11.81    1.39
  -4  -4  12    1.22    1.44
   4   4 -12   -0.33    1.36
   4   4 -12   -0.05    1.30
   4   4 -12   -1.05    1.39
  -3  -4  11    7.97    1.03
  -3  -4  11    7.78    0.94
  -3  -4  11    9.81    1.28
   3   4 -11    8.58    1.35
   3   4 -11    4.52    1.01
  -2  -4  10    1.56    0.49
  -2  -4  10    0.89    0.53
  -2  -4  10   -0.21    0.45
   2   4 -10    1.77    0.51
   2   4 -10    0.72    0.59
   2   4 -10    0.66    0.54
   2   4 -10    0.36    0.46
  -1  -4   9   23.99    0.98
  -1  -4   9   23.76    0.93
  -1  -4   9   23.40    0.90
   1   4  -9   24.26    1.05
   1   4  -9   24.05    0.97
   1   4  -9   23.45    0.91
   1   4  -9   24.43    0.97
   0  -4   8    1.51    0.27
   0  -4   8    1.82    0.35
   0  -4   8    1.67    0.35
   0   4  -8    1.69    0.34
   0   4  -8    1.75    0.36
   0   4  -8    1.54    0.29
   0   4  -8    1.22    0.30
   1  -4   7   12.97    0.75
  -1   4  -7   13.20    0.69
  -1   4  -7   13.85    0.56
  -1   4  -7   13.30    0.52
  -2   4  -6    5.07    0.37
  -2   4  -6    5.45    0.65
  -2   4  -6    4.63    0.37
  -3   4  -5    1.89    0.30
  -3   4  -5    2.21    0.62
  -3   4  -5    1.84    0.30
  -3   4  -5    1.79    0.41
  -4   4  -4    4.50    0.63
  -4   4  -4    4.55    1.02
  -4   4  -4    5.32    0.59
  -4   4  -4    5.38    0.60
   4   5 -12    1.87    1.60
  -3  -5  11   16.42    1.43
  -3  -5  11   15.30    1.41
  -3  -5  11   18.89    1.62
   3   5 -11   17.47    1.66
   3   5 -11   15.92    1.42
  -2  -5  10   -0.30    0.63
  -2  -5  10    0.08    0.50
   2   5 -10    0.30    0.65
   2   5 -10    0.63    0.50
   2   5 -10    0.18    0.47
   2   5 -10   -0.09    0.54
  -1  -5   9   52.52    1.43
  -1  -5   9   51.93    1.47
   1   5  -9   48.73    1.43
   1   5  -9   50.88    1.54
   1   5  -9   51.79    1.43
   1   5  -9   50.21    1.45
   0  -5   8    1.79    0.46
   0  -5   8    2.45    0.37
   0  -5   8    2.25    0.38
   0   5  -8    2.67    0.41
   0   5  -8    2.80    0.50
   0   5  -8    2.96    0.43
   0   5  -8    2.53    0.42
   1  -5   7   49.01    0.92
   1  -5   7   45.45    0.93
   1  -5   7   50.57    1.46
  -1   5  -7   48.10    1.09
  -1   5  -7   50.19    1.34
  -1   5  -7   48.70    1.18
  -2   5  -6   14.17    0.88
  -2   5  -6   13.76    0.62
  -2   5  -6   12.73    0.56
  -3   5  -5   10.18    0.65
  -3   5  -5    8.69    0.62
  -3   5  -5    9.29    1.09
  -3   5  -5    9.58    0.76
  -4   5  -4   10.24    1.25
  -4   5  -4    9.86    0.79
  -4   5  -4    7.70    0.92
  -4   5  -4    8.26    0.78
  -3  -6  11    4.88    0.90
  -3  -6  11    4.34    1.09
   3   6 -11    3.54    1.11
   3   6 -11    2.89    0.93
   3   6 -11    3.78    0.98
  -2  -6  10    1.27    0.57
  -2  -6  10    1.11    0.64
   2   6 -10    1.49    0.64
   2   6 -10    0.33    0.65
   2   6 -10    0.51    0.79
  -1  -6   9   41.38    1.33
  -1  -6   9   40.89    1.22
  -1  -6   9   40.94    1.44
   1   6  -9   41.96    1.36
   1   6  -9   41.03    1.48
   1   6  -9   39.52    1.35
   1   6  -9   40.95    1.36
   0  -6   8    3.61    0.50
   0  -6   8    2.89    0.50
   0  -6   8    4.14    0.45
   0   6  -8    4.01    0.50
   0   6  -8    3.41    0.49
   0   6  -8    3.25    0.47
   0   6  -8    4.22    0.52
   1  -6   7   13.96    0.91
   1  -6   7   13.16    0.62
   1  -6   7   11.55    0.59
  -1   6  -7   13.20    0.69
  -1   6  -7   13.58    0.72
  -1   6  -7   13.63    0.81
  -1   6  -7   13.45    0.67
  -2   6  -6   11.43    0.90
  -2   6  -6   11.08    0.64
  -2   6  -6   11.54    0.65
  -2   6  -6   10.40    0.69
  -3   6  -5    2.43    0.46
  -3   6  -5    1.44    0.37
  -3   6  -5    1.68    0.48
  -3   6  -5    2.92    0.73
  -3   6  -5    1.64    0.49
  -4   6  -4    6.35    0.79
  -4   6  -4    5.48    0.83
  -4   6  -4    5.24    1.13
  -3  -7  11   17.58    1.95
   3   7 -11   17.12    1.81
   3   7 -11   15.27    1.59
  -2  -7  10   10.61    1.09
  -2  -7  10    8.72    1.05
   2   7 -10   11.68    1.62
   2   7 -10   10.34    1.12
   2   7 -10   11.73    1.28
   2   7 -10   11.24    1.41
  -1  -7   9   62.49    1.77
  -1  -7   9   63.64    1.65
  -1  -7   9   62.73    1.86
   1   7  -9   64.26    1.93
   1   7  -9   60.85    1.78
   0  -7   8    8.46    0.78
   0  -7   8   10.91    0.74
   0  -7   8    9.45    0.89
   0   7  -8    9.94    0.77
   0   7  -8   10.49    0.84
   0   7  -8   10.79    0.80
   0   7  -8    9.96    0.74
   1  -7   7   36.19    1.42
   1  -7   7   36.42    1.07
   1  -7   7   35.54    1.02
  -1   7  -7   35.78    1.10
  -1   7  -7   35.30    1.28
  -1   7  -7   36.10    1.19
  -1   7  -7   36.92    1.15
  -2   7  -6   15.13    1.11
  -2   7  -6   14.46    0.79
  -2   7  -6   14.76    0.84
  -2   7  -6   12.92    0.78
  -3   7  -5    7.79    0.85
  -3   7  -5    9.20    0.89
  -3   7  -5    9.65    1.23
  -3   7  -5    8.30    0.70
  -4   7  -4    5.03    0.91
  -4   7  -4    5.70    0.96
  -4   7  -4    7.66    1.31
  -3  -8  11    0.89    1.30
   3   8 -11    3.47    1.46
  -2  -8  10    0.66    0.76
  -2  -8  10    1.81    0.93
  -2  -8  10    0.62    0.71
   2   8 -10    1.27    0.74
   2   8 -10    2.43    1.12
   2   8 -10    1.03    0.80
   2   8 -10    0.54    0.84
  -1  -8   9   29.05    1.88
  -1  -8   9   34.89    1.57
  -1  -8   9   33.40    1.40
   1   8  -9   33.69    1.47
   0  -8   8    0.39    0.44
   0  -8   8    1.63    0.59
   0  -8   8   -1.10    0.47
   0   8  -8    0.57    0.41
   0   8  -8    0.55    0.54
   0   8  -8    0.74    0.45
   0   8  -8    0.53    0.48
   1  -8   7   19.87    0.95
   1  -8   7   18.48    0.95
  -1   8  -7   19.04    0.98
  -1   8  -7   19.87    0.95
  -1   8  -7   18.99    1.08
  -1   8  -7   20.48    0.97
  -2   8  -6    3.08    0.50
  -2   8  -6    2.31    0.53
  -2   8  -6    3.66    0.78
  -2   8  -6    2.15    0.59
  -3   8  -5    3.22    0.72
  -3   8  -5    3.80    0.52
  -3   8  -5    2.99    0.87
  -3   8  -5    3.42    0.77
  -4   8  -4    5.37    1.07
  -4   8  -4    6.62    1.36
   3   9 -11    5.22    1.71
  -2  -9  10    1.36    0.94
  -2  -9  10    3.93    1.07
   2   9 -10    4.30    1.33
   2   9 -10    1.26    1.01
  -1  -9   9   13.88    1.14
  -1  -9   9    9.66    1.20
  -1  -9   9   13.90    1.37
   1   9  -9   10.82    1.13
   1   9  -9   11.32    1.26
   1   9  -9   12.43    1.36
   0  -9   8    1.38    0.69
   0  -9   8    3.28    0.71
   0  -9   8    2.26    0.63
   0   9  -8    1.71    0.53
   0   9  -8    3.99    0.77
   0   9  -8    1.68    0.56
   0   9  -8    2.49    0.64
   1  -9   7    7.25    0.79
   1  -9   7    6.77    0.81
   1  -9   7    8.04    1.07
  -1   9  -7    7.22    0.72
  -1   9  -7    7.30    0.92
  -1   9  -7    8.50    0.86
  -2   9  -6    2.88    0.77
  -2   9  -6    2.68    0.74
  -2   9  -6    2.74    0.54
  -2   9  -6    2.89    0.75
  -3   9  -5    8.94    0.90
  -3   9  -5    9.15    1.07
  -3   9  -5    8.29    0.94
  -3   9  -5   12.48    1.51
  -4   9  -4    6.28    1.65
  -4   9  -4    5.33    1.19
  -2 -10  10    1.82    1.25
   2  10 -10    2.92    1.53
   2  10 -10   -0.24    1.08
  -1 -10   9   12.34    1.34
  -1 -10   9   12.27    1.29
  -1 -10   9   12.66    1.32
   1  10  -9    9.65    1.16
   1  10  -9    7.50    1.18
   1  10  -9   11.46    1.30
   0 -10   8    1.86    0.79
   0 -10   8    1.66    0.79
   0  10  -8    2.33    0.72
   0  10  -8    2.15    0.76
   0  10  -8    1.91    0.74
   0  10  -8    1.44    0.72
   1 -10   7   11.14    1.16
   1 -10   7   15.37    1.25
   1 -10   7   14.16    1.40
  -1  10  -7   11.03    1.08
  -1  10  -7   13.15    1.09
  -1  10  -7   11.19    1.22
  -1  10  -7   12.51    1.24
  -2  10  -6    4.52    0.95
  -2  10  -6    5.53    0.85
  -2  10  -6    5.27    0.98
  -2  10  -6    3.77    0.69
  -3  10  -5    1.40    0.99
  -3  10  -5    1.56    1.05
  -3  10  -5    0.33    0.88
  -2 -11  10    2.39    1.50
   2  11 -10   -0.11    1.43
   2  11 -10    1.91    1.74
  -1 -11   9   15.27    1.52
   1  11  -9   18.77    1.86
   1  11  -9   20.67    1.97
   0 -11   8   -0.63    0.94
   0 -11   8    0.27    0.89
   0 -11   8   -0.53    0.88
   0  11  -8    1.15    0.79
   0  11  -8    0.18    0.78
   0  11  -8   -0.11    0.81
   1 -11   7   15.82    1.42
   1 -11   7   15.51    1.53
  -1  11  -7   15.96    1.33
  -1  11  -7   15.38    1.33
  -1  11  -7   12.27    1.44
  -1  11  -7   16.97    1.45
   2 -11   6    6.87    0.72
   2 -11   6    5.55    0.67
  -2  11  -6    6.94    1.00
  -2  11  -6    4.20    0.79
  -2  11  -6    3.95    1.12
  -2  11  -6    7.15    1.18
  -3  11  -5    4.29    1.24
  -3  11  -5    4.21    1.15
  -1 -12   9    6.14    1.46
   1  12  -9   10.07    1.57
   1  12  -9    9.94    1.66
   0 -12   8    2.25    1.19
   0  12  -8    1.14    1.03
   0  12  -8    1.48    1.11
   1 -12   7    6.85    1.27
  -1  12  -7    9.01    1.27
  -1  12  -7    7.12    1.02
  -1  12  -7    6.58    1.07
  -2  12  -6    4.15    1.24
  -2  12  -6    2.88    0.97
  -2  12  -6    6.27    1.21
   0 -13   8    0.00    1.43
   0  13  -8    0.82    1.23
   0  13  -8    0.15    1.31
   1 -13   7   21.17    2.10
   1 -13   7   21.88    2.28
  -1  13  -7   19.83    1.78
  -1  13  -7   15.93    2.08
  -2  13  -6    2.19    1.33
  -1  11  10    1.38    1.02
  -1  11  10    0.04    1.13
   1 -11 -10    0.25    1.06
   1 -11 -10    0.70    1.44
   0  11   9    8.09    1.30
   0 -11  -9    5.92    1.25
   0 -11  -9    6.52    1.45
  -1 -11  -8   -1.02    1.21
  -1 -11  -8    1.28    1.56
  -2  10  11    5.89    1.20
   2 -10 -11    4.77    1.57
   2 -10 -11    5.00    1.05
  -1  10  10    0.60    0.92
  -1  10  10    1.23    0.88
   1 -10 -10    1.55    0.93
   1 -10 -10    2.02    1.20
   0  10   9    7.75    0.81
   0  10   9    7.05    1.06
   0 -10  -9    8.33    1.17
   0 -10  -9    5.92    1.25
   1  10   8    0.08    1.10
   1  10   8    1.09    0.90
  -1 -10  -8    0.25    1.16
  -1 -10  -8   -0.12    0.99
  -2 -10  -7    5.65    1.66
  -2 -10  -7    9.03    1.63
  -2   9  11    9.01    1.16
   2  -9 -11   11.50    1.09
   2  -9 -11   13.47    1.58
  -1   9  10    6.39    0.93
   1  -9 -10    6.14    1.17
   1  -9 -10    4.41    0.90
   0   9   9   10.49    1.25
   0   9   9    9.69    0.88
   0   9   9   10.87    1.22
   0  -9  -9   14.61    1.64
   0  -9  -9    9.59    1.09
   1   9   8    1.08    0.78
   1   9   8    0.53    0.83
  -1  -9  -8   -0.65    0.95
  -1  -9  -8   -0.62    0.89
   2   9   7    5.48    1.02
  -2  -9  -7    5.91    1.39
  -2  -9  -7    3.88    1.18
  -3   8  12    2.78    1.15
   3  -8 -12    1.18    1.42
  -2   8  11    4.03    0.91
   2  -8 -11    3.41    1.12
   2  -8 -11    4.76    0.78
  -1   8  10    0.74    0.78
  -1   8  10    0.59    0.67
   1  -8 -10   -0.09    0.61
   1  -8 -10    0.50    0.64
   1  -8 -10    0.09    0.79
   0   8   9    9.96    0.83
   0   8   9   11.25    1.11
   0  -8  -9   11.75    1.26
   0  -8  -9    9.70    1.08
   0  -8  -9    9.79    1.09
   1   8   8    0.64    0.66
   1   8   8    1.27    0.67
   1   8   8    0.55    0.64
  -1  -8  -8    0.58    0.78
  -1  -8  -8    0.46    0.75
  -1  -8  -8    1.48    0.87
   2   8   7    5.91    0.70
   2   8   7    6.80    0.80
  -2  -8  -7    6.10    1.19
  -2  -8  -7    7.14    1.04
  -2  -8  -7    6.99    1.14
  -3  -8  -6    0.91    1.19
  -3  -8  -6   -0.80    1.40
  -3   7  12    5.65    1.17
   3  -7 -12    6.51    1.45
  -2   7  11   19.09    1.37
  -2   7  11   15.19    1.49
   2  -7 -11   18.64    1.16
   2  -7 -11   18.84    1.46
   2  -7 -11   18.14    1.66
  -1   7  10    1.36    0.60
   1  -7 -10    0.73    0.74
   1  -7 -10    1.47    0.59
   0   7   9   16.03    1.16
   0   7   9   16.35    1.05
   0  -7  -9   16.57    1.29
   0  -7  -9   17.92    1.22
   0  -7  -9   16.49    1.08
   1   7   8    0.29    0.52
   1   7   8   -0.63    0.52
  -1  -7  -8   -0.54    0.64
  -1  -7  -8   -0.89    0.56
  -1  -7  -8    0.92    0.66
   2   7   7   12.59    1.27
  -2  -7  -7   15.59    1.52
  -2  -7  -7   11.12    1.22
  -2  -7  -7   13.20    1.42
  -3  -7  -6    0.40    1.09
  -3  -7  -6    0.23    1.00
  -3  -7  -6    1.91    1.17
  -3   6  12    6.81    1.05
   3  -6 -12    6.29    1.15
   3  -6 -12    6.14    1.24
   3  -6 -12    7.52    0.69
  -2   6  11    6.41    0.87
   2  -6 -11    5.84    0.96
   2  -6 -11    6.74    0.96
   2  -6 -11    7.10    0.71
  -1   6  10    0.42    0.54
  -1   6  10    1.57    0.62
   1  -6 -10    2.23    0.55
   1  -6 -10    0.69    0.65
   0   6   9   16.31    0.78
   0   6   9   17.18    0.97
   0   6   9   15.57    1.00
   0  -6  -9   17.85    1.07
   0  -6  -9   18.24    0.97
   0  -6  -9   17.83    1.20
   1   6   8    0.29    0.43
   1   6   8    0.32    0.44
  -1  -6  -8    0.40    0.61
  -1  -6  -8   -0.69    0.47
  -2  -6  -7   -0.03    0.65
  -2  -6  -7    0.59    0.55
  -2  -6  -7    1.38    0.75
  -3  -6  -6    1.18    0.93
  -3  -6  -6   -1.20    0.77
  -3  -6  -6    0.42    0.92
   4  -5 -13    2.91    1.59
  -3   5  12   13.67    1.34
   3  -5 -12   12.23    1.33
   3  -5 -12   14.95    0.96
   3  -5 -12   12.85    1.41
   3  -5 -12   15.86    0.97
  -2   5  11   11.62    1.04
   2  -5 -11   12.79    0.89
   2  -5 -11   12.56    1.28
  -1   5  10    7.31    0.83
  -1   5  10    7.06    0.81
   1  -5 -10    8.12    1.15
   1  -5 -10    8.26    0.87
   1  -5 -10    7.05    0.78
   0   5   9   34.05    1.13
   0   5   9   30.69    0.95
   0   5   9   31.90    1.17
   0  -5  -9   32.85    1.32
   0  -5  -9   32.56    1.25
   0  -5  -9   32.49    1.14
   1   5   8    0.39    0.38
   1   5   8    0.52    0.38
  -1  -5  -8    1.03    0.49
  -1  -5  -8    0.86    0.53
  -1  -5  -8   -0.30    0.40
  -2  -5  -7   20.12    1.01
  -2  -5  -7   20.14    1.30
  -2  -5  -7   18.40    1.21
  -3  -5  -6    0.52    0.65
  -3  -5  -6   -0.28    0.76
  -3  -5  -6    0.10    0.85
  -4  -5  -5    6.07    1.46
  -4  -5  -5    8.15    1.37
  -4   4  13    1.72    1.32
   4  -4 -13    2.23    2.20
   4  -4 -13    0.94    1.38
  -3   4  12    4.15    0.89
  -3   4  12    3.04    1.03
  -3   4  12    3.43    0.98
   3  -4 -12    4.41    0.60
   3  -4 -12    3.95    1.36
   3  -4 -12    4.33    0.61
   3  -4 -12    5.28    1.05
   2  -4 -11    9.09    0.92
   2  -4 -11   11.09    1.14
   2  -4 -11    9.08    0.77
  -1   4  10    2.91    0.54
  -1   4  10    3.56    1.00
  -1   4  10    2.53    0.49
   1  -4 -10    2.01    0.55
   1  -4 -10    2.29    0.48
   1  -4 -10    3.13    0.50
   0   4   9   14.50    0.66
   0   4   9   15.96    0.80
   0   4   9   14.52    0.82
   0  -4  -9   13.74    0.90
   0  -4  -9   14.64    0.80
   0  -4  -9   14.39    0.82
   1   4   8    0.93    0.32
   1   4   8    0.65    0.32
  -1  -4  -8    1.29    0.47
  -1  -4  -8    1.66    0.50
  -1  -4  -8    0.68    0.36
  -2  -4  -7   10.33    0.75
  -2  -4  -7   10.85    0.94
  -2  -4  -7   12.04    1.07
  -3  -4  -6    1.15    0.54
  -3  -4  -6    0.75    0.66
  -3  -4  -6    0.43    0.75
  -4  -4  -5    6.52    1.31
  -4   3  13    1.63    1.20
   4  -3 -13    1.17    1.27
   4  -3 -13    2.29    1.35
  -3   3  12   10.93    1.20
  -3   3  12   12.58    1.29
  -3   3  12   11.63    1.38
   3  -3 -12   12.82    0.97
   3  -3 -12   11.48    1.19
  -2   3  11   22.06    1.27
  -2   3  11   22.72    1.25
   2  -3 -11   20.58    1.19
   2  -3 -11   21.54    1.14
  -1   3  10   29.17    1.08
  -1   3  10   28.93    1.10
  -1   3  10   28.97    1.03
   1  -3 -10   27.52    1.16
   1  -3 -10   27.68    1.06
   0   3   9   41.52    1.10
   0   3   9   40.60    1.03
   0   3   9   40.64    1.14
   0  -3  -9   40.60    1.24
   0  -3  -9   39.73    1.16
   0  -3  -9   39.47    1.24
   1   3   8    1.24    0.25
   1   3   8    0.80    0.26
   1   3   8    0.81    0.17
  -1  -3  -8    0.66    0.37
  -1  -3  -8    0.98    0.42
  -1  -3  -8    1.45    0.36
  -2  -3  -7   25.03    1.19
  -2  -3  -7   24.17    0.82
  -2  -3  -7   25.59    1.01
  -3  -3  -6    2.29    0.80
  -3  -3  -6    2.52    0.49
  -3  -3  -6    2.45    0.62
  -4  -3  -5    3.83    0.82
  -4  -3  -5    5.32    1.15
  -4  -3  -5    6.53    1.01
  -4   2  13    3.26    1.19
   4  -2 -13    1.40    1.27
   4  -2 -13    3.61    1.34
  -3   2  12    7.50    0.91
  -3   2  12    7.78    1.02
   3  -2 -12    5.93    1.46
   3  -2 -12    8.64    0.91
  -2   2  11    2.88    0.65
  -2   2  11    3.93    0.66
  -2   2  11    3.03    0.60
   2  -2 -11    3.06    0.67
   2  -2 -11    2.21    0.54
  -1   2  10    8.05    0.66
  -1   2  10    7.95    0.67
  -1   2  10    9.27    0.71
   1  -2 -10    9.46    0.77
   1  -2 -10    8.65    0.67
   0   2   9   20.56    0.75
   0   2   9   20.37    0.72
   0   2   9   19.59    0.76
   0  -2  -9   19.59    0.85
   0  -2  -9   20.01    0.79
   1   2   8    2.41    0.31
  -1  -2  -8    2.44    0.39
  -1  -2  -8    1.50    0.39
  -1  -2  -8    2.45    0.33
  -2  -2  -7   10.00    0.64
  -2  -2  -7   10.46    0.86
  -2  -2  -7    8.29    0.50
  -3  -2  -6    0.20    0.33
  -3  -2  -6    0.21    0.63
  -3  -2  -6    0.07    0.44
  -3  -2  -6    0.21    0.32
  -4  -2  -5    1.76    0.76
  -4  -2  -5    0.26    0.56
  -4  -2  -5    0.75    0.64
  -4  -2  -5    0.35    0.67
  -4  -2  -5    0.01    0.90
  -4   1  13   -1.25    1.04
   4  -1 -13   -0.39    1.16
  -3   1  12   40.97    1.68
  -3   1  12   47.19    1.83
   3  -1 -12   43.03    1.64
   3  -1 -12   39.52    2.22
   3  -1 -12   41.80    1.77
  -2   1  11  109.45    2.37
  -2   1  11  109.89    2.56
  -2   1  11  113.30    2.49
   2  -1 -11  112.10    2.53
   2  -1 -11  112.48    2.40
  -1   1  10   12.61    0.72
  -1   1  10   12.49    0.73
  -1   1  10   11.63    0.83
   1  -1 -10   12.67    0.79
   1  -1 -10   12.73    0.74
   0   1   9   76.82    1.54
   0   1   9   78.13    1.51
   0   1   9   77.04    1.54
   0  -1  -9   76.34    1.59
   0  -1  -9   74.72    1.64
   1   1   8    6.29    0.43
  -1  -1  -8    7.05    0.45
  -1  -1  -8    6.75    0.49
  -1  -1  -8    6.18    0.40
  -1  -1  -8    6.19    0.59
  -2  -1  -7   40.67    0.85
  -2  -1  -7   43.87    0.90
  -2  -1  -7   42.71    1.36
  -2  -1  -7   43.51    0.96
  -3  -1  -6    1.09    0.37
  -3  -1  -6    0.61    0.26
  -3  -1  -6    0.98    0.62
  -3  -1  -6    1.20    0.42
  -4  -1  -5   10.27    1.16
  -4  -1  -5   13.15    1.05
  -4  -1  -5   14.87    1.17
  -4   0  13    1.77    1.11
   4   0 -13    1.71    1.28
   4   0 -13   -0.91    1.70
  -3   0  12   17.77    1.38
  -3   0  12   20.07    1.35
   3   0 -12   18.94    1.28
   3   0 -12   18.65    1.12
   3   0 -12   13.61    1.59
  -2   0  11    2.68    0.55
  -2   0  11    1.95    0.52
  -2   0  11    1.75    0.47
   2   0 -11    1.66    0.56
   2   0 -11    2.64    0.51
   2   0 -11    2.19    0.43
  -1   0  10    5.14    0.57
  -1   0  10    4.30    0.58
  -1   0  10    4.77    0.50
   1   0 -10    3.83    0.59
   1   0 -10    4.72    0.55
   0   0   9    5.81    0.43
   0   0   9    5.43    0.47
   0   0   9    5.46    0.45
   0   0  -9    6.42    0.52
   0   0  -9    5.85    0.46
   0   0  -9    5.82    0.52
   1   0   8    3.29    0.40
  -1   0  -8    3.77    0.38
  -1   0  -8    4.01    0.37
  -1   0  -8    3.81    0.40
  -2   0  -7   15.57    0.63
  -2   0  -7   14.60    0.83
  -3   0  -6    0.56    0.41
  -3   0  -6    0.30    0.49
  -4   0  -5    2.27    0.88
  -4   0  -5    3.80    0.78
  -4  -1  13    1.74    1.18
   4   1 -13    0.00    1.19
   4   1 -13    0.45    1.05
   4   1 -13    4.11    1.31
  -3  -1  12   16.39    1.31
  -3  -1  12   16.89    1.35
  -3  -1  12   15.37    1.34
   3   1 -12   13.70    2.00
   3   1 -12   17.79    1.32
   3   1 -12   18.09    1.17
  -2  -1  11   12.49    0.92
  -2  -1  11   13.37    0.92
  -2  -1  11   12.53    0.93
   2   1 -11   12.99    0.85
   2   1 -11   11.95    0.78
   2   1 -11   13.07    0.98
  -1  -1  10   13.01    0.73
  -1  -1  10   12.22    0.85
  -1  -1  10   12.92    0.84
   1   1 -10   11.38    0.88
   1   1 -10   13.22    0.82
   1   1 -10   13.68    0.78
   0  -1   9   37.56    0.93
   0  -1   9   38.67    0.95
   0  -1   9   38.97    1.03
   0   1  -9   37.59    1.07
   0   1  -9   38.47    1.01
   0   1  -9   38.61    1.04
   1  -1   8   28.21    0.87
  -1   1  -8   27.29    0.71
  -1   1  -8   27.62    0.80
  -1   1  -8   27.22    0.71
  -2   1  -7   39.42    1.22
  -2   1  -7   39.04    1.04
  -3   1  -6    2.24    0.52
  -3   1  -6    0.70    0.48
  -4   1  -5   24.70    1.47
  -4   1  -5   22.26    1.45
  -4  -2  13    2.44    1.31
   4   2 -13    1.00    1.23
   4   2 -13    0.64    1.30
  -3  -2  12    2.94    0.84
  -3  -2  12    3.85    0.84
  -3  -2  12    2.21    0.82
   3   2 -12    1.75    0.67
   3   2 -12    1.09    0.96
  -2  -2  11    7.74    0.90
  -2  -2  11    6.48    0.84
  -2  -2  11    5.71    0.67
   2   2 -11    5.87    0.62
   2   2 -11    6.91    0.77
   2   2 -11    6.00    0.75
  -1  -2  10    5.67    0.59
  -1  -2  10    4.50    0.50
   1   2 -10    5.45    0.65
   1   2 -10    5.23    0.57
   1   2 -10    5.18    0.55
   0  -2   9    4.50    0.41
   0  -2   9    4.71    0.46
   0  -2   9    3.79    0.42
   0   2  -9    4.71    0.48
   0   2  -9    4.65    0.44
   0   2  -9    4.89    0.50
   1  -2   8   -0.20    0.26
  -1   2  -8    0.48    0.27
  -1   2  -8    0.29    0.20
  -1   2  -8   -0.16    0.20
  -2   2  -7   12.01    0.71
  -3   2  -6    2.92    0.56
  -3   2  -6    2.02    0.53
  -4   2  -5   11.57    1.36
  -4   2  -5   11.41    1.23
  -4  -3  13    4.35    1.45
   4   3 -13    1.33    1.31
   4   3 -13   -1.91    1.29
   4   3 -13    0.76    1.42
  -3  -3  12   18.39    1.46
  -3  -3  12   20.42    1.54
  -3  -3  12   18.28    1.43
   3   3 -12   22.11    1.60
   3   3 -12   20.18    1.39
  -2  -3  11   16.50    1.10
  -2  -3  11   14.92    1.01
   2   3 -11   13.73    1.06
   2   3 -11   18.79    1.03
   2   3 -11   15.80    0.93
  -1  -3  10   29.67    1.02
  -1  -3  10   28.51    1.05
  -1  -3  10   29.63    1.08
   1   3 -10   29.00    1.08
   1   3 -10   29.93    1.17
   1   3 -10   28.86    1.05
   1   3 -10   29.79    1.01
   0  -3   9   57.33    1.17
   0  -3   9   56.66    1.38
   0  -3   9   57.43    1.25
   0   3  -9   55.35    1.32
   0   3  -9   58.27    1.36
   0   3  -9   57.32    1.41
   1  -3   8    8.44    0.64
  -1   3  -8    8.74    0.58
  -1   3  -8    9.71    0.49
  -1   3  -8    9.44    0.47
  -2   3  -7   49.75    1.36
  -2   3  -7   49.86    0.90
  -3   3  -6    2.41    0.57
  -3   3  -6    1.02    0.43
  -4   3  -5   24.01    1.32
  -4   3  -5   22.62    1.56
  -4  -4  13    1.17    2.00
   4   4 -13   -1.97    1.59
   4   4 -13   -0.38    1.47
  -3  -4  12    1.62    0.84
  -3  -4  12    2.08    0.89
  -3  -4  12    2.56    0.98
   3   4 -12    0.38    0.93
   3   4 -12    0.89    0.92
  -2  -4  11    1.97    0.55
   2   4 -11    2.83    0.80
   2   4 -11    2.49    0.52
   2   4 -11    2.26    0.58
   2   4 -11    1.92    0.65
  -1  -4  10    4.62    0.50
  -1  -4  10    3.84    0.55
  -1  -4  10    4.83    0.61
   1   4 -10    4.79    0.57
   1   4 -10    4.09    0.52
   1   4 -10    4.99    0.54
   1   4 -10    5.40    0.66
   0  -4   9    9.54    0.52
   0  -4   9    8.52    0.86
   0  -4   9    8.78    0.62
   0   4  -9    9.77    0.63
   0   4  -9   10.61    0.63
   0   4  -9    9.24    0.68
   1  -4   8    4.55    0.58
  -1   4  -8    4.65    0.54
  -1   4  -8    3.85    0.42
  -2   4  -7    9.90    0.47
  -2   4  -7    8.70    0.45
  -2   4  -7   10.30    0.78
  -3   4  -6    0.16    0.45
  -3   4  -6    1.16    0.57
  -4   4  -5    0.67    0.90
  -4   4  -5    1.11    0.63
  -4   4  -5    0.98    0.48
  -3  -5  12   24.37    1.75
  -3  -5  12   23.83    1.81
   3   5 -12   24.09    1.69
   3   5 -12   24.06    1.70
   3   5 -12   26.14    1.82
  -2  -5  11   15.48    1.05
  -2  -5  11   15.66    1.22
   2   5 -11   12.73    1.07
   2   5 -11   14.02    1.35
   2   5 -11   13.64    1.06
   2   5 -11   10.47    1.23
  -1  -5  10   26.43    1.05
  -1  -5  10   25.66    1.13
   1   5 -10   26.70    1.12
   1   5 -10   26.72    1.19
   1   5 -10   25.45    1.05
   1   5 -10   26.35    1.10
   0  -5   9   69.90    1.70
   0  -5   9   69.23    1.57
   0  -5   9   70.46    1.47
   0   5  -9   70.33    1.73
   0   5  -9   70.87    1.64
   0   5  -9   69.08    1.63
   1  -5   8    8.31    0.39
   1  -5   8    7.15    0.39
   1  -5   8    8.60    0.75
  -1   5  -8    8.71    0.70
  -1   5  -8    9.08    0.59
  -2   5  -7   40.09    0.95
  -2   5  -7   41.17    1.39
  -2   5  -7   40.81    1.02
  -3   5  -6    0.15    0.46
  -3   5  -6   -0.07    0.34
  -3   5  -6    0.11    0.35
  -4   5  -5   15.85    1.02
  -4   5  -5   13.98    1.05
  -4   5  -5   16.24    1.07
  -4   5  -5   18.01    1.73
  -3  -6  12    2.78    1.04
   3   6 -12    0.12    1.01
   3   6 -12   -0.12    1.09
  -2  -6  11   -0.21    0.61
  -2  -6  11    1.07    0.68
   2   6 -11    0.45    0.68
   2   6 -11    1.59    0.84
  -1  -6  10    0.80    0.40
  -1  -6  10    1.43    0.55
  -1  -6  10    1.92    0.46
   1   6 -10    1.50    0.55
   1   6 -10    1.31    0.60
   1   6 -10    1.49    0.54
   1   6 -10    1.33    0.48
   0  -6   9   20.35    0.99
   0  -6   9   19.78    0.92
   0  -6   9   17.71    0.94
   0   6  -9   19.61    0.90
   0   6  -9   18.56    0.89
   0   6  -9   19.39    1.00
   0   6  -9   18.76    0.93
   1  -6   8    1.40    0.31
   1  -6   8    1.09    0.33
   1  -6   8    1.18    0.44
  -1   6  -8    1.37    0.38
  -1   6  -8    1.62    0.38
  -1   6  -8    1.53    0.37
  -1   6  -8    2.18    0.50
  -2   6  -7    7.55    0.67
  -2   6  -7    9.92    0.67
  -2   6  -7    6.61    0.60
  -2   6  -7    6.73    0.87
  -3   6  -6    0.66    0.69
  -3   6  -6    0.01    0.45
  -3   6  -6    1.20    0.39
  -3   6  -6    0.74    0.44
  -4   6  -5    6.13    1.18
  -4   6  -5    4.29    0.60
  -4   6  -5    4.72    0.76
  -4   6  -5    3.30    0.81
  -3  -7  12   14.25    1.47
   3   7 -12   15.08    1.60
  -2  -7  11   14.58    1.21
  -2  -7  11   14.57    1.44
   2   7 -11   14.65    1.26
   2   7 -11   14.11    1.31
   2   7 -11   13.80    1.40
   2   7 -11   15.11    1.64
  -1  -7  10    2.76    0.58
  -1  -7  10    3.20    0.72
  -1  -7  10    3.31    0.60
   1   7 -10    2.23    0.61
   1   7 -10    2.53    0.73
   0  -7   9   16.28    0.99
   0  -7   9   18.76    0.90
   0  -7   9   19.78    1.04
   0   7  -9   18.55    1.09
   0   7  -9   18.50    1.01
   0   7  -9   19.05    0.99
   0   7  -9   18.43    0.96
   1  -7   8    7.94    0.69
   1  -7   8    8.98    0.94
   1  -7   8    7.91    0.68
  -1   7  -8    9.03    0.69
  -1   7  -8    8.61    0.74
  -1   7  -8    8.45    0.82
  -1   7  -8    9.23    0.74
  -2   7  -7   29.28    1.67
  -2   7  -7   36.18    1.33
  -2   7  -7   36.20    1.55
  -2   7  -7   37.37    1.12
  -3   7  -6    0.39    0.53
  -3   7  -6    0.09    0.51
  -3   7  -6    1.20    0.74
  -3   7  -6    0.27    0.42
  -4   7  -5   19.70    1.91
  -4   7  -5   13.24    1.37
  -3  -8  12    0.85    1.33
   3   8 -12    1.86    1.50
  -2  -8  11    2.59    0.92
  -2  -8  11    3.57    1.00
   2   8 -11    2.43    0.91
   2   8 -11    4.25    1.20
   2   8 -11    2.66    0.87
  -1  -8  10    1.61    0.68
  -1  -8  10    3.33    0.80
   1   8 -10    0.99    0.64
   1   8 -10    3.44    0.83
   0  -8   9    2.17    0.64
   0  -8   9    3.14    0.57
   0  -8   9    3.09    0.65
   0   8  -9    2.20    0.51
   0   8  -9    2.83    0.59
   1  -8   8    3.63    0.56
   1  -8   8    3.09    0.50
  -1   8  -8    3.07    0.53
  -1   8  -8    3.63    0.60
  -1   8  -8    3.16    0.58
  -1   8  -8    3.61    0.64
  -2   8  -7    9.34    0.93
  -2   8  -7    9.81    1.15
  -2   8  -7    8.26    0.86
  -2   8  -7    9.20    0.84
  -3   8  -6   -0.38    0.67
  -3   8  -6   -0.08    0.58
  -3   8  -6    1.15    0.47
  -3   8  -6    0.67    0.78
  -4   8  -5    2.25    1.32
  -4   8  -5    2.54    1.34
   3   9 -12   14.92    2.01
  -2  -9  11    3.64    1.18
   2   9 -11    2.09    1.32
   2   9 -11    1.70    1.04
  -1  -9  10   22.05    1.33
  -1  -9  10   19.69    1.63
  -1  -9  10   19.07    1.45
   1   9 -10   18.47    1.42
   1   9 -10   22.42    1.58
   1   9 -10   19.20    1.27
   0  -9   9   23.40    1.25
   0  -9   9   18.68    1.38
   0  -9   9   22.43    1.41
   0   9  -9   23.44    1.26
   0   9  -9   22.66    1.23
   0   9  -9   21.61    1.27
   0   9  -9   23.22    1.36
   1  -9   8   10.44    0.98
  -1   9  -8   10.87    1.00
  -1   9  -8   11.36    1.06
  -1   9  -8   10.33    0.91
  -1   9  -8    9.75    1.00
  -2   9  -7   51.78    1.55
  -2   9  -7   47.52    1.73
  -2   9  -7   49.20    1.87
  -3   9  -6    0.24    0.56
  -3   9  -6    0.08    0.97
  -3   9  -6    0.23    0.75
  -3   9  -6   -0.68    0.86
  -4   9  -5   10.97    1.30
  -2 -10  11    1.06    1.31
   2  10 -11    1.85    1.55
   2  10 -11    0.39    1.23
  -1 -10  10    2.83    1.05
  -1 -10  10    3.56    1.15
  -1 -10  10    1.27    0.94
   1  10 -10    2.28    0.89
   1  10 -10    2.36    1.01
   0 -10   9    1.38    0.83
   0 -10   9    0.95    0.80
   0  10  -9    0.70    0.68
   0  10  -9    0.24    0.77
   0  10  -9   -0.40    0.68
   0  10  -9    1.47    0.68
   1 -10   8    1.32    0.74
   1 -10   8    4.20    0.77
   1 -10   8    3.70    0.92
  -1  10  -8    1.42    0.80
  -1  10  -8    1.88    0.63
  -1  10  -8    2.64    0.63
  -1  10  -8    2.79    0.72
  -2  10  -7    1.89    0.86
  -2  10  -7    2.39    0.77
  -2  10  -7    0.40    0.63
  -2  10  -7    1.95    0.90
  -3  10  -6    0.00    0.92
  -3  10  -6   -1.13    1.03
  -3  10  -6    2.33    1.18
   2  11 -11    6.49    1.97
   2  11 -11    1.67    1.53
  -1 -11  10   18.87    2.09
   1  11 -10   15.56    1.95
   1  11 -10   17.95    1.87
   0 -11   9   15.97    1.74
   0 -11   9   12.28    1.22
   0  11  -9   15.64    1.60
   0  11  -9   16.15    1.63
   0  11  -9   12.48    1.47
   1 -11   8    4.36    0.96
   1 -11   8    5.97    1.00
  -1  11  -8    5.51    0.86
  -1  11  -8    5.10    0.99
  -1  11  -8    5.99    1.24
  -1  11  -8    4.17    0.85
  -2  11  -7   20.80    1.48
  -2  11  -7   20.04    1.72
  -2  11  -7   24.75    1.86
  -2  11  -7   21.32    1.67
  -3  11  -6   -2.60    1.18
  -3  11  -6    1.19    1.05
  -1 -12  10    4.65    1.51
   1  12 -10    1.05    1.50
   1  12 -10    2.54    1.36
   0 -12   9    0.96    1.19
   0  12  -9   -0.68    0.98
   0  12  -9    1.12    1.19
  -1  12  -8    0.56    0.94
  -1  12  -8   -0.67    0.93
  -2  12  -7    2.90    1.18
  -2  12  -7    0.06    0.94
  -2  12  -7    1.60    1.07
   0 -13   9   12.08    1.75
   0  13  -9   10.54    1.77
   1 -13   8    3.50    1.72
   1 -13   8    4.08    1.44
  -1  13  -8    3.35    1.31
  -1  11  11   -0.49    1.23
  -1  11  11   -1.26    1.06
   1 -11 -11    2.10    1.26
   0  11  10    1.64    1.21
   0 -11 -10    0.47    1.23
  -1 -11  -9   -0.20    1.51
   2 -10 -12   13.48    1.93
  -1  10  11    1.64    0.97
  -1  10  11    0.40    1.00
   1 -10 -11    1.33    1.33
   1 -10 -11    0.15    1.02
   0  10  10   14.22    1.11
   0  10  10   13.72    1.64
   0 -10 -10   13.90    1.46
   0 -10 -10   12.42    1.50
   1  10   9    4.49    1.07
   1  10   9    0.62    1.14
  -1 -10  -9    2.27    1.39
  -1 -10  -9    1.72    1.16
  -2 -10  -8    8.05    1.91
  -2   9  12   -0.59    0.96
   2  -9 -12    0.52    0.97
   2  -9 -12    0.14    1.34
  -1   9  11    0.27    0.80
   1  -9 -11    0.02    0.78
   1  -9 -11   -0.57    1.00
   0   9  10   -0.91    0.90
   0   9  10   -0.40    0.58
   0   9  10   -1.07    0.76
   0   9  10   -0.39    0.51
   0  -9 -10   -0.19    0.91
   0  -9 -10    0.45    0.76
   1   9   9    0.60    0.89
   1   9   9    0.53    0.88
  -1  -9  -9   -1.40    0.95
  -1  -9  -9   -0.49    1.05
  -2  -9  -8   -0.45    1.02
  -2  -9  -8    0.55    1.32
   3  -8 -13    0.22    1.58
  -2   8  12   25.77    1.72
   2  -8 -12   23.94    2.09
   2  -8 -12   24.27    1.52
  -1   8  11   -0.34    0.84
  -1   8  11    0.98    0.73
   1  -8 -11   -0.54    1.19
   1  -8 -11   -0.24    0.88
   0   8  10   49.02    1.41
   0   8  10   48.85    1.42
   0   8  10   50.90    1.74
   0  -8 -10   49.66    1.89
   0  -8 -10   49.50    1.78
   0  -8 -10   49.93    2.07
   1   8   9    8.48    0.93
   1   8   9   11.20    1.25
  -1  -8  -9    9.08    1.20
  -1  -8  -9    9.27    1.05
  -1  -8  -9    9.72    1.21
  -2  -8  -8    5.16    1.30
  -2  -8  -8    6.03    1.10
  -2  -8  -8    6.16    1.20
  -3  -8  -7    8.96    1.66
  -3   7  13    0.34    1.05
   3  -7 -13   -1.03    1.31
  -2   7  12   -0.51    0.67
   2  -7 -12   -0.04    0.94
   2  -7 -12    0.49    1.01
   2  -7 -12    0.98    0.66
  -1   7  11   -0.24    0.55
  -1   7  11   -1.02    0.69
   1  -7 -11    1.09    0.62
   1  -7 -11    0.79    0.76
   0   7  10   -0.79    0.61
   0   7  10   -0.16    0.42
   0   7  10    0.42    0.55
   0  -7 -10    0.50    0.56
   0  -7 -10   -0.08    0.56
   0  -7 -10   -0.09    0.73
   1   7   9    0.80    0.58
   1   7   9    0.64    0.55
  -1  -7  -9    0.68    0.64
  -1  -7  -9    0.92    0.73
  -1  -7  -9    0.52    0.74
  -2  -7  -8    1.38    0.90
  -2  -7  -8    0.04    0.82
  -2  -7  -8    0.23    0.78
  -3  -7  -7    1.51    1.22
  -3  -7  -7   -1.82    1.07
  -3  -7  -7   -0.31    1.10
  -3   6  13   -0.63    0.83
   3  -6 -13    2.57    1.25
   3  -6 -13    1.41    0.66
  -2   6  12   29.55    1.60
  -2   6  12   32.33    1.74
   2  -6 -12   29.68    1.60
   2  -6 -12   32.14    1.34
   2  -6 -12   30.82    1.86
  -1   6  11    2.17    0.62
   1  -6 -11    1.23    0.71
   1  -6 -11    1.87    0.59
   0   6  10   37.70    1.42
   0   6  10   38.93    1.34
   0   6  10   36.16    1.11
   0  -6 -10   35.64    1.69
   0  -6 -10   37.89    1.39
   0  -6 -10   38.19    1.49
   1   6   9    6.57    0.68
   1   6   9    6.47    0.72
  -1  -6  -9    6.97    0.86
  -1  -6  -9    7.35    0.80
  -1  -6  -9    6.66    1.08
  -2  -6  -8   17.67    1.21
  -2  -6  -8   16.20    1.69
  -2  -6  -8   17.67    1.50
  -3  -6  -7   24.69    1.55
  -3  -6  -7   27.68    1.95
  -3  -6  -7   24.98    2.08
  -3   5  13    1.15    0.82
   3  -5 -13    1.85    0.65
   3  -5 -13    0.98    0.95
   3  -5 -13    0.07    1.05
   3  -5 -13   -0.35    0.60
  -2   5  12   -0.12    0.57
   2  -5 -12   -0.38    0.47
   2  -5 -12    0.51    0.74
   2  -5 -12   -0.93    0.65
  -1   5  11   -0.03    0.45
  -1   5  11    0.22    0.52
  -1   5  11    0.00    0.47
   1  -5 -11   -0.53    1.08
   1  -5 -11   -0.34    0.41
   0   5  10   -0.70    0.43
   0   5  10   -0.20    0.30
   0   5  10   -0.34    0.43
   0  -5 -10    0.07    0.51
   0  -5 -10   -0.40    0.41
   0  -5 -10   -0.61    0.41
   1   5   9    0.48    0.38
   1   5   9    0.01    0.40
  -1  -5  -9    0.27    0.48
  -1  -5  -9   -0.40    0.51
  -1  -5  -9    0.58    0.46
  -2  -5  -8    0.23    0.65
  -2  -5  -8    0.33    0.52
  -2  -5  -8   -0.01    0.64
  -3  -5  -7   -0.21    0.67
  -3  -5  -7    0.07    0.90
  -3  -5  -7    1.41    1.02
  -4  -5  -6    0.56    1.33
  -4  -5  -6    2.78    1.31
   4  -4 -14    8.75    1.68
  -3   4  13    1.03    0.81
   3  -4 -13    3.04    1.01
   3  -4 -13    2.75    0.66
   3  -4 -13    1.73    0.61
   3  -4 -13    0.52    0.86
  -2   4  12   35.31    1.58
  -2   4  12   34.94    1.43
   2  -4 -12   35.76    1.67
   2  -4 -12   37.68    1.29
  -1   4  11    1.97    0.52
  -1   4  11    0.95    0.46
  -1   4  11    1.39    0.47
   1  -4 -11    0.96    0.44
   1  -4 -11    1.39    0.57
   1  -4 -11    0.53    0.47
   0   4  10   49.25    1.42
   0   4  10   49.74    1.22
   0   4  10   51.35    1.36
   0  -4 -10   50.39    1.49
   0  -4 -10   50.50    1.57
   0  -4 -10   48.75    1.43
   1   4   9    7.94    0.62
   1   4   9   10.78    0.63
  -1  -4  -9   11.71    0.92
  -1  -4  -9   10.86    0.77
  -1  -4  -9    9.72    0.89
  -2  -4  -8   15.93    1.08
  -2  -4  -8   17.94    1.26
  -3  -4  -7    9.58    1.02
  -3  -4  -7   10.97    1.22
  -3  -4  -7   14.31    1.28
  -4  -4  -6    0.41    1.27
  -4  -4  -6    1.07    1.45
   4  -3 -14    1.16    1.55
   4  -3 -14    3.40    1.72
  -3   3  13    0.32    0.77
   3  -3 -13   -0.44    0.62
   3  -3 -13   -0.65    0.77
   3  -3 -13   -1.09    0.85
  -2   3  12    3.29    0.65
  -2   3  12    2.50    0.61
   2  -3 -12    3.24    0.64
  -1   3  11    3.85    0.54
  -1   3  11    4.63    0.56
  -1   3  11    3.62    0.56
   1  -3 -11    4.52    0.58
   1  -3 -11    4.14    0.62
   0   3  10    0.70    0.37
   0   3  10    1.37    0.37
   0   3  10    1.31    0.34
   0  -3 -10    0.86    0.40
   0  -3 -10    1.12    0.37
   0  -3 -10    1.20    0.46
   1   3   9   -0.22    0.25
   1   3   9   -0.02    0.19
   1   3   9   -0.14    0.25
  -1  -3  -9   -0.20    0.40
  -1  -3  -9   -0.05    0.31
  -1  -3  -9    0.06    0.37
  -2  -3  -8    1.12    0.39
  -2  -3  -8    0.95    0.50
  -2  -3  -8    0.78    0.53
  -3  -3  -7   -0.54    0.46
  -3  -3  -7    0.35    0.70
  -3  -3  -7    1.04    0.61
  -4  -3  -6   -0.52    0.91
  -4  -3  -6   -0.11    1.08
  -4   2  14    8.43    1.47
   4  -2 -14   10.71    1.59
   4  -2 -14   10.46    1.58
  -3   2  13    5.73    0.94
  -3   2  13    3.36    0.90
  -3   2  13    6.09    0.98
   3  -2 -13    5.57    1.01
   3  -2 -13    5.85    0.95
   3  -2 -13    6.13    0.77
  -2   2  12   10.36    1.02
  -2   2  12    8.79    1.13
   2  -2 -12   10.75    1.08
   2  -2 -12   11.41    0.91
  -1   2  11    0.65    0.40
  -1   2  11    0.34    0.38
  -1   2  11    0.14    0.36
   1  -2 -11   -0.08    0.35
   1  -2 -11    0.07    0.42
   0   2  10   93.65    1.82
   0   2  10   92.64    1.81
   0   2  10   92.62    1.87
   0  -2 -10   94.07    2.03
   0  -2 -10   93.97    1.95
   1   2   9   10.02    0.49
  -1  -2  -9   10.34    0.70
  -1  -2  -9   10.38    0.78
  -1  -2  -9   12.10    0.64
  -2  -2  -8   36.67    0.96
  -2  -2  -8   35.39    1.40
  -2  -2  -8   36.86    1.08
  -3  -2  -7   17.20    0.58
  -3  -2  -7   17.14    0.97
  -3  -2  -7   16.30    0.77
  -3  -2  -7   18.50    1.35
  -4  -2  -6    2.32    0.82
  -4  -2  -6    3.03    0.63
  -4  -2  -6    3.02    1.07
  -4  -2  -6    1.77    0.99
  -4   1  14    1.97    1.27
   4  -1 -14   -0.02    1.34
   4  -1 -14   -1.26    1.32
  -3   1  13    0.18    0.86
  -3   1  13    2.32    0.87
  -3   1  13    1.14    0.73
   3  -1 -13   -0.70    0.80
   3  -1 -13    0.67    0.61
  -2   1  12    3.05    0.61
  -2   1  12    3.83    0.68
   2  -1 -12    1.92    0.49
   2  -1 -12    1.73    0.64
  -1   1  11    6.36    0.66
  -1   1  11    5.82    0.65
  -1   1  11    5.56    0.58
   1  -1 -11    6.58    0.73
   1  -1 -11    6.06    0.65
   0   1  10    1.62    0.33
   0   1  10    0.89    0.31
   0   1  10    1.02    0.33
   0  -1 -10    0.88    0.30
   0  -1 -10    1.30    0.37
   1   1   9    0.31    0.26
  -1  -1  -9    1.04    0.28
  -1  -1  -9    0.57    0.29
  -1  -1  -9    1.30    0.39
  -1  -1  -9    0.54    0.26
  -2  -1  -8    0.95    0.28
  -2  -1  -8    1.01    0.33
  -2  -1  -8    0.61    0.26
  -2  -1  -8    0.61    0.40
  -3  -1  -7    0.52    0.63
  -3  -1  -7    0.46    0.40
  -3  -1  -7   -0.11    0.38
  -3  -1  -7    0.89    0.30
  -4  -1  -6   -0.99    0.93
  -4  -1  -6   -0.51    0.47
  -4  -1  -6   -0.14    0.62
  -4  -1  -6    0.87    0.68
  -4   0  14   18.47    2.08
   4   0 -14   12.99    1.54
   4   0 -14   13.23    1.59
  -3   0  13    4.03    0.89
  -3   0  13    5.20    0.82
  -3   0  13    2.69    0.84
   3   0 -13    4.18    0.98
   3   0 -13    4.41    0.76
  -2   0  12   34.61    1.40
  -2   0  12   35.96    1.35
   2   0 -12   37.14    1.36
   2   0 -12   37.84    1.24
   2   0 -12   34.35    1.46
  -1   0  11    2.15    0.42
  -1   0  11    2.84    0.48
  -1   0  11    2.51    0.46
   1   0 -11    2.15    0.43
   1   0 -11    2.37    0.48
   0   0  10   92.64    1.74
   0   0  10   95.30    1.86
   0   0  10   93.92    1.78
   0   0 -10   94.13    1.93
   0   0 -10   95.11    1.88
   0   0 -10   93.46    1.93
   1   0   9   67.76    1.44
  -1   0  -9   67.59    1.39
  -1   0  -9   66.54    1.34
  -1   0  -9   65.97    1.37
  -2   0  -8   24.87    0.78
  -2   0  -8   25.18    0.69
  -2   0  -8   25.23    0.63
  -2   0  -8   25.11    1.09
  -3   0  -7   12.03    0.83
  -3   0  -7   11.59    1.05
  -4   0  -6    5.32    1.03
  -4   0  -6    5.52    0.86
  -4  -1  14    2.82    1.31
   4   1 -14   -1.80    1.30
   4   1 -14   -0.64    1.33
  -3  -1  13    1.30    0.81
  -3  -1  13    0.56    0.72
  -3  -1  13    1.58    0.76
   3   1 -13    0.29    0.83
   3   1 -13    0.03    0.66
  -2  -1  12    0.33    0.50
   2   1 -12    0.69    0.48
   2   1 -12    1.27    0.60
   2   1 -12    1.30    0.43
  -1  -1  11    0.47    0.33
  -1  -1  11   -0.21    0.35
  -1  -1  11    0.57    0.37
   1   1 -11   -0.16    0.28
   1   1 -11    0.21    0.36
   1   1 -11   -0.05    0.39
   0  -1  10    3.87    0.45
   0  -1  10    3.49    0.46
   0  -1  10    3.46    0.37
   0   1 -10    3.22    0.41
   0   1 -10    3.87    0.46
   0   1 -10    4.09    0.47
   1  -1   9   -0.27    0.26
  -1   1  -9   -0.21    0.21
  -1   1  -9    0.22    0.28
  -1   1  -9    0.12    0.25
  -2   1  -8    2.19    0.39
  -2   1  -8    1.35    0.45
  -3   1  -7    2.98    0.55
  -3   1  -7    2.64    0.64
  -4   1  -6    0.97    0.79
  -4   1  -6    1.22    0.86
  -4  -2  14    9.07    1.58
   4   2 -14   11.85    1.58
   4   2 -14    6.27    1.56
  -3  -2  13    6.37    0.95
  -3  -2  13    8.18    1.05
  -3  -2  13    7.63    0.94
   3   2 -13    8.69    0.93
   3   2 -13    7.01    1.10
   3   2 -13    8.85    1.06
  -2  -2  12   50.92    1.78
   2   2 -12   50.75    1.60
   2   2 -12   53.14    1.75
   2   2 -12   50.32    1.51
  -1  -2  11    2.24    0.46
  -1  -2  11    1.93    0.39
  -1  -2  11    3.09    0.51
   1   2 -11    1.75    0.41
   1   2 -11    2.38    0.48
   1   2 -11    1.85    0.50
   0  -2  10   63.29    1.48
   0  -2  10   63.60    1.33
   0  -2  10   63.72    1.34
   0   2 -10   61.87    1.46
   0   2 -10   62.94    1.45
   0   2 -10   64.51    1.54
   1  -2   9   10.03    0.67
  -1   2  -9    9.92    0.61
  -1   2  -9    9.27    0.51
  -1   2  -9    9.79    0.53
  -2   2  -8   49.19    1.29
  -3   2  -7   19.43    1.06
  -3   2  -7   17.36    1.06
  -4   2  -6    1.71    0.82
  -4   2  -6    1.06    0.78
   4   3 -14    0.51    1.56
   4   3 -14   -1.71    1.40
  -3  -3  13   -1.26    0.91
  -3  -3  13    2.01    0.86
   3   3 -13   -0.54    0.82
   3   3 -13    0.96    0.98
  -2  -3  12    0.63    0.90
  -2  -3  12    3.94    0.73
   2   3 -12    4.21    0.74
   2   3 -12    3.58    0.62
   2   3 -12    3.83    0.60
  -1  -3  11    1.39    0.42
  -1  -3  11    1.28    0.45
  -1  -3  11    0.91    0.38
   1   3 -11    1.70    0.53
   1   3 -11    0.90    0.37
   1   3 -11    1.04    0.41
   1   3 -11    0.71    0.33
   0  -3  10    6.36    0.54
   0  -3  10    5.41    0.56
   0   3 -10    6.01    0.59
   0   3 -10    5.35    0.55
   0   3 -10    5.90    0.62
   1  -3   9   -0.20    0.30
  -1   3  -9    0.00    0.22
  -1   3  -9    0.46    0.30
  -1   3  -9   -0.01    0.25
  -2   3  -8    1.94    0.46
  -2   3  -8    1.75    0.27
  -2   3  -8    2.07    0.25
  -3   3  -7    0.70    0.53
  -3   3  -7    0.15    0.46
  -4   3  -6    1.64    0.88
  -4   3  -6   -0.22    0.71
  -3  -4  13    7.60    1.18
   3   4 -13    7.58    1.01
   3   4 -13    5.49    1.11
   3   4 -13    7.55    1.07
  -2  -4  12   39.25    1.65
  -2  -4  12   39.80    1.49
   2   4 -12   40.17    1.58
   2   4 -12   39.54    1.63
   2   4 -12   39.41    1.48
  -1  -4  11    0.95    0.41
  -1  -4  11    0.51    0.43
  -1  -4  11    1.16    0.49
   1   4 -11    0.84    0.44
   1   4 -11    0.77    0.46
   1   4 -11    1.29    0.45
   1   4 -11    0.57    0.30
   0  -4  10   82.28    1.88
   0  -4  10   84.27    1.62
   0  -4  10   84.91    1.73
   0   4 -10   82.61    1.97
   0   4 -10   85.36    1.83
   0   4 -10   85.20    1.93
   1  -4   9    1.89    0.49
  -1   4  -9    2.39    0.38
  -1   4  -9    2.50    0.46
  -1   4  -9    1.88    0.34
  -2   4  -8   45.61    1.02
  -2   4  -8   46.40    1.42
  -2   4  -8   45.84    0.97
  -3   4  -7   10.60    1.06
  -3   4  -7    8.80    0.92
  -4   4  -6    9.28    1.15
  -4   4  -6    7.54    0.88
  -3  -5  13    3.13    1.09
   3   5 -13   -0.32    1.00
   3   5 -13   -0.09    0.98
   3   5 -13    2.35    1.10
  -2  -5  12    1.16    0.69
  -2  -5  12    1.49    0.57
   2   5 -12    0.00    0.66
   2   5 -12    0.52    0.79
  -1  -5  11    1.31    0.55
  -1  -5  11    0.74    0.48
   1   5 -11    0.49    0.46
   1   5 -11    0.70    0.55
   1   5 -11    1.31    0.49
   1   5 -11    1.39    0.43
   0  -5  10   17.06    0.86
   0  -5  10   16.27    0.87
   0  -5  10   17.38    0.74
   0   5 -10   15.36    0.92
   0   5 -10   17.04    0.87
   0   5 -10   17.36    0.85
   0   5 -10   19.01    0.85
   1  -5   9    0.88    0.47
  -1   5  -9    1.29    0.43
  -1   5  -9    0.85    0.33
  -1   5  -9    0.46    0.35
  -2   5  -8    1.46    0.51
  -2   5  -8    0.55    0.31
  -2   5  -8    2.09    0.39
  -3   5  -7    2.93    0.41
  -3   5  -7    3.07    0.61
  -3   5  -7    3.09    0.71
  -3   5  -7    2.28    0.43
  -4   5  -6    0.22    0.91
  -4   5  -6   -0.36    0.56
  -4   5  -6    1.45    1.01
  -4   5  -6    0.47    0.67
  -3  -6  13    7.93    1.35
   3   6 -13    5.81    1.31
  -2  -6  12   33.17    1.68
   2   6 -12   32.63    1.54
   2   6 -12   33.22    1.58
   2   6 -12   34.83    1.91
   2   6 -12   33.52    1.64
  -1  -6  11    6.53    0.79
  -1  -6  11    7.08    0.78
  -1  -6  11    9.05    1.05
   1   6 -11    6.77    0.91
   1   6 -11    8.21    1.20
   0  -6  10   94.95    2.04
   0  -6  10  100.49    2.28
   0  -6  10   95.99    2.06
   0   6 -10   98.36    2.28
   0   6 -10   96.33    2.15
   0   6 -10   96.10    2.16
   0   6 -10   99.76    2.17
   1  -6   9    9.80    0.88
   1  -6   9   10.09    0.52
   1  -6   9    8.72    0.56
  -1   6  -9    8.18    0.87
  -1   6  -9   10.22    0.72
  -1   6  -9   11.00    0.81
  -2   6  -8   36.64    1.04
  -2   6  -8   37.28    1.42
  -2   6  -8   35.74    1.11
  -3   6  -7   10.19    0.80
  -3   6  -7   11.68    1.26
  -3   6  -7   11.25    0.77
  -4   6  -6    5.25    0.77
  -4   6  -6    6.45    1.25
  -4   6  -6    6.29    0.80
  -3  -7  13    1.72    1.30
   3   7 -13   -1.02    1.31
  -2  -7  12   -0.68    0.79
  -2  -7  12   -0.32    0.65
  -2  -7  12   -1.18    0.70
   2   7 -12   -0.15    0.95
   2   7 -12   -0.28    0.68
   2   7 -12    0.94    0.76
   2   7 -12   -1.11    0.77
  -1  -7  11    2.79    0.60
  -1  -7  11    1.68    0.61
   1   7 -11    1.65    0.76
   1   7 -11    1.02    0.60
   0  -7  10   31.55    1.25
   0  -7  10   32.42    1.15
   0   7 -10   33.26    1.28
   0   7 -10   35.21    1.27
   0   7 -10   33.62    1.39
   0   7 -10   32.64    1.29
   1  -7   9    0.01    0.35
   1  -7   9    0.50    0.39
  -1   7  -9    0.40    0.39
  -1   7  -9   -0.12    0.39
  -1   7  -9    0.17    0.43
  -2   7  -8    5.82    0.62
  -2   7  -8    6.61    0.72
  -2   7  -8    6.02    0.83
  -3   7  -7    0.36    0.43
  -3   7  -7    0.38    0.77
  -3   7  -7   -0.31    0.53
  -3   7  -7   -1.23    0.51
  -4   7  -6    1.51    0.83
  -4   7  -6    1.13    1.16
   3   8 -13    5.29    1.68
  -2  -8  12   17.41    1.76
  -2  -8  12   17.15    1.84
   2   8 -12   14.62    1.71
   2   8 -12   19.76    1.98
  -1  -8  11    5.47    0.92
  -1  -8  11    3.99    0.72
   1   8 -11    5.55    0.86
   1   8 -11    5.85    0.96
   0  -8  10   23.21    1.25
   0  -8  10   25.37    1.17
   0  -8  10   22.41    1.26
   0   8 -10   24.83    1.24
   0   8 -10   24.66    1.35
   0   8 -10   23.57    1.22
   0   8 -10   24.31    1.20
   1  -8   9    2.26    0.54
   1  -8   9    2.37    0.53
  -1   8  -9    2.43    0.52
  -1   8  -9    2.01    0.54
  -1   8  -9    1.43    0.59
  -2   8  -8   12.96    1.26
  -2   8  -8   11.51    0.98
  -2   8  -8   11.86    0.97
  -2   8  -8   13.76    0.97
  -3   8  -7    1.48    0.74
  -3   8  -7    1.18    0.68
  -3   8  -7    1.56    0.92
  -4   8  -6    8.20    1.48
  -2  -9  12    2.96    1.20
   2   9 -12    3.11    1.13
   2   9 -12    6.59    1.55
  -1  -9  11   -0.47    0.77
  -1  -9  11   -0.45    0.78
  -1  -9  11   -0.96    0.80
   1   9 -11   -1.46    0.73
   1   9 -11    0.68    0.91
   1   9 -11   -0.83    0.55
   1   9 -11   -1.14    0.69
   0  -9  10    3.86    0.90
   0  -9  10    4.83    0.76
   0  -9  10    5.56    0.84
   0   9 -10    4.31    0.67
   0   9 -10    7.56    1.01
   0   9 -10    4.43    0.76
   0   9 -10    5.19    0.79
   1  -9   9    2.61    0.79
   1  -9   9    2.18    0.60
  -1   9  -9    2.01    0.59
  -1   9  -9    1.81    0.64
  -1   9  -9    1.13    0.65
  -2   9  -8    3.32    0.80
  -2   9  -8    3.21    0.65
  -2   9  -8    3.63    0.83
  -2   9  -8    2.73    0.77
  -3   9  -7    0.28    0.76
  -3   9  -7    0.82    0.63
  -3   9  -7    0.00    0.96
  -3   9  -7    1.25    0.93
  -2 -10  12   15.96    1.72
   2  10 -12   12.22    1.61
   2  10 -12   21.42    2.64
  -1 -10  11    1.20    1.10
   1  10 -11    0.96    1.06
   1  10 -11    0.38    0.91
   0 -10  10   33.88    1.86
   0 -10  10   34.49    1.82
   0  10 -10   36.12    1.85
   0  10 -10   34.64    1.65
   0  10 -10   34.13    1.68
   0  10 -10   31.63    1.65
   1 -10   9   -0.24    0.65
   1 -10   9    0.71    0.96
   1 -10   9   -0.84    0.69
  -1  10  -9    1.27    0.72
  -1  10  -9   -0.10    0.60
  -1  10  -9   -0.34    0.70
  -2  10  -8   20.44    1.39
  -2  10  -8   18.01    1.51
  -2  10  -8   20.19    1.53
  -2  10  -8   18.85    1.31
  -3  10  -7    5.88    1.03
  -3  10  -7    6.10    1.28
  -3  10  -7    4.87    1.23
   2  11 -12    3.41    2.06
  -1 -11  11    1.01    1.24
   1  11 -11   -0.18    1.07
   1  11 -11    1.28    1.31
   0 -11  10    4.03    1.06
   0 -11  10    5.77    1.20
   0  11 -10    4.11    1.11
   0  11 -10    3.77    0.99
   1 -11   9    0.63    0.89
   1 -11   9    0.60    0.89
  -1  11  -9    0.60    0.81
  -1  11  -9    0.57    0.82
  -2  11  -8    0.91    1.30
  -2  11  -8    3.04    0.92
  -2  11  -8    2.65    0.99
  -2  11  -8    1.07    0.87
  -3  11  -7    2.30    1.18
  -1 -12  11    2.32    1.60
   1  12 -11    0.94    1.71
   1  12 -11   -0.57    1.59
   0 -12  10   17.01    1.70
   0  12 -10   18.04    1.89
   0  12 -10   18.78    1.96
   1 -12   9    1.69    1.16
   1 -12   9    0.76    1.11
  -1  12  -9    2.05    1.13
  -2  12  -8   21.11    1.87
  -2  12  -8   24.28    1.90
   0 -13  10    3.85    1.66
   0  13 -10    2.20    1.63
   1 -13   9    0.70    1.37
  -1  13  -9    3.16    1.50
   0  11  11    3.44    1.34
   0 -11 -11    1.17    1.40
  -1  10  12    6.78    1.27
  -1  10  12    5.53    1.23
   1 -10 -12    7.66    1.65
   1 -10 -12    4.24    1.26
   0  10  11    0.90    1.03
   0 -10 -11    0.54    1.12
   0 -10 -11    3.55    1.39
   1  10  10    4.21    1.11
   1  10  10    2.41    1.20
  -1 -10 -10   -1.03    1.41
  -1 -10 -10    4.17    1.41
  -2   9  13    3.28    1.11
   2  -9 -13    3.66    1.53
   2  -9 -13    1.79    1.03
  -1   9  12    8.97    1.17
   1  -9 -12    6.71    1.10
   1  -9 -12    5.24    1.35
   0   9  11    0.27    0.57
   0   9  11    0.49    0.64
   0   9  11    0.88    0.88
   0   9  11   -1.30    0.99
   0  -9 -11    1.30    0.97
   0  -9 -11    1.37    1.09
   1   9  10   12.17    1.27
   1   9  10    9.68    1.51
  -1  -9 -10   15.57    1.66
  -1  -9 -10    8.58    1.23
  -2  -9  -9    1.52    1.25
  -2  -9  -9    0.98    1.42
  -2   8  13    2.11    0.97
   2  -8 -13    2.72    0.90
   2  -8 -13    1.67    1.30
  -1   8  12   10.50    1.10
  -1   8  12    9.60    1.09
   1  -8 -12   10.05    1.30
   1  -8 -12    8.44    1.02
   0   8  11   -0.29    0.53
   0   8  11    0.17    0.68
   0   8  11    0.19    0.54
   0   8  11    0.93    0.85
   0  -8 -11   -0.54    0.77
   0  -8 -11    0.57    0.89
   1   8  10    2.15    0.84
   1   8  10    3.08    0.83
  -1  -8 -10    2.21    0.95
  -1  -8 -10    1.01    0.94
  -1  -8 -10    1.16    1.19
  -2  -8  -9    0.38    1.15
  -2  -8  -9   -0.92    0.96
   3  -7 -14    3.26    1.62
  -2   7  13   13.12    1.65
  -2   7  13   14.33    1.30
   2  -7 -13   11.12    1.35
   2  -7 -13   14.32    1.36
  -1   7  12    9.00    0.97
  -1   7  12    9.35    1.07
  -1   7  12    9.00    0.95
   1  -7 -12    7.05    0.92
   1  -7 -12    8.77    1.13
   0   7  11    2.92    0.77
   0   7  11    1.98    0.51
   0   7  11    2.70    0.80
   0  -7 -11    3.06    0.78
   0  -7 -11    2.51    0.73
   0  -7 -11    2.39    0.86
   1   7  10   18.22    1.17
   1   7  10   17.05    1.17
  -1  -7 -10   16.68    1.59
  -1  -7 -10   17.96    1.36
  -1  -7 -10   17.02    1.47
  -2  -7  -9    0.31    0.89
  -2  -7  -9    1.77    1.05
  -2  -7  -9    1.99    1.01
  -3  -7  -8    1.00    1.19
  -3  -7  -8    3.46    1.53
  -3  -7  -8    1.77    1.33
  -3   6  14   -0.30    0.97
   3  -6 -14    2.75    1.38
  -2   6  13    7.70    1.08
  -2   6  13   10.97    1.14
   2  -6 -13   10.22    1.18
   2  -6 -13    6.64    1.16
   2  -6 -13    7.21    1.10
  -1   6  12    4.88    0.77
  -1   6  12    5.03    0.77
   1  -6 -12    5.32    0.76
   1  -6 -12    5.24    0.95
   0   6  11    3.38    0.64
   0   6  11    3.27    0.70
   0   6  11    3.14    0.49
   0  -6 -11    2.49    0.79
   0  -6 -11    2.49    0.66
   0  -6 -11    2.69    0.77
   1   6  10   10.28    1.12
   1   6  10    9.94    0.92
  -1  -6 -10    9.12    1.01
  -1  -6 -10    7.97    0.90
  -1  -6 -10    9.62    1.05
  -2  -6  -9    0.42    0.72
  -2  -6  -9    0.48    0.82
  -2  -6  -9    0.45    0.75
  -3  -6  -8    4.45    1.23
  -3  -6  -8    5.72    1.03
  -3  -6  -8    3.78    1.24
  -3   5  14    1.84    0.91
   3  -5 -14    2.63    0.76
   3  -5 -14    2.33    1.29
  -2   5  13   10.21    1.18
  -2   5  13   15.44    1.29
   2  -5 -13   10.39    1.02
   2  -5 -13   11.63    1.26
   2  -5 -13    6.79    0.97
  -1   5  12   13.23    1.22
  -1   5  12   13.54    1.11
  -1   5  12   13.47    1.03
   1  -5 -12   14.21    1.24
   1  -5 -12   12.49    0.97
   0   5  11    5.69    0.63
   0   5  11    7.42    0.84
   0   5  11    6.89    0.71
   0  -5 -11    5.23    0.72
   0  -5 -11    6.15    0.71
   0  -5 -11    7.68    1.03
   1   5  10   12.85    0.84
   1   5  10   15.71    0.85
  -1  -5 -10   15.87    1.20
  -1  -5 -10   16.35    1.04
  -1  -5 -10   14.71    1.15
  -2  -5  -9    0.70    0.60
  -2  -5  -9    1.01    0.75
  -2  -5  -9    0.50    0.71
  -3  -5  -8    9.31    1.31
  -3  -5  -8    8.71    1.46
  -3  -5  -8    8.62    0.97
  -3   4  14    0.47    0.89
   3  -4 -14    1.68    1.10
   3  -4 -14    1.14    0.71
   3  -4 -14   -0.30    0.65
  -2   4  13   11.18    1.07
   2  -4 -13   11.88    1.02
   2  -4 -13   10.59    1.15
   2  -4 -13    9.93    1.10
  -1   4  12   13.36    1.03
  -1   4  12    9.76    0.95
  -1   4  12    9.76    0.90
   1  -4 -12   12.49    1.49
   1  -4 -12    8.55    0.88
   0   4  11   18.61    1.00
   0   4  11   18.08    0.94
   0   4  11   19.16    0.82
   0  -4 -11   19.67    1.05
   0  -4 -11   18.65    0.99
   0  -4 -11   18.51    1.09
   1   4  10   11.23    0.70
   1   4  10   14.51    0.71
  -1  -4 -10   14.11    1.03
  -1  -4 -10   14.36    1.07
  -1  -4 -10   16.19    0.91
  -2  -4  -9    0.18    0.64
  -2  -4  -9    0.60    0.63
  -2  -4  -9    0.69    0.50
  -3  -4  -8    8.07    1.22
  -3  -4  -8    6.71    0.77
  -3  -4  -8    7.90    0.97
  -4  -4  -7   -1.83    1.24
  -4  -4  -7    1.58    1.29
  -3   3  14    4.44    0.96
   3  -3 -14    3.25    1.09
   3  -3 -14    2.71    0.77
   3  -3 -14    1.67    0.97
  -2   3  13   15.90    1.16
   2  -3 -13   18.05    1.38
  -1   3  12   10.77    0.87
  -1   3  12    9.60    0.83
  -1   3  12    9.94    0.90
   1  -3 -12   10.97    0.86
   1  -3 -12    9.21    0.96
   0   3  11   21.92    0.86
   0   3  11   22.67    1.14
   0   3  11   23.50    0.92
   0  -3 -11   21.17    1.07
   0  -3 -11   24.27    1.03
   0  -3 -11   24.84    1.11
   1   3  10   24.99    0.70
   1   3  10   22.13    0.71
   1   3  10   21.67    0.66
  -1  -3 -10   24.64    1.13
  -1  -3 -10   24.48    1.06
  -2  -3  -9    2.97    0.62
  -2  -3  -9    3.40    0.53
  -2  -3  -9    3.28    0.61
  -3  -3  -8   10.42    1.16
  -3  -3  -8   11.47    1.20
  -3  -3  -8   10.20    0.88
  -4  -3  -7   -0.55    1.03
  -4  -3  -7   -0.67    1.16
   4  -2 -15    9.39    1.70
  -3   2  14    0.82    0.82
   3  -2 -14   -1.72    0.88
   3  -2 -14    0.01    0.70
   3  -2 -14   -0.15    0.86
  -2   2  13   30.96    1.35
  -2   2  13   31.03    1.48
   2  -2 -13   29.47    1.52
  -1   2  12  104.88    2.32
  -1   2  12  103.76    2.21
  -1   2  12  108.60    2.34
   1  -2 -12  102.12    2.42
   1  -2 -12  106.78    2.34
   0   2  11    4.93    0.50
   0   2  11    6.16    0.62
   0   2  11    5.63    0.56
   0  -2 -11    5.84    0.62
   0  -2 -11    5.17    0.61
   1   2  10   24.02    0.77
  -1  -2 -10   25.93    1.12
  -1  -2 -10   25.64    1.00
  -1  -2 -10   25.90    0.91
  -2  -2  -9    2.06    0.42
  -2  -2  -9    1.63    0.48
  -2  -2  -9    1.39    0.59
  -3  -2  -8   12.10    1.39
  -3  -2  -8    9.63    0.75
  -3  -2  -8   13.22    1.02
  -4  -2  -7   -0.31    1.10
  -4  -2  -7    0.23    0.86
   4  -1 -15    7.05    1.63
  -3   1  14    1.77    0.83
   3  -1 -14    0.77    0.93
   3  -1 -14    1.65    0.75
   3  -1 -14    1.65    0.89
  -2   1  13   32.78    1.37
  -2   1  13   34.30    1.45
   2  -1 -13   31.77    1.56
   2  -1 -13   32.08    1.34
  -1   1  12    7.11    0.70
  -1   1  12    6.71    0.74
  -1   1  12    6.22    0.74
   1  -1 -12    6.56    0.71
   1  -1 -12    6.33    0.70
   0   1  11   11.14    0.67
   0   1  11   12.67    0.68
   0   1  11   11.89    0.68
   0  -1 -11   12.99    0.82
   1   1  10   16.32    0.71
  -1  -1 -10   18.57    0.72
  -1  -1 -10   17.54    0.75
  -1  -1 -10   18.58    0.96
  -1  -1 -10   17.07    0.80
  -2  -1  -9    4.00    0.65
  -2  -1  -9    5.04    0.50
  -2  -1  -9    4.60    0.43
  -2  -1  -9    4.38    0.48
  -3  -1  -8   12.64    0.80
  -3  -1  -8   15.28    1.27
  -3  -1  -8   12.16    0.65
  -3  -1  -8   13.29    0.69
  -4  -1  -7    0.18    0.68
  -4  -1  -7   -0.18    1.03
  -4  -1  -7    0.69    0.71
   4   0 -15    6.55    1.56
  -3   0  14   -0.83    0.74
   3   0 -14   -0.89    0.88
   3   0 -14    1.25    0.73
   3   0 -14    2.34    0.91
  -2   0  13   12.04    1.00
  -2   0  13   13.63    1.05
   2   0 -13   11.48    0.95
   2   0 -13   13.57    1.55
  -1   0  12    7.99    0.73
  -1   0  12    7.20    0.73
  -1   0  12    7.66    0.73
   1   0 -12    7.40    0.71
   1   0 -12    6.71    0.79
   0   0  11   11.05    0.64
   0   0  11   11.40    0.66
   0   0  11   10.46    0.60
   0   0 -11   11.83    0.69
   0   0 -11   10.84    0.76
   0   0 -11   10.45    0.72
   1   0  10   15.73    0.74
  -1   0 -10   14.67    0.66
  -1   0 -10   14.43    0.68
  -1   0 -10   14.11    0.70
  -2   0  -9   17.93    0.72
  -2   0  -9   17.71    0.62
  -2   0  -9   17.52    0.68
  -2   0  -9   17.76    1.05
  -3   0  -8   12.92    0.83
  -3   0  -8   13.51    1.17
  -4   0  -7    0.50    0.97
  -4   0  -7   -0.09    0.72
   4   1 -15    5.98    1.62
  -3  -1  14    3.86    0.91
   3   1 -14    3.45    0.84
   3   1 -14    2.48    0.92
   3   1 -14    1.99    0.97
  -2  -1  13   13.27    1.05
   2   1 -13   12.27    0.92
   2   1 -13   12.59    1.50
   2   1 -13   10.54    0.91
  -1  -1  12    9.79    0.77
  -1  -1  12   11.90    0.81
  -1  -1  12   11.26    0.81
   1   1 -12   10.39    0.74
   1   1 -12   11.76    0.88
   0  -1  11   12.29    0.62
   0  -1  11   13.21    0.71
   0  -1  11   13.27    0.67
   0   1 -11   13.32    0.78
   0   1 -11   12.35    0.72
   0   1 -11   13.62    0.77
   1  -1  10   13.08    0.74
  -1   1 -10   12.95    0.61
  -1   1 -10   11.74    0.63
  -1   1 -10   13.07    0.69
  -2   1  -9    1.62    0.28
  -2   1  -9    1.57    0.37
  -2   1  -9    1.45    0.29
  -2   1  -9    0.73    0.46
  -3   1  -8   13.44    1.11
  -3   1  -8   14.94    0.96
  -4   1  -7    0.92    0.79
  -4   1  -7   -0.04    0.91
   4   2 -15    3.15    1.63
  -3  -2  14    0.87    0.83
   3   2 -14   -1.16    0.96
   3   2 -14    1.52    0.91
  -2  -2  13   20.63    1.23
   2   2 -13   20.99    1.10
   2   2 -13   23.95    1.27
   2   2 -13   22.36    1.39
  -1  -2  12   11.38    0.83
  -1  -2  12   11.58    0.80
  -1  -2  12   11.53    0.83
   1   2 -12   10.62    0.86
   1   2 -12   10.12    0.77
   1   2 -12   10.85    0.94
   0  -2  11   19.89    0.76
   0  -2  11   18.50    0.97
   0  -2  11   20.05    0.75
   0   2 -11   19.38    0.84
   0   2 -11   19.59    0.90
   0   2 -11   20.29    0.88
   1  -2  10   31.50    1.10
  -1   2 -10   31.32    0.92
  -1   2 -10   31.64    1.04
  -1   2 -10   31.64    0.91
  -2   2  -9    4.88    0.43
  -2   2  -9    6.21    0.65
  -2   2  -9    5.21    0.42
  -3   2  -8   17.60    1.07
  -3   2  -8   15.44    1.06
  -4   2  -7    0.38    0.87
  -4   2  -7    1.35    0.93
  -3  -3  14    0.77    0.93
   3   3 -14    1.10    1.03
   3   3 -14   -0.59    0.86
   3   3 -14    0.55    0.91
  -2  -3  13    9.98    1.15
   2   3 -13    8.59    0.92
   2   3 -13   10.93    1.01
  -1  -3  12    7.81    0.73
  -1  -3  12    9.10    0.85
  -1  -3  12    7.72    0.78
   1   3 -12    7.63    0.74
   1   3 -12    9.46    0.91
   1   3 -12    6.20    0.69
   1   3 -12    7.35    0.71
   0  -3  11   16.38    0.73
   0  -3  11   16.48    0.84
   0   3 -11   18.25    0.92
   0   3 -11   18.09    0.88
   1  -3  10   17.79    1.09
  -1   3 -10   18.91    0.73
  -1   3 -10   19.29    0.76
  -1   3 -10   18.50    0.86
  -2   3  -9    6.27    0.47
  -2   3  -9    6.13    0.71
  -3   3  -8   13.50    1.06
  -3   3  -8   13.84    1.09
  -4   3  -7    0.74    0.88
  -4   3  -7    1.44    0.83
  -3  -4  14    2.49    1.00
   3   4 -14   -1.11    1.14
   3   4 -14    0.76    0.92
   3   4 -14    0.61    1.04
  -2  -4  13   30.55    1.53
   2   4 -13   29.31    1.59
   2   4 -13   28.14    1.51
  -1  -4  12   14.00    1.01
  -1  -4  12   13.02    0.88
  -1  -4  12   13.89    0.87
   1   4 -12   14.34    0.86
   1   4 -12   12.88    0.95
   1   4 -12   13.32    0.92
   1   4 -12   13.46    1.01
   0  -4  11   24.22    0.83
   0  -4  11   23.61    0.90
   0  -4  11   24.73    1.00
   0   4 -11   24.41    1.07
   0   4 -11   23.66    0.97
   0   4 -11   24.60    1.02
   1  -4  10   40.15    1.35
  -1   4 -10   38.35    1.10
  -1   4 -10   39.59    1.10
  -1   4 -10   39.23    1.26
  -2   4  -9    3.31    0.54
  -2   4  -9    2.85    0.38
  -3   4  -8   16.49    1.24
  -3   4  -8   16.80    1.15
  -4   4  -7    0.80    0.82
  -4   4  -7    1.08    0.94
  -3  -5  14    2.39    1.15
   3   5 -14    0.99    1.18
  -2  -5  13    7.14    0.95
  -2  -5  13    8.24    1.03
   2   5 -13    7.48    0.93
   2   5 -13    8.19    1.12
   2   5 -13    6.79    0.99
  -1  -5  12    3.53    0.68
   1   5 -12    2.64    0.64
   1   5 -12    2.88    0.58
   1   5 -12    3.06    0.55
   1   5 -12    2.80    0.59
   0  -5  11    6.77    0.75
   0  -5  11    7.27    0.63
   0  -5  11    7.76    0.78
   0   5 -11    8.02    0.75
   0   5 -11    9.02    0.71
   0   5 -11    7.28    0.78
   0   5 -11    7.61    0.77
   1  -5  10   43.22    1.48
  -1   5 -10   42.21    1.23
  -1   5 -10   43.50    1.22
  -1   5 -10   44.68    1.40
  -2   5  -9    3.57    0.44
  -2   5  -9    3.11    0.41
  -2   5  -9    3.09    0.59
  -3   5  -8   11.42    0.67
  -3   5  -8   14.17    1.10
  -3   5  -8   13.26    1.28
  -3   5  -8   13.40    0.74
  -4   5  -7    0.16    0.56
  -4   5  -7    1.54    0.80
  -4   5  -7    0.51    1.02
  -3  -6  14    0.50    1.17
   3   6 -14   -0.08    1.24
  -2  -6  13   16.23    1.63
  -2  -6  13   14.66    1.27
   2   6 -13   18.41    1.67
   2   6 -13   18.51    1.40
   2   6 -13   17.09    1.40
   2   6 -13   16.59    1.47
  -1  -6  12   11.58    1.17
  -1  -6  12   11.58    0.89
   1   6 -12   10.36    1.03
   1   6 -12   12.27    1.12
   0  -6  11    4.05    0.62
   0  -6  11    4.25    0.53
   0   6 -11    4.06    0.61
   0   6 -11    2.85    0.55
   0   6 -11    3.74    0.55
   0   6 -11    3.31    0.62
   1  -6  10    4.86    0.52
   1  -6  10    7.33    0.89
   1  -6  10    5.72    0.46
  -1   6 -10    7.28    0.72
  -1   6 -10    6.03    0.62
  -1   6 -10    6.64    0.80
  -1   6 -10    6.70    0.77
  -2   6  -9    8.26    1.54
  -2   6  -9    6.73    0.70
  -2   6  -9    7.73    0.69
  -3   6  -8   13.61    0.91
  -3   6  -8   16.59    1.40
  -3   6  -8   14.09    0.83
  -4   6  -7   -0.30    0.80
  -4   6  -7    0.76    0.67
  -4   6  -7    0.90    1.10
  -3  -7  14    0.71    1.35
   3   7 -14   -0.99    1.43
  -2  -7  13    6.56    1.03
  -2  -7  13    9.64    1.20
   2   7 -13   11.16    1.45
   2   7 -13    7.24    1.10
  -1  -7  12    3.52    0.71
  -1  -7  12    4.33    0.83
   1   7 -12    2.59    0.71
   1   7 -12    3.42    0.79
   0  -7  11    9.14    0.85
   0  -7  11    9.82    0.85
   0   7 -11    9.06    0.91
   0   7 -11    8.66    0.94
   0   7 -11    6.63    0.70
   0   7 -11    8.55    0.93
   1  -7  10   10.75    0.73
   1  -7  10   11.95    0.67
  -1   7 -10   11.12    0.93
  -1   7 -10   12.35    0.90
  -1   7 -10   11.18    0.88
  -1   7 -10   10.38    1.03
  -2   7  -9    6.52    0.77
  -2   7  -9    6.32    0.71
  -2   7  -9    5.23    0.81
  -2   7  -9    6.59    0.67
  -3   7  -8   11.76    0.98
  -3   7  -8   14.30    1.00
  -3   7  -8   13.62    1.50
  -4   7  -7    1.82    1.25
  -4   7  -7    0.90    1.24
   3   8 -14   -1.11    1.66
  -2  -8  13   21.69    1.96
   2   8 -13   18.37    2.11
   2   8 -13   15.95    1.78
  -1  -8  12    0.93    0.70
  -1  -8  12    0.81    0.76
  -1  -8  12    0.81    0.75
   1   8 -12   -0.68    0.82
   1   8 -12    0.63    0.73
   1   8 -12    0.76    0.86
   0  -8  11   20.45    1.28
   0  -8  11   21.82    1.16
   0   8 -11   19.52    1.30
   0   8 -11   17.49    1.24
   0   8 -11   19.62    1.20
   0   8 -11   19.47    1.27
   1  -8  10   20.96    1.01
   1  -8  10   23.02    0.98
  -1   8 -10   21.55    1.24
  -1   8 -10   19.49    1.17
  -1   8 -10   20.41    1.16
  -1   8 -10   19.90    1.24
  -2   8  -9    7.76    0.75
  -2   8  -9    8.85    0.82
  -2   8  -9    6.88    0.82
  -2   8  -9    9.02    1.12
  -3   8  -8   31.39    1.36
  -3   8  -8   32.50    1.95
  -3   8  -8   31.40    1.50
  -3   8  -8   30.91    1.36
  -4   8  -7    0.64    1.30
  -2  -9  13    4.19    1.34
   2   9 -13    4.99    1.68
   2   9 -13    2.23    1.19
  -1  -9  12    0.78    0.95
  -1  -9  12   -0.21    0.88
  -1  -9  12   -1.18    0.78
   1   9 -12   -0.48    0.81
   1   9 -12   -1.23    1.00
   0  -9  11   13.09    1.32
   0  -9  11   10.26    1.14
   0  -9  11   11.59    1.19
   0   9 -11   14.57    1.22
   0   9 -11   10.38    1.23
   0   9 -11   10.64    1.22
   0   9 -11   12.95    1.32
   1  -9  10    4.07    0.68
   1  -9  10    3.27    0.73
  -1   9 -10    2.33    0.76
  -1   9 -10    3.54    0.76
  -1   9 -10    2.61    0.76
  -1   9 -10    4.03    0.75
  -2   9  -9    5.31    0.94
  -2   9  -9    3.85    0.76
  -2   9  -9    4.48    0.83
  -2   9  -9    4.00    0.74
  -3   9  -8    7.07    1.11
  -3   9  -8    4.96    0.92
  -3   9  -8    4.99    0.80
  -3   9  -8    5.72    1.25
  -2 -10  13   12.71    1.72
   2  10 -13   14.02    1.71
   2  10 -13   15.36    2.10
  -1 -10  12    5.70    1.27
   1  10 -12    2.64    1.01
   1  10 -12    3.30    1.28
   0 -10  11   19.11    1.61
   0  10 -11   18.35    1.48
   0  10 -11   17.32    1.59
   0  10 -11   16.02    1.42
   1 -10  10   11.17    0.98
   1 -10  10    9.75    0.98
  -1  10 -10   11.93    1.35
  -1  10 -10    8.95    1.09
  -1  10 -10    8.62    0.95
  -1  10 -10    9.62    1.09
  -2  10  -9    2.37    0.80
  -2  10  -9    2.30    0.78
  -2  10  -9    2.46    0.99
  -2  10  -9    3.90    1.07
  -3  10  -8   12.11    1.25
  -3  10  -8   17.00    2.08
  -3  10  -8   12.26    1.43
  -1 -11  12    0.31    1.26
   1  11 -12   -1.21    1.11
   1  11 -12   -1.44    1.39
   0 -11  11    5.33    1.14
   0 -11  11    5.54    1.21
   0  11 -11    6.53    1.26
   0  11 -11    5.37    1.11
   1 -11  10    3.78    0.95
   1 -11  10    3.71    0.98
  -1  11 -10    5.29    1.15
  -1  11 -10    4.03    0.94
  -1  11 -10    2.11    0.99
  -2  11  -9    3.91    0.98
  -2  11  -9    2.56    1.04
  -2  11  -9    4.33    0.96
  -3  11  -8    1.84    1.27
  -1 -12  12    6.56    1.75
   1  12 -12    6.87    1.90
   0 -12  11    4.41    1.38
   0  12 -11    4.55    1.40
   0  12 -11    6.90    1.35
   1 -12  10   10.11    2.07
   1 -12  10    9.36    1.27
  -1  12 -10   11.83    1.43
  -1  12 -10    8.80    1.38
  -2  12  -9    4.47    1.17
  -2  12  -9    2.16    1.21
  -1  10  13    4.45    1.27
  -1  10  13    3.56    1.21
   1 -10 -13    2.29    1.26
   0  10  12    0.25    1.10
   0 -10 -12   -0.54    1.21
   0 -10 -12    2.20    2.38
   1  10  11    4.75    1.33
  -1 -10 -11    0.64    1.61
   2  -9 -14   -2.34    2.43
   2  -9 -14    0.16    1.25
  -1   9  13   19.77    1.81
   1  -9 -13   17.53    1.79
   1  -9 -13   18.79    1.88
   0   9  12    0.76    0.61
   0   9  12   -1.50    0.88
   0   9  12    0.73    1.31
   0  -9 -12    1.16    1.18
   0  -9 -12   -0.12    0.97
   1   9  11   30.48    1.97
  -1  -9 -11   26.91    2.18
  -1  -9 -11   30.08    2.46
  -2  -9 -10    2.57    1.66
  -2   8  14   -0.03    1.08
   2  -8 -14    1.08    0.99
   2  -8 -14    1.96    1.45
  -1   8  13    2.65    0.93
  -1   8  13    2.88    0.94
   1  -8 -13    1.24    1.09
   1  -8 -13    4.11    0.99
   0   8  12   -0.36    0.57
   0   8  12   -0.10    0.57
   0   8  12   -0.06    0.77
   0   8  12    0.77    0.98
   0  -8 -12    0.56    1.01
   0  -8 -12    0.50    0.87
   1   8  11    1.78    0.80
   1   8  11    1.91    0.86
  -1  -8 -11    3.04    1.01
  -1  -8 -11    0.04    1.05
  -2  -8 -10    0.47    1.16
  -2  -8 -10    0.39    1.31
  -2   7  14    0.94    0.96
  -2   7  14    0.25    1.07
   2  -7 -14    1.94    0.89
   2  -7 -14    1.67    1.22
  -1   7  13   17.95    1.70
  -1   7  13   19.23    1.40
  -1   7  13   17.40    1.41
   1  -7 -13   23.05    1.50
   1  -7 -13   23.13    1.85
   0   7  12   -0.13    0.66
   0   7  12    0.73    0.49
   0  -7 -12   -0.04    0.74
   0  -7 -12    1.77    0.76
   0  -7 -12    2.40    0.87
   1   7  11   23.00    1.32
   1   7  11   21.81    1.28
  -1  -7 -11   20.19    1.75
  -1  -7 -11   21.62    1.56
  -1  -7 -11   22.06    1.69
  -2  -7 -10    3.42    1.17
  -2  -7 -10    2.87    1.05
  -2  -7 -10    1.39    0.99
  -3  -7  -9    8.84    1.72
   3  -6 -15    2.53    1.48
  -2   6  14    0.35    0.93
  -2   6  14    1.95    0.85
   2  -6 -14   -1.36    1.00
   2  -6 -14   -0.53    0.72
  -1   6  13    3.85    0.80
  -1   6  13    3.54    0.76
  -1   6  13    5.25    0.93
   1  -6 -13    1.91    0.78
   1  -6 -13    4.13    0.97
   0   6  12    0.45    0.56
   0   6  12    0.72    0.48
   0   6  12    1.36    0.64
   0  -6 -12    0.74    0.68
   0  -6 -12   -0.19    0.60
   0  -6 -12   -0.19    0.77
   1   6  11    1.34    0.60
  -1  -6 -11    2.55    0.82
  -1  -6 -11    2.43    0.72
  -1  -6 -11    2.92    0.85
  -2  -6 -10    0.34    0.92
  -2  -6 -10    0.39    0.92
  -2  -6 -10   -0.81    0.76
  -3  -6  -9    1.57    1.32
  -3  -6  -9    1.38    1.06
  -3  -6  -9   -0.40    1.21
  -3   5  15    8.67    1.23
   3  -5 -15    9.72    1.59
   3  -5 -15    9.00    1.01
  -2   5  14    2.68    0.89
  -2   5  14    2.43    0.84
   2  -5 -14    2.99    1.03
   2  -5 -14    2.51    1.02
   2  -5 -14    3.13    0.73
  -1   5  13   32.88    1.41
  -1   5  13   30.28    1.40
   1  -5 -13   30.25    1.36
   1  -5 -13   31.11    1.66
   0   5  12   -0.49    0.50
   0   5  12   -0.02    0.40
   0   5  12    0.34    0.58
   0  -5 -12   -0.10    0.50
   0  -5 -12   -0.59    0.61
   0  -5 -12    0.17    0.65
   1   5  11   24.99    1.03
   1   5  11   26.50    1.03
  -1  -5 -11   25.74    1.26
  -1  -5 -11   29.26    1.48
  -2  -5 -10    4.18    0.95
  -2  -5 -10    2.28    0.71
  -3  -5  -9    6.01    1.36
  -3  -5  -9    7.35    1.00
  -3  -5  -9    8.09    1.20
  -3   4  15   -1.19    0.89
   3  -4 -15    2.32    0.90
   3  -4 -15    0.83    1.20
   3  -4 -15    0.29    0.79
  -2   4  14    0.74    0.68
  -2   4  14   -0.43    0.77
  -2   4  14   -0.79    0.79
   2  -4 -14    0.14    0.73
   2  -4 -14    1.03    0.86
   2  -4 -14    0.72    0.63
  -1   4  13   -0.82    0.55
  -1   4  13    0.12    0.49
  -1   4  13   -0.48    0.96
   1  -4 -13   -0.66    0.50
   1  -4 -13   -0.86    0.57
   0   4  12    3.50    0.59
   0   4  12    3.18    0.50
   0   4  12    3.01    0.57
   0  -4 -12    2.91    0.64
   0  -4 -12    3.96    0.68
   0  -4 -12    3.91    0.64
   1   4  11    1.00    0.41
   1   4  11    1.76    0.29
   1   4  11    1.22    0.40
  -1  -4 -11    2.36    0.65
  -1  -4 -11    0.40    0.56
  -1  -4 -11    1.41    0.53
  -2  -4 -10    0.34    0.68
  -2  -4 -10    0.01    0.65
  -2  -4 -10   -0.92    0.53
  -3  -4  -9    0.78    0.96
  -3  -4  -9    1.16    0.91
  -3  -4  -9    0.76    0.72
  -4  -4  -8   -0.96    1.40
  -3   3  15    8.56    1.20
   3  -3 -15   12.84    1.40
   3  -3 -15   12.59    1.54
  -2   3  14    8.56    0.91
  -2   3  14    8.73    1.00
   2  -3 -14   10.10    1.01
   2  -3 -14    7.19    0.99
  -1   3  13   16.86    1.03
  -1   3  13   17.35    1.07
  -1   3  13   17.05    1.15
   1  -3 -13   15.69    1.19
   0   3  12    0.38    0.37
   0   3  12    0.59    0.45
   0   3  12    0.52    0.41
   0  -3 -12    0.23    0.51
   0  -3 -12    0.19    0.45
   0  -3 -12    0.67    0.44
   1   3  11   46.04    1.10
   1   3  11   45.50    1.06
   1   3  11   57.08    1.10
  -1  -3 -11   54.67    1.47
  -1  -3 -11   54.58    1.70
  -1  -3 -11   54.34    1.59
  -2  -3 -10    5.62    0.90
  -2  -3 -10    5.23    0.73
  -3  -3  -9   15.48    1.66
  -3  -3  -9   15.56    1.33
  -4  -3  -8    5.30    1.44
  -3   2  15    1.79    0.95
   3  -2 -15   -0.81    1.01
   3  -2 -15   -0.49    0.77
  -2   2  14    3.04    0.72
   2  -2 -14    2.50    0.65
   2  -2 -14    2.16    0.80
  -1   2  13   15.29    1.01
  -1   2  13   14.26    0.92
  -1   2  13   15.48    0.97
   1  -2 -13   12.10    0.94
   1  -2 -13   14.01    1.09
   0   2  12   13.16    0.77
   0   2  12   12.30    0.80
   0   2  12   11.55    0.75
   0  -2 -12   11.56    0.93
   0  -2 -12   11.52    0.83
   1   2  11    1.07    0.34
  -1  -2 -11    1.45    0.52
  -1  -2 -11    1.77    0.52
  -1  -2 -11    2.29    0.50
  -2  -2 -10    0.34    0.55
  -2  -2 -10    1.34    0.51
  -2  -2 -10    1.70    0.47
  -3  -2  -9    3.72    0.56
  -3  -2  -9    3.30    0.72
  -3  -2  -9    5.07    1.01
  -4  -2  -8    0.40    1.23
  -3   1  15   20.93    1.63
   3  -1 -15   16.86    1.86
   3  -1 -15   15.12    1.71
   3  -1 -15   21.47    1.56
  -2   1  14    6.23    0.80
   2  -1 -14    6.88    0.97
  -1   1  13   30.72    1.24
  -1   1  13   30.66    1.18
  -1   1  13   30.08    1.21
   1  -1 -13   28.31    1.30
   1  -1 -13   28.46    1.19
   0   1  12    1.50    0.41
   0   1  12    1.62    0.42
   0   1  12    1.66    0.41
   0  -1 -12    2.26    0.50
   0  -1 -12    1.51    0.42
   1   1  11   54.29    1.35
  -1  -1 -11   58.32    1.68
  -1  -1 -11   58.16    1.42
  -1  -1 -11   58.78    1.49
  -1  -1 -11   59.96    1.37
  -2  -1 -10   25.29    0.87
  -2  -1 -10   23.48    0.78
  -2  -1 -10   22.45    1.19
  -2  -1 -10   25.21    0.98
  -3  -1  -9   10.19    1.06
  -3  -1  -9    8.91    0.68
  -3  -1  -9    8.65    0.88
  -3  -1  -9   11.27    0.70
  -4  -1  -8    3.89    1.25
  -3   0  15   -0.78    0.80
   3   0 -15   -1.31    0.82
   3   0 -15    1.32    1.00
   3   0 -15   -1.19    1.04
  -2   0  14    0.56    0.61
   2   0 -14   -0.06    0.67
  -1   0  13    1.77    0.48
  -1   0  13    1.59    0.52
  -1   0  13    1.17    0.49
   1   0 -13    1.71    0.55
   1   0 -13    1.30    0.41
   0   0  12    0.38    0.32
   0   0  12    0.05    0.34
   0   0  12    0.37    0.35
   0   0 -12    0.43    0.45
   0   0 -12    0.08    0.35
   0   0 -12    0.48    0.42
   1   0  11   -0.10    0.37
  -1   0 -11    0.02    0.32
  -1   0 -11    0.31    0.37
  -1   0 -11    0.17    0.33
  -2   0 -10   -0.51    0.52
  -2   0 -10    0.41    0.37
  -2   0 -10    0.18    0.37
  -2   0 -10    0.50    0.32
  -3   0  -9    0.93    0.33
  -3   0  -9    0.85    0.44
  -3   0  -9    0.77    0.46
  -3   0  -9    2.28    0.74
  -4   0  -8   -0.51    0.74
  -4   0  -8    1.25    1.09
  -3  -1  15   20.92    1.66
   3   1 -15   14.87    1.49
   3   1 -15   14.89    1.63
  -2  -1  14   13.43    1.14
   2   1 -14   14.46    1.05
   2   1 -14   13.44    1.28
  -1  -1  13   61.66    1.72
  -1  -1  13   59.92    1.63
  -1  -1  13   60.60    1.66
   1   1 -13   58.81    1.65
   1   1 -13   62.53    1.80
   0  -1  12    3.26    0.43
   0  -1  12    2.88    0.42
   0   1 -12    3.83    0.54
   0   1 -12    3.71    0.53
   0   1 -12    3.74    0.52
   1  -1  11   49.44    1.39
  -1   1 -11   49.24    1.22
  -1   1 -11   48.08    1.25
  -1   1 -11   49.05    1.31
  -2   1 -10    4.89    0.54
  -2   1 -10    5.64    0.65
  -2   1 -10    5.77    0.52
  -2   1 -10    6.54    0.75
  -3   1  -9   26.17    1.12
  -3   1  -9   24.74    1.39
  -4   1  -8   10.98    1.40
  -4   1  -8    7.77    1.18
  -3  -2  15    1.33    0.98
   3   2 -15   -0.09    1.12
   3   2 -15   -0.10    0.88
  -2  -2  14    0.57    0.64
   2   2 -14    0.15    0.49
   2   2 -14   -0.58    0.66
  -1  -2  13   -0.33    0.44
  -1  -2  13   -0.23    0.40
  -1  -2  13    0.14    0.45
   1   2 -13   -0.60    0.45
   1   2 -13   -0.13    0.44
   1   2 -13   -0.57    0.37
   0  -2  12    0.46    0.35
   0  -2  12    0.58    0.34
   0  -2  12    0.57    0.38
   0   2 -12    0.45    0.40
   0   2 -12    0.48    0.38
   0   2 -12    0.26    0.34
   1  -2  11    0.25    0.40
  -1   2 -11    0.33    0.33
  -1   2 -11   -0.11    0.35
  -1   2 -11    0.03    0.30
  -2   2 -10    0.11    0.39
  -2   2 -10    0.11    0.32
  -2   2 -10   -0.48    0.27
  -3   2  -9   -0.91    0.54
  -3   2  -9    0.79    0.55
  -4   2  -8   -0.16    0.93
  -4   2  -8    0.84    0.98
  -3  -3  15   10.79    1.27
   3   3 -15   13.05    1.43
   3   3 -15   15.66    1.69
  -2  -3  14    8.99    1.15
  -2  -3  14   12.17    1.25
   2   3 -14   11.86    1.27
   2   3 -14   12.09    1.24
   2   3 -14   13.99    1.17
  -1  -3  13   52.69    1.59
  -1  -3  13   56.81    1.59
  -1  -3  13   56.22    1.64
   1   3 -13   53.58    1.67
   1   3 -13   51.86    1.59
   1   3 -13   55.54    1.81
   0  -3  12    1.72    0.40
   0  -3  12    1.40    0.42
   0   3 -12    1.48    0.41
   0   3 -12    1.99    0.52
   0   3 -12    1.69    0.46
   1  -3  11   77.20    1.92
  -1   3 -11   74.29    1.62
  -1   3 -11   74.05    1.62
  -1   3 -11   76.78    1.81
   2  -3  10    1.74    0.63
  -2   3 -10    1.33    0.34
  -2   3 -10    1.03    0.34
  -2   3 -10    1.32    0.48
  -3   3  -9   29.86    1.39
  -3   3  -9   27.80    1.39
  -4   3  -8    5.60    1.06
  -4   3  -8    4.89    1.09
  -3  -4  15    0.77    1.10
   3   4 -15    0.81    1.14
   3   4 -15    0.52    1.18
  -2  -4  14    5.26    0.81
  -2  -4  14    7.11    0.97
   2   4 -14    3.91    0.90
  -1  -4  13    1.16    0.53
  -1  -4  13    0.99    0.56
   1   4 -13    1.93    0.47
   1   4 -13    2.50    0.78
   1   4 -13    1.81    0.53
   1   4 -13    1.64    0.95
   0  -4  12    1.13    0.40
   0  -4  12    0.76    0.43
   0  -4  12    0.69    0.35
   0   4 -12    1.41    0.55
   0   4 -12    0.44    0.39
   0   4 -12    0.87    0.45
   1  -4  11    0.40    0.46
  -1   4 -11    0.82    0.37
  -1   4 -11    0.97    0.39
  -1   4 -11    0.76    0.45
   2  -4  10    0.42    0.64
  -2   4 -10    1.23    0.50
  -2   4 -10    0.24    0.36
  -2   4 -10   -0.43    0.31
  -3   4  -9    1.42    0.67
  -3   4  -9    1.62    0.76
  -3   4  -9    0.42    0.34
  -3   4  -9    1.04    0.35
  -4   4  -8    0.24    1.07
  -4   4  -8    1.57    0.89
  -3  -5  15   17.97    2.12
   3   5 -15   11.91    1.62
  -2  -5  14   13.29    1.29
  -2  -5  14   14.58    1.55
   2   5 -14   13.83    1.33
   2   5 -14   13.30    1.44
   2   5 -14   16.09    1.63
   2   5 -14   13.60    1.33
  -1  -5  13   47.17    1.66
   1   5 -13   47.19    1.75
   1   5 -13   43.48    1.62
   0  -5  12    5.10    0.58
   0  -5  12    4.13    0.58
   0   5 -12    5.19    0.63
   0   5 -12    6.33    0.69
   0   5 -12    5.68    0.73
   0   5 -12    6.36    0.73
   1  -5  11   89.41    2.27
  -1   5 -11   89.29    2.15
  -1   5 -11   95.38    1.97
   2  -5  10    4.44    0.87
  -2   5 -10    4.77    0.54
  -2   5 -10    4.51    0.74
  -3   5  -9   20.79    0.82
  -3   5  -9   24.43    1.49
  -3   5  -9   23.64    1.32
  -3   5  -9   21.78    0.89
  -4   5  -8    5.84    1.30
  -4   5  -8    3.75    0.97
  -3  -6  15    2.48    1.40
   3   6 -15    1.01    1.36
  -2  -6  14    0.80    0.96
   2   6 -14   -0.61    1.29
   2   6 -14    0.85    0.73
   2   6 -14   -0.23    0.89
   2   6 -14   -0.12    0.98
  -1  -6  13    0.56    0.54
   1   6 -13    1.10    0.60
   1   6 -13   -0.67    0.86
   1   6 -13    2.08    0.72
   0  -6  12    1.69    0.53
   0  -6  12    1.88    0.47
   0   6 -12    2.16    0.59
   0   6 -12    1.48    0.56
   0   6 -12    0.94    0.44
   0   6 -12    0.76    0.84
   1  -6  11   18.19    1.24
   1  -6  11   18.14    0.64
  -1   6 -11   18.80    1.13
  -1   6 -11   21.66    1.04
  -1   6 -11   19.96    1.03
   2  -6  10    0.16    0.71
  -2   6 -10   -0.31    0.45
  -2   6 -10   -0.06    0.54
  -3   6  -9    0.96    0.79
  -3   6  -9   -0.08    0.49
  -3   6  -9    0.52    0.54
  -4   6  -8   -0.21    1.21
  -4   6  -8    2.58    1.72
   3   7 -15    2.24    1.61
  -2  -7  14   13.38    1.42
   2   7 -14   14.04    1.65
   2   7 -14   11.94    1.30
  -1  -7  13   28.03    1.39
  -1  -7  13   28.89    1.65
   1   7 -13   27.17    1.48
   1   7 -13   27.94    1.64
   0  -7  12   11.84    0.95
   0  -7  12    9.72    1.06
   0   7 -12    9.23    1.07
   0   7 -12    8.37    0.94
   0   7 -12    8.17    0.97
   0   7 -12    9.89    1.02
   1  -7  11   29.67    0.86
   1  -7  11   27.45    0.92
  -1   7 -11   29.36    1.38
  -1   7 -11   28.65    1.23
  -1   7 -11   27.87    1.24
  -1   7 -11   28.64    1.26
  -2   7 -10    1.55    0.53
  -2   7 -10    1.62    0.50
  -2   7 -10    1.60    0.57
  -2   7 -10    0.72    0.67
  -3   7  -9   14.94    1.60
  -3   7  -9   14.01    1.12
  -3   7  -9   11.73    1.01
  -4   7  -8   -0.70    1.33
  -2  -8  14    0.42    1.13
   2   8 -14   -0.25    1.32
   2   8 -14   -2.12    1.00
  -1  -8  13   -0.69    0.74
  -1  -8  13   -0.49    0.81
  -1  -8  13    0.02    0.71
   1   8 -13    0.00    0.80
   1   8 -13   -0.96    0.72
   1   8 -13    0.88    0.72
   1   8 -13   -0.49    0.83
   0  -8  12    0.23    0.63
   0  -8  12    0.51    0.71
   0   8 -12    0.26    0.68
   0   8 -12    0.81    0.65
   0   8 -12    0.52    0.65
   0   8 -12    0.99    0.63
   1  -8  11    0.24    0.45
   1  -8  11    0.17    0.52
  -1   8 -11    0.72    0.62
  -1   8 -11    1.11    0.61
  -1   8 -11    0.89    0.63
  -1   8 -11    0.47    0.57
  -2   8 -10    1.81    0.57
  -2   8 -10    0.93    0.67
  -2   8 -10    0.73    0.73
  -2   8 -10    0.57    0.60
  -3   8  -9   -0.50    0.68
  -3   8  -9    0.83    0.83
  -3   8  -9    1.51    1.01
  -3   8  -9    0.07    0.70
  -2  -9  14    8.29    1.50
   2   9 -14    6.67    1.78
   2   9 -14    5.55    1.39
  -1  -9  13   28.05    1.91
  -1  -9  13   25.46    1.64
   1   9 -13   23.76    1.68
   1   9 -13   22.86    1.88
   0  -9  12    1.13    0.85
   0  -9  12    1.16    0.83
   0  -9  12    1.27    0.75
   0   9 -12    1.79    0.76
   0   9 -12    1.50    0.91
   0   9 -12    1.97    0.87
   0   9 -12    1.18    0.74
   1  -9  11   39.73    1.35
   1  -9  11   37.52    1.97
   1  -9  11   37.22    1.38
  -1   9 -11   37.36    1.71
  -1   9 -11   37.38    1.66
  -1   9 -11   39.04    1.65
  -1   9 -11   36.54    1.69
  -2   9 -10   -1.09    0.72
  -2   9 -10    1.13    0.69
  -2   9 -10    1.43    0.66
  -2   9 -10    0.74    0.82
  -3   9  -9   17.10    1.43
  -3   9  -9   16.63    1.50
  -3   9  -9   17.53    2.00
  -3   9  -9   15.75    1.67
   2  10 -14    2.18    1.91
  -1 -10  13   -0.14    1.14
   1  10 -13   -0.34    1.24
   1  10 -13    0.11    1.06
   0 -10  12    0.45    0.95
   0  10 -12   -0.84    0.96
   0  10 -12   -2.37    0.83
   1 -10  11    0.29    0.71
   1 -10  11   -2.30    0.74
  -1  10 -11    0.21    0.79
  -1  10 -11    0.10    0.79
  -1  10 -11    2.24    0.85
  -1  10 -11   -0.88    0.81
  -2  10 -10    1.56    0.81
  -2  10 -10    1.90    0.98
  -2  10 -10    1.67    1.01
  -2  10 -10    1.74    0.78
  -3  10  -9   -1.79    0.99
  -3  10  -9   -0.07    1.22
  -3  10  -9   -0.06    1.24
  -1 -11  13   12.53    1.62
   1  11 -13   10.79    1.58
   1  11 -13   11.37    1.80
   0 -11  12    1.42    1.12
   0 -11  12    0.03    1.12
   0  11 -12    0.65    1.13
   0  11 -12   -0.40    1.07
   1 -11  11   23.13    1.63
   1 -11  11   25.09    1.70
  -1  11 -11   22.24    1.83
  -1  11 -11   25.70    1.88
  -2  11 -10   -0.08    0.98
  -2  11 -10    3.12    0.96
   0 -12  12    2.27    1.33
   0  12 -12    0.68    1.36
   0  12 -12   -1.84    1.39
   1 -12  11   -0.25    2.10
  -1  12 -11    0.13    1.21
  -1  12 -11    0.82    1.26
  -1   9  14   -0.40    1.12
   1  -9 -14    0.84    1.13
   1  -9 -14    0.71    1.48
   0   9  13    2.52    1.10
   0  -9 -13    1.33    1.09
   0  -9 -13    1.57    1.34
   1   9  12    0.47    1.39
  -1  -9 -12    2.34    1.47
  -1  -9 -12    0.44    1.18
  -2   8  15    2.26    1.23
   2  -8 -15    3.34    1.14
   2  -8 -15    3.82    1.60
  -1   8  14   13.29    1.34
  -1   8  14    9.88    1.23
   1  -8 -14   15.58    1.75
   1  -8 -14   12.40    1.55
   0   8  13    8.70    1.02
   0   8  13    6.05    1.05
   0   8  13    8.20    0.84
   0   8  13    7.44    1.17
   0  -8 -13    7.11    1.15
   0  -8 -13    8.86    1.45
   1   8  12    1.94    0.94
   1   8  12    2.97    0.93
  -1  -8 -12    3.40    1.26
  -1  -8 -12    2.27    1.10
  -2  -8 -11    8.34    1.64
  -2  -8 -11   11.66    1.74
  -2   7  15    0.27    1.04
   2  -7 -15    1.25    0.96
   2  -7 -15    2.43    1.34
  -1   7  14    2.15    0.90
  -1   7  14    1.57    0.87
   1  -7 -14    2.12    0.91
   1  -7 -14    2.07    1.15
   0   7  13    0.88    0.57
   0   7  13   -0.13    0.74
   0  -7 -13    1.83    1.00
   0  -7 -13    2.19    0.86
   1   7  12    0.50    0.75
   1   7  12    0.81    0.71
  -1  -7 -12    1.77    1.07
  -1  -7 -12    1.29    0.87
  -1  -7 -12    0.57    0.93
  -2  -7 -11    2.23    1.28
  -2  -7 -11    1.25    1.19
  -2   6  15    4.91    1.03
  -2   6  15    3.65    1.20
   2  -6 -15    4.52    1.28
   2  -6 -15    3.03    0.92
  -1   6  14   15.63    1.29
  -1   6  14   19.22    1.60
  -1   6  14   16.45    1.36
   1  -6 -14   18.87    1.70
   1  -6 -14   13.25    1.37
   0   6  13   10.42    1.26
   0   6  13   10.54    0.91
   0   6  13   10.19    1.15
   0  -6 -13   10.67    1.05
   0  -6 -13   11.98    1.35
   0  -6 -13   11.37    1.26
   1   6  12    6.51    0.74
  -1  -6 -12    6.77    0.95
  -1  -6 -12    6.32    1.13
  -1  -6 -12    7.58    1.09
  -2  -6 -11   11.22    1.15
  -2  -6 -11   10.61    1.38
  -2  -6 -11    7.91    1.17
  -3  -6 -10    2.11    1.23
  -3  -6 -10    2.15    1.35
  -3  -6 -10    1.43    1.35
   3  -5 -16   -1.01    1.47
  -2   5  15   -2.33    0.95
  -2   5  15   -2.14    0.78
   2  -5 -15   -0.08    0.79
   2  -5 -15   -1.18    0.97
  -1   5  14    4.46    0.78
  -1   5  14    4.84    0.92
  -1   5  14    5.43    0.81
   1  -5 -14    3.80    0.83
   1  -5 -14    5.34    0.81
   1  -5 -14    4.94    0.97
   0   5  13    2.52    0.70
   0   5  13    2.74    0.62
   0   5  13    2.45    0.56
   0  -5 -13    2.36    0.71
   0  -5 -13    2.07    0.80
   0  -5 -13    3.23    0.72
   1   5  12    6.12    0.64
   1   5  12    7.23    0.68
  -1  -5 -12    9.42    1.08
  -1  -5 -12    8.39    0.90
  -1  -5 -12    8.02    0.93
  -2  -5 -11    4.90    1.06
  -2  -5 -11    4.96    0.83
  -2  -5 -11    4.35    1.01
  -3  -5 -10    0.67    1.17
  -3  -5 -10    0.97    1.27
  -3  -5 -10    0.27    1.02
  -3   4  16   31.59    2.01
   3  -4 -16   30.77    2.46
   3  -4 -16   25.88    1.72
  -2   4  15    6.01    1.09
  -2   4  15    4.28    0.87
   2  -4 -15    4.37    0.83
   2  -4 -15    4.41    1.12
  -1   4  14   24.03    1.29
  -1   4  14   22.35    1.24
   1  -4 -14   20.47    1.40
   1  -4 -14   21.00    1.36
   0   4  13   14.23    0.98
   0   4  13   13.74    0.85
   0   4  13   12.97    1.04
   0  -4 -13   11.50    1.10
   0  -4 -13   13.86    1.15
   0  -4 -13   10.91    0.99
   1   4  12   26.09    0.77
   1   4  12   27.10    0.91
   1   4  12   26.44    0.95
  -1  -4 -12   28.08    1.45
  -1  -4 -12   26.54    1.44
  -1  -4 -12   28.11    1.30
  -2  -4 -11   17.76    1.45
  -2  -4 -11   21.44    1.44
  -2  -4 -11   19.53    1.20
  -3  -4 -10    1.35    1.24
  -3  -4 -10    2.54    1.17
  -3  -4 -10    2.68    0.87
  -3   3  16    3.05    1.12
   3  -3 -16    6.22    1.08
   3  -3 -16    2.97    1.36
  -2   3  15   -0.33    0.81
  -2   3  15    0.79    0.70
  -2   3  15    0.89    0.81
   2  -3 -15    0.08    0.74
   2  -3 -15   -1.25    0.79
  -1   3  14   12.21    1.13
  -1   3  14   12.23    1.03
  -1   3  14   10.64    1.54
   1  -3 -14   12.61    1.08
   1  -3 -14   10.64    1.17
   0   3  13   63.76    1.59
   0   3  13   65.55    1.62
   0   3  13   65.47    1.71
   0  -3 -13   62.13    1.78
   0  -3 -13   65.85    1.97
   0  -3 -13   62.82    1.91
   1   3  12    0.09    0.30
   1   3  12   -0.06    0.34
   1   3  12    0.60    0.37
  -1  -3 -12    0.08    0.48
  -1  -3 -12    0.56    0.51
  -1  -3 -12   -0.13    0.53
  -2  -3 -11    4.00    0.78
  -2  -3 -11    4.14    0.64
  -2  -3 -11    3.42    0.85
  -3  -3 -10    1.37    1.03
  -3  -3 -10    0.63    0.70
  -3  -3 -10    0.73    0.87
  -4  -3  -9    1.69    1.48
  -3   2  16   22.37    1.85
   3  -2 -16   19.77    2.04
   3  -2 -16   21.28    1.64
  -2   2  15    1.99    0.83
  -2   2  15    4.89    0.91
  -2   2  15    1.29    0.72
   2  -2 -15    1.17    0.83
   2  -2 -15    1.48    0.67
  -1   2  14   39.27    1.51
  -1   2  14   38.27    1.43
  -1   2  14   34.28    1.34
   1  -2 -14   36.37    1.57
   0   2  13    8.12    0.74
   0   2  13    7.70    0.76
   0   2  13    8.81    0.81
   0  -2 -13    6.67    0.80
   0  -2 -13    7.67    0.89
   1   2  12   12.24    0.75
  -1  -2 -12   14.17    1.00
  -1  -2 -12   15.47    0.93
  -2  -2 -11   14.94    1.26
  -2  -2 -11   15.59    1.03
  -2  -2 -11   17.67    0.93
  -3  -2 -10    4.00    0.97
  -3  -2 -10    4.01    0.64
  -3  -2 -10    4.00    0.81
  -4  -2  -9    5.17    1.46
  -3   1  16    5.23    1.12
   3  -1 -16    3.44    1.25
   3  -1 -16    6.05    1.12
  -2   1  15    0.13    0.68
  -2   1  15    0.66    0.71
  -2   1  15    1.16    0.75
   2  -1 -15   -0.36    0.60
   2  -1 -15   -0.85    0.74
  -1   1  14    5.26    0.75
  -1   1  14    4.28    0.70
  -1   1  14    4.15    0.63
   1  -1 -14    4.62    0.69
   1  -1 -14    4.57    0.77
   0   1  13    2.71    0.54
   0   1  13    2.58    0.51
   0   1  13    2.39    0.47
   0  -1 -13    2.42    0.50
   0  -1 -13    2.47    0.56
   1   1  12    5.07    0.57
  -1  -1 -12    5.72    0.58
  -1  -1 -12    5.72    0.64
  -1  -1 -12    5.02    0.65
  -2  -1 -11    3.33    0.57
  -2  -1 -11    3.68    0.51
  -2  -1 -11    2.95    0.45
  -2  -1 -11    2.74    0.68
  -3  -1 -10    8.09    0.71
  -3  -1 -10    8.96    1.11
  -3  -1 -10    7.33    0.83
  -3  -1 -10    8.05    0.76
  -4  -1  -9    4.16    1.32
  -3   0  16   22.00    1.78
   3   0 -16   21.56    2.10
  -2   0  15    3.42    0.80
  -2   0  15    3.45    0.81
  -2   0  15    3.66    0.80
   2   0 -15    1.49    0.69
   2   0 -15    3.01    0.85
  -1   0  14   26.60    1.21
  -1   0  14   26.08    1.21
  -1   0  14   26.50    1.17
   1   0 -14   26.03    1.19
   0   0  13    9.96    0.76
   0   0  13   11.29    0.77
   0   0  13   11.18    0.73
   0   0 -13   10.43    0.95
   0   0 -13    9.92    0.83
   0   0 -13   11.24    0.88
   1   0  12   17.38    0.92
  -1   0 -12   18.45    0.86
  -1   0 -12   17.69    0.87
  -1   0 -12   18.59    0.94
  -2   0 -11   14.16    0.84
  -2   0 -11   14.76    0.80
  -2   0 -11   14.65    0.78
  -3   0 -10    2.50    0.84
  -3   0 -10    1.84    0.56
  -3   0 -10    1.71    0.45
  -3   0 -10    2.55    0.54
  -4   0  -9    9.22    1.40
  -3  -1  16    5.17    1.11
   3   1 -16    4.68    1.23
   3   1 -16    4.36    1.09
  -2  -1  15   -0.15    0.66
  -2  -1  15    0.55    0.69
  -2  -1  15    0.00    0.64
   2   1 -15    0.41    0.76
   2   1 -15   -1.63    0.57
   2   1 -15    1.02    0.57
  -1  -1  14   13.91    0.99
  -1  -1  14   12.77    1.01
  -1  -1  14   12.11    0.95
   1   1 -14   13.13    0.90
   0  -1  13    3.28    0.53
   0  -1  13    3.31    0.46
   0  -1  13    3.09    0.49
   0   1 -13    2.97    0.59
   0   1 -13    3.72    0.60
   0   1 -13    3.21    0.54
   1  -1  12    7.70    0.79
  -1   1 -12    6.33    0.63
  -1   1 -12    6.31    0.71
  -1   1 -12    5.84    0.70
  -2   1 -11   10.36    0.71
  -2   1 -11   10.31    1.07
  -2   1 -11   11.59    0.83
  -2   1 -11    9.73    0.67
  -3   1 -10    1.70    0.57
  -3   1 -10    1.88    0.75
  -3   1 -10    1.65    0.45
  -4   1  -9    4.52    0.95
  -4   1  -9    6.04    1.23
  -3  -2  16   20.83    1.82
   3   2 -16   19.11    2.09
   3   2 -16   18.29    1.87
  -2  -2  15    1.03    0.70
  -2  -2  15    1.43    0.91
  -2  -2  15   -0.31    0.66
   2   2 -15   -0.96    0.62
   2   2 -15    0.03    0.74
  -1  -2  14   22.37    1.14
  -1  -2  14   23.75    1.18
  -1  -2  14   23.87    1.16
   1   2 -14   23.75    1.32
   1   2 -14   23.44    1.16
   0  -2  13   11.92    0.83
   0  -2  13   12.42    0.74
   0  -2  13   11.37    0.73
   0   2 -13   10.21    0.80
   0   2 -13   10.85    0.89
   0   2 -13   11.56    0.90
   1  -2  12   27.97    1.18
  -1   2 -12   25.43    0.99
  -1   2 -12   26.15    0.97
  -1   2 -12   25.92    1.07
   2  -2  11   18.84    1.20
  -2   2 -11   18.81    0.80
  -2   2 -11   18.21    0.75
  -2   2 -11   18.68    0.99
  -3   2 -10    5.99    0.97
  -3   2 -10    6.99    0.80
  -4   2  -9    9.98    1.28
  -3  -3  16    8.82    1.32
   3   3 -16   10.82    1.52
   3   3 -16   11.25    1.42
  -2  -3  15    1.76    0.79
  -2  -3  15    1.47    0.74
   2   3 -15    2.20    0.79
   2   3 -15    0.91    0.69
  -1  -3  14   19.55    1.06
  -1  -3  14   20.37    1.15
  -1  -3  14   18.46    1.12
   1   3 -14   20.08    1.22
   1   3 -14   17.65    1.45
   1   3 -14   18.78    1.09
   0  -3  13    7.37    0.69
   0  -3  13    6.42    0.78
   0   3 -13    7.94    0.74
   0   3 -13    6.97    0.72
   0   3 -13    6.50    0.81
   1  -3  12   10.97    0.96
  -1   3 -12   10.28    0.89
  -1   3 -12   10.31    0.71
  -1   3 -12   11.32    0.77
   2  -3  11   13.88    1.19
  -2   3 -11   12.73    0.73
  -2   3 -11   13.40    0.94
  -2   3 -11   12.42    0.72
  -3   3 -10    0.72    0.66
  -3   3 -10   -0.08    0.71
  -4   3  -9    4.99    1.13
  -4   3  -9    4.27    1.11
  -3  -4  16   19.47    2.12
   3   4 -16   18.92    2.25
  -2  -4  15    2.96    0.84
  -2  -4  15    2.11    0.85
  -2  -4  15    2.56    0.88
   2   4 -15    0.34    0.75
  -1  -4  14   18.75    1.12
  -1  -4  14   18.47    1.21
   1   4 -14   18.45    1.22
   1   4 -14   18.72    1.10
   1   4 -14   19.25    1.33
   0  -4  13    5.51    0.58
   0  -4  13    4.25    0.58
   0  -4  13    4.66    0.67
   0   4 -13    5.23    0.66
   0   4 -13    4.44    0.59
   0   4 -13    5.64    0.77
   1  -4  12   14.62    1.11
  -1   4 -12   12.12    0.96
  -1   4 -12   12.12    0.84
   2  -4  11   50.15    1.87
  -2   4 -11   47.30    1.23
  -2   4 -11   45.15    1.24
  -2   4 -11   46.32    1.53
  -3   4 -10    2.31    0.44
  -3   4 -10    4.05    0.81
  -3   4 -10    4.01    0.87
  -4   4  -9   10.69    1.34
  -4   4  -9    9.15    1.67
  -3  -5  16    6.84    1.47
   3   5 -16    2.24    1.50
  -2  -5  15    0.81    1.32
  -2  -5  15    0.35    0.92
   2   5 -15    0.34    0.93
   2   5 -15   -0.37    0.75
   2   5 -15    0.25    0.88
  -1  -5  14   10.16    1.17
   1   5 -14    9.78    1.09
   1   5 -14   11.57    1.04
   1   5 -14   10.84    1.17
   0  -5  13    3.95    0.63
   0  -5  13    6.14    0.61
   0  -5  13    6.80    0.80
   0   5 -13    5.82    0.69
   0   5 -13    4.99    1.08
   0   5 -13    5.33    0.72
   1  -5  12    4.04    0.80
  -1   5 -12    4.30    0.59
  -1   5 -12    4.50    0.62
  -1   5 -12    4.55    0.75
   2  -5  11    0.84    0.75
  -2   5 -11    0.14    0.44
  -2   5 -11    0.72    0.45
  -2   5 -11    0.40    0.65
  -3   5 -10    5.32    0.61
  -3   5 -10    5.53    0.87
  -3   5 -10    5.67    0.68
  -3   5 -10    5.66    0.84
  -4   5  -9    6.86    1.32
  -4   5  -9    5.71    1.13
   3   6 -16   10.90    1.78
  -2  -6  15    0.64    1.01
   2   6 -15   -0.39    0.92
   2   6 -15   -0.38    1.01
  -1  -6  14   26.82    1.58
   1   6 -14   26.19    1.55
   1   6 -14   23.83    1.42
   1   6 -14   24.08    1.43
   0  -6  13    3.59    0.64
   0  -6  13    3.09    0.54
   0   6 -13    4.92    0.69
   0   6 -13    3.84    0.82
   0   6 -13    3.85    0.69
   0   6 -13    3.68    0.74
   1  -6  12   12.90    1.25
  -1   6 -12   13.72    1.01
  -1   6 -12   16.83    1.02
  -1   6 -12   12.55    1.09
  -2   6 -11   17.13    1.03
  -2   6 -11   19.42    1.27
  -3   6 -10    4.90    1.04
  -3   6 -10    5.89    0.63
  -3   6 -10    6.04    0.67
  -4   6  -9   12.88    1.60
  -2  -7  15    0.28    1.17
   2   7 -15   -0.64    1.05
   2   7 -15    2.27    1.32
  -1  -7  14   17.93    1.30
  -1  -7  14   17.79    1.29
  -1  -7  14   20.69    1.63
   1   7 -14   16.79    1.39
   1   7 -14   15.53    1.50
   1   7 -14   17.20    1.33
   0  -7  13    0.98    0.66
   0  -7  13    1.18    0.59
   0   7 -13    0.33    0.60
   0   7 -13    0.43    0.67
   0   7 -13    0.60    0.66
   0   7 -13    0.11    0.53
   1  -7  12   12.58    1.70
   1  -7  12    9.90    0.68
   1  -7  12    9.94    0.60
  -1   7 -12   10.07    1.10
  -1   7 -12   11.34    1.03
  -1   7 -12   11.04    1.04
  -1   7 -12    8.88    1.01
   2  -7  11   15.25    1.58
  -2   7 -11   15.01    1.16
  -2   7 -11   13.35    1.25
  -2   7 -11   13.55    1.09
  -3   7 -10    5.07    0.80
  -3   7 -10    3.65    1.02
  -3   7 -10    2.38    0.77
  -3   7 -10    4.98    0.71
  -4   7  -9   18.45    2.45
  -2  -8  15    0.99    1.29
   2   8 -15   -0.44    1.36
   2   8 -15    1.46    1.20
  -1  -8  14   15.01    1.44
  -1  -8  14   15.80    1.80
   1   8 -14   12.70    1.44
   1   8 -14   18.78    1.64
   0  -8  13    2.59    0.73
   0  -8  13   -0.26    0.76
   0  -8  13    1.76    0.79
   0   8 -13    0.43    0.68
   0   8 -13    1.58    0.79
   0   8 -13    0.74    0.73
   0   8 -13    1.21    0.72
   1  -8  12   19.61    1.51
   1  -8  12   21.56    0.88
   1  -8  12   20.79    0.98
  -1   8 -12   22.21    1.35
  -1   8 -12   22.36    1.36
  -1   8 -12   20.53    1.47
  -1   8 -12   22.51    1.36
  -2   8 -11    6.48    0.83
  -2   8 -11    8.01    1.12
  -2   8 -11    6.31    0.90
  -3   8 -10    3.63    1.09
  -3   8 -10    5.51    0.85
  -3   8 -10    4.09    0.92
  -3   8 -10    4.18    0.85
  -2  -9  15   -1.13    1.47
   2   9 -15   -1.63    1.59
   2   9 -15   -2.67    1.28
  -1  -9  14   12.02    1.40
   1   9 -14   13.51    1.82
   1   9 -14    8.69    1.20
   0  -9  13    3.36    1.01
   0  -9  13    1.72    0.83
   0   9 -13    2.14    1.05
   0   9 -13    3.64    0.92
   0   9 -13    3.25    0.95
   1  -9  12   10.59    1.06
   1  -9  12   12.53    0.97
  -1   9 -12   11.44    1.37
  -1   9 -12   11.01    1.42
  -1   9 -12   13.25    1.37
  -1   9 -12   12.51    1.42
  -2   9 -11    4.16    1.01
  -2   9 -11    3.78    0.87
  -2   9 -11    4.87    0.94
  -3   9 -10    2.31    0.92
  -3   9 -10   -2.02    1.07
  -3   9 -10    2.57    1.09
  -3   9 -10    1.66    1.27
  -1 -10  14   14.82    1.63
   1  10 -14   16.13    2.08
   1  10 -14   11.61    1.47
   0 -10  13    0.22    1.05
   0 -10  13   -1.51    0.97
   0  10 -13   -0.61    0.95
   0  10 -13    0.75    1.03
   1 -10  12   13.37    1.25
  -1  10 -12   10.97    1.22
  -1  10 -12   10.31    1.21
  -1  10 -12   11.22    1.21
  -2  10 -11    4.91    1.14
  -2  10 -11    5.67    1.03
  -2  10 -11    9.36    1.27
  -3  10 -10    4.51    1.15
  -1 -11  14    7.60    1.67
   1  11 -14    6.75    1.70
   0 -11  13    5.82    1.40
   0 -11  13    5.09    1.30
   0  11 -13    5.83    1.36
   0  11 -13    3.24    1.25
   1 -11  12    4.74    1.06
  -1  11 -12    1.87    1.11
  -1  11 -12    3.16    1.18
  -2  11 -11    6.79    1.23
  -2  11 -11    3.67    1.21
   0 -12  13   -0.37    1.47
  -1  12 -12    6.82    1.50
   0   9  14    4.39    1.24
   0  -9 -14    6.56    1.39
  -1   8  15    1.21    1.07
   1  -8 -15    1.75    1.37
   1  -8 -15    1.86    1.12
   0   8  14    9.31    1.34
   0   8  14    8.57    1.19
   0  -8 -14    7.23    1.29
   0  -8 -14    9.90    1.57
   1   8  13    1.39    0.98
  -1  -8 -13    1.37    1.17
  -1  -8 -13    0.25    1.36
  -2  -8 -12    9.86    1.88
  -2   7  16    1.19    1.19
   2  -7 -16    2.55    1.14
   2  -7 -16    3.83    1.58
  -1   7  15    0.45    0.86
  -1   7  15    0.64    0.99
   1  -7 -15   -1.43    1.12
   1  -7 -15    0.24    0.95
   0   7  14    7.87    0.82
   0   7  14    7.34    1.18
   0   7  14    8.59    1.05
   0  -7 -14    7.97    1.13
   0  -7 -14    8.73    1.42
   1   7  13    0.86    0.78
   1   7  13    0.12    0.80
  -1  -7 -13    1.10    1.01
  -1  -7 -13    0.75    1.18
  -2  -7 -12    5.21    1.41
  -2  -7 -12    1.90    1.41
  -2   6  16    8.81    1.29
   2  -6 -16    7.01    1.18
   2  -6 -16    7.22    1.55
  -1   6  15    2.97    1.25
  -1   6  15    4.02    0.91
  -1   6  15    2.66    0.89
   1  -6 -15    2.77    0.98
   1  -6 -15    3.65    1.09
   0   6  14   15.96    1.05
   0  -6 -14   20.01    1.59
   0  -6 -14   19.30    1.78
   1   6  13   -0.23    0.61
  -1  -6 -13    0.20    0.81
  -1  -6 -13    0.93    0.83
  -1  -6 -13   -0.16    1.03
  -2  -6 -12    9.51    1.40
  -2  -6 -12    8.97    1.24
  -2  -6 -12   11.06    1.20
  -3  -6 -11    3.86    1.58
  -2   5  16   -1.07    0.94
   2  -5 -16   -0.09    0.80
   2  -5 -16    0.37    1.17
  -1   5  15    1.95    0.78
  -1   5  15    2.12    0.81
  -1   5  15    2.81    0.91
   1  -5 -15    1.98    0.76
   1  -5 -15    2.74    0.98
   0   5  14    2.59    0.68
   0   5  14    1.33    0.74
   0   5  14    2.49    0.59
   0  -5 -14    1.58    0.78
   0  -5 -14    2.89    0.88
   0  -5 -14    1.60    0.71
   1   5  13    0.73    0.55
   1   5  13    0.46    0.54
  -1  -5 -13    2.83    0.79
  -1  -5 -13    0.72    0.77
  -1  -5 -13    1.62    0.90
  -2  -5 -12    6.44    1.15
  -2  -5 -12    5.41    0.98
  -2  -5 -12    6.52    1.19
  -3  -5 -11    1.32    1.29
  -3  -5 -11   -2.68    1.24
  -3  -5 -11    1.71    1.30
   3  -4 -17   10.90    1.83
   3  -4 -17   11.17    1.48
  -2   4  16    6.98    1.01
  -2   4  16    7.72    1.12
   2  -4 -16    6.58    1.28
   2  -4 -16    7.70    1.01
  -1   4  15    8.05    1.01
  -1   4  15   10.26    1.21
  -1   4  15    9.12    1.15
   1  -4 -15    6.96    0.89
   1  -4 -15    9.66    1.11
   1  -4 -15    7.45    1.02
   0   4  14   13.53    1.14
   0   4  14   15.02    0.98
   0   4  14   13.35    1.04
   0  -4 -14   12.89    1.27
   0  -4 -14   15.09    1.17
   0  -4 -14   14.58    1.26
   1   4  13   -0.08    0.43
   1   4  13    0.85    0.45
   1   4  13   -0.20    0.38
  -1  -4 -13   -0.20    0.69
  -1  -4 -13    0.12    0.62
  -1  -4 -13    0.58    0.75
  -2  -4 -12   23.72    1.39
  -2  -4 -12   19.96    1.60
  -3  -4 -11   -1.51    0.93
  -3  -4 -11   -0.19    1.12
  -3  -4 -11    1.26    1.12
  -3   3  17   -0.72    1.16
   3  -3 -17    1.24    1.53
  -2   3  16    6.01    0.97
  -2   3  16    4.48    1.04
   2  -3 -16    6.06    1.14
  -1   3  15    5.76    0.78
  -1   3  15    6.50    0.85
   1  -3 -15    6.19    0.96
   1  -3 -15    7.76    0.92
   1  -3 -15    7.09    0.86
   0   3  14   23.03    1.19
   0   3  14   22.18    1.07
   0   3  14   20.61    1.71
   0  -3 -14   24.12    1.36
   0  -3 -14   23.35    1.37
   0  -3 -14   23.03    1.25
   1   3  13   12.41    0.77
   1   3  13   12.39    0.62
  -1  -3 -13   11.05    1.16
  -1  -3 -13   13.59    1.18
  -1  -3 -13   12.01    1.05
  -2  -3 -12    6.41    0.78
  -2  -3 -12    4.92    0.88
  -2  -3 -12    6.44    1.03
  -3  -3 -11    3.21    1.11
  -3  -3 -11    2.48    1.01
  -3   2  17    8.43    1.35
   3  -2 -17    7.65    1.45
  -2   2  16   15.19    1.52
  -2   2  16   13.61    1.38
   2  -2 -16   13.37    1.58
  -1   2  15    7.34    0.89
  -1   2  15    8.34    0.92
   1  -2 -15    7.36    0.91
   1  -2 -15    7.61    0.84
   0   2  14   15.22    0.93
   0   2  14   15.93    0.94
   0   2  14   14.21    0.95
   0  -2 -14   15.56    1.16
   0  -2 -14   14.56    1.03
   1   2  13    0.40    0.45
  -1  -2 -13    0.62    0.60
  -1  -2 -13    0.62    0.52
  -1  -2 -13    0.62    0.56
  -2  -2 -12   25.79    1.15
  -2  -2 -12   25.17    1.27
  -2  -2 -12   24.34    1.52
  -3  -2 -11    7.34    1.18
  -3  -2 -11    8.94    0.99
  -4  -2 -10    2.16    1.57
  -3   1  17    1.55    1.14
   3  -1 -17   -0.35    1.13
   3  -1 -17   -0.50    1.31
  -2   1  16    3.22    0.93
  -2   1  16    3.61    0.92
  -2   1  16    4.93    0.85
   2  -1 -16    3.00    0.80
   2  -1 -16    3.55    0.98
  -1   1  15    1.01    0.56
  -1   1  15    1.10    0.63
  -1   1  15    0.20    0.59
   1  -1 -15    0.38    0.56
   1  -1 -15    0.39    0.65
   0   1  14    7.39    0.79
   0   1  14    6.23    0.69
   0   1  14    6.56    0.77
   0  -1 -14    7.99    0.79
   0  -1 -14    6.13    0.76
   1   1  13    0.15    0.45
  -1  -1 -13   -0.09    0.53
  -1  -1 -13   -0.28    0.45
  -1  -1 -13    0.08    0.43
  -1  -1 -13    0.40    0.51
  -2  -1 -12    2.51    0.60
  -2  -1 -12    2.57    0.47
  -2  -1 -12    1.52    0.66
  -2  -1 -12    2.85    0.55
  -3  -1 -11   -0.02    0.85
  -3  -1 -11    0.06    0.46
  -3  -1 -11   -0.37    0.62
  -3  -1 -11    1.00    0.57
  -4  -1 -10    2.68    1.42
  -3   0  17   17.59    1.88
   3   0 -17   14.39    1.69
   3   0 -17   16.46    1.47
  -2   0  16   15.03    1.38
  -2   0  16   13.08    1.44
  -2   0  16   16.25    1.42
   2   0 -16   15.70    1.58
   2   0 -16   13.83    1.32
  -1   0  15   16.18    1.16
  -1   0  15   16.18    1.10
  -1   0  15   16.66    1.15
   1   0 -15   15.96    1.06
   1   0 -15   16.16    1.25
   0   0  14   42.25    1.26
   0   0  14   43.19    1.68
   0   0  14   43.11    1.38
   0   0 -14   45.64    1.57
   0   0 -14   41.95    1.45
   0   0 -14   44.60    1.55
   1   0  13    3.28    0.59
  -1   0 -13    2.41    0.51
  -1   0 -13    3.07    0.55
  -1   0 -13    2.85    0.58
  -2   0 -12   24.05    1.43
  -2   0 -12   25.08    1.00
  -2   0 -12   24.58    1.08
  -2   0 -12   24.73    1.02
  -3   0 -11    2.52    0.53
  -3   0 -11    1.98    0.61
  -3   0 -11    2.12    0.63
  -3   0 -11    1.80    0.92
  -4   0 -10   12.13    1.59
  -3  -1  17    0.89    1.13
   3   1 -17   -0.31    1.30
   3   1 -17    2.55    1.21
  -2  -1  16    4.71    0.97
  -2  -1  16    5.41    0.95
  -2  -1  16    4.61    0.90
   2   1 -16    4.36    0.97
   2   1 -16    4.22    0.86
  -1  -1  15    1.19    0.59
  -1  -1  15    1.97    0.63
  -1  -1  15    1.85    0.64
   1   1 -15    1.20    0.66
   1   1 -15    1.75    0.54
   0  -1  14    4.47    0.57
   0  -1  14    4.43    0.59
   0  -1  14    4.15    0.51
   0   1 -14    4.82    0.66
   0   1 -14    5.49    0.79
   0   1 -14    5.66    0.72
   1  -1  13    0.04    0.59
  -1   1 -13   -0.07    0.43
  -1   1 -13    0.16    0.46
  -1   1 -13   -0.32    0.50
   2  -1  12    5.36    0.78
  -2   1 -12    4.81    0.54
  -2   1 -12    3.85    0.61
  -2   1 -12    3.36    0.57
  -2   1 -12    3.02    0.70
  -3   1 -11   -0.01    0.44
  -3   1 -11    0.60    0.76
  -3   1 -11   -0.37    0.52
  -3   1 -11   -0.05    0.57
  -4   1 -10    2.63    1.24
  -4   1 -10    3.64    1.25
  -3  -2  17   11.61    1.41
   3   2 -17   11.56    1.62
   3   2 -17   13.44    2.49
  -2  -2  16    9.77    1.07
  -2  -2  16   10.02    1.05
  -2  -2  16   12.30    1.34
   2   2 -16    7.91    0.97
   2   2 -16    9.05    1.14
   2   2 -16   13.90    1.30
  -1  -2  15   14.55    1.13
  -1  -2  15   14.64    1.08
  -1  -2  15   13.42    1.39
   1   2 -15   14.26    1.27
   1   2 -15   13.94    1.18
   1   2 -15   13.59    1.04
   0  -2  14   49.98    1.34
   0  -2  14   47.16    1.52
   0  -2  14   45.74    1.26
   0   2 -14   45.69    1.47
   0   2 -14   48.08    1.60
   0   2 -14   47.97    1.57
   1  -2  13    2.14    0.60
  -1   2 -13    1.26    0.53
  -1   2 -13    1.44    0.62
  -1   2 -13    1.67    0.50
   2  -2  12   39.26    1.62
  -2   2 -12   40.89    1.39
  -2   2 -12   40.31    1.21
  -2   2 -12   41.81    1.18
  -3   2 -11    0.66    0.74
  -3   2 -11   -0.58    0.40
  -3   2 -11   -0.07    0.48
  -3   2 -11    0.06    0.62
  -4   2 -10   10.89    1.40
  -4   2 -10    8.78    1.65
  -3  -3  17    1.85    1.21
   3   3 -17    3.66    1.41
  -2  -3  16    2.00    0.85
  -2  -3  16    0.30    0.86
   2   3 -16    0.69    0.74
   2   3 -16    0.93    0.93
  -1  -3  15   12.22    1.11
  -1  -3  15   13.60    1.12
   1   3 -15   11.30    1.02
   1   3 -15   11.98    1.16
   1   3 -15   12.09    1.23
   0  -3  14   11.24    0.96
   0  -3  14    9.96    0.80
   0   3 -14   12.16    1.07
   0   3 -14   11.55    0.89
   0   3 -14   10.41    0.96
   1  -3  13    0.23    0.55
  -1   3 -13    0.72    0.41
  -1   3 -13    0.44    0.52
  -1   3 -13    0.88    0.48
   2  -3  12    3.00    0.84
  -2   3 -12    2.62    0.65
  -2   3 -12    2.11    0.49
  -2   3 -12    2.28    0.51
  -3   3 -11   -0.22    0.45
  -3   3 -11   -0.66    0.42
  -3   3 -11   -0.25    0.78
  -3   3 -11    1.51    0.67
  -4   3 -10    3.09    1.24
  -4   3 -10    3.81    1.08
  -3  -4  17   15.19    1.63
   3   4 -17   21.66    2.54
  -2  -4  16   14.93    1.61
   2   4 -16   12.96    1.54
   2   4 -16   14.00    1.46
  -1  -4  15   19.09    1.22
  -1  -4  15   17.62    1.20
  -1  -4  15   17.70    2.00
   1   4 -15   16.63    1.24
   1   4 -15   19.59    1.40
   1   4 -15   17.23    1.39
   1   4 -15   17.75    1.20
   0  -4  14   41.15    1.48
   0  -4  14   40.60    1.24
   0  -4  14   39.00    1.21
   0   4 -14   39.59    1.44
   0   4 -14   36.72    2.16
   0   4 -14   39.77    1.49
   1  -4  13    2.09    0.72
  -1   4 -13    2.15    0.53
  -1   4 -13    2.29    0.57
  -1   4 -13    1.64    0.63
   2  -4  12   56.92    2.08
  -2   4 -12   55.43    1.46
  -2   4 -12   56.95    1.76
  -2   4 -12   56.55    1.45
  -3   4 -11    0.49    0.50
  -3   4 -11    1.07    0.75
  -3   4 -11    0.96    0.85
  -3   4 -11   -0.46    0.47
  -4   4 -10   10.06    1.41
  -4   4 -10   11.42    1.37
   3   5 -17   -2.10    1.47
  -2  -5  16    3.76    1.10
   2   5 -16    2.94    0.99
  -1  -5  15   -0.17    0.71
   1   5 -15    0.09    0.67
   1   5 -15    0.40    0.53
   1   5 -15    1.42    0.80
   1   5 -15    0.91    0.63
   0  -5  14    6.52    0.69
   0  -5  14    7.91    0.84
   0   5 -14    6.61    0.78
   0   5 -14    6.51    0.82
   0   5 -14    7.89    0.93
   1  -5  13    0.23    0.65
  -1   5 -13    0.24    0.47
  -1   5 -13    0.44    0.87
  -1   5 -13    0.39    0.49
   2  -5  12    7.48    1.23
  -2   5 -12    8.47    0.87
  -2   5 -12    8.73    1.13
  -2   5 -12    9.39    0.85
  -3   5 -11   -0.47    0.78
  -3   5 -11    1.36    0.58
  -3   5 -11    0.07    0.79
  -4   5 -10    0.25    1.26
  -4   5 -10    0.86    1.18
  -2  -6  16   10.23    1.36
   2   6 -16    7.03    1.42
   2   6 -16    5.89    1.24
  -1  -6  15   13.71    1.43
  -1  -6  15   19.64    1.54
  -1  -6  15   16.72    1.36
   1   6 -15   19.16    1.41
   1   6 -15   19.57    1.33
   1   6 -15   16.26    1.39
   1   6 -15   18.44    1.50
   0  -6  14   27.43    1.16
   0  -6  14   27.18    1.23
   0  -6  14   25.45    1.41
   0   6 -14   24.15    1.46
   0   6 -14   28.32    1.42
   0   6 -14   28.33    1.29
   0   6 -14   25.34    1.37
  -1   6 -13    9.39    1.01
  -1   6 -13    9.44    1.17
  -1   6 -13    9.48    1.02
   2  -6  12   27.62    1.88
  -2   6 -12   24.22    1.20
  -2   6 -12   25.05    1.45
  -2   6 -12   27.43    1.23
  -3   6 -11   -0.56    0.63
  -3   6 -11    0.87    0.94
  -4   6 -10    6.56    1.58
  -2  -7  16    0.57    1.25
   2   7 -16    1.89    1.33
   2   7 -16   -0.84    1.12
  -1  -7  15    2.54    0.98
  -1  -7  15    1.72    0.80
   1   7 -15    2.27    0.93
   1   7 -15    1.80    0.85
   0  -7  14    4.74    0.73
   0  -7  14    3.14    0.76
   0  -7  14    3.07    0.83
   0   7 -14    2.71    0.77
   0   7 -14    4.47    0.96
   0   7 -14    2.50    0.78
   0   7 -14    3.18    0.77
   1  -7  13    3.61    0.92
  -1   7 -13    1.48    0.71
  -1   7 -13    2.08    0.82
  -1   7 -13    2.02    0.55
  -1   7 -13    1.52    0.71
   2  -7  12    3.18    1.17
  -2   7 -12    1.62    0.69
  -2   7 -12    0.83    0.65
  -2   7 -12    1.54    0.66
  -2   7 -12    1.03    0.78
  -3   7 -11    0.68    0.80
  -3   7 -11    0.85    0.97
  -2  -8  16   13.73    1.71
   2   8 -16    8.06    1.57
   2   8 -16   12.61    1.77
  -1  -8  15   11.75    1.20
  -1  -8  15   10.64    1.31
   1   8 -15    7.67    1.13
   1   8 -15    9.07    1.25
   0  -8  14   29.18    1.47
   0  -8  14   29.65    1.62
   0   8 -14   24.50    1.56
   0   8 -14   30.11    1.78
   0   8 -14   25.36    1.57
   0   8 -14   25.06    1.60
   1  -8  13    1.16    0.91
  -1   8 -13    2.16    0.81
  -1   8 -13    1.23    0.65
  -1   8 -13    2.22    0.80
  -1   8 -13    1.78    0.77
  -2   8 -12   25.24    1.50
  -2   8 -12   25.82    1.68
  -2   8 -12   28.48    1.60
  -2   8 -12   28.38    1.53
  -3   8 -11    1.05    1.06
  -3   8 -11   -2.28    1.50
  -3   8 -11    0.34    0.83
  -2  -9  16    0.18    1.83
  -1  -9  15    2.43    1.27
   1   9 -15    1.64    1.31
   0  -9  14    0.87    1.19
   0  -9  14    2.68    1.49
   0   9 -14    1.59    0.92
   0   9 -14    1.05    1.02
   1  -9  13    0.12    0.63
   1  -9  13    0.49    0.55
  -1   9 -13   -0.43    0.87
  -1   9 -13    1.38    0.92
  -1   9 -13    0.00    0.79
  -1   9 -13    0.98    0.86
  -2   9 -12    1.88    0.88
  -2   9 -12    1.01    1.02
  -2   9 -12    3.44    1.00
  -2   9 -12   -0.71    0.86
  -3   9 -11    2.70    0.92
  -3   9 -11   -0.73    1.27
  -1 -10  15   16.03    1.79
   1  10 -15   12.14    1.53
   1  10 -15   17.29    2.29
   0 -10  14   19.49    2.00
   0 -10  14   14.37    1.36
   0  10 -14   14.96    1.88
   0  10 -14   17.49    1.84
   1 -10  13    2.22    0.74
  -1  10 -13    0.66    1.04
  -1  10 -13    1.92    1.01
  -2  10 -12   20.62    1.85
  -2  10 -12   16.71    1.83
  -2  10 -12   18.16    2.00
  -2  10 -12   20.26    1.91
   0 -11  14    5.97    1.48
   0 -11  14    3.56    1.36
   0  11 -14    5.31    1.43
   0  11 -14    6.09    1.41
  -1  11 -13    0.24    1.18
  -1  11 -13    0.38    1.17
  -2  11 -12   -2.03    1.24
  -1   8  16   -0.32    1.15
   1  -8 -16    1.81    1.24
   0   8  15   -0.11    1.09
   0  -8 -15    0.68    1.45
   0  -8 -15    1.60    1.27
  -1  -8 -14   -0.29    1.41
  -1  -8 -14   -1.33    1.53
  -1   7  16    3.12    1.11
   1  -7 -16    3.96    1.45
   1  -7 -16    1.74    1.09
   0   7  15   15.93    1.81
   0   7  15   12.97    1.24
   0  -7 -15   17.14    1.55
   0  -7 -15   13.19    1.65
  -1  -7 -14    5.54    1.28
  -1  -7 -14    6.77    1.45
  -2  -7 -13    1.35    1.56
  -2   6  17    0.61    1.23
   2  -6 -17    0.87    1.54
   2  -6 -17   -1.46    1.07
  -1   6  16   -1.40    0.84
   1  -6 -16    3.13    1.17
   1  -6 -16   -0.46    0.94
   0   6  15    1.34    0.78
   0  -6 -15    2.56    1.13
   0  -6 -15    1.38    1.00
   1   6  14    0.91    0.67
   1   6  14    0.27    0.91
  -1  -6 -14   -1.92    1.11
  -1  -6 -14    0.79    0.98
  -2  -6 -13    0.77    1.36
  -2  -6 -13    2.86    1.22
  -2   5  17   33.46    2.17
   2  -5 -17   32.08    2.50
   2  -5 -17   33.03    1.92
  -1   5  16    4.97    0.95
  -1   5  16    3.42    1.13
  -1   5  16    3.22    1.01
   1  -5 -16    4.60    1.01
   1  -5 -16    4.52    1.17
   0   5  15   22.10    1.52
   0   5  15   19.13    1.30
   0   5  15   18.44    1.32
   0  -5 -15   17.78    1.61
   0  -5 -15   18.63    1.73
   0  -5 -15   17.55    1.54
   1   5  14   12.22    0.90
   1   5  14   10.51    0.96
  -1  -5 -14   11.26    1.31
  -1  -5 -14   13.57    1.43
  -1  -5 -14   12.14    1.17
  -2  -5 -13   18.45    1.74
  -2  -5 -13   21.85    2.04
  -2  -5 -13   24.21    1.99
  -3  -5 -12    8.51    1.62
  -2   4  17    0.15    0.99
   2  -4 -17   -1.10    0.89
   2  -4 -17   -1.30    1.15
  -1   4  16    0.88    0.77
  -1   4  16    0.81    0.71
  -1   4  16    1.86    0.89
   1  -4 -16   -0.96    0.77
   1  -4 -16   -0.41    0.79
   0   4  15    0.98    0.59
   0   4  15    1.05    0.72
   0   4  15    1.68    0.65
   0  -4 -15    1.24    0.76
   0  -4 -15    2.06    0.79
   0  -4 -15    1.48    0.78
   1   4  14   26.81    0.92
   1   4  14   27.62    0.94
   1   4  14   27.46    0.97
  -1  -4 -14   27.22    1.68
  -1  -4 -14   25.41    1.48
  -1  -4 -14   25.80    1.65
  -2  -4 -13   -0.22    0.93
  -2  -4 -13    1.26    0.97
  -2  -4 -13    1.08    0.82
  -3  -4 -12    0.29    1.29
  -3  -4 -12    0.21    1.23
   3  -3 -18    1.19    1.14
   3  -3 -18   -1.49    1.62
  -2   3  17   25.41    1.69
   2  -3 -17   22.56    1.98
  -1   3  16    0.70    0.83
  -1   3  16    1.65    0.75
  -1   3  16    1.03    0.75
   1  -3 -16    1.10    0.74
   1  -3 -16    1.18    0.73
   1  -3 -16    0.02    0.84
   0   3  15   27.61    1.22
   0   3  15   28.91    1.34
   0   3  15   28.93    1.23
   0  -3 -15   27.91    1.54
   0  -3 -15   26.47    1.45
   0  -3 -15   26.54    1.54
   1   3  14    6.35    0.80
  -1  -3 -14    4.99    0.88
  -1  -3 -14    6.23    0.85
  -1  -3 -14    6.22    0.93
  -2  -3 -13   13.28    1.58
  -2  -3 -13   15.49    1.26
  -2  -3 -13   10.91    1.20
  -3  -3 -12   11.41    2.22
  -3  -3 -12    7.72    1.38
  -3  -3 -12   10.54    1.21
   3  -2 -18   -0.76    1.48
  -2   2  17    0.62    0.86
   2  -2 -17   -0.12    1.01
  -1   2  16   -0.42    0.62
  -1   2  16    0.76    0.70
   1  -2 -16    0.20    0.74
   1  -2 -16    0.13    0.66
   0   2  15    0.72    0.51
   0   2  15    0.85    0.54
   0   2  15   -0.30    0.59
   0  -2 -15    1.02    0.60
   0  -2 -15   -0.02    0.63
   0  -2 -15    1.19    0.59
   1   2  14   -0.23    0.52
  -1  -2 -14    0.15    0.55
  -1  -2 -14   -0.85    0.60
  -1  -2 -14   -0.08    0.73
  -2  -2 -13    0.58    0.74
  -2  -2 -13    0.97    0.67
  -2  -2 -13   -0.43    0.68
  -3  -2 -12    0.19    0.91
  -3  -2 -12    0.19    1.05
  -3  -2 -12    0.70    0.76
  -3   1  18    1.81    1.49
   3  -1 -18   -1.45    1.50
   3  -1 -18   -0.45    1.29
  -2   1  17   33.06    1.77
   2  -1 -17   32.54    2.00
  -1   1  16    1.28    0.63
  -1   1  16    2.62    0.86
   1  -1 -16    2.06    0.79
   1  -1 -16    1.12    0.69
   0   1  15   29.01    1.20
   0   1  15   30.08    1.25
   0   1  15   31.98    1.18
   0  -1 -15   31.34    1.39
   0  -1 -15   30.18    1.45
   1   1  14    7.21    0.90
  -1  -1 -14    7.36    0.93
  -1  -1 -14    7.95    0.80
  -1  -1 -14    6.29    0.78
  -2  -1 -13   14.04    0.90
  -2  -1 -13   12.52    1.03
  -2  -1 -13   14.12    1.14
  -2  -1 -13   13.37    1.37
  -3  -1 -12    8.71    0.81
  -3  -1 -12    7.66    0.90
  -3  -1 -12    8.04    0.81
  -3  -1 -12   11.25    1.33
  -3   0  18   -1.92    1.24
   3   0 -18   -1.85    1.42
   3   0 -18   -0.80    1.33
  -2   0  17    1.38    0.91
   2   0 -17    1.65    0.99
  -1   0  16   -1.00    0.67
  -1   0  16    0.04    0.76
   1   0 -16    0.94    0.70
   1   0 -16    0.38    0.58
   0   0  15    3.15    0.58
   0   0  15    2.42    0.60
   0   0  15    2.69    0.56
   0   0 -15    3.09    0.66
   1   0  14   -0.33    1.09
  -1   0 -14    0.99    0.55
  -1   0 -14    0.11    0.54
  -1   0 -14    0.33    0.50
  -2   0 -13   -0.33    0.52
  -2   0 -13   -0.12    0.76
  -2   0 -13    0.92    0.52
  -2   0 -13    1.71    0.59
  -3   0 -12    1.82    1.01
  -3   0 -12    2.09    0.73
  -3   0 -12    2.38    0.65
  -3   0 -12    2.81    0.64
  -4   0 -11    0.90    1.47
  -3  -1  18    0.70    1.25
   3   1 -18   -0.71    1.48
  -2  -1  17   28.80    1.73
   2   1 -17   30.34    1.73
   2   1 -17   32.74    1.95
  -1  -1  16    0.39    0.66
   1   1 -16    0.34    0.54
   1   1 -16    0.06    0.65
   0  -1  15   30.89    1.30
   0  -1  15   29.32    1.08
   0  -1  15   29.09    1.33
   0   1 -15   30.42    1.36
   0   1 -15   28.69    1.41
   1  -1  14    9.06    1.04
  -1   1 -14    9.08    0.92
  -1   1 -14    8.15    0.91
  -1   1 -14   10.01    0.96
   2  -1  13   22.58    1.37
  -2   1 -13   23.51    1.15
  -2   1 -13   22.33    1.03
  -2   1 -13   23.49    1.44
  -2   1 -13   21.13    1.10
  -3   1 -12   10.88    0.92
  -3   1 -12   11.83    1.14
  -3   1 -12   10.65    1.08
  -3   1 -12   11.64    1.17
  -4   1 -11    4.67    1.49
  -3  -2  18    0.06    1.31
   3   2 -18   -0.41    1.54
  -2  -2  17    4.23    1.02
   2   2 -17    4.31    1.07
   2   2 -17    4.67    0.99
  -1  -2  16   -0.44    0.63
   1   2 -16   -1.11    0.57
   1   2 -16   -0.09    0.69
   0  -2  15    4.54    0.71
   0  -2  15    5.47    0.60
   0   2 -15    5.59    0.71
   0   2 -15    7.01    0.87
   1  -2  14    2.15    0.70
  -1   2 -14    1.53    0.59
  -1   2 -14    1.45    0.57
  -1   2 -14    0.44    0.52
   2  -2  13    2.99    0.86
  -2   2 -13    1.22    0.51
  -2   2 -13    2.17    0.57
  -2   2 -13    2.07    0.72
  -3   2 -12    3.93    0.95
  -3   2 -12    2.37    0.59
  -3   2 -12    1.49    0.77
  -3   2 -12    1.07    0.52
  -4   2 -11    0.67    1.30
   3   3 -18    3.94    1.63
  -2  -3  17   33.05    1.84
   2   3 -17   34.54    1.88
   2   3 -17   34.26    2.07
  -1  -3  16    1.32    0.71
  -1  -3  16    0.19    0.68
   1   3 -16    1.83    0.73
   1   3 -16    0.13    0.60
   1   3 -16   -0.06    0.69
   0  -3  15   20.20    1.00
   0  -3  15   22.00    1.24
   0  -3  15   19.02    0.90
   0   3 -15   19.15    1.16
   0   3 -15   21.93    1.34
   1  -3  14    5.20    0.87
  -1   3 -14    5.20    0.66
  -1   3 -14    4.17    0.73
  -1   3 -14    4.43    0.67
   2  -3  13   13.42    1.45
  -2   3 -13   12.27    0.95
  -2   3 -13   12.28    0.90
  -2   3 -13   10.06    1.13
  -3   3 -12   26.33    1.84
  -3   3 -12   31.16    1.80
  -3   3 -12   28.84    1.08
  -3   3 -12   29.55    1.13
  -4   3 -11   -0.40    1.26
  -4   3 -11    3.32    1.15
   3   4 -18    0.97    1.66
  -2  -4  17    4.05    1.05
   2   4 -17    1.24    1.03
  -1  -4  16    0.23    0.65
  -1  -4  16    0.67    0.70
   1   4 -16    0.75    0.68
   1   4 -16    1.94    0.80
   1   4 -16    1.64    0.63
   1   4 -16   -0.11    0.79
   0  -4  15    1.77    0.54
   0  -4  15    2.02    0.51
   0   4 -15    2.36    0.71
   0   4 -15    1.36    0.59
   0   4 -15    1.59    0.63
   1  -4  14    1.57    0.75
  -1   4 -14    1.21    1.00
  -1   4 -14    0.62    0.53
  -1   4 -14    1.79    0.59
   2  -4  13    6.16    1.12
  -2   4 -13    4.04    0.66
  -2   4 -13    4.42    0.64
  -3   4 -12    2.15    0.62
  -3   4 -12    1.55    0.96
  -3   4 -12    1.72    0.80
  -3   4 -12    1.90    0.59
  -4   4 -11    1.35    1.26
  -4   4 -11    3.22    1.36
  -2  -5  17   21.06    2.02
   2   5 -17   18.59    1.92
  -1  -5  16   -1.66    0.66
  -1  -5  16    1.04    0.78
   1   5 -16   -0.09    0.80
   1   5 -16    1.08    0.85
   1   5 -16   -1.31    0.67
   1   5 -16   -1.01    0.71
   0  -5  15   36.45    1.67
   0  -5  15   35.98    1.31
   0  -5  15   38.72    1.30
   0   5 -15   41.45    1.61
   0   5 -15   38.24    1.71
   0   5 -15   37.87    1.57
  -1   5 -14    1.90    0.65
  -1   5 -14    2.31    0.76
  -1   5 -14    1.74    0.65
  -2   5 -13   15.22    1.33
  -2   5 -13   15.43    1.04
  -2   5 -13   14.80    1.09
  -3   5 -12   17.25    1.64
  -3   5 -12   19.59    1.61
  -3   5 -12   16.61    1.17
  -3   5 -12   18.21    1.15
  -2  -6  17    6.28    1.33
   2   6 -17    5.23    1.44
   2   6 -17    4.25    1.27
  -1  -6  16    0.30    0.85
  -1  -6  16   -0.62    0.76
   1   6 -16    1.68    0.94
   1   6 -16   -0.17    0.81
   0  -6  15    6.85    0.93
   0  -6  15    7.67    0.76
   0  -6  15    6.76    0.79
   0   6 -15    7.72    0.89
   0   6 -15    7.90    0.94
   0   6 -15    6.53    1.01
   0   6 -15    6.28    0.93
   1  -6  14   -0.36    0.87
  -1   6 -14    0.29    0.81
  -1   6 -14    0.01    0.71
  -1   6 -14    0.06    0.63
   2  -6  13    3.24    1.18
  -2   6 -13    3.70    0.76
  -2   6 -13    2.25    0.73
  -2   6 -13    2.27    0.79
  -3   6 -12    6.94    1.10
  -3   6 -12    5.52    0.84
  -2  -7  17   18.72    1.85
   2   7 -17   21.10    2.52
   2   7 -17   18.63    2.25
  -1  -7  16    0.64    0.92
  -1  -7  16    0.13    1.00
   1   7 -16   -0.12    0.97
   1   7 -16   -1.45    0.90
   0  -7  15   20.75    1.68
   0  -7  15   27.33    1.42
   0  -7  15   28.25    1.37
   0   7 -15   24.65    1.69
   0   7 -15   24.82    1.48
   0   7 -15   23.34    1.55
   0   7 -15   23.72    1.62
   1  -7  14    2.05    1.06
  -1   7 -14    1.36    0.67
  -1   7 -14    1.84    0.82
  -1   7 -14    1.29    0.76
  -1   7 -14    1.75    0.76
   2  -7  13   23.29    2.23
  -2   7 -13   22.67    1.65
  -2   7 -13   21.61    1.40
  -3   7 -12    5.45    0.98
  -3   7 -12    7.39    1.26
  -2  -8  17    8.52    1.75
  -1  -8  16    2.49    1.21
   1   8 -16    1.64    1.02
   1   8 -16    1.76    1.14
   0  -8  15    4.99    0.94
   0  -8  15    5.56    0.95
   0   8 -15    6.68    1.18
   0   8 -15    4.91    1.04
  -1   8 -14    0.09    0.83
  -1   8 -14    0.72    0.90
  -1   8 -14   -1.15    0.69
  -1   8 -14    0.32    0.81
  -2   8 -13    2.76    0.94
  -2   8 -13    5.62    1.17
  -2   8 -13    6.53    1.02
  -2   8 -13    4.56    0.92
  -3   8 -12    1.98    1.23
  -3   8 -12    0.20    1.00
  -1  -9  16    1.48    1.32
   1   9 -16   -0.08    1.14
   1   9 -16   -1.84    1.24
   0   9 -15   25.44    1.97
   0   9 -15   20.55    1.81
  -1   9 -14   -1.51    0.92
  -1   9 -14    0.81    1.01
  -1   9 -14    2.18    1.11
  -2   9 -13   13.72    1.64
  -2   9 -13   14.30    1.79
  -2   9 -13   13.12    1.36
  -2   9 -13   15.59    1.43
  -3   9 -12    8.61    1.66
  -1 -10  16    2.14    1.61
   0 -10  15    3.88    1.22
   0 -10  15    3.91    1.27
   0  10 -15    0.73    1.16
   0  10 -15    4.56    1.38
  -1  10 -14    3.83    1.24
  -1  10 -14    1.27    1.12
  -2  10 -13    3.78    1.26
  -2  10 -13    1.74    1.17
   0 -11  15   15.00    1.70
  -1  11 -14   -1.48    1.23
  -1   7  17    2.82    1.21
   1  -7 -17    1.93    1.31
   0   7  16    1.36    1.04
   0   7  16    3.24    1.29
   0  -7 -16    2.29    1.19
   0  -7 -16    2.45    1.50
  -1  -7 -15    6.25    1.61
  -1  -7 -15    9.34    1.48
  -1   6  17   -1.37    0.97
  -1   6  17    1.23    1.02
   1  -6 -17    1.55    1.30
   1  -6 -17   -0.17    1.11
   0   6  16    5.13    1.28
   0   6  16    4.42    0.98
   0  -6 -16    5.25    1.38
   0  -6 -16    4.89    1.18
  -1  -6 -15    3.75    1.43
  -1  -6 -15    2.04    1.16
  -2  -6 -14    2.81    1.57
  -2   5  18    9.17    1.44
   2  -5 -18    8.31    1.28
  -1   5  17    3.06    0.94
   1  -5 -17    3.45    1.21
   1  -5 -17    3.00    1.01
   0   5  16    4.47    0.80
   0   5  16    5.44    1.05
   0   5  16    2.83    1.12
   0  -5 -16    3.68    1.06
   0  -5 -16    4.08    1.22
   1   5  15    6.76    0.89
   1   5  15    6.10    0.63
  -1  -5 -15    6.41    1.15
  -1  -5 -15    5.13    1.70
  -1  -5 -15    8.47    1.31
  -2  -5 -14    1.37    1.16
  -2  -5 -14    0.19    1.34
  -2  -5 -14    2.98    1.16
  -2   4  18    4.82    1.23
   2  -4 -18    4.68    1.50
   2  -4 -18    5.37    1.22
  -1   4  17   11.36    1.35
  -1   4  17   11.14    1.13
   1  -4 -17    7.87    1.10
   1  -4 -17    9.88    1.31
   0   4  16    7.85    0.90
   0   4  16    7.96    0.99
   0   4  16    8.40    1.06
   0  -4 -16    7.75    1.09
   0  -4 -16    7.55    1.14
   0  -4 -16    4.49    1.03
   1   4  15   22.40    1.01
  -1  -4 -15   20.23    1.76
  -1  -4 -15   23.87    1.69
  -1  -4 -15   21.54    1.59
  -2  -4 -14   10.89    1.33
  -2  -4 -14   16.80    1.68
  -2  -4 -14   11.50    1.39
  -3  -4 -13    5.07    1.58
  -2   3  18    7.12    1.16
   2  -3 -18    7.43    1.16
   2  -3 -18    6.30    1.42
  -1   3  17    6.78    1.11
  -1   3  17    7.21    0.98
   1  -3 -17    6.30    1.10
   1  -3 -17    5.91    0.96
   0   3  16    5.05    0.79
   0   3  16    5.02    0.78
   0   3  16    5.12    0.81
   0  -3 -16    3.78    0.95
   0  -3 -16    5.75    0.95
   0  -3 -16    4.40    0.91
   1   3  15    3.85    0.68
  -1  -3 -15    3.58    0.85
  -1  -3 -15    3.19    0.93
  -1  -3 -15    5.60    0.98
  -2  -3 -14    0.16    0.94
  -2  -3 -14    0.24    0.97
  -2  -3 -14   -0.76    0.82
  -3  -3 -13    6.11    1.43
  -3  -3 -13    6.57    1.37
  -2   2  18    4.53    1.10
   2  -2 -18    2.27    1.23
  -1   2  17    8.11    1.04
  -1   2  17    6.44    0.93
   1  -2 -17    6.51    1.08
   0   2  16    4.21    0.76
   0   2  16    2.88    0.69
   0   2  16    3.40    0.66
   0  -2 -16    3.08    0.83
   0  -2 -16    3.75    0.80
   0  -2 -16    3.56    0.79
   1   2  15    8.44    1.03
  -1  -2 -15    8.00    1.03
  -1  -2 -15    9.11    0.92
  -1  -2 -15    9.45    1.06
  -2  -2 -14   -1.44    0.80
  -2  -2 -14    0.10    0.73
  -2  -2 -14    0.17    0.81
  -3  -2 -13    2.36    1.24
  -3  -2 -13    4.84    1.16
  -2   1  18   12.20    1.29
   2  -1 -18   11.58    1.43
  -1   1  17   10.63    1.28
  -1   1  17    9.29    0.96
   1  -1 -17    9.69    1.06
   1  -1 -17    9.84    1.14
   0   1  16   10.94    0.97
   0   1  16    9.55    1.04
   0   1  16   10.57    1.04
   0  -1 -16   10.15    1.17
   0  -1 -16   11.18    1.10
   1   1  15   15.99    1.80
  -1  -1 -15   18.29    1.24
  -1  -1 -15   20.93    1.45
  -2  -1 -14    1.56    0.77
  -2  -1 -14    0.84    0.69
  -2  -1 -14    0.66    0.86
  -2  -1 -14    1.39    0.60
  -3  -1 -13    8.60    1.29
  -3  -1 -13    7.26    1.05
  -2   0  18    5.77    1.10
   2   0 -18    6.98    1.30
  -1   0  17   11.03    1.17
  -1   0  17   10.10    0.97
   1   0 -17    9.77    1.17
   1   0 -17   11.50    1.36
   0   0  16    5.02    0.74
   0   0  16    4.65    0.70
   0   0  16    5.42    0.66
   0   0 -16    5.47    0.85
   0   0 -16    3.64    0.75
   1   0  15    9.40    1.12
  -1   0 -15    9.48    1.06
  -1   0 -15   10.54    1.02
  -1   0 -15   10.43    1.12
  -2   0 -14    1.52    0.67
  -2   0 -14    0.81    0.59
  -2   0 -14    1.43    0.62
  -3   0 -13    3.90    1.19
  -3   0 -13    4.92    0.78
  -3   0 -13    5.30    1.17
  -3   0 -13    4.77    0.93
  -2  -1  18   15.12    1.68
   2   1 -18   16.47    1.82
   2   1 -18   16.75    1.85
  -1  -1  17    5.00    0.84
  -1  -1  17    5.70    0.88
   1   1 -17    7.17    1.02
   1   1 -17    6.20    0.88
   0  -1  16    8.08    0.90
   0  -1  16    8.98    0.90
   0  -1  16    8.25    1.02
   0   1 -16   10.69    1.06
   0   1 -16   11.02    1.19
   0   1 -16    9.63    1.12
   1  -1  15   28.80    1.45
  -1   1 -15   26.58    1.35
  -1   1 -15   28.63    1.29
  -1   1 -15   27.73    1.36
   2  -1  14    1.70    0.82
  -2   1 -14    0.35    0.75
  -2   1 -14    0.87    0.64
  -2   1 -14    0.82    0.61
  -2   1 -14    0.82    0.63
  -3   1 -13   15.52    1.27
  -3   1 -13   14.04    1.15
  -3   1 -13   10.94    1.34
  -3   1 -13   13.48    1.33
  -2  -2  18    3.90    1.05
   2   2 -18    4.03    1.18
  -1  -2  17    6.27    0.88
  -1  -2  17    7.42    1.04
   1   2 -17    5.52    0.92
   1   2 -17    5.88    1.00
   0  -2  16   16.93    0.98
   0  -2  16   19.04    1.27
   0   2 -16   19.38    1.18
   0   2 -16   19.54    1.43
   0   2 -16   18.96    1.31
   1  -2  15   20.65    1.38
  -1   2 -15   19.84    1.24
  -1   2 -15   20.07    1.19
  -1   2 -15   17.92    1.21
   2  -2  14    2.28    0.94
  -2   2 -14    0.41    0.66
  -2   2 -14    0.61    0.63
  -2   2 -14   -0.33    0.79
  -3   2 -13    5.75    0.77
  -3   2 -13    8.26    1.25
  -3   2 -13    5.87    0.81
  -3   2 -13    7.99    1.01
  -2  -3  18   13.40    1.36
   2   3 -18   13.16    1.46
  -1  -3  17    9.50    1.04
  -1  -3  17    8.99    0.99
   1   3 -17    6.30    0.91
   1   3 -17   10.62    1.26
   1   3 -17    8.38    1.05
   0  -3  16   11.47    0.90
   0  -3  16   11.91    0.90
   0   3 -16   12.70    1.18
   0   3 -16   13.44    1.25
   0   3 -16   12.86    1.25
   1  -3  15   22.91    1.48
  -1   3 -15   22.46    1.39
  -1   3 -15   23.17    1.27
  -1   3 -15   22.79    1.18
   2  -3  14    1.11    0.98
  -2   3 -14    0.80    0.75
  -2   3 -14   -0.29    0.62
  -2   3 -14    0.15    0.59
  -3   3 -13   20.12    1.24
  -3   3 -13   22.74    1.29
  -3   3 -13   19.70    1.90
  -3   3 -13   24.01    1.61
  -2  -4  18    7.07    1.21
   2   4 -18    8.09    1.39
  -1  -4  17    5.06    0.97
  -1  -4  17    6.24    0.93
   1   4 -17    5.63    1.10
   1   4 -17    6.59    1.10
   1   4 -17    7.07    1.04
   0  -4  16    3.52    0.77
   0  -4  16    4.47    0.64
   0  -4  16    3.39    0.62
   0   4 -16    2.65    0.75
   0   4 -16    3.35    0.86
   0   4 -16    4.72    0.83
  -1   4 -15    9.96    1.08
  -1   4 -15   12.12    1.28
  -1   4 -15   11.61    1.09
  -2   4 -14   -0.30    0.63
  -2   4 -14   -0.31    0.61
  -2   4 -14    0.24    0.77
  -3   4 -13    4.16    1.12
  -3   4 -13    2.04    0.74
  -3   4 -13    4.01    1.00
   2   5 -18   10.07    1.43
  -1  -5  17    6.25    0.98
  -1  -5  17    3.06    0.85
   1   5 -17    6.25    1.17
   1   5 -17    3.83    0.97
   0  -5  16   17.42    1.12
   0  -5  16   16.91    1.42
   0  -5  16   17.06    1.11
   0   5 -16   14.46    1.34
   0   5 -16   18.10    1.41
   0   5 -16   18.02    1.43
   1  -5  15   13.18    1.48
  -1   5 -15   13.69    1.21
  -1   5 -15   16.56    1.40
  -1   5 -15   14.91    1.20
   2  -5  14    5.22    1.34
  -2   5 -14    4.71    0.95
  -2   5 -14    4.73    0.78
  -2   5 -14    3.91    0.73
  -3   5 -13   14.30    1.67
  -3   5 -13   12.90    1.34
  -3   5 -13   12.87    1.28
  -2  -6  18    4.34    1.41
   2   6 -18    0.85    1.29
  -1  -6  17    4.12    1.04
  -1  -6  17    2.94    0.95
   1   6 -17    3.72    1.07
   1   6 -17    4.35    1.22
   0  -6  16    7.10    1.09
   0  -6  16    6.36    0.80
   0  -6  16    7.04    0.80
   0   6 -16    6.39    1.16
   0   6 -16    5.66    0.98
   0   6 -16    5.43    0.93
   1  -6  15    8.44    1.23
  -1   6 -15   11.28    1.27
  -1   6 -15   10.70    1.18
  -1   6 -15   11.25    1.23
   2  -6  14    5.16    1.33
  -2   6 -14    3.51    0.80
  -2   6 -14    3.54    0.98
  -2   6 -14    3.84    0.83
  -3   6 -13    2.67    1.15
  -3   6 -13    3.68    0.89
  -2  -7  18   10.48    1.70
  -1  -7  17   11.00    1.85
  -1  -7  17   10.19    1.29
   1   7 -17   11.19    1.45
   1   7 -17    8.46    1.25
   0  -7  16   10.77    1.28
   0  -7  16   14.08    1.36
   0   7 -16    9.34    1.58
   0   7 -16   12.27    1.39
  -1   7 -15   15.70    1.64
  -1   7 -15   20.39    1.82
  -1   7 -15   18.51    1.46
  -1   7 -15   20.31    1.59
  -2   7 -14   -0.07    1.00
  -2   7 -14    0.28    0.86
  -2   7 -14    0.72    0.85
  -3   7 -13   13.99    1.60
  -1  -8  17    3.93    1.28
   1   8 -17    4.31    1.38
   1   8 -17    3.01    1.22
   0  -8  16    4.58    0.96
   0  -8  16    4.51    0.97
   0   8 -16    2.62    1.05
   0   8 -16    2.26    1.08
  -1   8 -15    4.46    1.01
  -1   8 -15    1.92    1.05
  -1   8 -15    3.40    0.99
  -2   8 -14    0.74    0.95
  -2   8 -14    1.64    1.12
  -2   8 -14    0.83    0.98
  -3   8 -13    5.72    1.23
  -3   8 -13    4.07    1.36
  -1  -9  17    7.68    1.61
   0  -9  16   12.50    2.24
   0   9 -16   14.01    1.55
   0   9 -16   16.15    1.99
  -1   9 -15   13.18    1.58
  -1   9 -15   11.28    1.32
  -2   9 -14    1.89    1.09
  -2   9 -14   -0.46    1.20
  -2   9 -14   -1.41    1.18
   0 -10  16    4.70    1.34
   0  10 -16    2.02    1.39
  -1  10 -15    4.83    1.37
  -1  10 -15    7.67    1.45
  -2  10 -14    0.48    1.26
   0   7  17   -0.93    1.14
   0  -7 -17   -0.59    1.34
  -1   6  18   23.94    2.18
   1  -6 -18   23.80    2.31
   0   6  17    3.24    1.06
   0   6  17    3.81    1.29
   0  -6 -17    3.74    1.29
   0  -6 -17    6.67    1.54
  -1  -6 -16    7.66    1.69
  -1  -6 -16    9.23    1.49
  -1   5  18    0.36    1.02
  -1   5  18    1.04    1.13
   1  -5 -18    2.60    1.37
   1  -5 -18    0.36    1.02
   0   5  17    0.04    1.33
   0   5  17    1.59    1.00
   0  -5 -17   -1.09    1.02
   0  -5 -17   -0.88    1.25
  -1  -5 -16    1.12    1.27
  -1  -5 -16    0.58    1.09
  -2  -5 -15    7.19    1.68
  -2   4  19   -0.19    1.30
   2  -4 -19   -1.16    1.14
  -1   4  18   19.68    1.76
  -1   4  18   18.54    1.70
   1  -4 -18   18.48    2.02
   1  -4 -18   19.32    1.87
   0   4  17    0.46    0.88
   0   4  17    0.58    0.77
   0   4  17    0.28    0.76
   0  -4 -17    0.60    0.98
   0  -4 -17   -1.82    0.91
  -1  -4 -16   15.07    1.63
  -1  -4 -16   13.04    1.46
  -1  -4 -16    8.66    1.19
  -2  -4 -15    2.65    1.36
  -2  -4 -15    1.55    1.17
  -2  -4 -15    2.02    1.11
  -2   3  19    0.23    1.19
   2  -3 -19   -1.33    1.32
   2  -3 -19    1.57    1.14
  -1   3  18    1.94    1.02
  -1   3  18    2.29    0.93
  -1   3  18   -0.64    1.04
   1  -3 -18   -1.49    1.04
   1  -3 -18    0.30    0.91
   0   3  17    0.34    0.82
   0   3  17    2.09    0.73
   0   3  17   -0.32    0.72
   0  -3 -17   -0.53    1.14
   0  -3 -17   -0.88    0.90
   1   3  16    0.88    0.72
  -1  -3 -16    0.69    0.93
  -1  -3 -16    2.10    0.91
  -1  -3 -16    0.25    0.97
  -2  -3 -15   -0.57    1.00
  -2  -3 -15   -0.57    0.95
  -2  -3 -15   -1.12    1.08
  -3  -3 -14   -0.88    1.45
  -2   2  19    0.26    1.10
   2  -2 -19    1.14    1.31
  -1   2  18   34.39    1.81
  -1   2  18   31.67    1.75
  -1   2  18   34.69    1.93
   1  -2 -18   33.62    2.02
   0   2  17   -0.06    0.73
   0   2  17    0.83    0.73
   0   2  17    0.79    0.63
   0  -2 -17   -0.01    0.80
   0  -2 -17    0.39    0.82
   0  -2 -17    0.76    0.75
   1   2  16   19.45    1.33
  -1  -2 -16   21.79    1.63
  -1  -2 -16   20.02    1.67
  -1  -2 -16   20.20    1.47
  -2  -2 -15    2.32    0.90
  -2  -2 -15    1.23    1.00
  -2  -2 -15    1.91    1.01
  -3  -2 -14    6.52    1.39
  -3  -2 -14    7.74    1.59
  -2   1  19   -0.32    1.05
   2  -1 -19    0.28    1.20
  -1   1  18    1.92    0.95
  -1   1  18    0.17    0.77
  -1   1  18    0.64    0.87
   1  -1 -18    1.05    0.93
   0   1  17    0.44    0.61
   0   1  17    0.12    0.67
   0   1  17    0.38    0.69
   0  -1 -17   -0.84    0.77
   0  -1 -17    0.05    0.81
   1   1  16   -0.64    0.75
  -1  -1 -16   -0.15    0.72
  -1  -1 -16    0.24    0.73
  -1  -1 -16    0.02    0.77
  -2  -1 -15    0.76    0.95
  -2  -1 -15   -0.71    0.75
  -3  -1 -14   -1.30    1.02
  -3  -1 -14   -0.71    1.27
  -2   0  19    0.16    1.09
   2   0 -19    0.70    1.15
  -1   0  18   27.68    1.67
  -1   0  18   27.55    1.68
  -1   0  18   30.53    1.57
   1   0 -18   27.99    1.80
   0   0  17   -0.51    0.65
   0   0  17    0.47    0.66
   0   0  17    0.20    0.59
   0   0 -17   -0.32    0.75
   0   0 -17    0.23    0.80
   1   0  16   20.15    1.43
  -1   0 -16   24.15    1.44
  -1   0 -16   24.07    1.38
  -1   0 -16   21.05    1.39
  -2   0 -15    6.03    0.84
  -2   0 -15    5.97    0.94
  -2   0 -15    3.92    0.85
  -3   0 -14    9.96    1.52
  -3   0 -14   13.49    1.61
  -2  -1  19    1.78    1.12
   2   1 -19   -1.23    1.12
  -1  -1  18   -1.81    0.74
  -1  -1  18    1.23    0.88
  -1  -1  18    1.06    0.85
   1   1 -18    1.15    0.90
   0  -1  17   -1.08    0.69
   0  -1  17    0.10    0.62
   0  -1  17   -0.77    0.55
   0   1 -17   -0.42    0.72
   0   1 -17   -0.21    0.70
   0   1 -17   -0.96    0.75
   1  -1  16   -0.48    0.79
  -1   1 -16    0.78    0.70
  -1   1 -16    0.55    0.69
  -1   1 -16    1.13    0.76
   2  -1  15    0.76    0.95
  -2   1 -15   -0.92    0.66
  -2   1 -15   -1.19    0.86
  -2   1 -15   -0.43    0.66
  -2   1 -15   -0.21    0.79
  -3   1 -14    0.53    0.88
  -3   1 -14   -1.79    1.06
  -3   1 -14    1.45    0.88
   2   2 -19    7.60    1.37
  -1  -2  18   35.45    1.79
  -1  -2  18   36.35    1.70
  -1  -2  18   35.85    1.79
   1   2 -18   37.12    2.01
   0  -2  17   -0.42    0.55
   0   2 -17   -0.12    0.74
   0   2 -17    0.02    0.66
   0   2 -17    0.25    0.76
   1  -2  16   12.95    1.40
  -1   2 -16   13.72    1.26
  -1   2 -16   12.81    1.23
  -1   2 -16   12.42    1.25
   2  -2  15    2.93    1.15
  -2   2 -15    2.12    0.72
  -2   2 -15    2.82    0.77
  -2   2 -15    0.39    0.86
  -2   2 -15    3.11    0.85
  -3   2 -14    6.46    0.96
  -3   2 -14    7.62    1.30
  -3   2 -14    6.25    1.12
  -2  -3  19    0.97    1.16
   2   3 -19   -1.28    1.21
  -1  -3  18    0.59    0.88
  -1  -3  18    0.51    0.83
   1   3 -18    0.76    0.87
   1   3 -18   -0.52    1.07
   0  -3  17    0.69    0.58
   0  -3  17    0.36    0.57
   0  -3  17    0.19    0.74
   0   3 -17    0.81    0.75
   0   3 -17    0.94    0.81
   0   3 -17    2.43    0.89
   1  -3  16   -0.41    0.94
  -1   3 -16    0.66    0.73
  -1   3 -16   -0.40    0.68
  -1   3 -16    0.25    0.66
   2  -3  15    1.06    1.18
  -2   3 -15   -0.03    0.70
  -2   3 -15   -0.50    0.66
  -2   3 -15    0.75    0.83
  -3   3 -14    3.20    1.09
  -3   3 -14    1.75    1.26
  -3   3 -14    2.51    0.87
  -2  -4  19    4.45    1.31
   2   4 -19    5.89    1.42
  -1  -4  18   29.81    1.69
   1   4 -18   30.83    2.03
   1   4 -18   25.55    1.78
   0  -4  17    0.39    0.83
   0  -4  17   -0.68    0.58
   0  -4  17    0.83    0.62
   0   4 -17   -0.29    0.86
   0   4 -17   -0.54    0.75
   0   4 -17    0.72    0.78
   1  -4  16   41.78    2.48
  -1   4 -16   33.09    1.58
  -1   4 -16   34.36    1.73
  -1   4 -16   32.62    1.57
   2  -4  15    1.58    2.05
  -2   4 -15    1.40    0.77
  -2   4 -15   -0.89    0.68
  -2   4 -15   -0.54    0.86
  -3   4 -14   10.04    0.99
  -3   4 -14    8.29    1.37
  -3   4 -14    7.61    1.26
  -2  -5  19    2.63    1.36
   2   5 -19   -0.02    1.39
  -1  -5  18   -2.10    0.83
  -1  -5  18   -0.25    0.92
   1   5 -18   -0.71    0.99
   1   5 -18    0.91    1.02
   0  -5  17   -0.75    0.85
   0  -5  17   -0.47    0.68
   0  -5  17    0.18    0.64
   0   5 -17    0.42    0.93
   0   5 -17    0.32    0.83
   0   5 -17   -0.22    0.80
   1  -5  16   -1.22    0.99
  -1   5 -16    1.39    0.91
  -1   5 -16   -0.30    0.74
  -1   5 -16    0.40    0.76
   2  -5  15    0.53    1.36
  -2   5 -15   -0.13    0.92
  -2   5 -15   -0.30    0.73
  -2   5 -15   -0.29    0.78
  -3   5 -14    0.10    1.13
  -3   5 -14   -0.12    0.91
  -3   5 -14    0.85    1.14
  -2  -6  19    4.55    1.58
  -1  -6  18   21.67    1.95
  -1  -6  18   26.91    1.89
   1   6 -18   23.16    1.94
   1   6 -18   26.41    2.13
   0  -6  17    0.51    0.75
   0  -6  17   -0.64    0.72
   0   6 -17   -1.11    0.88
   0   6 -17    0.18    0.92
   1  -6  16   21.97    2.82
  -1   6 -16   24.70    1.80
  -1   6 -16   24.13    1.58
  -1   6 -16   25.63    1.65
  -2   6 -15    0.63    0.82
  -2   6 -15    1.33    0.89
  -2   6 -15    2.07    1.02
  -3   6 -14   17.08    2.11
  -3   6 -14   15.13    1.64
  -1  -7  18    3.79    1.26
   1   7 -18    1.81    1.24
   1   7 -18    1.03    1.13
   0  -7  17    1.55    0.86
   0  -7  17    1.88    0.91
   0   7 -17   -0.22    1.05
   0   7 -17    1.97    1.02
  -1   7 -16    1.12    0.99
  -1   7 -16    0.92    1.03
  -1   7 -16    0.03    0.88
  -2   7 -15    0.37    0.90
  -2   7 -15   -0.29    1.02
  -2   7 -15   -0.58    1.06
  -3   7 -14    3.06    1.41
  -1  -8  18    5.45    1.44
   1   8 -18    4.63    2.11
   0  -8  17    3.40    1.08
   0  -8  17   -0.35    0.94
   0   8 -17    2.82    1.21
   0   8 -17    1.23    1.26
  -1   8 -16   23.65    2.02
  -1   8 -16   22.54    1.79
  -2   8 -15    0.56    1.24
  -2   8 -15    1.63    1.16
  -2   8 -15    0.61    1.06
   0  -9  17    2.69    2.04
   0   9 -17   -1.53    1.20
   0   9 -17   -0.67    1.35
  -1   9 -16   -0.90    1.25
  -1   9 -16   -1.37    1.17
  -2   9 -15   -1.47    1.25
  -2   9 -15    0.50    1.40
  -1  10 -16   12.88    1.64
   0  -6 -18    0.43    1.55
  -1   5  19    8.71    1.33
   1  -5 -19    9.07    1.46
   0   5  18   10.61    1.22
   0  -5 -18    7.81    1.58
   0  -5 -18    6.87    1.32
  -1  -5 -17    4.74    1.60
  -1  -5 -17    4.33    1.41
  -1   4  19    6.14    1.36
  -1   4  19    3.98    1.14
   1  -4 -19    2.86    1.26
   1  -4 -19    3.77    1.41
   0   4  18    0.59    1.03
   0   4  18    0.75    0.92
   0   4  18    1.16    1.33
   0  -4 -18    1.42    1.23
   0  -4 -18    2.75    1.09
  -1  -4 -17    0.98    1.30
  -1  -4 -17    0.80    1.06
  -2  -4 -16    0.88    1.51
  -1   3  19    9.05    1.22
  -1   3  19   10.21    1.35
   1  -3 -19    7.80    1.44
   1  -3 -19    8.85    1.36
   0   3  18    7.80    1.08
   0   3  18    7.12    1.03
   0   3  18    6.36    0.94
   0  -3 -18    7.80    1.34
   0  -3 -18    6.53    1.27
  -1  -3 -17    6.30    1.27
  -1  -3 -17    6.67    1.14
  -2  -3 -16    5.31    1.38
  -2  -3 -16    4.87    1.35
  -2  -3 -16    5.18    1.25
  -2   2  20   -0.56    1.25
  -1   2  19    8.29    1.16
  -1   2  19    6.24    1.20
   1  -2 -19   10.08    1.39
   0   2  18    2.74    0.87
   0   2  18    3.14    0.84
   0   2  18    3.09    0.88
   0  -2 -18    4.50    1.03
   0  -2 -18    3.55    1.11
   1   2  17    3.90    0.94
  -1  -2 -17    4.12    1.11
  -1  -2 -17    2.20    0.98
  -1  -2 -17    5.28    1.11
  -2  -2 -16    4.50    1.17
  -2  -2 -16    4.69    1.24
  -2  -2 -16    5.22    1.15
  -2   1  20    0.37    1.21
  -1   1  19   11.69    1.19
  -1   1  19   11.22    1.34
  -1   1  19   12.69    1.41
   1  -1 -19   13.07    1.44
   0   1  18    8.80    1.05
   0   1  18    8.39    0.95
   0   1  18    9.55    1.11
   0  -1 -18   12.09    1.31
   1   1  17    5.34    1.03
  -1  -1 -17    6.72    1.01
  -1  -1 -17    7.40    1.12
  -1  -1 -17    6.95    1.10
  -2  -1 -16    9.16    1.11
  -2  -1 -16    7.77    1.17
  -2  -1 -16    7.79    1.21
  -3  -1 -15    0.66    1.44
  -2   0  20   -0.85    1.23
   2   0 -20    3.22    1.89
  -1   0  19   12.02    1.34
  -1   0  19   11.77    1.15
   1   0 -19    9.93    1.33
   0   0  18    0.80    0.73
   0   0  18    1.65    0.69
   0   0 -18    2.42    0.94
   0   0 -18    1.29    0.92
   1   0  17    2.12    0.99
  -1   0 -17    4.17    0.94
  -1   0 -17    4.86    0.98
  -1   0 -17    5.33    0.97
  -1   0 -17    5.76    1.09
  -2   0 -16   10.25    1.19
  -2   0 -16    9.46    1.08
  -2   0 -16    8.69    1.44
  -2   0 -16   10.49    1.34
  -3   0 -15   -1.96    1.26
  -2  -1  20    1.92    1.30
   2   1 -20    0.20    1.50
  -1  -1  19    9.36    1.07
  -1  -1  19    7.57    1.18
   1   1 -19    7.73    1.20
   0  -1  18    7.88    1.29
   0  -1  18   11.49    1.10
   0   1 -18    9.13    1.09
   0   1 -18    7.39    1.10
   1  -1  17   18.95    1.65
  -1   1 -17   19.67    1.59
  -1   1 -17   18.74    1.47
  -1   1 -17   20.92    1.52
   2  -1  16   21.99    1.91
  -2   1 -16   18.01    1.51
  -2   1 -16   16.56    1.90
  -2   1 -16   20.32    1.44
  -3   1 -15   -2.21    1.18
  -2  -2  20    0.79    1.33
   2   2 -20    0.11    1.58
  -1  -2  19    8.55    1.10
  -1  -2  19    8.97    1.19
   1   2 -19    9.15    1.28
   0  -2  18    2.60    0.93
   0  -2  18    3.05    0.71
   0   2 -18    3.02    0.86
   0   2 -18    3.29    0.96
   0   2 -18    3.57    0.99
   1  -2  17    2.41    1.12
  -1   2 -17    4.65    0.91
  -1   2 -17    6.62    1.05
  -1   2 -17    6.52    0.95
   2  -2  16    7.73    1.40
  -2   2 -16    8.68    1.24
  -2   2 -16    9.29    1.28
  -2   2 -16    7.74    1.26
  -2   2 -16    8.62    1.05
  -3   2 -15    2.31    1.35
  -2  -3  20   -0.56    1.30
  -1  -3  19   11.26    1.20
  -1  -3  19   16.44    1.75
   1   3 -19   15.69    1.85
   0  -3  18    7.07    0.78
   0  -3  18    8.67    0.83
   0  -3  18    7.40    1.09
   0   3 -18    6.15    1.09
   0   3 -18    7.38    1.10
   0   3 -18   11.96    1.38
   1  -3  17    6.89    1.51
  -1   3 -17    8.45    0.98
  -1   3 -17   10.12    1.18
  -1   3 -17    7.74    1.04
  -2   3 -16    9.11    1.02
  -2   3 -16    9.73    1.18
  -3   3 -15   -0.99    1.15
  -3   3 -15   -1.53    1.31
  -2  -4  20    2.72    1.46
  -1  -4  19    7.62    1.16
   1   4 -19    9.92    1.53
   1   4 -19    8.10    1.27
   0  -4  18    1.68    0.69
   0  -4  18    3.04    1.32
   0  -4  18    2.52    0.75
   0   4 -18    4.49    1.13
   0   4 -18    2.76    1.00
   0   4 -18    1.13    1.13
   1  -4  17    9.58    1.41
  -1   4 -17    8.51    1.23
  -1   4 -17    8.98    1.07
  -1   4 -17   10.29    1.14
   2  -4  16    5.27    1.54
  -2   4 -16    6.38    1.14
  -2   4 -16    3.67    0.98
  -2   4 -16    2.50    0.98
  -3   4 -15    2.62    1.26
  -3   4 -15    2.15    1.42
  -1  -5  19   11.80    1.28
  -1  -5  19    9.65    1.38
   1   5 -19   11.95    1.62
   1   5 -19   10.19    1.41
   0  -5  18    5.33    0.82
   0  -5  18    6.18    0.86
   0   5 -18    5.24    1.14
   0   5 -18    5.63    1.12
   1  -5  17    8.53    1.53
  -1   5 -17    8.68    1.12
  -1   5 -17    7.70    1.19
  -1   5 -17    8.63    1.16
   2  -5  16   15.45    2.07
  -2   5 -16   12.61    1.51
  -2   5 -16   14.33    1.51
  -2   5 -16   11.14    1.41
  -3   5 -15    3.08    1.40
  -3   5 -15    3.36    1.38
  -1  -6  19    5.87    1.25
   1   6 -19    4.81    1.38
   1   6 -19    5.75    1.35
   0  -6  18    5.57    0.93
   0  -6  18    4.86    0.88
   0   6 -18    4.65    1.15
   0   6 -18    6.22    1.38
  -1   6 -17    7.02    1.27
  -1   6 -17    6.73    1.13
  -1   6 -17    4.83    1.05
  -2   6 -16    8.73    1.43
  -2   6 -16    5.06    1.10
  -2   6 -16    8.48    1.22
  -3   6 -15   -0.17    1.38
  -1  -7  19   10.95    1.49
   0  -7  18    4.93    0.98
   0  -7  18    5.43    1.12
   0   7 -18    7.39    1.42
   0   7 -18    3.22    1.26
  -1   7 -17    8.83    1.47
  -1   7 -17    6.15    1.20
  -2   7 -16    5.19    1.29
  -2   7 -16    5.62    1.42
  -2   7 -16    4.78    1.17
   0  -8  18    9.24    1.28
   0   8 -18    3.89    1.40
   0   8 -18    7.25    1.43
  -1   8 -17    9.26    1.37
  -1   8 -17    8.84    1.45
  -2   8 -16    4.69    1.30
  -2   8 -16    5.25    1.80
  -2   8 -16    6.69    1.55
  -1   9 -17    6.07    1.51
   0  -4 -19    0.60    1.40
   0  -4 -19    1.66    1.27
  -1  -4 -18    0.07    1.55
  -1   3  20    1.99    1.15
   1  -3 -20    1.63    1.32
   0   3  19   20.66    1.56
   0   3  19   12.31    1.79
   0  -3 -19   19.65    2.12
   0  -3 -19   18.77    2.22
  -1  -3 -18   -1.85    1.08
  -1  -3 -18   -0.47    1.23
  -2  -3 -17    7.95    1.68
  -1   2  20    1.42    1.12
   1  -2 -20    1.00    1.26
   1  -2 -20    0.28    1.15
   0   2  19    6.01    1.13
   0   2  19    5.99    0.97
   0  -2 -19    4.98    1.18
   0  -2 -19    7.19    1.35
  -1  -2 -18   -1.79    1.07
  -1  -2 -18    0.61    1.08
  -2  -2 -17    3.42    1.25
  -2  -2 -17   -1.19    1.25
  -2  -2 -17   -0.21    1.21
  -1   1  20   -0.54    1.07
   1  -1 -20   -0.06    1.25
   0   1  19   16.10    1.31
   0   1  19   17.14    1.47
   0  -1 -19   16.03    1.88
   1   1  18    0.00    1.03
  -1  -1 -18   -1.36    1.01
  -1  -1 -18    0.73    1.13
  -1  -1 -18   -0.35    0.96
  -2  -1 -17    9.87    1.38
  -2  -1 -17    8.20    1.27
  -2  -1 -17   10.55    1.55
  -1   0  20   -0.85    0.96
   1   0 -20    0.74    1.22
   0   0  19    1.61    1.02
   0   0  19    2.45    0.85
   0   0  19    1.46    0.73
   0   0 -19    2.28    1.07
   1   0  18   -0.71    1.07
  -1   0 -18    0.48    0.96
  -1   0 -18   -1.26    0.97
  -1   0 -18    0.83    0.94
  -2   0 -17    1.64    1.11
  -2   0 -17    2.07    1.01
  -2   0 -17   -2.55    1.11
  -2   0 -17    1.90    1.06
  -1  -1  20    4.71    1.41
  -1  -1  20    1.97    0.99
   1   1 -20    4.31    1.25
   0  -1  19   29.74    1.40
   0  -1  19   28.56    1.91
   0   1 -19   28.63    1.97
   1  -1  18   -1.17    1.16
  -1   1 -18   -0.07    0.98
  -1   1 -18    0.46    0.96
  -1   1 -18   -0.31    0.95
   2  -1  17    5.69    1.42
  -2   1 -17    2.32    1.06
  -2   1 -17    6.77    1.08
  -2   1 -17    3.28    1.29
  -2   1 -17    5.19    1.13
  -1  -2  20   -0.95    0.93
  -1  -2  20   -1.03    1.19
   1   2 -20   -0.85    1.14
   0  -2  19    1.23    1.00
   0  -2  19    1.18    0.74
   0  -2  19    2.12    0.77
   0   2 -19    2.85    1.12
   0   2 -19    1.45    1.03
   1  -2  18   -1.21    1.32
  -1   2 -18    0.26    0.97
  -1   2 -18    0.42    0.93
  -1   2 -18    1.47    1.01
  -2   2 -17    4.23    1.06
  -2   2 -17    1.95    1.03
  -2   2 -17    1.86    1.03
  -2   2 -17    2.56    1.18
  -1  -3  20    6.08    1.19
   1   3 -20    3.94    1.35
   0  -3  19   25.10    1.35
   0  -3  19   23.53    1.32
   0   3 -19   20.20    1.82
   0   3 -19   23.34    1.99
   1  -3  18    2.08    1.27
  -1   3 -18   -0.72    0.93
  -1   3 -18    0.67    0.94
  -1   3 -18   -0.02    0.92
   2  -3  17   20.29    2.57
  -2   3 -17   16.81    1.79
  -2   3 -17   21.68    1.72
  -2   3 -17   19.58    1.63
  -1  -4  20    1.58    1.12
   1   4 -20   -0.46    1.20
   1   4 -20    1.54    1.41
   0  -4  19    0.68    0.74
   0  -4  19    1.39    0.81
   0   4 -19    0.93    1.08
   0   4 -19    1.99    1.21
   1  -4  18   -1.63    1.31
  -1   4 -18   -0.60    0.90
  -1   4 -18   -0.49    1.00
  -1   4 -18    1.26    1.05
   2  -4  17    2.06    1.69
  -2   4 -17    0.87    1.04
  -2   4 -17    0.88    1.15
  -2   4 -17    1.22    0.99
  -1  -5  20    2.11    1.20
   1   5 -20    1.35    1.46
   1   5 -20    5.24    1.52
   0  -5  19   24.78    1.86
   0  -5  19   21.38    1.36
   0   5 -19   22.11    1.98
   0   5 -19   21.56    2.10
  -1   5 -18   -0.71    1.00
  -1   5 -18    0.23    0.95
  -1   5 -18    0.28    1.09
  -2   5 -17   14.81    1.60
  -2   5 -17   11.91    1.33
  -2   5 -17   14.74    1.76
  -1  -6  20    0.97    1.24
   0  -6  19   -0.31    0.91
   0   6 -19    0.15    1.16
   0   6 -19   -1.25    1.20
  -1   6 -18   -0.20    1.06
  -1   6 -18    0.59    1.24
  -2   6 -17    0.30    1.30
  -2   6 -17   -0.67    1.26
  -2   6 -17    1.18    1.15
   0   7 -19    3.17    1.45
   0   7 -19    2.42    1.32
  -1   7 -18    4.08    1.49
  -1   7 -18    2.10    1.20
  -2   7 -17   17.33    2.06
  -2   7 -17   15.95    1.89
  -1   8 -18   -1.13    1.28
  -1   8 -18   -0.07    1.67
  -1  -3 -19    0.00    1.46
   0  -2 -20   10.99    1.55
   0  -2 -20   12.92    1.56
  -1  -2 -19    4.55    1.40
  -1   1  21    3.22    1.26
   0   1  20    6.54    1.34
   0  -1 -20    5.02    1.37
   0  -1 -20    6.18    1.28
  -1  -1 -19    1.10    1.35
  -1  -1 -19   -0.07    1.25
  -2  -1 -18    0.61    1.36
  -1   0  21   -1.56    1.18
   0   0  20   10.46    1.11
   0   0  20    9.52    1.40
   0   0 -20   11.25    1.49
   1   0  19    1.14    1.53
  -1   0 -19    3.59    1.21
  -1   0 -19    6.55    1.24
  -2   0 -18   15.30    2.56
  -2   0 -18   12.67    1.61
  -1  -1  21   -1.21    1.10
   0  -1  20    1.60    0.86
   0   1 -20    4.38    1.32
   1  -1  19    0.23    1.35
  -1   1 -19    1.58    1.11
  -1   1 -19    0.75    1.06
  -2   1 -18    2.22    1.26
  -2   1 -18   -1.01    1.37
  -1  -2  21    1.54    1.15
   0  -2  20   19.59    1.45
   0   2 -20   17.04    1.66
   0   2 -20   16.70    2.08
   1  -2  19    5.76    1.53
  -1   2 -19    6.22    1.25
  -1   2 -19    4.88    1.25
  -2   2 -18    6.74    1.38
  -2   2 -18    7.13    1.55
  -2   2 -18    7.77    1.31
  -1  -3  21   -1.16    1.13
   0  -3  20    1.05    1.39
   0   3 -20    2.73    1.22
   0   3 -20    4.48    1.36
   1  -3  19   -1.01    1.52
  -1   3 -19   -2.04    1.02
  -1   3 -19    0.71    1.14
   2  -3  18    4.65    1.89
  -2   3 -18    1.95    1.22
  -2   3 -18    0.45    1.19
  -1  -4  21    1.53    1.27
   0   4 -20   16.54    2.21
   0   4 -20    9.02    1.43
  -1   4 -19    6.57    1.32
  -1   4 -19    8.16    1.32
  -2   4 -18    7.71    1.38
  -2   4 -18    8.33    1.46
   0   5 -20    3.73    1.37
   0   5 -20    3.97    1.46
  -1   5 -19    0.03    1.18
  -1   5 -19    0.41    1.21
  -2   5 -18    0.32    1.25
  -2   5 -18    3.37    1.44
   0   6 -20   18.75    2.03
   0   6 -20   13.87    1.69
  -1   6 -19    4.90    1.55
  -1   6 -19    4.04    1.31
  -1   7 -19    5.88    1.76
   0   0 -21    4.10    1.62
  -1   0 -20   12.41    1.64
   0   1 -21    2.84    1.40
  -1   1 -20    5.53    1.41
   0   2 -21    7.11    1.50
  -1   2 -20   12.00    1.59
  -1   2 -20   14.27    1.69
   0   3 -21    1.24    1.40
   0   3 -21    0.40    1.44
  -1   3 -20    5.54    1.49
  -1   3 -20    2.98    1.38
   0   4 -21    1.37    1.55
   0   4 -21   -0.42    1.51
  -1   4 -20    7.64    1.50
  -1   4 -20    9.85    1.61
  -1   5 -20    0.14    1.47
   0   0   0    0.00    0.00
;
_shelx_hkl_checksum              8751
loop_
_space_group_symop_operation_xyz
'x, y, z'
'-x, -y, -z'
loop_
_atom_site_label
_atom_site_type_symbol
_atom_site_fract_x
_atom_site_fract_y
_atom_site_fract_z
_atom_site_U_iso_or_equiv
_atom_site_adp_type
_atom_site_occupancy
_atom_site_site_symmetry_order
_atom_site_calc_flag
_atom_site_refinement_flags_posn
_atom_site_refinement_flags_adp
Br1 Br 0.96765(8) 0.24264(3) 0.74926(2) 0.01444(9) Uani 1 1 d . .
Br2 Br 0.26156(9) 0.74932(3) 1.04409(2) 0.01701(10) Uani 1 1 d . .
N1 N 0.5910(7) 1.0426(2) 0.33726(15) 0.0103(5) Uani 1 1 d . .
N2 N 0.6466(7) 0.7664(2) 0.55087(15) 0.0104(5) Uani 1 1 d . .
C1 C 0.5168(8) 1.1538(3) 0.31446(19) 0.0106(6) Uani 1 1 d . .
C2 C 0.5455(8) 1.0221(3) 0.41756(19) 0.0105(6) Uani 1 1 d . .
C3 C 0.6166(8) 0.9049(3) 0.44402(19) 0.0119(7) Uani 1 1 d . .
H3 H 0.6941 0.8408 0.4063 0.014 Uiso 1 1 calc R U
C4 C 0.5738(8) 0.8819(3) 0.52560(19) 0.0101(6) Uani 1 1 d . .
C5 C 0.6025(8) 0.7490(3) 0.62903(18) 0.0102(6) Uani 1 1 d . .
C6 C 0.6785(8) 0.6271(3) 0.65842(19) 0.0095(6) Uani 1 1 d . .
C7 C 0.7915(8) 0.5318(3) 0.60312(19) 0.0119(7) Uani 1 1 d . .
H7 H 0.8131 0.5469 0.5469 0.014 Uiso 1 1 calc R U
C8 C 0.8719(8) 0.4164(3) 0.62848(19) 0.0126(7) Uani 1 1 d . .
H8 H 0.9464 0.3520 0.5905 0.015 Uiso 1 1 calc R U
C9 C 0.8407(8) 0.3973(3) 0.7113(2) 0.0120(6) Uani 1 1 d . .
C10 C 0.7264(8) 0.4885(3) 0.76703(19) 0.0110(6) Uani 1 1 d . .
H10 H 0.7060 0.4722 0.8231 0.013 Uiso 1 1 calc R U
C11 C 0.6402(8) 0.6053(3) 0.74128(19) 0.0109(6) Uani 1 1 d . .
C12 C 0.5135(8) 0.7040(3) 0.79904(19) 0.0104(6) Uani 1 1 d . .
C13 C 0.4402(8) 0.8223(3) 0.77170(19) 0.0100(6) Uani 1 1 d . .
C14 C 0.3268(8) 0.9171(3) 0.82690(19) 0.0119(6) Uani 1 1 d . .
H14 H 0.2825 0.9969 0.8083 0.014 Uiso 1 1 calc R U
C15 C 0.2784(8) 0.8967(3) 0.9077(2) 0.0138(7) Uani 1 1 d . .
H15 H 0.2013 0.9615 0.9450 0.017 Uiso 1 1 calc R U
C16 C 0.3448(8) 0.7791(3) 0.93367(19) 0.0138(7) Uani 1 1 d . .
C17 C 0.4612(8) 0.6848(3) 0.88157(19) 0.0120(7) Uani 1 1 d . .
H17 H 0.5067 0.6059 0.9014 0.014 Uiso 1 1 calc R U
loop_
_atom_site_aniso_label
_atom_site_aniso_U_11
_atom_site_aniso_U_22
_atom_site_aniso_U_33
_atom_site_aniso_U_23
_atom_site_aniso_U_13
_atom_site_aniso_U_12
Br1 0.01812(19) 0.01223(17) 0.01462(17) 0.00444(13) 0.00326(14) 0.00532(13)
Br2 0.0206(2) 0.02214(19) 0.01010(16) 0.00439(13) 0.00559(14) 0.00463(14)
N1 0.0109(14) 0.0106(13) 0.0097(13) 0.0021(10) 0.0013(11) 0.0017(10)
N2 0.0122(14) 0.0099(13) 0.0092(13) 0.0026(10) 0.0009(11) 0.0005(10)
C1 0.0069(15) 0.0136(15) 0.0107(15) 0.0010(12) 0.0004(12) -0.0005(12)
C2 0.0099(16) 0.0116(15) 0.0095(15) 0.0007(12) 0.0015(12) -0.0002(12)
C3 0.0148(17) 0.0076(14) 0.0125(16) -0.0025(12) 0.0010(13) 0.0025(12)
C4 0.0090(15) 0.0098(14) 0.0113(15) 0.0011(12) 0.0007(13) 0.0006(12)
C5 0.0084(16) 0.0117(15) 0.0096(15) 0.0006(12) -0.0014(13) 0.0007(12)
C6 0.0085(15) 0.0086(14) 0.0106(15) 0.0014(12) -0.0014(12) 0.0001(12)
C7 0.0108(16) 0.0127(15) 0.0125(16) 0.0043(13) 0.0004(13) 0.0005(12)
C8 0.0121(16) 0.0120(15) 0.0129(16) -0.0002(13) 0.0004(13) 0.0016(12)
C9 0.0100(16) 0.0098(15) 0.0156(16) 0.0026(13) -0.0015(13) 0.0011(12)
C10 0.0095(16) 0.0145(15) 0.0093(15) 0.0028(12) 0.0013(12) 0.0011(12)
C11 0.0081(16) 0.0121(15) 0.0124(16) 0.0031(13) 0.0002(13) 0.0005(12)
C12 0.0080(15) 0.0118(15) 0.0100(15) -0.0004(12) 0.0012(12) -0.0028(12)
C13 0.0096(16) 0.0117(15) 0.0081(14) -0.0001(12) 0.0020(12) -0.0005(12)
C14 0.0128(16) 0.0131(15) 0.0105(15) 0.0036(12) 0.0006(13) 0.0039(13)
C15 0.0142(17) 0.0142(16) 0.0128(16) -0.0006(13) 0.0021(14) 0.0025(13)
C16 0.0111(17) 0.0210(17) 0.0089(15) 0.0033(13) 0.0008(13) -0.0011(13)
C17 0.0121(16) 0.0129(15) 0.0106(15) 0.0016(12) 0.0005(13) 0.0004(13)
loop_
_atom_type_symbol
_atom_type_description
_atom_type_scat_dispersion_real
_atom_type_scat_dispersion_imag
_atom_type_scat_source
C C 0.0033 0.0016 'International Tables Vol C Tables 4.2.6.8 and 6.1.1.4'
H H 0.0000 0.0000 'International Tables Vol C Tables 4.2.6.8 and 6.1.1.4'
N N 0.0061 0.0033 'International Tables Vol C Tables 4.2.6.8 and 6.1.1.4'
Br Br -0.2901 2.4595 'International Tables Vol C Tables 4.2.6.8 and 6.1.1.4'
loop_
_geom_angle_atom_site_label_1
_geom_angle_atom_site_label_2
_geom_angle_atom_site_label_3
_geom_angle
_geom_angle_site_symmetry_1
_geom_angle_site_symmetry_3
C1 N1 C2 116.9(3) . .
C5 N2 C4 117.1(3) . .
N1 C1 C5 122.3(3) . 2_676
N1 C1 C13 118.0(3) . 2_676
C5 C1 C13 119.7(3) 2_676 2_676
N1 C2 C3 118.8(3) . .
N1 C2 C4 121.3(3) . 2_676
C3 C2 C4 119.8(3) . 2_676
C4 C3 C2 120.0(3) . .
C4 C3 H3 120.0 . .
C2 C3 H3 120.0 . .
N2 C4 C3 119.3(3) . .
N2 C4 C2 120.5(3) . 2_676
C3 C4 C2 120.2(3) . 2_676
N2 C5 C1 121.8(3) . 2_676
N2 C5 C6 118.7(3) . .
C1 C5 C6 119.4(3) 2_676 .
C7 C6 C11 119.9(3) . .
C7 C6 C5 119.5(3) . .
C11 C6 C5 120.6(3) . .
C8 C7 C6 121.5(3) . .
C8 C7 H7 119.3 . .
C6 C7 H7 119.3 . .
C7 C8 C9 118.0(3) . .
C7 C8 H8 121.0 . .
C9 C8 H8 121.0 . .
C10 C9 C8 122.0(3) . .
C10 C9 Br1 119.1(2) . .
C8 C9 Br1 118.9(2) . .
C9 C10 C11 120.3(3) . .
C9 C10 H10 119.9 . .
C11 C10 H10 119.9 . .
C10 C11 C6 118.4(3) . .
C10 C11 C12 121.5(3) . .
C6 C11 C12 120.1(3) . .
C17 C12 C13 118.0(3) . .
C17 C12 C11 122.0(3) . .
C13 C12 C11 119.9(3) . .
C14 C13 C12 120.0(3) . .
C14 C13 C1 119.7(3) . 2_676
C12 C13 C1 120.2(3) . 2_676
C15 C14 C13 121.1(3) . .
C15 C14 H14 119.5 . .
C13 C14 H14 119.5 . .
C14 C15 C16 118.5(3) . .
C14 C15 H15 120.7 . .
C16 C15 H15 120.7 . .
C17 C16 C15 121.9(3) . .
C17 C16 Br2 119.8(2) . .
C15 C16 Br2 118.3(2) . .
C16 C17 C12 120.4(3) . .
C16 C17 H17 119.8 . .
C12 C17 H17 119.8 . .
loop_
_geom_bond_atom_site_label_1
_geom_bond_atom_site_label_2
_geom_bond_distance
_geom_bond_site_symmetry_2
Br1 C9 1.896(3) .
Br2 C16 1.902(3) .
N1 C1 1.317(4) .
N1 C2 1.366(4) .
N2 C5 1.323(4) .
N2 C4 1.373(4) .
C1 C5 1.438(4) 2_676
C1 C13 1.466(4) 2_676
C2 C3 1.395(4) .
C2 C4 1.433(4) 2_676
C3 C4 1.391(4) .
C3 H3 0.9500 .
C4 C2 1.433(4) 2_676
C5 C1 1.438(4) 2_676
C5 C6 1.465(4) .
C6 C7 1.402(4) .
C6 C11 1.404(4) .
C7 C8 1.380(4) .
C7 H7 0.9500 .
C8 C9 1.391(4) .
C8 H8 0.9500 .
C9 C10 1.379(4) .
C10 C11 1.402(4) .
C10 H10 0.9500 .
C11 C12 1.474(4) .
C12 C17 1.404(4) .
C12 C13 1.414(4) .
C13 C14 1.398(4) .
C13 C1 1.466(4) 2_676
C14 C15 1.377(4) .
C14 H14 0.9500 .
C15 C16 1.391(4) .
C15 H15 0.9500 .
C16 C17 1.371(4) .
C17 H17 0.9500 .
loop_
_geom_hbond_atom_site_label_D
_geom_hbond_atom_site_label_H
_geom_hbond_atom_site_label_A
_geom_hbond_distance_DH
_geom_hbond_distance_HA
_geom_hbond_distance_DA
_geom_hbond_angle_DHA
_geom_hbond_site_symmetry_A
C3 H3 Br1 0.95 3.04 3.905(3) 151.7 2_766
C3 H3 Br1 0.95 3.04 3.905(3) 151.7 2_766
loop_
_geom_torsion_atom_site_label_1
_geom_torsion_atom_site_label_2
_geom_torsion_atom_site_label_3
_geom_torsion_atom_site_label_4
_geom_torsion
_geom_torsion_site_symmetry_1
_geom_torsion_site_symmetry_4
C2 N1 C1 C5 0.8(4) . 2_676
C2 N1 C1 C13 -179.4(3) . 2_676
C1 N1 C2 C3 179.2(3) . .
C1 N1 C2 C4 -0.7(4) . 2_676
N1 C2 C3 C4 179.7(3) . .
C4 C2 C3 C4 -0.5(5) 2_676 .
C5 N2 C4 C3 179.9(3) . .
C5 N2 C4 C2 -0.2(4) . 2_676
C2 C3 C4 N2 -179.6(3) . .
C2 C3 C4 C2 0.5(5) . 2_676
C4 N2 C5 C1 0.1(4) . 2_676
C4 N2 C5 C6 -179.8(3) . .
N2 C5 C6 C7 -0.7(4) . .
C1 C5 C6 C7 179.4(3) 2_676 .
N2 C5 C6 C11 179.1(3) . .
C1 C5 C6 C11 -0.8(4) 2_676 .
C11 C6 C7 C8 -1.0(5) . .
C5 C6 C7 C8 178.9(3) . .
C6 C7 C8 C9 -0.5(5) . .
C7 C8 C9 C10 1.3(5) . .
C7 C8 C9 Br1 -177.5(2) . .
C8 C9 C10 C11 -0.6(5) . .
Br1 C9 C10 C11 178.2(2) . .
C9 C10 C11 C6 -1.0(5) . .
C9 C10 C11 C12 179.3(3) . .
C7 C6 C11 C10 1.7(4) . .
C5 C6 C11 C10 -178.1(3) . .
C7 C6 C11 C12 -178.5(3) . .
C5 C6 C11 C12 1.6(4) . .
C10 C11 C12 C17 -2.2(5) . .
C6 C11 C12 C17 178.1(3) . .
C10 C11 C12 C13 177.9(3) . .
C6 C11 C12 C13 -1.8(4) . .
C17 C12 C13 C14 1.4(4) . .
C11 C12 C13 C14 -178.7(3) . .
C17 C12 C13 C1 -178.7(3) . 2_676
C11 C12 C13 C1 1.2(4) . 2_676
C12 C13 C14 C15 -1.2(5) . .
C1 C13 C14 C15 178.9(3) 2_676 .
C13 C14 C15 C16 0.0(5) . .
C14 C15 C16 C17 1.0(5) . .
C14 C15 C16 Br2 -177.8(2) . .
C15 C16 C17 C12 -0.7(5) . .
Br2 C16 C17 C12 178.1(2) . .
C13 C12 C17 C16 -0.5(5) . .
C11 C12 C17 C16 179.6(3) . .
