#------------------------------------------------------------------------------
#$Date: 2019-10-28 00:41:07 +0200 (Mon, 28 Oct 2019) $
#$Revision: 219544 $
#$URL: file:///home/coder/svn-repositories/cod/cif/4/51/44/4514441.cif $
#------------------------------------------------------------------------------
#
# This file is available in the Crystallography Open Database (COD),
# http://www.crystallography.net/
#
# All data on this site have been placed in the public domain by the
# contributors.
#
data_4514441
loop_
_publ_author_name
'Li, Chunyang'
'Bai, Xianwei'
'Guo, Yongchang'
'Zou, Bingsuo'
_publ_section_title
;
 Tunable Emission Properties of Manganese Chloride Small Single Crystals
 by Pyridine Incorporation.
;
_journal_issue                   5
_journal_name_full               'ACS omega'
_journal_page_first              8039
_journal_page_last               8045
_journal_paper_doi               10.1021/acsomega.8b03661
_journal_volume                  4
_journal_year                    2019
_chemical_formula_moiety         'Cl3 H2 Mn O, C5 H6 N'
_chemical_formula_sum            'C5 H8 Cl3 Mn N O'
_chemical_formula_weight         259.41
_space_group_crystal_system      monoclinic
_space_group_IT_number           14
_space_group_name_Hall           '-P 2yn'
_space_group_name_H-M_alt        'P 1 21/n 1'
_symmetry_space_group_name_Hall  '-P 2yn'
_symmetry_space_group_name_H-M   'P 1 21/n 1'
_atom_sites_solution_hydrogens   mixed
_atom_sites_solution_primary     dual
_audit_creation_date             2018-06-21
_audit_creation_method
;
Olex2 1.2
(compiled 2018.05.29 svn.r3508 for OlexSys, GUI svn.r5506)
;
_audit_update_record
;
????
;
_cell_angle_alpha                90
_cell_angle_beta                 102.83(3)
_cell_angle_gamma                90
_cell_formula_units_Z            4
_cell_length_a                   11.417(2)
_cell_length_b                   7.2779(15)
_cell_length_c                   11.817(2)
_cell_measurement_reflns_used    3079
_cell_measurement_temperature    153(2)
_cell_measurement_theta_max      27.4816
_cell_measurement_theta_min      1.7675
_cell_volume                     957.4(3)
_computing_molecular_graphics    'Olex2 (Dolomanov et al., 2009)'
_computing_publication_material  'Olex2 (Dolomanov et al., 2009)'
_computing_structure_refinement  'ShelXL (Sheldrick, 2015)'
_computing_structure_solution    'ShelXT (Sheldrick, 2015)'
_diffrn_ambient_temperature      153.15
_diffrn_measured_fraction_theta_full 0.990
_diffrn_measured_fraction_theta_max 0.984
_diffrn_measurement_device_type  'multiwire proportional'
_diffrn_measurement_method       'phi and omega scans'
_diffrn_radiation_monochromator  graphite
_diffrn_radiation_type           MoK\a
_diffrn_radiation_wavelength     0.71073
_diffrn_reflns_av_R_equivalents  0.0406
_diffrn_reflns_av_unetI/netI     0.0338
_diffrn_reflns_Laue_measured_fraction_full 0.990
_diffrn_reflns_Laue_measured_fraction_max 0.984
_diffrn_reflns_limit_h_max       14
_diffrn_reflns_limit_h_min       -12
_diffrn_reflns_limit_k_max       8
_diffrn_reflns_limit_k_min       -9
_diffrn_reflns_limit_l_max       14
_diffrn_reflns_limit_l_min       -15
_diffrn_reflns_number            6353
_diffrn_reflns_point_group_measured_fraction_full 0.990
_diffrn_reflns_point_group_measured_fraction_max 0.984
_diffrn_reflns_theta_full        25.242
_diffrn_reflns_theta_max         27.488
_diffrn_reflns_theta_min         2.813
_exptl_absorpt_coefficient_mu    2.160
_exptl_absorpt_correction_T_max  1.0000
_exptl_absorpt_correction_T_min  0.7822
_exptl_absorpt_correction_type   multi-scan
_exptl_absorpt_process_details   'CrystalClear (Rigaku Inc., 2008)'
_exptl_crystal_colour            colorless
_exptl_crystal_density_diffrn    1.800
_exptl_crystal_description       block
_exptl_crystal_F_000             516
_exptl_crystal_size_max          0.13
_exptl_crystal_size_mid          0.122
_exptl_crystal_size_min          0.1
_refine_diff_density_max         0.438
_refine_diff_density_min         -0.478
_refine_diff_density_rms         0.089
_refine_ls_extinction_method     none
_refine_ls_goodness_of_fit_ref   1.157
_refine_ls_hydrogen_treatment    constr
_refine_ls_matrix_type           full
_refine_ls_number_parameters     100
_refine_ls_number_reflns         2160
_refine_ls_number_restraints     0
_refine_ls_restrained_S_all      1.157
_refine_ls_R_factor_all          0.0333
_refine_ls_R_factor_gt           0.0320
_refine_ls_shift/su_max          0.001
_refine_ls_shift/su_mean         0.000
_refine_ls_structure_factor_coef Fsqd
_refine_ls_weighting_details
'w=1/[\s^2^(Fo^2^)+(0.0385P)^2^+0.4571P] where P=(Fo^2^+2Fc^2^)/3'
_refine_ls_weighting_scheme      calc
_refine_ls_wR_factor_gt          0.0827
_refine_ls_wR_factor_ref         0.0836
_reflns_Friedel_coverage         0.000
_reflns_number_gt                2100
_reflns_number_total             2160
_reflns_threshold_expression     'I > 2\s(I)'
_iucr_refine_instructions_details
;
TITL bwn18140_a.res in P2(1)/n
    bwn18140.res
    created by SHELXL-2018/3 at 18:40:36 on 07-Dec-2016
CELL 0.71073 11.4169 7.2779 11.8166 90 102.829 90
ZERR 4 0.0023 0.0015 0.0024 0 0.03 0
LATT 1
SYMM 0.5-X,0.5+Y,0.5-Z
SFAC C H Cl Mn N O
UNIT 20 32 12 4 4 4

L.S. 4
PLAN  5
SIZE 0.13 0.122 0.1
TEMP -120
ACTA
BOND $H
CONF
list 4
fmap 2
OMIT -2 2 2
OMIT -4 2 3
OMIT -6 4 6
OMIT -3 3 3
OMIT -1 1 1
REM <olex2.extras>
REM <HklSrc "%.\\bwn18140.hkl">
REM </olex2.extras>

WGHT    0.038500    0.457100
FVAR       0.47042
MN1   4    0.239861    0.333593    0.740033    11.00000    0.01489    0.01241 =
         0.01330    0.00047    0.00173    0.00013
CL1   3    0.331817    0.082307    0.634140    11.00000    0.01867    0.01457 =
         0.01502   -0.00015    0.00447    0.00019
CL2   3    0.307224    0.589970    0.625696    11.00000    0.02288    0.01429 =
         0.01362   -0.00076    0.00529   -0.00144
CL3   3    0.039065    0.298457    0.604705    11.00000    0.01534    0.02076 =
         0.01497    0.00055   -0.00017    0.00043
O1    6    0.422058    0.363032    0.855562    11.00000    0.02000    0.01933 =
         0.01560    0.00045   -0.00120   -0.00011
AFIX   3  0.8400
H1B   2    0.438088    0.472782    0.875002    11.00000   -1.20000
H1C   2    0.443628    0.310952    0.920282    11.00000   -1.20000
AFIX   0

N1    5    0.893014    0.625012    0.744403    11.00000    0.01648    0.03170 =
         0.03358   -0.00205    0.00913    0.00062
AFIX   3  0.8500
H1    2    0.964474    0.612372    0.735583    11.00000   -1.20000
AFIX   0
C1    1    0.854677    0.629959    0.843019    11.00000    0.02443    0.03614 =
         0.02162   -0.00025    0.00153    0.00319
AFIX  43
H1A   2    0.910725    0.628724    0.915665    11.00000   -1.20000
AFIX   0
C2    1    0.733482    0.636859    0.838832    11.00000    0.02726    0.04576 =
         0.02354   -0.00033    0.00981    0.00448
AFIX  43
H2    2    0.705036    0.641196    0.908480    11.00000   -1.20000
AFIX   0
C3    1    0.653389    0.637423    0.732218    11.00000    0.01910    0.03388 =
         0.02805   -0.00241    0.00844    0.00258
AFIX  43
H3    2    0.569366    0.641467    0.728043    11.00000   -1.20000
AFIX   0
C4    1    0.696548    0.632044    0.631350    11.00000    0.02344    0.03265 =
         0.02036   -0.00354    0.00338    0.00082
AFIX  43
H4    2    0.642304    0.633292    0.557653    11.00000   -1.20000
AFIX   0
C5    1    0.817699    0.624935    0.638791    11.00000    0.02767    0.03341 =
         0.02242   -0.00115    0.01166    0.00035
AFIX  43
H5    2    0.848454    0.620004    0.570457    11.00000   -1.20000
AFIX   0
HKLF 4




REM  bwn18140_a.res in P2(1)/n
REM wR2 = 0.0836, GooF = S = 1.157, Restrained GooF = 1.157 for all data
REM R1 = 0.0320 for 2100 Fo > 4sig(Fo) and 0.0333 for all 2160 data
REM 100 parameters refined using 0 restraints

END  
     
WGHT      0.0386      0.4575 

REM Highest difference peak  0.438,  deepest hole -0.478,  1-sigma level  0.089
Q1    1   0.1221  0.3045  0.7145  11.00000  0.05    0.39
Q2    1   0.4185  0.6052  0.6772  11.00000  0.05    0.36
Q3    1   0.0761  0.1459  0.6383  11.00000  0.05    0.35
Q4    1   0.7798  0.6472  0.8349  11.00000  0.05    0.33
Q5    1   0.7573  0.6946  0.6387  11.00000  0.05    0.31

  REM The information below was added by Olex2.
  REM
  REM R1 = 0.0320 for 2100 Fo > 4sig(Fo) and 0.0333 for all 6696 data
  REM n/a parameters refined using n/a restraints
  REM Highest difference peak 0.44, deepest hole -0.48
  REM Mean Shift 0, Max Shift 0.001.

  REM +++ Tabular Listing of Refinement Information +++
  REM R1_all = 0.0333
  REM R1_gt = 0.0320
  REM wR_ref = 0.0836
  REM GOOF = 1.157
  REM Shift_max = 0.001
  REM Shift_mean = 0
  REM Reflections_all = 6696
  REM Reflections_gt = 2100
  REM Parameters = n/a
  REM Hole = -0.48
  REM Peak = 0.44
  REM Flack = n/a

  
;
_cod_data_source_file            ao8b03661_si_001.cif
_cod_data_source_block           bwn18140
_cod_original_cell_volume        957.3(4)
_cod_database_code               4514441
_shelx_shelxl_version_number     2018/3
_shelx_space_group_comment
;
The symmetry employed for this shelxl refinement is uniquely defined
by the following loop, which should always be used as a source of
symmetry information in preference to the above space-group names.
They are only intended as comments.
;
_shelx_estimated_absorpt_t_max   0.813
_shelx_estimated_absorpt_t_min   0.767
_olex2_refinement_description
;
1. Fixed Uiso
 At 1.2 times of:
  All C(H) groups, All N(H) groups, All O(H,H) groups
2.a Riding coordinates:
 O1(H1B,H1C), N1(H1)
2.b Aromatic/amide H refined with riding coordinates:
 C1(H1A), C2(H2), C3(H3), C4(H4), C5(H5)
;
_olex2_submission_special_instructions 'No special instructions were received'
loop_
_space_group_symop_operation_xyz
'x, y, z'
'-x+1/2, y+1/2, -z+1/2'
'-x, -y, -z'
'x-1/2, -y-1/2, z-1/2'
loop_
_atom_site_label
_atom_site_type_symbol
_atom_site_fract_x
_atom_site_fract_y
_atom_site_fract_z
_atom_site_U_iso_or_equiv
_atom_site_adp_type
_atom_site_occupancy
_atom_site_site_symmetry_order
_atom_site_calc_flag
_atom_site_refinement_flags_posn
Mn1 Mn 0.23986(3) 0.33359(4) 0.74003(2) 0.01375(11) Uani 1 1 d .
Cl1 Cl 0.33182(4) 0.08231(6) 0.63414(4) 0.01597(13) Uani 1 1 d .
Cl2 Cl 0.30722(4) 0.58997(6) 0.62570(4) 0.01674(13) Uani 1 1 d .
Cl3 Cl 0.03907(4) 0.29846(6) 0.60470(4) 0.01758(13) Uani 1 1 d .
O1 O 0.42206(13) 0.3630(2) 0.85556(12) 0.0191(3) Uani 1 1 d .
H1B H 0.438088 0.472782 0.875002 0.023 Uiso 1 1 d R
H1C H 0.443628 0.310952 0.920282 0.023 Uiso 1 1 d R
N1 N 0.89301(17) 0.6250(3) 0.74440(17) 0.0267(4) Uani 1 1 d .
H1 H 0.964474 0.612372 0.735583 0.032 Uiso 1 1 d R
C1 C 0.8547(2) 0.6300(3) 0.8430(2) 0.0280(5) Uani 1 1 d .
H1A H 0.910725 0.628724 0.915665 0.034 Uiso 1 1 calc R
C2 C 0.7335(2) 0.6369(4) 0.8388(2) 0.0315(5) Uani 1 1 d .
H2 H 0.705036 0.641196 0.908480 0.038 Uiso 1 1 calc R
C3 C 0.6534(2) 0.6374(3) 0.7322(2) 0.0265(5) Uani 1 1 d .
H3 H 0.569366 0.641467 0.728043 0.032 Uiso 1 1 calc R
C4 C 0.6965(2) 0.6320(3) 0.63135(19) 0.0257(5) Uani 1 1 d .
H4 H 0.642304 0.633292 0.557653 0.031 Uiso 1 1 calc R
C5 C 0.8177(2) 0.6249(3) 0.63879(19) 0.0269(5) Uani 1 1 d .
H5 H 0.848454 0.620004 0.570457 0.032 Uiso 1 1 calc R
loop_
_atom_site_aniso_label
_atom_site_aniso_U_11
_atom_site_aniso_U_22
_atom_site_aniso_U_33
_atom_site_aniso_U_23
_atom_site_aniso_U_13
_atom_site_aniso_U_12
Mn1 0.01489(18) 0.01241(19) 0.01330(18) 0.00047(10) 0.00173(12) 0.00013(10)
Cl1 0.0187(2) 0.0146(2) 0.0150(2) -0.00015(16) 0.00447(18) 0.00019(16)
Cl2 0.0229(3) 0.0143(2) 0.0136(2) -0.00076(16) 0.00529(18) -0.00144(17)
Cl3 0.0153(2) 0.0208(2) 0.0150(2) 0.00055(17) -0.00017(17) 0.00043(17)
O1 0.0200(7) 0.0193(7) 0.0156(7) 0.0005(6) -0.0012(6) -0.0001(6)
N1 0.0165(9) 0.0317(10) 0.0336(10) -0.0021(9) 0.0091(8) 0.0006(8)
C1 0.0244(12) 0.0361(12) 0.0216(11) -0.0002(10) 0.0015(9) 0.0032(10)
C2 0.0273(12) 0.0458(14) 0.0235(12) -0.0003(10) 0.0098(10) 0.0045(11)
C3 0.0191(11) 0.0339(12) 0.0281(12) -0.0024(10) 0.0084(9) 0.0026(9)
C4 0.0234(11) 0.0326(11) 0.0204(10) -0.0035(9) 0.0034(8) 0.0008(9)
C5 0.0277(12) 0.0334(11) 0.0224(11) -0.0012(9) 0.0117(9) 0.0003(10)
loop_
_atom_type_symbol
_atom_type_description
_atom_type_scat_dispersion_real
_atom_type_scat_dispersion_imag
_atom_type_scat_source
C C 0.0033 0.0016 'International Tables Vol C Tables 4.2.6.8 and 6.1.1.4'
H H 0.0000 0.0000 'International Tables Vol C Tables 4.2.6.8 and 6.1.1.4'
Cl Cl 0.1484 0.1585 'International Tables Vol C Tables 4.2.6.8 and 6.1.1.4'
Mn Mn 0.3368 0.7283 'International Tables Vol C Tables 4.2.6.8 and 6.1.1.4'
N N 0.0061 0.0033 'International Tables Vol C Tables 4.2.6.8 and 6.1.1.4'
O O 0.0106 0.0060 'International Tables Vol C Tables 4.2.6.8 and 6.1.1.4'
loop_
_geom_angle_atom_site_label_1
_geom_angle_atom_site_label_2
_geom_angle_atom_site_label_3
_geom_angle
_geom_angle_site_symmetry_1
_geom_angle_site_symmetry_3
Cl1 Mn1 Cl1 173.523(14) . 2_556
Cl2 Mn1 Cl1 93.41(2) . .
Cl2 Mn1 Cl1 89.51(2) 2_546 2_556
Cl2 Mn1 Cl1 87.89(2) . 2_556
Cl2 Mn1 Cl1 88.46(2) 2_546 .
Cl2 Mn1 Cl2 173.042(15) 2_546 .
Cl3 Mn1 Cl1 94.42(2) . 2_556
Cl3 Mn1 Cl1 91.81(2) . .
Cl3 Mn1 Cl2 94.50(2) . .
Cl3 Mn1 Cl2 92.14(2) . 2_546
O1 Mn1 Cl1 87.25(4) . 2_556
O1 Mn1 Cl1 86.56(4) . .
O1 Mn1 Cl2 84.43(4) . .
O1 Mn1 Cl2 89.00(4) . 2_546
O1 Mn1 Cl3 177.99(4) . .
Mn1 Cl1 Mn1 90.14(2) . 2_546
Mn1 Cl2 Mn1 92.88(2) 2_556 .
Mn1 O1 H1B 112.1 . .
Mn1 O1 H1C 124.0 . .
H1B O1 H1C 100.3 . .
C1 N1 H1 128.3 . .
C1 N1 C5 122.9(2) . .
C5 N1 H1 108.6 . .
N1 C1 H1A 120.2 . .
N1 C1 C2 119.5(2) . .
C2 C1 H1A 120.2 . .
C1 C2 H2 120.3 . .
C1 C2 C3 119.3(2) . .
C3 C2 H2 120.3 . .
C2 C3 H3 120.2 . .
C2 C3 C4 119.6(2) . .
C4 C3 H3 120.2 . .
C3 C4 H4 120.2 . .
C5 C4 C3 119.5(2) . .
C5 C4 H4 120.2 . .
N1 C5 C4 119.2(2) . .
N1 C5 H5 120.4 . .
C4 C5 H5 120.4 . .
loop_
_geom_bond_atom_site_label_1
_geom_bond_atom_site_label_2
_geom_bond_distance
_geom_bond_site_symmetry_2
Mn1 Cl1 2.5879(7) 2_556
Mn1 Cl1 2.5683(7) .
Mn1 Cl2 2.5157(6) 2_546
Mn1 Cl2 2.5219(6) .
Mn1 Cl3 2.5000(10) .
Mn1 O1 2.2306(16) .
O1 H1B 0.8400 .
O1 H1C 0.8400 .
N1 H1 0.8501 .
N1 C1 1.333(3) .
N1 C5 1.349(3) .
C1 H1A 0.9500 .
C1 C2 1.374(3) .
C2 H2 0.9500 .
C2 C3 1.383(3) .
C3 H3 0.9500 .
C3 C4 1.388(3) .
C4 H4 0.9500 .
C4 C5 1.367(3) .
C5 H5 0.9500 .
loop_
_geom_torsion_atom_site_label_1
_geom_torsion_atom_site_label_2
_geom_torsion_atom_site_label_3
_geom_torsion_atom_site_label_4
_geom_torsion
N1 C1 C2 C3 0.4(4)
C1 N1 C5 C4 0.7(4)
C1 C2 C3 C4 -0.4(4)
C2 C3 C4 C5 0.5(4)
C3 C4 C5 N1 -0.6(4)
C5 N1 C1 C2 -0.6(4)
loop_
_refln_index_h
_refln_index_k
_refln_index_l
_refln_F_squared_meas
_refln_F_squared_sigma
0 0 -1 0.24 0.08
0 0 1 0.12 0.09
0 0 1 0.17 0.09
0 0 -1 -0.03 0.06
0 0 -3 0.78 0.51
0 0 3 0.84 0.29
0 0 -3 0.79 0.21
0 0 -4 2474.64 30.3
0 0 4 2439.49 29.76
0 0 4 2672.31 40.33
0 0 -4 2526.94 38.45
0 0 -5 1 0.36
0 0 5 0.73 0.29
0 0 5 1.3 0.51
0 0 -6 774.3 11.34
0 0 6 868.94 12.83
0 0 -7 1.66 0.45
0 0 7 0.53 0.49
0 0 -8 4609.86 332.62
0 0 8 4904.85 353.95
0 0 -9 2.97 0.92
0 0 9 1.88 0.83
0 0 -10 654.1 13.34
0 0 10 643.87 13.6
0 0 -11 0.89 0.69
0 0 11 1.86 0.79
0 0 -12 26.53 3.38
0 0 -13 1.43 0.85
0 0 -14 34.2 2.38
0 1 0 1.22 0.11
0 -1 0 0.22 0.07
0 -1 0 0.43 0.16
0 1 0 0.76 0.11
0 1 -1 27.68 0.66
0 -1 1 27.02 0.64
0 -1 1 27.27 0.6
0 1 -1 25.8 0.55
0 1 -2 248.43 3.55
0 -1 2 243.85 3.46
0 -1 -2 255.83 3.32
0 -1 2 240.71 3.41
0 1 -2 239.17 3.36
0 1 -3 8.45 0.51
0 -1 -3 12.51 0.49
0 -1 3 8.14 0.51
0 1 3 11.83 0.45
0 -1 -3 12.8 1.21
0 -1 3 14.07 1.82
0 1 -3 11.08 1.01
0 1 -4 4.13 0.46
0 -1 -4 3.42 0.33
0 -1 4 3.55 0.39
0 1 4 2.94 0.29
0 -1 -4 3.75 0.57
0 -1 4 5.91 1.01
0 1 -4 2.34 0.39
0 1 -5 22.01 0.99
0 -1 -5 20.2 0.83
0 -1 5 19.1 0.9
0 1 5 19.14 0.77
0 -1 -5 16.9 2.55
0 -1 5 24.18 3.12
0 1 -5 17.67 1.75
0 1 -6 10.26 0.76
0 -1 -6 8.4 0.59
0 1 6 8.8 0.57
0 1 6 13.22 1.31
0 -1 6 10.55 1.27
0 1 -7 273.85 3.75
0 -1 -7 239.95 3.16
0 -1 7 240.33 4.27
0 1 -8 318.12 6.76
0 -1 -8 326.69 6.62
0 -1 8 287.89 6.33
0 1 -9 447.87 10.76
0 -1 -9 446.96 10.47
0 -1 9 493.33 13.48
0 1 -10 11.29 1.56
0 -1 -10 11.15 1.31
0 -1 10 12.84 1.99
0 1 -11 15.98 2.23
0 -1 -11 16.95 2.3
0 -1 11 16.99 3.15
0 -1 -12 2.46 0.66
0 1 -12 1.99 0.9
0 -1 12 5.3 1.56
0 -1 -13 8.61 1.58
0 1 -13 11.64 2.29
0 -1 13 12.27 2.76
0 -1 -14 181.47 7.01
0 1 -14 176.94 7.03
0 2 0 467.37 5.88
0 -2 0 504.26 6.34
0 -2 0 507.42 6.5
0 2 0 463.65 5.96
0 2 1 724.13 8.75
0 -2 -1 749.93 9.06
0 2 -1 701.22 8.88
0 -2 1 714.5 9.04
0 -2 1 726.94 9.13
0 2 -1 760.47 9.51
0 2 1 733.2 9.23
0 -2 -2 195.96 2.49
0 2 -2 182.39 2.91
0 -2 2 183.75 2.81
0 2 -2 217.91 3.18
0 2 -3 1441.65 18.17
0 -2 -3 1436.27 17.4
0 -2 3 1431.89 17.84
0 2 -4 371.97 6.49
0 -2 -4 379.79 6.07
0 -2 4 405.79 6.9
0 -2 -4 366.1 6.28
0 2 -4 356.49 6.1
0 2 -5 2445.61 33.18
0 -2 -5 2232.04 29.76
0 -2 5 2423.64 32.83
0 2 -6 629.94 9.78
0 -2 -6 668.07 9.64
0 -2 6 634.76 10.34
0 2 -7 91.23 2.32
0 -2 -7 77.25 1.66
0 -2 7 80.24 2.09
0 2 -8 20.91 1.98
0 -2 -8 23.16 1.98
0 -2 8 12.29 1.95
0 2 -9 170.4 4.98
0 -2 -9 166.79 4.47
0 -2 9 177.46 5.08
0 2 -10 16.39 2.02
0 -2 -10 16.97 1.91
0 -2 10 22.02 3.03
0 2 -11 98.75 3.75
0 -2 -11 94.51 3.24
0 -2 11 101.42 10.03
0 -2 -12 160.89 5.93
0 2 -12 158.01 6.23
0 -2 12 198.7 10.16
0 -2 -13 580.84 31.11
0 2 -13 582.26 31.42
0 -2 13 516.45 28.28
0 -2 -14 134.65 5.41
0 2 -14 159.12 6.58
0 -2 14 169.78 7.22
0 3 0 0.42 0.22
0 -3 0 0.54 0.14
0 -3 0 0.27 0.27
0 3 0 0.05 0.21
0 3 1 182.75 2.95
0 3 -1 180.55 3.22
0 -3 -1 191.15 3.09
0 -3 1 188.97 3.34
0 -3 1 183.12 3.31
0 3 -1 189.42 3.35
0 -3 -1 175.29 3.18
0 3 1 193.28 3.43
0 3 2 387.77 5.84
0 3 -2 377.93 6.31
0 -3 -2 369.37 5.56
0 -3 2 362.44 6.12
0 -3 2 348.58 5.81
0 3 -2 415.59 6.77
0 -3 -2 374.77 6.3
0 -3 -3 55.49 0.94
0 3 -3 56.66 1.59
0 -3 -3 60.08 1.01
0 -3 3 60.73 1.69
0 -3 3 58.98 1.55
0 3 -3 56.41 1.43
0 -3 -3 57.77 1.62
0 -3 -4 63.87 1.21
0 3 -4 64.42 1.82
0 -3 -4 54.21 1.01
0 -3 4 50.66 1.46
0 3 -4 52.41 1.38
0 -3 -5 33.41 0.77
0 3 -5 38.05 3.81
0 -3 -5 35.27 0.76
0 -3 5 38.86 3.66
0 -3 -6 120.62 1.72
0 3 -6 123.67 2.61
0 -3 -6 118.81 1.65
0 -3 6 128.38 5.04
0 -3 -7 245.92 3.11
0 3 -7 247.24 4.19
0 -3 -7 246.95 2.95
0 -3 7 253.4 3.9
0 -3 -8 141.08 3.65
0 3 -8 146.26 4.39
0 -3 -8 150.28 3.85
0 -3 8 181.02 11.19
0 3 -9 767.46 15.55
0 -3 -9 817.28 15.61
0 -3 9 717.22 14.52
0 3 -10 81.1 3.43
0 -3 -10 75.57 2.8
0 -3 10 82.4 6.24
0 -3 -11 71.05 2.87
0 3 -11 88.24 3.86
0 -3 11 102.42 9.09
0 -3 -12 49.47 2.37
0 3 -12 56.48 2.96
0 -3 12 67.72 8.77
0 3 -13 2.64 0.84
0 -3 13 5.4 1.3
0 3 -14 7.12 1.41
0 -3 14 5.89 1.74
0 4 0 4057.01 17.11
0 4 1 2946.6 11.72
0 4 -1 2830.57 12.69
0 -4 1 2917.8 13.05
0 -4 -1 2766.36 36.38
0 -4 1 2811.35 37.5
0 -4 -1 2941.68 13.44
0 4 -1 2777.22 36.91
0 4 1 2727.17 36.32
0 4 2 989.06 13.02
0 4 -2 967.84 13.62
0 -4 2 942.11 13.31
0 -4 -2 907.14 11.96
0 -4 2 998.35 13.94
0 4 -2 1010.01 14.02
0 -4 -2 936.21 13.2
0 4 -3 74.97 1.67
0 -4 3 74.82 1.6
0 4 -3 73.74 1.45
0 -4 -3 61.37 1.47
0 -4 4 61.72 1.52
0 -4 -4 63.85 1.6
0 -4 -5 2.56 0.16
0 -4 -5 3.79 0.19
0 4 -5 2.83 0.53
0 -4 5 3.85 0.61
0 -4 -5 6.53 0.72
0 -4 -6 1.32 0.29
0 -4 -6 3.3 0.34
0 4 -6 1.34 0.61
0 -4 6 2.25 1.13
0 -4 -7 1316.91 27.76
0 -4 -7 1399.46 29.52
0 4 -7 1330.47 29.06
0 -4 7 1582.17 123.02
0 -4 -8 878.85 16.32
0 4 -8 782.48 15.77
0 -4 8 892.79 17.67
0 -4 -9 599.75 16.62
0 4 -9 619.41 17.99
0 -4 9 574.26 16.89
0 -4 -10 518.35 15.49
0 4 -10 514.07 16.2
0 -4 10 604.89 18.64
0 4 -11 15.2 2.4
0 -4 11 9.08 2.28
0 4 -12 4.73 1.44
0 -4 12 7.07 1.8
0 4 -13 0.63 1.17
0 -4 13 1.42 1.38
0 5 0 2.07 0.37
0 -5 0 1.76 0.45
0 -5 0 0.71 0.38
0 5 1 107.29 2.19
0 5 -1 99.05 2.36
0 -5 1 83.59 2.1
0 -5 -1 89.38 1.88
0 -5 1 99.46 2.42
0 -5 -1 99.49 2.51
0 5 2 42.1 1.22
0 5 -2 48.59 1.58
0 -5 2 39.92 1.36
0 -5 -2 46.53 1.5
0 5 -3 69.15 2.21
0 -5 3 84.11 2.03
0 -5 -3 62.85 4.8
0 5 -4 5.09 0.68
0 -5 4 7.95 0.88
0 -5 -4 5.58 0.76
0 5 -5 21.53 1.28
0 -5 5 22.25 1.23
0 -5 -5 15.81 1.1
0 5 -6 127.07 3.66
0 -5 6 139.2 5.48
0 -5 -6 129.5 3.57
0 5 -7 5.73 0.99
0 -5 7 5.84 1.06
0 -5 -7 6.98 1.07
0 -5 8 61.55 4.09
0 -5 -8 62.48 2.63
0 5 -9 31.13 3.98
0 -5 9 41.45 6.24
0 -5 -9 35.73 4.46
0 5 -10 3.41 1.39
0 -5 10 1.35 0.61
0 -5 -10 1.7 0.88
0 5 -11 0.87 1.09
0 -5 11 2.18 0.71
0 5 -12 2.08 2
0 -5 12 1.57 0.79
0 6 0 15.62 0.75
0 -6 0 17.04 0.89
0 -6 0 16.02 0.97
0 6 1 304.34 6.66
0 6 -1 319.59 7.34
0 -6 -1 327.22 7.22
0 -6 1 327.35 7.65
0 -6 -1 296.99 7.07
0 6 2 361.3 6.53
0 6 -2 428.02 8.69
0 -6 2 393.75 8.03
0 -6 -2 402.17 8.25
0 6 -3 90.31 2.61
0 -6 3 110.7 3.17
0 -6 -3 86.09 2.51
0 6 -4 1369.25 30.91
0 -6 4 1403.88 31.56
0 -6 -4 1447.68 32.63
0 6 -5 7.26 1.27
0 -6 5 7.45 1.12
0 -6 -5 10.85 1.54
0 6 -6 409.36 10.48
0 -6 6 416.21 10.49
0 -6 -6 421.99 10.68
0 6 -7 188.07 6.57
0 -6 7 175.89 10.17
0 -6 -7 164.72 5.88
0 6 -8 8.67 1.45
0 -6 8 6.74 1.5
0 -6 -8 9.57 1.51
0 6 -9 5.4 1.41
0 -6 9 2.75 1.02
0 -6 -9 3.31 0.9
0 6 -10 14.26 1.65
0 -6 10 25.06 2.82
0 -6 -10 24.06 1.87
0 6 -11 18.38 2.43
0 -6 11 28.49 5.34
0 -6 -11 25.77 2.77
0 -7 0 1 0.59
0 -7 1 34.7 4.12
0 -7 -1 38.85 4.26
0 7 -2 135.54 3.91
0 -7 2 131.39 3.84
0 -7 -2 135.35 3.97
0 7 -3 1.75 0.78
0 -7 3 1.55 0.58
0 -7 -3 0.86 0.58
0 7 -4 0.61 0.63
0 -7 4 0.89 0.45
0 -7 -4 0.55 0.61
0 7 -5 101.54 4.08
0 -7 5 92.07 3.66
0 -7 -5 101.44 4.02
0 7 -6 7.06 1.24
0 -7 6 8.37 1.54
0 -7 -6 8.14 1.25
0 7 -7 3.86 1.06
0 -7 7 5 1.27
0 -7 -7 7.22 1.49
0 7 -8 111.03 7.49
0 -7 8 86.14 7.66
0 -7 -8 114.64 7.63
0 7 -9 5.38 1.61
0 -7 9 1.08 0.53
0 -7 -9 0.68 0.84
0 7 -10 127.53 8.6
0 -7 10 100.35 9.56
0 -7 -10 116.17 7.71
0 -8 0 112.59 4.83
0 -8 1 482.2 18.44
0 -8 -1 449.55 17.22
0 -8 2 2.48 0.65
0 -8 -2 3.65 0.77
0 8 -3 23.45 3.58
0 -8 3 32.53 3.91
0 -8 -3 21.44 3.31
0 -8 4 4.15 0.82
0 -8 -4 3.27 0.84
0 -8 -5 2.42 0.7
0 8 -6 76.38 5.38
0 -8 -6 81.32 5.53
0 8 -7 152.9 9.71
0 -8 -7 148.77 8.01
1 0 -15 555.76 33.48
1 0 -14 1.93 0.89
1 0 -13 22.96 1.91
1 0 -12 0.71 0.68
1 0 -11 195.34 6.42
1 0 -10 1.49 0.54
1 0 -9 1342.16 11.25
-1 0 9 1401.87 12.52
1 0 -8 2.05 0.64
-1 0 8 2.65 0.95
1 0 -6 1.44 0.51
-1 0 6 4.34 0.46
-1 0 6 0.42 0.27
1 0 -5 58.03 1.55
-1 0 5 51.98 1.43
-1 0 5 48.1 1.48
1 0 -5 50.41 1.46
-1 0 4 0.93 0.38
-1 0 4 1.72 0.43
1 0 -3 1.68 0.3
-1 0 3 1.02 0.21
1 0 -3 1.96 0.38
-1 0 2 2.24 0.24
1 0 0 0.23 0.06
-1 0 0 0.05 0.1
1 0 0 0.23 0.07
-1 0 0 0.2 0.07
-1 0 -1 944.48 11.58
-1 0 -2 1.34 0.47
1 0 2 3.8 0.72
-1 0 -2 3.64 0.51
-1 0 -3 6.4 0.61
1 0 3 2.35 0.39
-1 0 -3 3.25 0.4
-1 0 -4 0.43 0.34
1 0 4 0.78 0.2
1 0 4 1.05 0.37
-1 0 -4 0.9 0.66
1 0 5 326.84 5.73
1 0 5 331.55 6.01
-1 0 -6 0.7 0.5
1 0 6 1.25 0.47
-1 0 -7 1030.83 7.78
1 0 7 934.42 7.67
-1 0 -8 0.84 0.68
1 0 8 1.88 0.68
-1 0 -9 583.36 13.5
1 0 9 470.11 11.39
-1 0 -10 1.1 0.68
1 0 10 1.42 0.68
-1 0 -11 101.33 3.71
1 0 11 92.44 10.3
-1 0 -12 1.33 0.71
1 0 12 0.88 0.69
-1 0 -13 2.57 1.34
1 0 13 3.95 1.29
-1 0 -14 0.89 0.69
1 -1 -15 1.65 0.8
1 1 -15 3.68 1.33
1 -1 -14 7.16 1.09
1 1 -14 5.12 1.09
1 -1 -13 2.34 0.92
1 1 -13 0.25 0.58
1 -1 -12 14.2 2.01
1 1 -12 17.07 2.37
-1 -1 12 25.67 4.41
1 -1 -11 654.81 18.68
1 1 -11 583.24 16.94
-1 -1 11 566.78 16.61
1 1 -10 2.34 0.72
1 -1 -10 5.28 0.78
-1 -1 10 4.86 1.12
1 -1 -9 667.37 6.78
1 1 -9 673.15 7.3
-1 -1 9 672.04 7.58
1 -1 -8 31.46 1.31
1 1 -8 31.09 1.46
-1 -1 8 35.65 3.61
1 1 -7 5.38 0.64
1 -1 -7 6.19 0.54
-1 -1 7 6.29 1.21
1 1 -6 1.89 0.59
1 -1 -6 1.49 0.36
-1 1 6 1.62 0.37
-1 -1 6 1.66 0.34
1 1 -5 4.79 0.53
1 -1 -5 3.51 0.35
-1 -1 5 3.48 0.56
-1 1 5 3.57 0.36
1 -1 -5 2.47 0.51
-1 -1 5 4.34 0.53
1 1 -5 3.58 0.69
1 -1 -4 2.03 0.26
-1 -1 4 1.97 0.36
-1 1 4 1.83 0.26
1 -1 -4 1.83 0.36
-1 -1 4 2.67 0.49
1 1 -4 4.12 0.82
1 -1 -3 440.71 5.67
1 1 -3 415.47 5.74
-1 -1 3 456.47 6.21
-1 1 3 440.07 5.64
1 1 -3 409.33 5.54
1 -1 -2 28.3 0.57
1 1 -2 24.88 0.73
-1 -1 2 24.7 0.71
1 1 -2 35.76 1.89
-1 1 1 -0.05 0.04
1 1 -1 -0.09 0.05
-1 1 0 130.45 1.82
1 1 0 131.83 1.86
-1 -1 0 126.23 1.8
1 -1 0 127.47 1.91
-1 1 0 126.75 1.89
1 1 1 70.7 1.14
-1 1 -1 72.55 1.5
1 1 1 76.17 1.24
1 -1 1 78.72 1.4
-1 1 -1 72.73 1.28
-1 -1 -2 2.55 0.52
-1 1 -2 2.03 0.25
1 -1 2 0.91 0.18
1 1 2 2.02 0.26
-1 -1 -2 1.8 0.3
1 -1 2 1.76 0.44
-1 1 -2 0.86 0.21
-1 1 -3 115.44 2.18
1 -1 3 122.34 2.22
1 1 3 122.38 2.22
1 -1 3 112.48 2.15
-1 1 -3 109.65 2.05
-1 1 -4 2.19 0.58
-1 -1 -4 0.9 0.42
1 -1 4 0.33 0.3
1 1 4 0.98 0.28
-1 -1 -4 0.84 0.33
1 -1 4 0.45 0.46
-1 1 -4 0.72 0.26
-1 1 -5 121.46 2.8
-1 -1 -5 135.97 2.82
1 1 5 138.51 3.03
1 -1 5 123.17 2.85
-1 1 -6 133.35 3
-1 -1 -6 119.85 2.59
1 1 6 126.19 2.86
1 -1 6 126.78 2.94
-1 1 -7 834.93 7.17
-1 -1 -7 852.75 6.5
1 1 7 777.62 6.9
1 -1 7 791.54 7
-1 1 -8 169.19 3.31
-1 -1 -8 170.56 3.09
1 1 8 155.78 3.24
1 -1 8 140.33 3.06
-1 1 -9 49.27 2.22
-1 -1 -9 44.43 1.9
1 1 9 49.97 4.91
1 -1 9 42.07 3.12
-1 1 -10 2.36 0.85
-1 -1 -10 2.59 0.7
1 1 10 3.74 0.95
1 -1 10 1.31 0.85
-1 1 -11 2.08 0.84
-1 -1 -11 1.63 0.76
1 -1 11 1.74 1.01
-1 1 -12 2.27 1.04
-1 -1 -12 0.91 0.69
1 -1 12 0.93 0.73
-1 -1 -13 271.47 15.03
-1 1 -13 280.75 15.61
1 -1 13 281.93 22.02
-1 1 -14 27.6 2.11
-1 -1 -14 29.49 2.08
1 -1 14 29.99 6.79
1 -2 -14 41.69 2.45
1 2 -14 49.9 3.04
1 -2 -13 48.19 2.56
1 2 -13 41.85 2.66
-1 -2 13 49.29 8.32
1 -2 -12 729.25 79.93
1 2 -12 689.18 22.48
-1 -2 12 702.38 23.12
1 -2 -11 52.49 2.17
1 2 -11 59.45 2.73
-1 -2 11 58.33 4.85
1 -2 -10 839.56 19.35
1 2 -10 741.22 17.73
-1 -2 10 771.34 19.75
1 -2 -9 89.3 2.72
1 2 -9 77.75 2.93
-1 -2 9 108.07 6.9
1 -2 -8 38.58 3.03
1 2 -8 34.39 2.92
-1 -2 8 34.48 4.62
1 -2 -7 14.93 1.19
1 2 -7 13.08 0.92
-1 2 7 11.49 0.6
-1 -2 7 16.34 1.68
1 -2 -6 2.9 0.5
1 2 -6 1.21 0.59
-1 2 6 3.55 0.34
-1 -2 6 3.75 0.69
1 -2 -5 76.32 1.64
1 2 -5 67.33 1.88
-1 2 5 80.17 1.71
-1 -2 5 69.82 3.86
1 2 -5 68.48 1.74
1 -2 -4 2442.43 32.13
1 2 -4 2294.97 34.89
-1 -2 4 2273.56 34.54
-1 2 4 2542.6 33.52
-1 -2 4 2318.34 35.08
1 2 -4 2389.63 36.13
1 -2 -3 1569.2 18.84
1 2 -3 1469.02 18.43
-1 -2 3 1527.84 19.07
-1 -2 3 1583.36 19.55
1 2 -3 1551.9 19.09
1 -2 -3 1522.36 19.03
1 2 -1 691.53 8.8
-1 -2 1 719.78 9.12
-1 2 1 718.15 8.71
-1 -2 1 681.57 8.4
1 2 -1 659.64 8.18
1 -2 -1 735.71 9.43
-1 2 1 733.07 9.36
1 2 0 2201.04 26.56
-1 -2 0 2154.01 26
-1 2 0 2005.68 24.22
1 -2 0 2116.86 25.76
-1 2 0 2196.4 26.67
-1 -2 0 2198.52 26.39
1 2 0 1983.16 23.85
1 2 1 339.2 4.4
-1 -2 -1 359.84 4.64
-1 2 -1 360.41 4.89
1 -2 1 316.48 4.37
-1 2 -1 346.11 4.75
-1 -2 -1 333.23 4.41
1 2 2 5.93 0.67
-1 -2 -2 4.56 0.53
-1 2 -2 5.05 0.41
1 -2 2 3.37 0.36
-1 -2 -2 10.02 1.18
-1 2 -2 4.7 0.43
-1 -2 -3 118.99 1.92
-1 2 -3 111.64 2.21
-1 -2 -3 109.47 2.07
-1 2 -3 100.08 1.98
-1 -2 -4 1957.47 29.62
-1 2 -4 1654.21 25.56
1 -2 4 1846.46 28.38
-1 -2 -4 1739.75 26.31
-1 -2 -4 1717.22 26.32
-1 2 -4 1720.39 26.39
-1 -2 -5 1981.77 26.71
-1 2 -5 2093.54 28.72
-1 -2 -5 1983.38 26.71
-1 -2 -6 1908.75 9.99
-1 2 -6 1951.24 11.88
-1 -2 -6 1907.49 10.18
-1 2 -7 124.78 3.4
-1 -2 -7 137.06 3.28
1 -2 7 134.73 8.26
-1 2 -8 25.05 2.31
-1 -2 -8 31.3 2.56
1 -2 8 28.59 3.64
-1 2 -9 174.15 4.69
-1 -2 -9 164.78 4.13
1 -2 9 179.88 4.8
-1 2 -10 14.53 2.09
-1 -2 -10 14.36 1.91
1 -2 10 17.63 3.5
-1 2 -11 88.02 3.89
-1 -2 -11 68.78 2.96
1 -2 11 70.64 7.77
-1 2 -12 538.66 21.12
-1 -2 -12 549.39 21.2
1 -2 12 577.08 22.6
-1 -2 -13 260.26 16.41
-1 2 -13 292.38 18.57
1 -2 13 305.63 19.38
-1 -2 -14 114.37 6.37
-1 2 -14 107.8 6.31
1 -2 14 108.09 14.54
1 3 -14 3.13 1.11
-1 -3 14 5.79 1.81
1 3 -13 45.79 3.61
-1 -3 13 43.33 6.72
1 -3 -12 9.22 1.39
1 3 -12 8.28 1.55
-1 -3 12 6.96 1.51
1 -3 -11 16.61 2.14
1 3 -11 20.65 2.82
-1 -3 11 20.8 3.48
1 -3 -10 201.56 6.15
1 3 -10 183.93 6.29
-1 -3 10 236.74 14.04
1 -3 -9 2.07 0.65
-1 -3 9 1.39 0.76
1 -3 -8 24.86 1.08
1 3 -8 29.45 1.62
-1 -3 8 31.22 3.05
1 -3 -7 57.4 1.53
1 3 -7 54.68 2.06
-1 -3 7 64.43 4.65
1 -3 -6 13.63 0.5
1 3 -6 14.12 0.96
-1 -3 6 15.61 1.6
1 -3 -5 10.17 1.14
1 -3 -5 8.11 0.4
1 3 -5 8.69 0.7
-1 -3 5 9.51 1.06
1 3 -5 8.7 0.6
1 -3 -4 113.76 1.6
1 -3 -4 106.68 1.5
1 3 -4 119.38 2.6
-1 -3 4 111 2.63
1 3 -4 114.37 2.25
1 -3 -4 114.51 2.54
1 3 -3 153.54 3.09
-1 -3 3 146.29 3
-1 -3 3 149.55 2.85
1 3 -3 150.72 2.79
1 -3 -3 151.63 3.1
1 3 -2 43.26 1.24
-1 -3 2 43.22 1.24
-1 -3 2 52.78 1.33
1 3 -2 43.06 1.05
1 -3 -2 43.45 1.28
-1 3 2 38.95 1.2
1 3 -1 230.9 4.06
-1 3 1 221.32 3.51
-1 -3 1 221.68 3.87
-1 -3 1 241.84 4.01
1 -3 -1 207.23 3.79
1 3 -1 217.31 3.62
-1 3 1 239.98 4.23
1 3 0 169.53 2.97
-1 -3 0 167.6 2.94
-1 3 0 182.46 3.14
1 -3 0 186.59 3.22
1 -3 0 155.52 3.11
-1 -3 0 177.45 3.06
-1 3 0 165.91 3.11
1 3 0 174.12 3
1 3 1 461.81 7.2
-1 -3 -1 463.64 7.23
-1 3 -1 431.1 7.01
1 -3 1 485.4 7.8
1 -3 1 412.84 6.88
-1 3 -1 456.21 7.45
-1 -3 -1 452.13 7.22
1 3 2 19.07 1.81
-1 -3 -2 17.15 0.53
-1 3 -2 16.92 0.77
1 -3 2 20.27 0.91
1 -3 2 15.82 0.72
-1 3 -2 15.14 0.68
-1 -3 -2 16.42 0.72
-1 -3 -3 86.82 1.63
-1 3 -3 86.42 2.13
1 -3 3 99.5 2.45
-1 -3 -3 84.33 1.99
1 -3 3 92.06 2.17
-1 3 -3 92.27 2.15
-1 -3 -4 3.04 0.37
-1 3 -4 2.36 0.44
-1 -3 -4 2.49 0.27
-1 -3 -4 3 0.49
1 -3 4 4.25 0.48
-1 -3 -5 125.82 1.62
-1 3 -5 138.39 2.63
-1 -3 -5 133.49 1.77
1 -3 5 144.56 2.54
-1 -3 -6 381.4 7.15
-1 3 -6 376.51 7.75
-1 -3 -6 341.35 6.42
1 -3 6 439.89 10
-1 -3 -7 58.32 6.46
-1 3 -7 64.75 5.1
-1 -3 -7 64.74 5.16
1 -3 7 79.66 5.19
-1 3 -8 238.49 6.48
-1 -3 -8 206.55 5.27
1 -3 8 216.66 10.43
-1 3 -9 38.27 4.03
-1 -3 -9 36.59 3.68
1 -3 9 35.01 4.7
-1 3 -10 1.64 0.77
-1 -3 -10 1.67 0.54
1 -3 10 3.84 1.01
-1 3 -11 22.56 2.93
-1 -3 -11 30.97 3.66
1 -3 11 27.49 4.98
-1 3 -12 48.96 2.79
-1 -3 -12 44.86 2.29
1 -3 12 54.11 6.7
-1 3 -13 8.59 1.46
1 -3 13 9.57 2.57
1 4 -13 1.06 0.98
-1 -4 13 1.63 0.7
1 4 -12 153.59 9.03
-1 -4 12 164.27 9.49
1 4 -11 3.16 1.29
-1 -4 11 6.28 1.42
1 4 -10 130.83 5.17
-1 -4 10 152.05 8.7
1 -4 -9 20.94 2.73
1 4 -9 27.85 3.57
-1 -4 9 26.85 4.16
1 -4 -8 2072.22 37.41
1 4 -8 2060.13 38.48
-1 -4 8 2092.09 196.19
1 -4 -7 208.11 4.68
1 -4 -7 237.1 5.24
1 4 -7 243.98 6.4
-1 -4 7 247.34 6.34
1 -4 -7 206.61 5.58
1 -4 -6 264.96 1.86
1 -4 -6 262.55 1.84
1 4 -6 281.37 4.27
-1 -4 6 297.24 3.96
1 -4 -6 290.19 4.34
1 4 -5 102.94 2.84
1 -4 -5 113.75 2.95
-1 -4 4 147.44 2.21
1 4 -4 134.63 1.92
1 -4 -4 157.52 2.62
1 4 -3 1.63 0.36
-1 -4 3 2.33 0.36
1 4 -3 1.88 0.3
1 -4 -3 3.91 0.49
1 4 -2 1093.61 15.27
-1 -4 2 1073.17 14.99
-1 -4 2 1041.3 14.33
1 4 -2 1092.07 14.92
1 4 -1 9.02 0.56
-1 4 1 4.66 0.29
-1 -4 1 5.36 0.47
-1 -4 1 4.65 0.41
1 -4 -1 5.89 0.56
-1 4 1 4.91 0.51
-1 4 0 3644.96 14.99
-1 -4 0 3611.28 15.1
1 4 1 283.65 4.17
-1 -4 -1 286.05 4.26
-1 4 -1 303.72 4.78
1 -4 1 264.43 4.27
1 -4 1 283.39 4.75
-1 4 -1 284.64 4.61
-1 -4 -1 281.43 4.42
1 4 2 440.75 6.15
-1 -4 -2 445.97 6.21
-1 4 -2 438.99 6.78
1 -4 2 443.98 6.92
1 -4 2 434.88 6.73
-1 -4 -2 471.6 7.09
-1 -4 -3 50.9 0.75
-1 4 -3 52.82 1.49
1 -4 3 52.25 1.43
-1 -4 -3 47.1 1.24
-1 -4 -4 3.35 0.25
-1 4 -4 3.35 0.46
-1 -4 -4 5.4 0.61
1 -4 4 4.9 0.53
-1 -4 -4 3.77 0.5
-1 -4 -5 17.1 0.61
-1 -4 -5 18.76 1.57
1 -4 5 19.82 1.05
-1 -4 -6 202.41 2.32
-1 4 -6 229.18 4
-1 -4 -6 220.88 2.46
1 -4 6 214.89 6.18
-1 -4 -7 128.33 2.89
-1 4 -7 141.76 4.05
-1 -4 -7 144.15 3.24
1 -4 7 150.78 5.16
-1 4 -8 453.52 11.46
-1 -4 -8 418.66 9.94
1 -4 8 474.66 12.91
-1 4 -9 327.76 9.08
-1 -4 -9 317.87 7.9
1 -4 9 298.5 15.07
-1 4 -10 285.86 10.18
-1 -4 -10 285.99 9.44
1 -4 10 305.02 13.92
-1 4 -11 3.02 1.66
1 -4 11 4.24 1.27
-1 4 -12 28.31 2.36
1 -4 12 26.71 3.91
-1 4 -13 38.98 4.08
1 -4 13 44.24 5.87
1 5 -12 70.46 3.82
-1 -5 12 70.08 11.89
1 -5 -12 60.8 3.2
1 5 -11 81.02 5.29
-1 -5 11 80.57 10.09
1 -5 -11 76.13 4.85
1 5 -10 232.28 9.81
-1 -5 10 220.35 9.17
1 -5 -10 242.29 10.07
1 5 -9 174.9 6.37
-1 -5 9 180.77 8.7
1 -5 -9 178.52 6.48
-1 -5 8 1.99 0.59
1 -5 -8 2.48 0.63
1 5 -7 114.32 3.76
-1 -5 7 115.02 6.83
1 -5 -7 119.81 3.83
1 5 -6 34.38 3.1
-1 -5 6 36.14 3.9
1 -5 -6 37.35 3.29
1 5 -5 3.12 0.58
-1 -5 5 3.25 0.72
1 -5 -5 3.48 0.53
1 5 -4 224.8 3.47
-1 -5 4 209.96 3
1 -5 -4 194.93 3.26
1 5 -3 7.33 0.73
-1 -5 3 8.38 0.64
1 5 -3 4.44 0.4
1 -5 -3 6.21 0.59
1 5 -2 94.9 2.46
-1 -5 2 90.77 2.2
1 -5 -2 96.77 2.56
1 5 -2 89.27 2.18
1 5 -1 2.74 0.46
-1 5 1 2.18 0.22
-1 -5 1 1.43 0.56
-1 -5 1 2.24 0.35
1 -5 -1 3.86 0.49
1 5 -1 3.43 0.41
1 5 0 129.68 2.75
-1 5 0 125.02 2.63
-1 -5 0 133.29 2.88
1 -5 0 130.03 2.74
1 -5 0 134.42 3.16
-1 -5 0 122.54 2.74
1 5 0 117.66 2.61
1 5 1 9.44 0.44
-1 5 -1 12.01 0.76
-1 -5 -1 9.29 0.52
1 -5 1 9.68 0.61
1 -5 1 8.73 0.65
-1 -5 -1 11.44 0.7
1 5 2 0.4 0.14
-1 5 -2 1.01 0.41
-1 -5 -2 0.57 0.29
1 -5 2 1.16 0.36
-1 -5 -2 0.18 0.26
-1 5 -3 2.41 0.49
-1 -5 -3 3.23 0.31
1 -5 3 3.55 0.63
-1 -5 -3 2.94 0.5
-1 5 -4 54.56 4.28
-1 -5 -4 52.11 3.84
-1 -5 -4 54.91 3.99
1 -5 4 52.84 4.14
-1 -5 -4 54.94 4.25
-1 -5 -5 61.64 1.39
-1 5 -5 62.75 2.35
-1 -5 -5 62.6 1.42
1 -5 5 60.86 2.19
-1 -5 -5 59.81 2.13
-1 5 -6 107.61 3.32
-1 -5 -6 114.25 2.3
1 -5 6 121.92 3.45
-1 -5 -6 127.8 3.63
-1 5 -7 159.7 5.52
1 -5 7 174.64 5.91
-1 -5 -7 145.09 4.98
1 -5 8 81.64 9.49
-1 5 -9 141.06 5.62
1 -5 9 153.3 9.3
-1 5 -10 24.68 4.32
1 -5 10 29.58 4.45
-1 5 -11 36.04 2.94
1 -5 11 37.08 5.12
-1 5 -12 30.72 3.4
1 -5 12 29.14 4.2
1 6 -11 381.19 19.44
-1 -6 11 450.02 22.47
1 -6 -11 387.4 19.57
1 6 -10 44.36 3.67
-1 -6 10 35.78 3.86
1 -6 -10 46.71 3.73
1 6 -9 3.85 1.17
-1 -6 9 8.61 1.77
1 -6 -9 32.92 4.1
1 6 -8 67.83 3.26
-1 -6 8 57.8 6.72
1 -6 -8 59.56 3.06
1 6 -7 14.5 2.05
1 -6 -7 8.86 1.57
1 6 -6 1.57 0.71
-1 -6 6 0.74 0.49
1 -6 -6 1.64 0.84
1 6 -5 647.24 15.29
-1 -6 5 716.55 16.6
1 -6 -5 615.41 14.64
1 6 -4 65.93 6.49
-1 -6 4 55.58 5.43
1 -6 -4 57.1 5.65
1 6 -3 1984.05 36.63
-1 -6 3 2309.34 216.42
1 -6 -3 1911.74 35.35
1 6 -2 0.39 0.47
-1 -6 2 1.66 0.4
1 -6 -2 1.29 0.44
-1 6 1 182.01 4.13
1 6 -1 168 4.19
-1 -6 1 193.72 4.77
1 -6 -1 177.97 4.65
1 6 0 72.79 2.08
-1 6 0 65.19 1.87
-1 -6 0 65.94 1.98
1 -6 0 66.92 2.23
-1 -6 0 59.52 1.88
1 6 1 50.76 1.47
-1 6 -1 51.45 1.68
-1 -6 -1 50.18 1.51
1 -6 1 54.32 1.94
-1 -6 -1 50.46 1.72
1 6 2 136.13 2.78
-1 6 -2 143.87 3.5
-1 -6 -2 138.84 2.99
1 -6 2 148.87 3.74
-1 -6 -2 159.28 3.84
-1 6 -3 490.92 10.02
1 -6 3 510.63 10.35
-1 -6 -3 450.1 9.19
-1 6 -4 40.72 4.16
1 -6 4 32.45 3.36
-1 -6 -4 43.97 4.41
-1 6 -5 1593.59 43.74
1 -6 5 1556.31 42.63
-1 -6 -5 1607.65 43.96
-1 6 -6 64.8 2.69
1 -6 6 73.25 2.78
-1 -6 -6 71.23 2.75
-1 6 -7 158.7 5.82
1 -6 7 171.48 12.94
-1 -6 -7 171.24 6.05
1 -6 8 128.52 9.55
-1 -6 -8 102.21 4.73
-1 6 -9 65.09 4.42
1 -6 9 53.1 4.75
-1 -6 -9 56.34 3.75
-1 6 -10 49.34 3.92
1 -6 10 58.99 6.07
-1 -6 -10 64.41 4.67
-1 6 -11 73.04 5.66
1 -6 11 62.43 7.81
-1 -6 -11 73.84 5.22
1 7 -10 17.49 2.15
1 -7 -10 11.06 1.54
1 7 -9 58.22 3.06
1 -7 -9 49.8 2.79
1 7 -8 6.55 1.23
-1 -7 8 7.91 1.66
1 -7 -8 8 1.41
1 7 -7 1.6 0.84
-1 -7 7 1.34 0.6
1 -7 -7 1.96 0.87
1 7 -6 41.75 2.48
-1 -7 6 44.29 4.68
1 -7 -6 38.71 2.27
1 7 -5 1.01 0.74
-1 -7 5 0.76 0.45
1 -7 -5 1.7 0.66
1 7 -4 44.84 5.16
-1 -7 4 45.97 5.21
1 -7 -4 45.66 5.25
1 7 -3 41.8 2.02
-1 -7 3 53.31 1.98
1 -7 -3 44.56 2.02
1 7 -2 10.67 1.41
-1 -7 2 15.58 1.86
1 -7 -2 14.95 2.04
-1 -7 1 4.61 0.74
1 -7 -1 3.95 0.72
-1 -7 0 127.7 4.12
1 -7 0 142.67 4.75
1 -7 1 86.82 3.15
-1 -7 -1 93.9 3.2
-1 7 -2 1.42 0.79
1 -7 2 0.69 0.39
-1 -7 -2 1.01 0.56
-1 7 -3 2.18 0.72
1 -7 3 2.35 0.59
-1 -7 -3 4.2 0.8
-1 7 -4 241.59 7.91
1 -7 4 256.58 8.33
-1 7 -5 3.75 1.35
1 -7 5 1.88 0.65
-1 -7 -5 0.03 0.42
-1 7 -6 5.78 1.27
1 -7 6 7.05 1.18
-1 -7 -6 6.55 1.07
-1 7 -7 60.32 3.96
1 -7 7 72.68 6.18
-1 -7 -7 69.05 4.37
-1 7 -8 45.77 3.54
1 -7 8 42.68 7.42
-1 -7 -8 54.01 3.96
-1 7 -9 82.57 5
1 -7 9 85.43 7.61
-1 -7 -9 78.54 4.73
1 8 -8 366.8 22.35
1 -8 -8 333.93 20.38
1 8 -7 184.73 9.85
1 -8 -7 174.57 9.23
1 8 -6 252.9 15.96
1 -8 -6 245.17 15.49
1 -8 -5 10.21 1.72
1 8 -4 0.83 0.8
1 -8 -4 1.11 0.75
1 8 -3 0.91 0.73
1 -8 -3 2.02 0.7
1 -8 -2 16.42 2.15
1 -8 -1 352.68 13.74
1 -8 0 910.26 34.25
1 -8 1 216.08 8.74
1 -8 2 657.31 20.41
-1 8 -3 12.46 2.07
1 -8 3 9.15 1.71
-1 -8 -3 9.93 1.66
-1 8 -4 26.36 1.9
1 -8 4 29.71 1.87
-1 -8 -4 33.33 2.32
-1 8 -5 12.3 1.43
1 -8 5 8.73 0.97
-1 -8 -5 11.47 1.11
-1 8 -6 4.39 1.19
1 -8 6 3.57 0.94
-1 -8 -6 3.31 1.14
-1 8 -7 23.26 2.78
1 -8 7 23.56 4.13
-1 -8 -7 20.23 2.21
2 0 -15 2.79 1.22
2 0 -14 117.85 7.89
2 0 -13 1.88 0.86
2 0 -12 30.04 3.79
2 0 -11 0.81 0.77
2 0 -10 425.01 9.18
2 0 -9 0.14 0.38
2 0 -8 1941.41 33.59
2 0 -7 1.79 0.6
2 0 -6 564.36 8.46
-2 0 5 1.25 0.27
2 0 -5 0.44 0.25
-2 0 4 112.5 2.01
2 0 -4 122.2 2.22
-2 0 3 2.2 0.27
2 0 -2 1700.56 20.72
-2 0 2 1749.46 21.27
2 0 -2 1788.4 21.69
2 0 -1 0.88 0.2
-2 0 1 1.44 0.2
2 0 -1 2.15 0.3
-2 0 1 0.85 0.24
2 0 0 5022.73 74.56
-2 0 0 4168.29 61.92
-2 0 0 4538.81 67.31
2 0 1 9.95 1.49
-2 0 -1 1.8 0.57
2 0 1 2.84 0.32
-2 0 -2 3075.09 45.99
2 0 2 3295.36 49.27
-2 0 -2 3069.78 45.92
2 0 3 0.58 0.34
-2 0 -3 0.24 0.23
-2 0 -4 196.78 3.82
2 0 4 205.42 3.97
-2 0 -4 196.54 3.76
2 0 5 0.79 0.48
-2 0 -6 81.05 2.17
2 0 6 86.3 2.38
-2 0 -7 2.31 0.41
2 0 7 1.18 0.71
-2 0 -8 494.78 5.94
2 0 8 466.17 6.09
-2 0 -9 0.87 0.9
2 0 9 1.44 0.71
-2 0 -10 1816.18 41.11
2 0 10 1760.51 40.17
-2 0 -11 0.99 0.69
2 0 11 2.34 0.91
-2 0 -12 22.47 1.8
2 0 12 20.84 2.62
-2 0 -13 3.96 1.35
2 0 13 0.71 0.87
-2 0 -14 272.56 14.17
2 0 14 220.75 21.66
2 -1 -15 1.19 0.74
2 1 -15 1.7 0.88
2 -1 -14 9.66 1.24
2 1 -14 5.34 1.71
2 -1 -13 9.11 1.39
2 1 -13 16.92 2.38
2 -1 -12 268.29 8.8
2 1 -12 280.9 9.33
2 -1 -11 154.96 5.19
2 1 -11 159.64 5.53
2 -1 -10 42.45 3.65
2 1 -10 49.62 4.33
2 -1 -9 79.23 2.02
2 1 -9 94.34 2.51
-2 -1 9 109.82 6.47
2 -1 -8 86.44 2.38
2 1 -8 105.08 2.95
-2 -1 8 96.91 2.78
2 -1 -7 1.03 0.28
2 1 -7 1.57 0.5
-2 -1 7 2.38 0.54
2 -1 -6 125.76 2.48
2 1 -6 151.91 3.11
-2 1 6 141.25 2.67
-2 -1 6 119.45 2.64
2 -1 -5 7.56 0.49
2 1 -5 9.36 0.7
-2 -1 5 7.87 0.61
-2 1 5 7.91 0.55
2 -1 -5 9.18 1.35
-2 -1 5 11.95 1.73
2 1 -5 7.38 0.68
2 -1 -4 570.07 7.43
2 1 -4 582.96 7.96
-2 -1 4 507.65 6.98
-2 1 4 498.8 6.56
-2 -1 4 525 7.05
2 1 -4 522.33 7.07
2 -1 -3 44.35 0.96
2 1 -3 51.85 1.26
-2 1 3 43.87 0.93
2 1 -3 48.55 1.16
2 -1 -3 44.17 1.12
2 -1 -2 364.1 4.71
-2 1 2 348.64 4.53
2 1 -2 353.51 4.88
-2 -1 2 374.78 5.13
2 1 -2 342.77 4.45
2 -1 -2 352.85 4.86
-2 1 2 351.2 4.8
-2 1 1 86.31 1.39
2 1 -1 84.73 1.58
-2 -1 1 84.73 1.49
2 -1 -1 77.78 1.43
2 1 -1 85.55 1.13
-2 1 1 77.84 1.44
2 -1 0 144.1 2.19
-2 1 0 151.43 2.37
2 1 0 146.37 2.25
-2 -1 0 149.01 2.26
2 1 0 153.25 2.02
-2 -1 0 149.96 1.97
-2 1 0 157.93 2.46
-2 1 -1 4.75 0.74
2 1 1 5.08 0.61
2 1 1 5.46 0.68
-2 -1 -1 4.41 0.26
2 -1 1 5.71 0.39
-2 1 -1 5.96 0.45
2 1 2 203.3 3.05
-2 -1 -2 200.76 2.99
-2 1 -2 198.15 3.17
2 1 2 216.19 3.33
2 -1 2 214.44 3.34
-2 1 -2 192.37 3.05
-2 1 -3 61.02 1.53
2 1 3 62.61 1.48
-2 -1 -3 60.85 4.73
2 -1 3 65.9 1.58
-2 1 -3 54.75 1.42
-2 -1 -4 422.34 7.02
-2 1 -4 427.05 7.34
-2 -1 -4 433.64 7.27
2 1 4 429.61 7.32
-2 -1 -4 415.83 7.06
2 -1 4 449.88 7.7
-2 1 -4 423.92 7.28
-2 -1 -5 15.96 2.08
-2 1 -5 18.94 1
-2 -1 -5 21.48 0.98
2 1 5 20.72 2.86
2 -1 5 19.5 2.48
-2 -1 -6 1208.65 7.91
2 -1 6 1102.13 8.4
-2 1 -7 7.18 0.86
-2 -1 -7 6.19 0.73
2 1 7 6.95 1.07
2 -1 7 9.13 1.83
-2 1 -8 1.49 0.69
-2 -1 -8 1.31 0.64
2 1 8 0.78 0.61
2 -1 8 0.88 0.54
-2 1 -9 68.78 5.85
-2 -1 -9 66.06 5.54
2 1 9 76.19 10.1
2 -1 9 69.21 7.85
-2 1 -10 19.37 2.62
-2 -1 -10 15.52 2.21
2 1 10 20.78 4.46
2 -1 10 23.02 3.88
-2 1 -11 91.41 3.95
-2 -1 -11 69.9 3.17
2 1 11 94.48 11.3
2 -1 11 95.93 8.6
-2 1 -12 464.83 18.36
-2 -1 -12 451.58 17.72
2 -1 12 415.45 16.61
-2 1 -13 1.25 0.83
-2 -1 -13 0.57 0.69
2 -1 13 2.27 1.17
-2 1 -14 318.39 16.51
-2 -1 -14 369.77 18.78
2 -1 14 303.54 16.58
2 -2 -14 8.8 1.34
2 2 -14 5.39 1.29
2 -2 -13 131.76 5
2 2 -13 131.68 5.38
2 -2 -12 126.6 4.84
2 2 -12 127.2 5.19
-2 -2 12 150.61 8.36
2 -2 -11 1085.48 30.1
2 2 -11 951.6 26.89
-2 -2 11 1042.08 29.92
2 -2 -10 580.13 13.66
2 2 -10 565 13.85
-2 -2 10 550.69 13.41
2 -2 -9 82.64 2.53
2 2 -9 93.58 3.22
-2 -2 9 113.57 9.22
2 -2 -8 0.83 0.32
2 2 -8 0.72 0.96
-2 -2 8 1.34 0.53
2 -2 -7 247.09 2.83
2 2 -7 243.47 3.62
-2 2 7 243.21 2.68
-2 -2 7 237.62 3.54
2 -2 -6 80.58 1.71
2 2 -6 84.24 2.2
-2 2 6 91.75 1.88
-2 -2 6 108.62 7.45
2 2 -6 72.89 3.87
2 -2 -5 1406.21 18.92
2 2 -5 1515.81 21
-2 2 5 1478.48 19.79
-2 -2 5 1388.21 19.12
2 2 -5 1407.52 19.31
2 -2 -4 1498.05 22.5
2 2 -4 1395.67 21.63
-2 -2 4 1378.85 21.35
-2 -2 4 1530.58 23.31
2 2 -4 1630.77 24.72
2 -2 -4 1555.51 23.95
2 2 -3 9210.59 136.89
-2 -2 3 8901.05 132.23
2 -2 -3 8626.5 128.25
-2 2 2 0.05 0.08
2 2 -2 0.03 0.06
-2 2 1 233.72 4.85
2 2 -1 226.07 3.38
-2 -2 1 208.81 3.21
-2 -2 1 219.48 2.72
-2 2 1 228.92 3.49
2 2 -1 236.64 2.91
-2 2 0 137.95 2.15
2 2 0 131.82 2.13
-2 -2 0 135.64 2.19
-2 -2 0 143.24 1.98
2 -2 0 139.79 2.42
-2 2 0 137.76 2.34
-2 -2 0 139.86 1.87
2 2 1 1794.43 21.88
-2 -2 -1 1818.17 22.16
-2 2 -1 1829.95 22.51
-2 -2 -1 1859.75 22.51
2 -2 1 1780.87 22.01
-2 2 -1 1806.83 22.27
2 2 2 30.89 2.99
-2 -2 -2 27.9 2.37
-2 2 -2 28.83 1
-2 -2 -2 24.9 0.75
2 -2 2 25.57 0.92
-2 2 -2 23.78 0.9
2 2 3 1209.96 18.52
-2 -2 -3 1199.17 18.35
-2 2 -3 1212.81 18.93
-2 -2 -3 1229.16 18.94
2 -2 3 1104.04 17.3
-2 2 -3 1151.56 17.86
-2 -2 -4 1327.1 20.38
-2 2 -4 1332.76 20.92
2 2 4 1371.61 21.4
-2 -2 -4 1291.08 20.08
2 -2 4 1448.37 22.54
-2 2 -5 5162.93 23.46
2 -2 5 5125.59 23.52
-2 2 -6 383.56 4.69
-2 -2 -6 387.3 3.97
2 2 6 394.74 4.72
2 -2 6 394.62 4.73
-2 2 -7 495.22 9.83
-2 -2 -7 489.5 9.29
2 2 7 523.34 10.49
2 -2 7 524.87 10.26
-2 2 -8 26.72 1.59
-2 -2 -8 24.88 1.3
2 -2 8 24.12 2.19
-2 2 -9 130.44 3.94
-2 -2 -9 128.22 3.52
2 -2 9 125.53 8.69
-2 2 -10 11.06 1.75
-2 -2 -10 9.54 1.4
2 -2 10 10.78 2.05
-2 2 -11 29.86 3.87
-2 -2 -11 22.1 2.86
2 -2 11 26.24 4.36
-2 2 -12 81.01 3.86
-2 -2 -12 88.34 3.79
2 -2 12 97.52 9.71
-2 2 -13 326.28 20.62
-2 -2 -13 342.64 21.43
2 -2 13 326.99 20.68
-2 2 -14 8.65 1.51
-2 -2 -14 3.84 1.22
2 3 -14 5.43 1.21
2 3 -13 53.57 3.72
-2 -3 13 71 9
2 -3 -12 14.27 1.87
2 3 -12 13.8 2.06
-2 -3 12 14.56 3.25
2 -3 -11 559.34 16.82
2 3 -11 510.62 16.03
-2 -3 11 533.42 16.55
2 -3 -10 10.43 1.41
2 3 -10 10.77 1.63
-2 -3 10 8.69 1.56
2 -3 -9 110.28 2.8
2 3 -9 85.64 2.9
-2 -3 9 125.44 7.36
2 -3 -8 19.81 0.9
2 3 -8 20.61 1.39
-2 3 8 18.07 0.89
-2 -3 8 20.91 2.35
2 -3 -7 6.45 0.5
2 3 -7 4.23 0.63
-2 3 7 4.26 0.38
-2 -3 7 6.81 1.06
2 -3 -6 12.13 0.49
2 3 -6 15.44 0.95
-2 3 6 10.62 0.44
-2 -3 6 13.09 1.11
2 -3 -6 13.28 0.92
2 3 -5 18.51 0.97
-2 -3 5 25.22 2.09
2 3 -5 15.86 0.71
2 -3 -4 104.72 1.54
2 3 -4 95.99 2.22
-2 3 4 111.04 1.62
-2 -3 4 107.09 2.14
2 -3 -4 110.99 2.54
2 3 -3 13.59 0.73
-2 -3 3 11.07 0.69
-2 -3 3 13.25 1.23
2 3 -3 12.38 0.48
-2 3 2 17.1 0.41
2 3 -2 18.57 0.78
-2 -3 2 17.62 0.81
-2 3 2 18.26 0.45
-2 -3 2 15.64 0.51
-2 3 2 14.34 0.76
-2 -3 1 3.79 0.37
2 3 0 62.77 1.43
-2 -3 0 71.89 1.63
-2 3 0 65.56 1.46
-2 -3 0 65.06 1.27
-2 3 0 57.88 1.51
2 3 1 15.83 1.23
-2 -3 -1 13.36 0.54
-2 3 -1 14 0.68
-2 -3 -1 16.76 1.56
2 -3 1 15.17 0.78
-2 3 -1 13.25 0.71
-2 -3 -1 14.33 0.51
2 3 2 57.67 1.36
-2 -3 -2 54.62 1.26
-2 3 -2 56.48 1.58
-2 -3 -2 58.44 1.43
2 -3 2 57.96 1.62
-2 3 -2 59.37 1.57
2 3 3 36.96 1.29
-2 -3 -3 44.39 1.13
-2 -3 -3 37.99 3.35
2 -3 3 46.46 1.5
-2 -3 -4 80.46 1.34
-2 3 -4 80.67 1.91
-2 -3 -4 74.03 1.57
2 -3 4 87.03 1.93
-2 -3 -5 549.16 4.2
-2 3 -5 563.68 5.64
-2 -3 -5 570.41 4.48
2 -3 5 546.79 5.31
-2 3 -6 2.08 0.57
-2 -3 -6 1.63 0.51
2 -3 6 1.64 0.59
-2 3 -7 139.74 3.26
-2 -3 -7 138.51 2.45
2 -3 7 153.03 7.11
-2 3 -8 3.31 0.77
-2 -3 -8 4.48 0.71
2 -3 8 3.3 0.95
-2 3 -9 3.12 1.19
-2 -3 -9 2.4 0.73
2 -3 9 1.15 0.55
-2 3 -10 16.88 2.38
2 -3 10 17.1 3.09
-2 3 -11 161.12 7.2
-2 -3 -11 155.35 6.58
2 -3 11 147.37 6.64
-2 3 -12 2.35 0.93
-2 -3 -12 1.47 0.82
2 -3 12 0.66 1
-2 3 -13 227.44 12.06
2 -3 13 239.34 16.71
2 4 -13 5.03 1.19
-2 -4 13 6.47 1.82
2 4 -12 3.47 1.6
-2 -4 12 1.05 0.73
2 4 -11 3.79 1.2
-2 -4 11 3.05 1.02
2 4 -10 1.77 0.98
-2 -4 10 0.96 0.51
2 -4 -10 2.45 1.16
2 -4 -9 515.96 14.25
2 4 -9 559.98 16.29
-2 -4 9 512.89 14.82
2 -4 -9 545.28 15.97
2 -4 -8 333.71 6.4
2 4 -8 319.77 7.39
-2 -4 8 360.37 7.76
2 -4 -8 355.42 8.02
2 -4 -7 801.48 16.92
2 -4 -7 771.17 16.26
2 4 -7 786.45 17.72
-2 -4 7 899.06 19.71
2 -4 -7 804.26 18.17
2 4 -6 386.17 5.1
2 -4 -6 376.35 4.89
2 4 -5 244.12 5.26
-2 -4 5 249.47 5.02
2 4 -5 278.87 5.43
2 -4 -5 231.34 5.1
-2 -4 4 10.66 1.43
2 4 -4 11.03 0.55
2 -4 -4 10.42 0.76
-2 -4 3 145.52 1.87
2 4 -3 153.63 1.72
2 -4 -3 156.68 2.52
-2 4 2 37.29 0.47
2 4 -2 39.61 1.14
-2 4 2 39.04 0.5
-2 -4 2 35.08 1.09
-2 -4 2 45.28 0.92
2 -4 -2 40.54 1.27
2 4 -2 38.84 1.27
-2 4 1 307.48 4.63
2 4 -1 311.25 4.96
-2 -4 1 317.3 5.02
-2 4 1 328.24 4.77
-2 -4 1 306.54 4.52
2 4 -1 318.21 4.62
2 4 0 1401.65 19.01
-2 -4 0 1383.46 18.78
-2 4 0 1466.76 19.81
-2 -4 0 1417.5 18.99
2 4 1 1118.88 15.24
-2 -4 -1 1116.74 15.25
-2 4 -1 1135.02 15.76
2 -4 1 1241.47 17.43
-2 -4 -1 1137.22 15.52
2 4 2 478.5 3.43
-2 -4 -2 461.19 3.29
-2 4 -2 494.19 4.46
-2 -4 -2 485.03 4.04
2 -4 2 484.19 4.49
-2 -4 -2 461.86 3.68
-2 -4 -3 1278.29 6.56
-2 4 -3 1262.56 8.48
-2 -4 -3 1268.69 7.53
-2 -4 -4 113.29 2.39
-2 4 -4 124.74 3.46
2 -4 4 111.76 2.96
-2 -4 -5 40.4 3.09
-2 -4 -5 44.04 3.35
2 -4 5 41.03 3.31
-2 -4 -6 0.49 0.22
-2 4 -6 2.67 1.02
-2 -4 -6 1.28 0.27
2 -4 6 1.61 0.46
-2 4 -7 5.11 1.18
-2 -4 -7 1.16 0.49
2 -4 7 1.99 1.13
-2 4 -8 423.1 12.72
-2 -4 -8 414.54 11.77
2 -4 8 417.01 12.64
-2 4 -9 600.05 15.29
-2 -4 -9 701.72 16.59
2 -4 9 604.78 15.4
-2 4 -10 145.96 6.05
-2 -4 -10 141.67 5.12
2 -4 10 159.28 9.04
-2 4 -11 479.87 16.01
2 -4 11 515 17.01
-2 4 -12 11.29 2.05
2 -4 12 12.24 2.39
2 5 -12 20.32 2.12
-2 -5 12 17.89 2.96
2 -5 -12 16.67 1.63
2 5 -11 73.61 4.92
-2 -5 11 69.14 8.34
2 -5 -11 86.46 5.49
2 5 -10 2.12 0.91
-2 -5 10 1.74 0.67
2 -5 -10 3.68 1.27
2 5 -9 64.47 3.22
-2 -5 9 63.77 4.34
2 -5 -9 59.62 2.86
2 5 -8 9.75 1.49
-2 -5 8 11.19 1.76
2 -5 -8 9.1 1.46
2 5 -7 3.86 0.76
-2 -5 7 4.7 0.68
2 -5 -7 4.94 0.9
2 5 -6 28.97 2.65
-2 -5 6 32.03 3.14
2 -5 -6 28.54 2.62
2 5 -5 332.44 8.12
-2 -5 5 331.91 7.73
2 -5 -5 353.91 8.69
2 5 -4 20.68 1.89
-2 -5 4 21.9 1.95
2 5 -4 21.35 1.75
2 -5 -4 21.06 1.88
2 5 -3 3.26 0.58
-2 -5 3 4.46 0.52
2 -5 -3 5.49 0.68
2 5 -3 4.65 0.52
-2 5 2 0.91 0.09
-2 5 2 1.01 0.09
2 5 -2 1.11 0.32
-2 -5 2 1.83 0.3
2 -5 -2 1.25 0.46
2 5 -2 1.03 0.22
-2 -5 1 476.57 8.8
2 5 0 13.01 0.72
-2 5 0 11.85 0.59
-2 -5 0 13.22 0.68
2 -5 0 11.34 0.78
-2 -5 0 15 0.72
2 5 1 21.57 0.81
-2 -5 -1 23.07 0.87
-2 5 -1 23.99 1.88
2 -5 1 21.49 1.09
-2 -5 -1 20.77 0.84
2 5 2 48.71 3.64
-2 -5 -2 49.46 3.71
-2 5 -2 59.13 4.56
2 -5 2 55.32 4.29
-2 -5 -2 53.77 4.1
-2 5 -3 101.79 2.27
2 -5 3 109.15 2.54
-2 -5 -3 96.11 1.9
-2 -5 -4 44.8 1.31
-2 5 -4 56.66 2.15
2 -5 4 52.73 2.09
-2 -5 -4 46.15 1.69
-2 5 -5 396.54 8.61
-2 -5 -5 366.73 7.03
2 -5 5 352.64 7.76
-2 -5 -5 390.51 8.25
-2 5 -6 45.8 4.7
-2 -5 -6 43.92 4.34
2 -5 6 42.26 4.34
-2 -5 -6 47.85 5.36
-2 5 -7 201.6 6.74
-2 -5 -7 188.77 5.51
2 -5 7 179.16 10.41
-2 5 -8 61.72 3.09
2 -5 8 61.95 4.06
2 -5 9 75.3 6.86
-2 5 -10 53.63 3.81
2 -5 10 61.76 6.42
-2 5 -11 6.03 2.2
2 -5 11 4.15 1.57
-2 5 -12 45.28 3.82
2 -5 12 37.21 4.08
2 6 -11 3.9 1.27
-2 -6 11 3.39 1.25
2 -6 -11 4.42 1.6
2 6 -10 485.26 26.28
-2 -6 10 611.82 32.82
2 -6 -10 600.42 32.31
2 6 -9 92.01 4.11
-2 -6 9 86.05 7.11
2 -6 -9 119.8 4.88
2 6 -8 7.39 1.39
-2 -6 8 7.57 1.39
2 -6 -8 8.36 1.55
2 6 -7 15.89 2.21
-2 -6 7 17.82 2.85
2 -6 -7 16.68 2.27
2 6 -6 5.55 0.95
-2 -6 6 0.12 0.29
2 -6 -6 0.33 0.64
2 6 -5 93.33 3.58
-2 -6 5 79.39 5.16
2 -6 -5 82.3 6.13
2 6 -4 1474.96 33.22
-2 -6 4 1540.45 34.24
2 -6 -4 1496.55 33.74
2 6 -3 15.65 1.6
-2 -6 3 20.75 1.84
2 -6 -3 16.9 1.78
2 6 -2 1811.41 33.26
-2 -6 2 2560.76 239.92
2 -6 -2 2029.76 37.6
2 6 -1 10.83 1.2
-2 6 1 11.11 1
-2 -6 1 9.68 1.17
2 -6 -1 7.51 0.92
-2 6 0 5.62 0.7
2 6 0 10.11 0.98
-2 6 0 9.48 1.21
-2 -6 0 7.27 0.74
2 -6 0 8.05 0.97
2 6 1 1.63 0.37
-2 6 -1 1.35 0.37
-2 -6 -1 1.29 0.36
2 -6 1 5.14 0.75
-2 -6 -1 6.96 0.76
2 6 2 5.41 0.91
-2 6 -2 4.79 0.79
2 -6 2 6.99 0.87
-2 -6 -2 6.48 0.74
2 6 3 17.08 2.22
-2 6 -3 19.2 2.14
2 -6 3 18.07 2.02
-2 -6 -3 18.46 2.23
-2 6 -4 949.06 21.84
2 -6 4 946.41 21.88
-2 -6 -4 945.28 21.55
-2 6 -5 13.43 1.98
2 -6 5 13.15 1.92
-2 -6 -5 11.27 1.62
-2 6 -6 1026.75 111.59
2 -6 6 990.46 29.47
-2 -6 -6 1046.81 113.72
-2 6 -7 106.51 4.51
2 -6 7 113.12 6.91
-2 -6 -7 99.7 4.04
-2 6 -8 6.21 1.33
2 -6 8 7.29 1.57
-2 -6 -8 8.3 1.31
-2 6 -9 14.57 2.29
2 -6 9 9.39 2
-2 -6 -9 12.02 1.83
-2 6 -10 13.05 2.81
2 -6 10 18.46 2.78
-2 -6 -10 12.26 1.68
2 7 -10 58.87 4.5
2 -7 -10 72.58 5.15
2 7 -9 146.74 5.97
2 -7 -9 142.68 5.87
2 7 -8 3.84 0.83
2 -7 -8 6.54 1.2
2 7 -7 6.23 1.3
2 -7 -7 10.67 1.91
2 7 -6 6.45 1.17
2 -7 -6 4.95 0.99
2 7 -5 150.12 5.61
-2 -7 5 134.07 6.87
2 -7 -5 156.61 5.85
2 7 -4 19.03 2.48
-2 -7 4 16.92 3.74
2 -7 -4 24.75 3.2
2 7 -3 0.33 0.72
-2 -7 3 0.48 0.32
2 -7 -3 1.73 0.68
2 7 -2 2.15 0.96
-2 -7 2 0.84 0.32
2 -7 -2 1.21 0.57
-2 -7 1 175.99 4.57
2 -7 -1 182.13 5.18
2 7 0 1.6 0.41
-2 -7 0 3.75 0.62
2 -7 0 2.82 0.61
2 7 1 0.57 0.34
-2 7 -1 0.17 0.39
2 -7 1 3.39 0.91
-2 -7 -1 0.84 0.36
-2 7 -2 1.51 0.61
2 -7 2 2.11 0.59
-2 -7 -2 5.14 0.86
-2 7 -3 158.07 5.46
2 -7 3 174.47 5.99
-2 -7 -3 148.55 4.97
-2 7 -4 18.55 2.35
2 -7 4 26.18 3.21
-2 -7 -4 18.53 2.6
-2 7 -5 8.75 1.55
2 -7 5 12.51 1.75
-2 -7 -5 11.58 1.62
-2 7 -6 14.18 2.4
2 -7 6 25.04 3.86
-2 -7 -6 24.97 3.89
-2 7 -7 1.69 0.9
2 -7 7 -0.09 0.61
-2 -7 -7 1.33 0.77
-2 7 -8 13.03 1.77
2 -7 8 14.62 2.23
-2 -7 -8 15.34 1.39
-2 7 -9 14.57 2.15
2 -7 9 17.56 2.76
-2 -7 -9 12.94 1.75
2 8 -8 104.77 7
2 -8 -8 88.03 5.98
2 8 -7 738.45 44.05
2 -8 -7 722.47 35.49
2 8 -6 36.99 2.67
2 -8 -6 39.94 4.09
2 -8 -5 155.05 8.84
2 8 -4 20.89 2.8
2 -8 -4 26.18 1.89
2 8 -3 78.22 3.25
2 -8 -3 71.78 3.15
2 -8 -2 9.92 1.72
2 -8 -1 124.05 5.41
2 -8 0 13.56 1.97
2 -8 1 1028.68 114.32
2 -8 2 165.79 5.98
-2 8 -3 96.48 5.58
2 -8 3 127.02 7.49
-2 8 -4 128.17 7.42
2 -8 4 146.63 8.35
-2 8 -5 23.5 2.76
2 -8 5 23.69 1.72
2 -8 6 2.52 0.91
-2 8 -7 78.12 5.44
2 -8 7 92.45 8.81
2 -9 -4 16.44 1.74
2 -9 -3 2.09 0.93
2 -9 -2 37.74 3.58
2 -9 -1 10.03 1.51
2 -9 0 5.52 0.94
2 -9 1 16.09 1.87
2 -9 2 65.26 3.95
3 0 -15 349.98 17.77
3 0 -14 1.4 0.74
3 0 -13 246.74 10.18
3 0 -12 0.99 0.72
3 0 -11 1.67 0.62
3 0 -10 1.03 0.64
3 0 -9 6.67 0.86
3 0 -8 0.38 0.41
3 0 -7 2749.4 14.03
3 0 -6 0.89 0.44
3 0 -5 6966.87 91.59
-3 0 5 7337.46 96.31
3 0 -5 7295.02 96.37
-3 0 4 0.61 0.17
3 0 -3 236.07 3.6
-3 0 3 237.43 3.57
3 0 -3 275.44 3.99
3 0 -2 1.98 0.31
-3 0 2 2.29 0.29
3 0 -2 0.92 0.33
-3 0 2 0.74 0.25
3 0 -1 488.06 6.49
-3 0 1 521.8 6.83
3 0 -1 500.16 6.47
3 0 0 0.39 0.38
-3 0 0 0.37 0.25
3 0 0 1.46 0.21
-3 0 0 0.45 0.17
3 0 1 5280.6 78.66
-3 0 -1 5456.16 81.18
3 0 2 1.91 0.3
-3 0 -2 2.76 0.36
3 0 2 5.5 0.45
-3 0 -3 9999 131.16
3 0 3 9141.97 119.8
-3 0 -4 0.6 0.58
3 0 4 0.89 0.5
-3 0 -5 140.44 3.05
3 0 5 150.93 3.22
-3 0 -6 2.28 0.74
3 0 6 0.52 0.49
-3 0 -7 8.43 0.81
3 0 7 5.16 0.87
-3 0 -8 1 0.77
3 0 8 0.97 0.65
-3 0 -9 1495.62 28.48
3 0 9 1354.16 26.41
-3 0 -10 1.91 1.03
3 0 10 2.02 0.93
-3 0 -11 618.05 20.26
3 0 11 678.83 22.23
-3 0 -12 1.52 0.75
3 0 12 0.99 0.72
-3 0 -13 21.69 3.51
3 0 13 19.55 2.89
3 -1 -15 0.27 0.77
3 1 -15 4.39 1.37
3 -1 -14 76.04 6.08
3 1 -14 97.52 6.67
3 -1 -13 238.3 9.75
3 1 -13 257.85 10.59
3 -1 -12 44.26 5.12
3 1 -12 37.48 4.65
3 -1 -11 91.34 3.39
3 1 -11 103.08 3.96
3 -1 -10 0.92 0.56
3 1 -10 2.08 0.93
3 -1 -9 17.32 1.59
3 1 -9 16.06 1.66
3 -1 -8 0.71 0.52
3 1 -8 2.04 0.62
3 -1 -7 34.81 1.15
3 1 -7 34.83 1.29
3 -1 -6 89.64 2.05
3 1 -6 101.21 2.4
-3 1 6 96.75 2.08
3 1 -6 104.83 4.55
3 -1 -5 21.87 0.85
3 1 -5 21.74 0.99
-3 1 5 24.82 0.87
3 1 -5 20.74 2.26
3 -1 -4 109.19 2.23
3 1 -4 111.68 2.46
-3 1 4 127.06 2.44
-3 -1 4 124.69 2.61
3 -1 -4 121.62 2.57
3 -1 -3 334.74 4.61
3 1 -3 334.6 4.88
-3 1 3 356.02 4.86
3 -1 -3 355.53 5.11
3 -1 -2 56.18 1.17
-3 1 2 54.93 1.13
3 1 -2 57.21 1.34
-3 -1 2 57.93 1.33
3 -1 -2 54.87 1.27
3 1 -2 51.97 0.94
-3 1 2 60.53 1.34
-3 1 1 17.43 1.22
3 1 -1 16.72 0.65
-3 -1 1 19.11 0.76
3 1 -1 17.2 0.41
3 -1 -1 16.44 0.64
-3 1 1 15.99 0.64
-3 -1 1 17.83 0.44
3 -1 0 15.23 1.39
-3 1 0 15.06 1.07
3 1 0 13.93 1.63
-3 -1 0 14.96 0.6
3 1 0 15.72 0.46
-3 -1 0 15.39 0.45
3 -1 0 14.12 0.61
-3 1 0 13.79 0.59
3 -1 1 135.67 2.41
-3 1 -1 149.37 2.51
3 1 1 143.6 2.44
3 1 1 139.61 2.21
3 -1 1 152.64 2.55
-3 1 -1 138.21 2.37
-3 1 -2 415.37 5.83
3 1 2 440.87 6.27
-3 -1 -2 386.86 5.48
3 1 2 397.68 5.53
-3 -1 -2 415.39 5.77
-3 1 -2 425.51 5.99
-3 1 -3 451.42 7.56
-3 -1 -3 428.67 7.16
-3 1 -3 436.04 7.43
3 1 3 484.46 8.03
-3 -1 -3 449.28 7.42
3 -1 3 490.74 8.25
-3 1 -3 455.4 7.64
-3 -1 -4 98.24 2.26
-3 1 -4 111.64 2.66
3 1 4 112.01 2.65
3 -1 4 94.7 2.36
-3 -1 -4 109.96 2.52
-3 -1 -5 832.08 12.21
-3 1 -6 43.68 1.6
-3 -1 -6 41.11 1.43
3 1 6 40.5 4.01
3 -1 6 48.49 5.06
-3 1 -7 1.21 0.62
-3 -1 -7 1.22 0.39
3 1 7 6.75 1.36
3 -1 7 2.18 1.13
-3 1 -8 3.73 1.2
-3 -1 -8 1.33 0.42
3 1 8 5.58 0.87
3 -1 8 0.87 0.38
-3 1 -9 6.07 1.01
-3 -1 -9 8.53 1.25
3 1 9 7.27 1.42
3 -1 9 11.81 2.13
-3 1 -10 321.66 9.14
-3 -1 -10 325.58 8.81
3 1 10 322.91 8.9
3 -1 10 347.48 9.45
-3 1 -11 261.68 9.39
-3 -1 -11 297.43 10.34
3 1 11 270.99 9.73
3 -1 11 305.29 10.77
-3 1 -12 128.76 5.35
-3 -1 -12 129 5.16
3 1 12 121.38 10.72
3 -1 12 166.76 10.79
-3 1 -13 116.76 5.14
-3 -1 -13 97.85 4.38
3 -1 13 81.17 11.36
3 -2 -14 34.1 2.17
3 2 -14 28.44 2.18
3 -2 -13 13.45 2.27
3 2 -13 13.63 2.44
3 -2 -12 651.74 20.92
3 2 -12 671.86 21.92
3 -2 -11 643.1 18.21
3 2 -11 741.54 21.31
3 -2 -10 1159.48 26.24
3 2 -10 1146.55 26.49
3 -2 -9 52.65 1.88
3 2 -9 62.34 2.46
3 -2 -8 16.95 1.5
3 2 -8 18.56 1.82
-3 -2 8 25.43 3.69
3 -2 -7 94.58 1.72
3 2 -7 108.02 2.39
-3 2 7 102.82 5.66
-3 -2 7 102.22 3.13
3 -2 -6 30.58 0.9
3 2 -6 39.14 1.36
-3 2 6 27.82 2.29
-3 -2 6 39.11 1.18
3 -2 -6 28.68 1.18
3 -2 -5 441.26 6.49
3 2 -5 428.04 6.86
-3 -2 5 464.38 7.04
3 2 -5 445.18 6.64
3 -2 -5 401.56 6.58
3 -2 -4 2347.03 35.14
3 2 -4 2025.75 31
-3 2 4 2280.87 34.18
3 2 -4 2150.9 32.34
3 -2 -4 2000.92 30.65
3 -2 -3 1715.73 25.79
-3 2 3 1544.74 23.22
3 2 -3 1589.89 24.39
-3 -2 3 1458.38 22.44
3 -2 -3 1497.8 23.11
-3 2 3 1611.9 24.67
3 -2 -2 2539.26 37.97
-3 2 2 2553.9 38.12
3 2 -2 2749.42 41.44
3 -2 -2 2682.48 40.46
-3 2 2 2670.65 40.25
3 2 -2 2955.07 43.76
3 -2 -1 55.51 1.44
-3 2 1 58.42 1.49
3 2 -1 51.31 1.26
-3 -2 1 48.9 1.22
3 -2 -1 50.34 1.32
-3 2 1 56.76 1.38
-3 2 0 5.61 0.61
3 2 0 5.97 0.55
-3 -2 0 6.97 0.55
-3 -2 0 6.42 0.26
-3 2 0 6.4 0.55
-3 2 -1 7.91 0.89
3 2 1 10.44 1.3
-3 -2 -1 6.74 0.42
3 2 1 7.82 0.77
-3 -2 -1 7.45 0.62
3 -2 1 6.17 0.53
-3 2 -1 7.19 0.52
-3 2 -2 36.61 1.2
3 2 2 47.05 3.62
-3 -2 -2 37.86 1.11
-3 2 -2 47.59 1.55
3 2 2 40.1 1.14
-3 -2 -2 40.17 3.15
3 -2 2 42.27 1.35
-3 2 -2 35.76 1.17
3 2 3 400.52 6.74
-3 2 -3 383.56 6.82
3 2 3 391.55 6.83
-3 -2 -3 392.53 6.66
3 -2 3 403.68 7.09
-3 -2 -4 451.69 6.84
-3 2 -4 465.2 7.47
3 2 4 473.89 7.4
-3 -2 -4 458.59 7.07
3 -2 4 465.76 7.39
-3 2 -5 233.05 3.51
3 2 5 203.7 2.96
3 -2 5 232.98 3.42
-3 2 -6 731.25 13.7
-3 -2 -6 771.97 14.04
3 -2 6 781.17 14.65
-3 2 -7 113.72 2.83
-3 -2 -7 133.11 2.72
3 -2 7 137.16 7.01
-3 2 -8 103.55 3.29
-3 -2 -8 117.85 3.29
3 -2 8 109.04 6.83
-3 2 -9 82.85 9.71
-3 -2 -9 81.24 9.43
3 -2 9 79.43 9.54
-3 2 -10 36.99 4.64
-3 -2 -10 27.44 3.18
3 -2 10 32.59 5.07
-3 2 -11 0.67 0.93
-3 -2 -11 1.3 0.62
3 -2 11 0.8 0.79
-3 2 -12 0.01 0.84
-3 -2 -12 3.07 1.05
3 -2 12 1.61 1.18
-3 2 -13 1.53 1.05
-3 -2 -13 1.27 0.77
3 -2 13 2.6 1.69
3 3 -14 166.13 9.06
3 3 -13 29.88 2.49
3 -3 -12 146.45 6.15
3 3 -12 150.11 6.68
3 -3 -11 33.74 4.07
3 3 -11 25.4 3.35
-3 -3 11 34.47 5.02
3 -3 -10 1.84 0.46
3 3 -10 2.24 0.8
-3 -3 10 1.33 0.55
3 -3 -9 44.35 3.67
3 3 -9 41.64 3.68
-3 -3 9 48.98 5.68
3 -3 -8 20.88 1
3 3 -8 23.15 1.43
-3 3 8 21.08 0.96
-3 -3 8 26.4 3.6
3 -3 -8 24.8 3.18
3 3 -7 103.24 2.48
-3 3 7 102.62 1.64
-3 -3 7 112.88 2.43
3 -3 -7 110.79 2.75
3 3 -6 325.75 4.22
-3 3 6 360.37 2.71
3 3 -6 340.69 3.45
3 -3 -6 332.95 4.25
3 -3 -5 97.68 1.21
3 3 -5 106.18 2.2
-3 -3 5 104.59 1.84
3 3 -5 101.14 1.62
3 -3 -5 94.9 2.11
-3 3 3 0.09 0.1
3 3 -3 -0.02 0.08
-3 3 2 32.85 0.84
3 3 -2 32.09 1.17
-3 -3 2 30.17 1.09
-3 -3 2 32.03 0.62
3 -3 -2 25.65 1.06
3 3 -2 30.29 0.55
-3 3 1 5.34 0.49
3 3 -1 3.7 0.42
-3 -3 1 4.74 0.44
3 -3 -1 5 0.51
-3 3 0 69.71 4.11
3 3 0 47.5 1.3
-3 -3 0 48.63 1.3
-3 3 0 47.91 1.3
-3 -3 0 45.9 0.89
3 -3 0 44.54 1.43
-3 -3 0 48.3 0.92
-3 3 -1 22.07 3
3 3 1 26.6 1.87
-3 -3 -1 23.15 0.82
-3 3 -1 28.46 1.08
-3 -3 -1 26.8 1.68
3 -3 1 24.3 1
3 3 2 86.5 1.84
-3 -3 -2 84.42 1.78
-3 3 -2 97.27 2.22
-3 -3 -2 82.42 1.78
3 -3 2 82.36 2.05
3 3 3 44.48 4.91
-3 -3 -3 28.56 1.04
-3 3 -3 27.34 1.17
-3 -3 -3 21.94 2.91
3 -3 3 26.05 1.17
-3 -3 -4 715.29 5.27
-3 3 -4 677.16 6.14
3 -3 4 664.68 5.97
-3 -3 -5 0.74 0.26
-3 3 -5 2.43 0.8
-3 3 -6 63.53 5.02
-3 -3 -6 65.15 4.96
3 -3 6 69.03 6.63
-3 3 -7 95.32 3.27
-3 -3 -7 131.07 3.81
3 -3 7 148.76 11.09
-3 3 -8 0.89 0.69
-3 -3 -8 2.08 0.49
3 -3 8 0.61 0.84
-3 3 -9 23.61 3.02
-3 -3 -9 24.81 2.89
3 -3 9 28.33 4.65
-3 3 -10 294.15 10.42
-3 -3 -10 302.83 10.2
3 -3 10 277.25 9.9
-3 3 -11 128.39 5.28
-3 -3 -11 160.98 5.87
3 -3 11 127.93 10.34
-3 3 -12 453.92 28.36
-3 -3 -12 396.1 24.55
3 -3 12 364.34 23.39
-3 3 -13 20.28 2.31
3 -3 13 20.27 3.52
3 4 -13 55.18 3.09
3 -4 -13 67.79 3.61
3 4 -12 37.01 2.85
-3 -4 12 55.71 7.33
3 -4 -12 56.35 3.94
3 4 -11 78.06 4.05
-3 -4 11 86.61 7.5
3 -4 -11 86.75 4.36
3 4 -10 5.31 1.51
-3 -4 10 3.15 0.63
3 -4 -10 7.85 1.52
3 -4 -9 8.9 1.13
3 4 -9 9.99 1.6
-3 -4 9 12.33 2.44
3 -4 -9 10.55 1.62
3 -4 -8 227.79 4.51
3 4 -8 211.69 5.33
-3 -4 8 228.94 5.28
3 -4 -8 244.73 6.04
3 -4 -7 1126.96 23.72
3 4 -7 936.99 20.9
-3 -4 7 1217.27 26.33
3 -4 -7 1047.64 23.24
3 -4 -6 1507.09 8.87
3 4 -6 1590.25 12.93
-3 -4 6 1596.45 11.58
3 4 -6 1478.81 10.64
3 -4 -6 1597.1 13.28
3 4 -5 641.99 12.11
-3 -4 5 638.61 11.32
3 4 -5 655.76 11.57
3 -4 -5 642.23 12.07
-3 -4 4 679.5 11.95
3 4 -4 683.54 11.83
3 -4 -4 718.97 13.22
3 4 -3 4.48 0.52
-3 -4 3 5.58 0.67
-3 4 1 46.59 1.12
3 4 -1 52.94 1.34
-3 -4 1 44.3 1.21
-3 4 1 53.58 1.12
-3 -4 1 49.07 0.66
3 -4 -1 55.85 1.51
3 4 0 311.52 3.02
-3 4 0 329.05 3.14
-3 -4 0 320.45 2.21
3 -4 0 348.57 3.82
-3 -4 0 333.77 2.29
-3 4 -1 652.11 4.97
3 4 1 655.98 4.92
-3 -4 -1 654.9 4.63
-3 4 -1 674.53 5.29
3 -4 1 703.57 5.81
-3 -4 -1 706.01 4.19
3 4 2 3211.53 14.47
-3 -4 -2 3083.55 13.82
3 4 3 669.95 11.96
-3 -4 -3 673.4 11.95
-3 4 -3 695.18 12.84
-3 -4 -3 621.38 11.24
3 -4 3 676.72 12.6
-3 -4 -4 326.09 3.49
-3 4 -4 356.29 7.28
3 -4 4 364.54 7.51
-3 -4 -5 189.66 2.74
3 -4 5 183.98 3.5
-3 4 -6 248.53 6.04
-3 -4 -6 222.71 4.85
3 -4 6 212.54 5.4
-3 4 -7 38.6 4.06
-3 -4 -7 30.96 3.12
3 -4 7 30.15 3.65
-3 4 -8 170.16 6.03
-3 -4 -8 186.86 5.89
3 -4 8 149.27 9.23
-3 4 -9 64.65 3.27
-3 -4 -9 62.64 2.58
3 -4 9 67.39 6.22
-3 4 -10 864.05 33.09
-3 -4 -10 803.54 30.3
3 -4 10 837.26 32.22
-3 4 -11 102 7.13
3 -4 11 116.45 10.42
-3 4 -12 4.95 1.66
3 5 -13 48.2 3.9
-3 -5 13 40.03 8.6
3 -5 -13 50.42 3.97
3 5 -12 71.23 3.86
-3 -5 12 81.15 5.92
3 -5 -12 82.62 4.09
3 5 -11 62.96 6.86
-3 -5 11 52.04 6.4
3 -5 -11 67.81 4.51
3 5 -10 12.46 2.23
-3 -5 10 12.69 2.69
3 -5 -10 15.24 2.18
3 5 -9 6.48 1.26
-3 -5 9 8.59 1.5
3 -5 -9 10.59 1.71
3 5 -8 2.57 1.31
-3 -5 8 2.54 0.57
3 -5 -8 0.8 0.69
3 5 -7 13.01 1.7
-3 -5 7 13.46 2.16
3 -5 -7 13.88 1.71
3 5 -6 186.74 4.83
-3 -5 6 167.66 4.13
3 -5 -6 179.52 4.74
3 5 -5 1.61 0.67
-3 -5 5 0.74 0.29
3 5 -5 1.11 0.24
3 -5 -5 1.66 0.75
3 5 -4 34.64 1.57
-3 -5 4 32.73 2.1
3 5 -4 28.91 1.01
3 -5 -4 34.81 1.61
3 5 -3 34.41 2.8
-3 -5 3 32.31 3.23
3 -5 -3 32.4 2.69
3 5 -3 10.58 0.89
-3 5 1 2.22 0.42
3 5 -1 4.64 0.66
-3 5 1 4.14 0.45
-3 -5 1 3.71 0.38
3 -5 -1 2.84 0.53
-3 5 0 82.93 2.06
3 5 0 88.84 1.71
-3 -5 0 81.37 1.7
-3 5 0 89.6 1.69
3 -5 0 84.79 2.07
-3 -5 0 85.16 1.25
3 5 1 174.77 2.48
-3 -5 -1 156.64 2.24
-3 -5 -1 159.78 2.02
3 -5 1 186.04 3.14
-3 -5 -1 180.59 2.16
3 5 2 124.56 1.93
-3 -5 -2 119.88 2.07
-3 5 -2 110.39 2.31
-3 -5 -2 119.69 2.02
3 -5 2 129.61 8.87
-3 -5 -2 110.33 1.84
3 5 3 102.23 2.81
-3 -5 -3 98.27 2.6
-3 5 -3 119.14 3.49
3 -5 3 117.11 3.48
-3 -5 -3 104.98 2.86
-3 -5 -4 249.31 5.13
-3 5 -4 243.98 5.73
3 -5 4 267.33 6.18
-3 -5 -4 272.47 5.88
-3 5 -5 10.18 1.38
3 -5 5 7.18 1.12
-3 -5 -5 9.03 1.11
-3 5 -6 170.55 5.82
-3 -5 -6 172.42 5.2
3 -5 6 174.45 5.78
-3 5 -7 25.15 4.08
-3 -5 -7 29.03 3.19
3 -5 7 41.62 3.66
-3 5 -8 10.07 1.77
3 -5 8 18.03 2.79
3 -5 9 136.19 10.06
-3 5 -10 1.74 1.13
3 -5 10 1.84 0.88
-3 5 -11 94.02 5.9
3 -5 11 91.3 7.56
3 -6 -11 745.17 61.85
3 6 -10 11.81 1.94
3 -6 -10 8.77 1.49
3 6 -9 205.56 7.58
-3 -6 9 214.84 15.93
3 -6 -9 215.41 7.8
3 6 -8 42.1 2.5
-3 -6 8 37.89 2.92
3 -6 -8 31.19 3.82
3 6 -7 34.57 4.3
-3 -6 7 31.78 4.09
3 -6 -7 28.94 3.63
3 6 -6 10.68 1.47
-3 -6 6 12.48 1.98
3 -6 -6 11.86 1.64
3 6 -5 185.91 6.02
-3 -6 5 187.23 8.88
3 -6 -5 198.06 6.41
3 6 -4 87.46 2.93
-3 -6 4 78.28 7.5
3 -6 -4 99.05 3.41
3 6 -3 1788.51 39.98
-3 -6 3 1671.67 36.78
3 -6 -3 1788.16 40.14
-3 6 2 33.29 2.64
3 6 -2 35.74 3.09
-3 6 2 38.67 3.06
-3 -6 2 34.74 2.83
3 -6 -2 38.28 3.39
3 6 -1 620.56 12.02
-3 6 1 662.48 12.33
-3 -6 1 609.06 11.34
3 -6 -1 672.16 13.47
-3 6 0 1.53 0.58
3 6 0 3.72 0.61
-3 6 0 2.35 0.4
-3 -6 0 4.41 0.53
3 -6 0 4.46 0.7
3 6 1 2.32 0.48
-3 6 -1 1.71 0.54
3 -6 1 3.19 0.81
-3 -6 -1 1.18 0.37
3 6 2 228.84 5.56
-3 6 -2 229.98 6.01
3 -6 2 213.5 5.8
-3 -6 -2 231.33 5.67
3 6 3 85.11 11.02
-3 6 -3 85.08 9.87
3 -6 3 81.79 9.5
-3 -6 -3 84.18 9.64
-3 6 -4 9.04 1.43
3 -6 4 9.45 1.48
-3 -6 -4 8.09 1.16
-3 6 -5 1036.61 24.66
3 -6 5 931.91 22.3
-3 -6 -5 953 22.33
-3 6 -6 97.61 4.07
3 -6 6 93.01 3.88
-3 -6 -6 84.56 3.34
-3 6 -7 500 19.61
3 -6 7 524.58 20.39
-3 -6 -7 551.17 21.19
-3 6 -8 33.21 4.22
3 -6 8 30.53 4.78
-3 -6 -8 36.89 2.1
-3 6 -9 2.64 1.78
3 -6 9 0.96 0.58
-3 -6 -9 1.53 1.01
-3 6 -10 91.65 5.58
3 -6 10 91.9 8.29
-3 -6 -10 85.92 4.97
3 7 -10 53.33 4.16
3 -7 -10 58.32 4.38
3 7 -9 5.06 1.18
3 -7 -9 4.11 1.08
3 7 -8 9.64 1.57
3 -7 -8 12.55 2.01
3 7 -7 60.9 3.07
3 -7 -7 54.51 2.8
3 7 -6 14.54 2.03
3 -7 -6 25.4 1.84
3 7 -5 2.06 0.84
3 -7 -5 6.11 1.25
3 7 -4 11.48 1.79
3 -7 -4 12.75 1.84
3 7 -3 24.83 3.16
3 -7 -3 23.26 3.08
3 7 -2 51.52 2.16
3 -7 -2 49.61 2.17
3 7 -1 0.94 0.71
3 -7 -1 1.13 0.69
3 7 0 23.17 2.65
-3 7 0 19.34 2.17
3 -7 0 17.56 2.22
3 7 1 0.41 0.33
-3 7 -1 0.11 0.43
3 -7 1 0.83 0.51
3 -7 2 19.48 2.53
-3 -7 -2 18.09 2.23
-3 7 -3 88.97 3.48
3 -7 3 94.12 3.77
-3 -7 -3 93.67 3.33
-3 7 -4 1.9 0.68
3 -7 4 2.06 0.68
-3 -7 -4 2.17 0.72
-3 7 -5 50.08 2.9
3 -7 5 60.74 3.23
-3 -7 -5 55.57 2.77
-3 7 -6 34.86 2.6
3 -7 6 44 3.08
-3 -7 -6 45.62 2.96
-3 7 -7 1.73 0.84
3 -7 7 1.45 0.7
-3 -7 -7 2 0.72
-3 7 -8 47.19 3.25
3 -7 8 39.47 5.44
-3 -7 -8 36.36 3.53
3 8 -8 393.85 23.93
3 -8 -8 395.7 24.05
3 8 -7 30.73 3.15
3 -8 -7 32.16 3.35
3 8 -6 557.51 18.36
3 -8 -6 814.48 67.52
3 -8 -5 97.81 6.64
3 8 -4 2.8 0.91
3 -8 -4 4.03 0.92
3 8 -3 1.58 1.11
3 -8 -3 2.89 0.86
3 8 -2 0.79 0.59
3 -8 -2 2.01 0.72
3 -8 0 385.79 12.54
3 -8 1 185 6.6
3 -8 2 460.19 24.73
3 -8 3 141.24 8.16
3 -8 4 48.96 3.75
-3 8 -5 35.16 2.33
3 -8 5 42.17 2.55
3 -8 6 1.38 0.72
3 -9 -4 13.32 1.5
3 -9 -3 83.44 5.66
3 -9 -2 1.69 0.95
3 -9 -1 6.12 1.14
3 -9 0 26.9 2.71
3 -9 1 124.52 6.82
3 -9 2 7.14 1.18
4 0 -15 1.35 1.24
4 0 -14 1118.75 100.42
4 0 -13 1.51 0.86
4 0 -12 186.01 6.56
4 0 -11 1.78 0.64
4 0 -10 338.15 7.55
4 0 -9 1.23 0.44
4 0 -8 380.98 7.68
4 0 -7 0.99 0.69
4 0 -6 6267.73 26.45
4 0 -5 1.47 0.58
-4 0 5 1.16 0.38
-4 0 4 713.94 11.49
4 0 -4 651.7 10.41
4 0 -3 0.58 0.33
-4 0 3 0.72 0.36
4 0 -3 1.84 0.43
4 0 -2 2887.15 43.44
-4 0 2 2748.94 41.39
4 0 -2 2523.61 37.81
-4 0 2 2835.84 42.43
4 0 -1 0.41 0.33
-4 0 1 1.33 0.38
4 0 -1 1.27 0.36
-4 0 1 1.04 0.38
4 0 0 467.56 6.52
-4 0 0 492.15 6.75
4 0 0 538.71 7.18
-4 0 0 473.64 6.31
4 0 1 0.34 0.27
4 0 1 1 0.38
-4 0 -1 2.25 0.33
4 0 2 6038.96 79.63
-4 0 -2 6421.71 84.32
4 0 3 2.58 0.36
-4 0 -3 0.55 0.46
4 0 4 258.11 4.77
-4 0 -5 1.86 0.66
4 0 5 4.19 0.75
-4 0 -6 265.77 5.82
4 0 6 280.38 6.08
-4 0 -7 0.77 0.63
4 0 7 0.23 0.42
-4 0 -8 113.41 3.45
4 0 8 115.63 3.56
-4 0 -9 1.06 0.96
4 0 9 1.24 0.58
-4 0 -10 323 10.6
4 0 10 323.58 10.73
-4 0 -11 5.25 1.34
4 0 11 1.93 0.96
-4 0 -12 37.13 2.92
4 0 12 34.86 5.04
-4 0 -13 1.7 0.94
4 0 13 1.63 0.7
4 -1 -15 17.88 2.15
4 1 -15 20.75 2.37
4 -1 -14 302.61 19.03
4 1 -14 288.94 18.26
4 -1 -13 13.46 1.94
4 1 -13 13.85 2.01
4 -1 -12 14.78 2.05
4 1 -12 14.3 2.08
4 -1 -11 2.1 0.77
4 1 -11 1.02 0.7
4 -1 -10 6.9 0.97
4 1 -10 5.4 0.92
4 -1 -9 0.6 0.53
4 1 -9 3.04 1.03
4 -1 -8 311.86 6.29
4 1 -8 314.87 6.67
4 -1 -7 13.35 0.77
4 1 -7 16.36 1.02
4 -1 -6 314.75 5.11
4 1 -6 343.62 5.79
-4 1 6 327.45 5.23
4 1 -6 323.95 5.3
4 -1 -6 302.52 5.23
4 -1 -5 80.58 1.86
4 1 -5 88.67 2.16
-4 1 5 86.69 1.93
4 1 -5 89.2 4.46
4 -1 -5 84 2.06
4 -1 -4 19.12 0.77
4 1 -4 22.81 0.98
-4 1 4 24.81 0.87
-4 -1 4 18.98 0.88
4 1 -4 24.26 1.53
4 -1 -4 21.39 0.93
4 -1 -3 2.3 0.29
4 1 -3 3.22 0.43
-4 1 3 3.68 0.36
-4 -1 3 3.69 0.39
4 -1 -3 4.21 0.52
4 1 -3 2.97 0.26
4 -1 -2 27.53 2.97
4 1 -2 20.93 0.86
-4 1 2 24.52 0.81
-4 -1 2 27.19 0.97
4 1 -2 25.55 0.66
4 -1 -2 29.18 0.95
-4 -1 2 24.09 0.63
-4 1 1 0.2 0.26
4 1 -1 0.03 0.29
-4 -1 1 0.63 0.35
4 1 -1 0.69 0.26
4 -1 -1 2.32 0.3
-4 -1 1 0.63 0.14
4 -1 0 47.1 4.03
-4 1 0 43.07 2.61
4 1 0 39.05 1.13
-4 -1 0 46.99 1.26
4 1 0 44.08 0.98
4 -1 0 43.41 1.17
-4 -1 0 40.97 0.89
-4 1 0 46.81 1.26
4 -1 1 466.9 7.79
-4 1 -1 526.98 8.59
4 1 1 480.38 7.96
4 1 1 472.72 7.55
-4 -1 -1 463.23 7.39
4 -1 1 445.93 7.42
-4 1 -1 488.8 7.99
4 1 2 396.49 6.84
-4 1 -2 361.92 6.39
-4 -1 -2 382.57 6.59
4 1 2 430.41 7.22
4 -1 2 367.87 6.43
-4 -1 -2 394.14 6.57
-4 1 -2 350.98 6.09
4 1 3 538.35 8.25
4 1 3 575.1 8.58
4 -1 3 552.02 8.44
-4 -1 -3 518.86 8.61
-4 1 -4 117.38 2.77
4 1 4 119.81 2.67
4 -1 4 119.96 2.97
-4 1 -5 9.58 1.34
4 1 5 7.12 1.05
4 -1 5 7.59 1.25
-4 1 -6 1.47 1.27
-4 -1 -6 1.8 0.51
4 1 6 0.97 0.34
4 -1 6 1.12 0.54
-4 1 -7 43.98 5.46
-4 -1 -7 41.73 3.44
4 1 7 39.77 5.88
4 -1 7 37.4 4.95
-4 1 -8 260.83 6.35
-4 -1 -8 241.05 5.74
4 1 8 234.1 5.82
4 -1 8 243.15 6.09
-4 1 -9 203.08 6.77
-4 -1 -9 186.94 6.21
4 1 9 256 10.78
4 -1 9 209.54 7.49
-4 1 -10 331.9 10.88
-4 -1 -10 329.58 10.74
4 1 10 322.41 11.82
4 -1 10 355.99 12.07
-4 1 -11 244.79 10.23
-4 -1 -11 257.19 10.57
4 1 11 250 11.43
4 -1 11 263.01 16.48
-4 1 -12 12.87 2.09
-4 -1 -12 13.54 1.43
4 1 12 12.92 2.11
4 -1 12 12.72 2.98
-4 1 -13 1.8 0.9
-4 -1 -13 3.21 1.43
4 1 13 1.33 0.89
4 -1 13 0.87 0.89
4 -2 -14 1.41 0.68
4 2 -14 3.61 1.35
4 -2 -13 26.28 4.09
4 2 -13 29.69 3.83
4 -2 -12 210.62 7.43
4 2 -12 215.73 8.04
4 -2 -11 707.14 16.91
4 2 -11 716.86 17.79
4 -2 -10 162.03 4.54
4 2 -10 166.06 5.15
4 -2 -9 557.19 12.54
4 2 -9 652.27 15.01
4 -2 -8 29.58 2.39
4 2 -8 34.9 2.97
4 -2 -8 26.41 2.39
4 -2 -7 196.63 4.14
4 2 -7 228.53 5.24
-4 2 7 201.35 4.19
4 -2 -7 207.91 4.77
4 -2 -6 107.83 1.81
4 2 -6 126.58 2.48
-4 2 6 113.31 1.74
4 2 -6 98.9 4.81
4 -2 -6 112.18 2.36
4 2 -5 433.09 7.03
4 2 -5 441.94 6.59
4 -2 -5 472.64 7.52
4 -2 -4 143.43 2.59
4 2 -4 152.88 3.03
-4 2 4 134.05 2.38
4 2 -4 137.09 2.36
4 -2 -4 144.84 2.97
4 2 -3 0.04 0.05
4 -2 -2 306.18 5.21
-4 2 2 286.37 4.86
4 2 -2 300.06 5.35
4 2 -2 308.64 4.72
4 2 -2 301.07 4.58
4 -2 -2 302.39 5.41
-4 2 2 287.94 5.13
-4 2 1 2639.21 35.05
4 2 -1 2708.05 36.17
4 2 -1 2802.41 36.54
4 -2 -1 2889.54 38.59
-4 2 1 2663.94 35.62
-4 -2 1 3015.29 39.29
4 -2 0 763.12 12.11
-4 2 0 759.31 11.99
4 2 0 771.04 12.25
-4 -2 0 796.17 12.6
4 2 0 758.08 11.52
-4 -2 0 755.4 11.44
4 -2 0 737.14 11.86
-4 2 0 763.91 12.3
-4 2 -1 1039.27 16.36
4 2 1 1031.56 16.13
-4 -2 -1 1031.79 16.14
4 2 1 1010.02 15.49
4 2 2 81.4 1.97
-4 -2 -2 71.78 1.85
4 2 2 75.85 1.66
-4 -2 -2 89.71 1.89
4 -2 2 69.47 1.84
-4 2 -3 172.22 3.62
4 2 3 156.62 2.97
-4 -2 -3 155.78 2.89
4 -2 3 163.45 3.36
-4 2 -4 27.09 1.22
4 2 4 27.33 3.12
4 -2 4 30.31 1.37
-4 2 -5 1086.15 19.88
4 2 5 1023.77 18.8
4 -2 5 943.26 17.14
-4 2 -6 279.24 4.41
-4 -2 -6 278.37 3.95
4 2 6 268.68 4.1
4 -2 6 257.62 4.55
-4 2 -7 1388.6 30.38
-4 -2 -7 1379.24 29.88
4 2 7 1339.67 29.25
4 -2 7 1337.92 29.34
-4 2 -8 460.2 11.61
-4 -2 -8 413.58 10.23
4 2 8 405.9 10.27
4 -2 8 422.9 10.71
-4 2 -9 101.03 4
-4 -2 -9 110.67 4.03
4 2 9 109.05 4.2
4 -2 9 114.06 8.53
-4 2 -10 18.8 2.57
-4 -2 -10 22.95 2.89
4 2 10 25.72 4.99
4 -2 10 28.06 4.62
-4 2 -11 27.72 4.37
-4 -2 -11 22.33 3.5
4 2 11 33.51 5.93
4 -2 11 21.12 4.13
-4 2 -12 37.28 2.63
-4 -2 -12 43.82 3.44
4 -2 12 34.66 3.79
-4 2 -13 91.43 6.39
-4 -2 -13 94.71 6.41
4 -2 13 90.77 13.36
4 3 -14 4.93 1.64
4 3 -13 47.98 3.45
4 -3 -13 49.89 3.89
4 -3 -12 28.64 1.78
4 3 -12 26.08 1.97
4 -3 -12 26.43 2.1
4 -3 -11 12.06 1.6
4 3 -11 12.03 1.9
4 -3 -11 5.64 1.24
4 -3 -10 3.8 0.64
4 3 -10 6.97 1.33
4 -3 -10 7.4 1.41
4 -3 -9 19.02 1.74
4 3 -9 18.11 1.88
4 -3 -9 26.81 2.6
4 -3 -8 35.92 1.34
4 3 -8 34.25 1.78
-4 3 8 27.06 1.32
4 -3 -8 28.45 1.54
4 -3 -7 55.31 4.16
4 3 -7 54.82 4.39
-4 3 7 55.5 4.18
4 -3 -7 58.59 4.62
4 -3 -6 76.56 1.79
4 3 -6 74.95 2.38
4 3 -6 79.94 2
4 -3 -6 86.42 2.6
4 -3 -5 106.11 3.16
4 3 -5 102.67 2.31
-4 3 5 99.74 1.35
4 3 -5 90.04 1.41
4 -3 -5 103.28 2.25
4 -3 -4 313.88 2.74
4 3 -4 298.57 3.58
-4 3 4 280.95 2.29
4 -3 -4 296.45 3.69
4 -3 -3 112.44 2.05
-4 3 3 117.36 2.09
4 3 -3 109.58 2.5
4 -3 -3 96.72 2.32
4 3 -3 103.92 1.5
4 -3 -2 70.86 1.62
4 3 -2 75.21 1.93
4 -3 -2 85.54 2.31
-4 3 1 0.39 0.16
4 3 -1 0.73 0.34
-4 -3 1 0.24 0.32
4 -3 -1 1.46 0.46
-4 3 0 139.46 2.64
4 3 0 130.81 2.58
-4 -3 0 118.76 2.47
-4 -3 0 123.95 1.8
4 -3 0 123.77 2.7
-4 -3 0 125.8 1.83
4 3 1 239.98 4.1
-4 -3 -1 254.4 4.33
-4 3 -1 269.94 4.64
-4 -3 -1 233.31 3.51
4 -3 1 262.16 4.65
4 3 2 311.77 3.2
-4 -3 -2 318.89 3.27
-4 -3 -2 320.4 2.82
-4 3 -3 750.42 6.92
4 -3 3 702.99 6.19
4 3 4 136.67 3.2
-4 3 -4 124.36 3.27
4 -3 4 134.72 3.51
-4 3 -5 29.81 2.58
4 -3 5 35.84 3.03
-4 3 -6 255.97 6.72
4 -3 6 242.88 6.38
-4 3 -7 9.35 1.23
-4 -3 -7 9.74 1.18
4 -3 7 8.56 1.75
-4 3 -8 22.35 3.03
-4 -3 -8 18.45 2.35
4 -3 8 20.92 4.03
-4 3 -9 382.93 12.42
-4 -3 -9 373.35 11.69
4 -3 9 352.03 21.07
-4 3 -10 130.03 6.11
-4 -3 -10 150.26 6.45
4 -3 10 173.57 13.02
-4 3 -11 216.77 12.31
-4 -3 -11 214.26 11.89
4 -3 11 252.22 14.18
-4 3 -12 2.86 1.28
-4 -3 -12 1.78 0.71
4 -3 12 4.43 1.47
4 4 -13 495.49 16.99
4 -4 -13 594.37 20.16
4 4 -12 3.36 1.44
4 -4 -12 1.56 0.57
4 4 -11 13.33 2.13
4 -4 -11 15.43 2.19
4 4 -10 20.49 2.88
4 -4 -10 18.6 2.6
4 -4 -9 57.55 1.97
4 4 -9 45.04 5.15
4 -4 -9 64.39 2.92
4 -4 -8 156.9 3.87
4 4 -8 134.21 4.35
-4 -4 8 175.37 5.19
4 -4 -8 158.29 4.86
4 -4 -7 1426.01 25.82
4 4 -7 1455.21 27.59
-4 -4 7 1408.15 26.04
4 -4 -7 1486.85 28.18
4 -4 -6 427.12 3.37
4 4 -6 445.15 5.64
-4 4 6 441.74 3.4
-4 -4 6 438.42 4.32
4 4 -6 437.11 4.19
4 -4 -6 482.83 6.01
4 -4 -5 2201.65 13.4
4 4 -5 2204.62 46.93
-4 4 5 2293.74 47.84
-4 -4 5 2300.18 48.25
4 4 -5 2133.57 13.52
4 -4 -5 2206.73 47.07
-4 4 3 13.57 0.54
4 -4 -3 24.95 1.26
-4 4 2 79.23 1.45
4 4 -2 88.61 1.93
-4 4 2 90.29 1.45
4 -4 -2 76.47 1.96
-4 4 1 13.88 1.45
4 4 -1 15.17 0.8
-4 4 1 16.98 2.14
4 -4 -1 17.75 0.97
-4 4 0 2.15 0.4
4 4 0 2.41 0.4
-4 4 0 1.61 0.39
-4 -4 0 1.81 0.27
4 -4 0 1.75 0.52
-4 -4 0 2.82 0.15
4 4 1 2179.11 37.12
-4 4 -1 2222.74 160.46
-4 -4 -1 2200.25 158.68
4 -4 1 2123.82 36.61
-4 -4 -1 2183.95 157.5
4 4 2 420.14 7.85
-4 -4 -2 401.98 7.57
-4 4 -2 434.11 8.48
-4 -4 -2 434.52 7.87
4 -4 2 417.65 8.26
4 4 3 1378.15 10.28
-4 4 -3 1313.52 11.02
4 4 4 233.41 3.27
-4 4 -4 212.73 3.78
4 -4 4 225.82 3.83
-4 4 -5 2.52 0.67
4 -4 5 6.95 0.96
4 -4 6 58.19 5.83
-4 4 -7 13.42 2.07
-4 -4 -7 11.67 1.58
4 -4 7 9.89 2.06
-4 4 -8 55.78 2.92
-4 -4 -8 45.59 5.2
4 -4 8 65.7 7.34
-4 4 -9 327.24 11.58
-4 -4 -9 319.93 10.67
4 -4 9 320.11 11.27
-4 4 -10 82.25 5.42
-4 -4 -10 72.38 4.38
4 -4 10 83.3 10.44
-4 4 -11 107.61 5.02
4 -4 11 103.17 7.14
-4 4 -12 52.87 4.18
4 5 -12 70.82 3.94
4 -5 -12 79.03 4.03
4 5 -11 19.3 2.87
4 -5 -11 15.38 2.27
4 5 -10 16.3 2.38
-4 -5 10 18.51 3.39
4 -5 -10 21.92 1.87
4 5 -9 24.54 3.29
-4 -5 9 17.58 4.03
4 -5 -9 24.25 3.24
4 5 -8 3.12 1.09
-4 -5 8 2.09 0.49
4 -5 -8 3.86 1.23
-4 -5 7 172.92 5.47
4 -5 -7 235.97 7.58
4 5 -6 33.87 3.57
-4 -5 6 30.85 3.95
4 -5 -6 30 3.17
4 5 -5 2.41 0.59
-4 -5 5 2.55 0.42
4 -5 -5 1.33 0.55
4 5 -4 104.83 3.21
-4 -5 4 100.07 2.37
4 -5 -4 100.05 3.25
4 5 -4 94.7 2.21
-4 5 3 76.66 1.84
4 5 -3 84.63 2.72
-4 5 3 82.39 1.98
4 -5 -3 98.49 3.26
-4 5 2 10.39 1.46
4 5 -2 16.31 1.52
-4 5 2 13.9 1.15
4 -5 -2 15.5 1.57
-4 5 1 21.9 2.91
4 5 -1 29.46 2.42
-4 5 1 33.02 2.57
4 -5 -1 36.34 3.01
-4 5 0 55.98 6.14
4 5 0 73.14 1.76
-4 5 0 72.43 1.64
-4 -5 0 66.52 5.17
-4 -5 0 66.07 4.83
4 -5 0 67.16 2.37
4 5 1 11.21 1.29
-4 5 -1 12.96 0.95
-4 -5 -1 8.29 0.69
4 -5 1 11.92 1
-4 -5 -1 12.39 0.56
4 5 2 118.12 3.21
-4 5 -2 126.18 3.59
-4 -5 -2 111.44 2.88
4 -5 2 119.41 3.59
-4 -5 -2 120.42 3.01
4 5 3 32.55 4.33
-4 5 -3 37.12 3.3
4 -5 3 46.73 4.02
-4 -5 -3 39.15 3.24
4 5 4 15.44 2.75
-4 5 -4 16.19 2.19
4 -5 4 15.74 1.7
-4 -5 -4 16.99 2.17
-4 5 -5 11.26 1.47
4 -5 5 15.83 1.92
-4 5 -6 4.21 0.93
-4 -5 -6 4.88 0.82
4 -5 6 3 0.72
-4 -5 -7 39.04 4.65
4 -5 7 30.06 3.79
-4 5 -8 75.12 4.07
4 -5 8 71.28 5.25
4 -5 9 92.02 7.07
-4 5 -10 181.89 7.41
4 -5 10 188.43 11.76
-4 5 -11 2.01 1.76
4 -5 11 1.11 0.75
4 6 -11 -0.41 1.2
4 -6 -11 3.89 1.48
4 6 -10 789.95 48.51
4 -6 -10 800.62 49.22
4 6 -9 86.61 4
4 -6 -9 97.59 4.44
4 6 -8 143.65 6.33
4 -6 -8 152.14 6.7
4 6 -7 3.32 1.2
4 -6 -7 3.92 0.88
4 6 -6 1.9 0.57
4 -6 -6 2.77 0.64
4 6 -5 11.56 1.73
4 -6 -5 20.55 2.66
4 6 -4 252.14 7.81
4 -6 -4 324.86 10.12
4 6 -3 136.65 4.07
4 -6 -3 147.92 4.61
4 6 -2 1343.29 30.19
4 -6 -2 1372.56 31.17
4 6 -1 32.49 3.33
-4 6 1 35.88 3.52
4 -6 -1 30.01 3.19
4 6 0 511.18 11.93
-4 6 0 484.99 11.31
-4 -6 0 478.5 10.65
4 -6 0 515.49 12.47
4 6 1 55.74 6.94
-4 6 -1 58.87 5.76
4 -6 1 68.31 6.78
-4 -6 -1 59.77 6.3
4 6 2 1.07 0.35
-4 6 -2 1.56 0.85
4 -6 2 0.42 0.57
-4 -6 -2 1.59 0.34
-4 6 -3 53.61 2.42
4 -6 3 51.94 2.38
-4 -6 -3 46.39 4.96
-4 6 -4 45.08 2.42
4 -6 4 40.77 2.02
-4 -6 -4 43.71 1.7
-4 6 -5 203.32 7.05
4 -6 5 207.24 7.13
-4 -6 -5 196 6.41
-4 6 -6 700.35 22.68
4 -6 6 715.72 78.51
-4 -6 -6 711.41 77.96
-4 6 -7 20.4 3.29
4 -6 7 19.9 3.2
-4 -6 -7 15.7 2.59
-4 6 -8 267.52 17.02
4 -6 8 296.63 26.43
-4 -6 -8 244.79 15.38
-4 6 -9 17.49 2.01
4 -6 9 20.68 3.05
4 7 -10 5.83 1.89
4 -7 -10 2.62 1.03
4 7 -9 6.58 1.46
4 -7 -9 7.6 1.82
4 7 -8 64.78 4.64
4 -7 -8 55.98 4.17
4 7 -7 30.58 2.41
4 -7 -7 28.63 2
4 7 -6 1.32 0.76
4 -7 -6 2.25 0.8
4 7 -5 28.83 1.93
4 -7 -5 30.22 2.03
4 7 -4 81.36 3.47
4 -7 -4 100.03 4.25
4 7 -3 0.18 0.73
4 -7 -3 0.02 0.74
4 7 -2 1.39 0.7
4 -7 -2 7.22 1.31
4 -7 -1 219.08 7.42
4 7 0 11.59 2.13
-4 7 0 16.74 2.19
4 -7 0 15.58 2.15
4 7 1 6.17 1.42
-4 7 -1 5.26 0.98
4 -7 1 6.88 1.24
4 -7 2 149.33 5.66
-4 7 -3 57.51 6.33
4 -7 3 58.28 2.9
-4 7 -4 173.25 7.33
4 -7 4 185.65 7.9
-4 7 -5 70.99 3.29
4 -7 5 63.64 3.09
-4 7 -6 1.34 1.06
4 -7 6 0.91 0.6
-4 7 -7 182.34 7.14
4 -7 7 166.05 6.49
-4 7 -8 7.72 1.53
4 -7 8 8.15 1.85
4 8 -7 394.27 19.8
4 -8 -7 421.95 21.24
4 8 -6 270.06 9.71
4 -8 -6 267.5 9.66
4 -8 -5 402.37 25.09
4 8 -4 67.93 4.32
4 -8 -4 59.31 5.79
4 8 -3 16.2 2.2
4 -8 -3 20.37 2.74
4 8 -2 2.02 0.82
4 -8 -2 1.64 0.9
4 -8 -1 1.47 0.68
4 -8 0 123.17 7.23
4 -8 1 249.61 13.79
4 -8 2 258.94 14.31
4 -8 3 677.6 41.63
-4 8 -4 10.09 1.63
4 -8 4 13.98 1.8
-4 8 -5 42.01 4.08
4 -8 5 62.29 4.07
4 -9 -3 6.69 1.11
4 -9 -2 5.81 1.09
4 -9 -1 42.42 3.24
4 -9 0 19.04 1.86
4 -9 1 22.53 2.22
5 0 -15 546.65 27.19
5 0 -14 2.95 1.18
5 0 -13 857.74 32.68
5 0 -12 1.38 0.84
5 0 -11 35.38 4.34
5 0 -10 1.65 0.79
5 0 -9 1.52 0.42
5 0 -8 0.11 0.35
5 0 -7 2967.4 15.08
5 0 -6 2.64 0.44
5 0 -5 2578.99 34.92
5 0 -5 2560.15 34.33
5 0 -4 0.85 0.38
5 0 -3 8.64 0.58
-5 0 3 7.89 0.57
5 0 -3 9.15 0.53
-5 0 3 13.12 0.65
5 0 -2 0.54 0.33
-5 0 2 1.36 0.43
5 0 -2 0.96 0.35
-5 0 2 0.96 0.38
5 0 -1 661.98 10.75
-5 0 1 616.58 10.04
5 0 -1 612.75 9.75
-5 0 1 591.45 9.4
5 0 0 1.25 0.37
-5 0 0 0.6 0.25
-5 0 0 2.96 0.44
-5 0 -1 3066.09 40.77
5 0 2 2.22 0.51
5 0 2 2.02 0.48
-5 0 -2 0.54 0.38
5 0 3 1678.25 23.15
5 0 4 0.53 0.39
5 0 5 365.93 7.44
-5 0 -6 1.61 0.76
5 0 6 0.45 0.46
-5 0 -7 38.94 1.88
5 0 7 46.83 3.99
-5 0 -8 1.77 0.75
5 0 8 1.27 0.5
-5 0 -9 67.32 2.85
5 0 9 71.95 7.31
-5 0 -10 0.92 0.69
5 0 10 1.03 0.88
-5 0 -11 407.12 13.54
5 0 11 358.69 12.5
-5 0 -12 0.51 0.76
5 0 12 1.9 1.41
5 -1 -15 77.47 5.36
5 1 -15 86.35 5.97
5 -1 -14 30.1 2.19
5 1 -14 25.66 2.16
5 -1 -13 9.24 1.68
5 1 -13 10.1 1.84
5 -1 -12 5.06 1.13
5 1 -12 5.06 1.04
5 -1 -11 12.46 1.74
5 1 -11 8.68 1.42
5 -1 -10 64.67 6.37
5 1 -10 68.7 6.82
5 -1 -9 75.45 2.54
5 1 -9 79.75 2.82
5 -1 -8 86.3 2.05
5 1 -8 90.51 2.34
5 -1 -8 92.7 2.36
5 -1 -7 2.76 0.44
5 1 -7 2.93 0.53
5 -1 -7 3.81 0.76
5 -1 -6 2.31 0.57
5 1 -6 1.94 0.47
5 1 -6 0.8 0.15
5 -1 -6 1.79 0.52
5 -1 -5 49.57 1.45
5 1 -5 66.32 1.93
-5 1 5 66.11 1.74
5 1 -5 56.33 3.65
5 -1 -5 54.52 1.65
5 1 -5 53.18 1.45
5 -1 -4 0.68 0.29
5 1 -4 0.93 0.54
-5 1 4 0.82 0.37
5 -1 -4 0.69 0.52
5 1 -4 1.53 0.47
5 -1 -3 1.8 0.43
5 1 -3 0.44 0.32
-5 1 3 1.12 0.4
5 -1 -3 0.31 0.31
5 1 -3 0.82 0.32
5 -1 -2 249.19 4.53
5 1 -2 248.04 4.66
-5 1 2 245.28 4.45
5 1 -2 266.36 4.43
5 -1 -2 242.92 4.44
-5 1 2 278.65 4.94
-5 -1 2 245.77 4.13
5 1 -1 504.29 8.44
-5 1 1 521.3 8.6
5 1 -1 537.03 8.43
5 -1 -1 561.79 9.16
-5 1 1 514.37 8.41
-5 -1 1 503.06 7.9
5 -1 0 11.75 1.18
5 1 0 11.03 1.56
-5 1 0 10.23 1.36
-5 -1 0 10.35 0.67
5 1 0 10.73 0.55
5 -1 0 11.7 0.7
-5 -1 0 10.08 0.5
-5 1 0 12.17 0.71
5 -1 1 1046.9 16.57
5 1 1 972.04 15.42
5 1 1 996.03 15.43
5 -1 1 995.74 15.73
-5 -1 -1 1003.46 15.53
5 1 2 284.73 4.95
5 1 2 282.2 4.64
5 -1 2 315.64 5.35
-5 -1 -2 271.13 4.48
5 1 3 0.69 0.29
5 1 4 34.97 2.57
5 -1 4 42.5 1.51
-5 1 -5 10.32 1.02
5 1 5 11.44 1.49
5 -1 5 13.25 1.69
-5 1 -6 11.55 1.29
-5 -1 -6 17.05 1.63
5 1 6 14.57 2.53
5 -1 6 15.05 2.12
-5 1 -7 817.6 16.44
-5 -1 -7 715.95 14.32
5 1 7 715.13 14.62
5 -1 7 636.59 13.15
-5 1 -8 14.68 1.87
-5 -1 -8 18.22 2.37
5 1 8 12.44 2.04
5 -1 8 13.56 2.17
-5 1 -9 535.14 13.7
-5 -1 -9 545.12 13.71
5 -1 9 547.91 14.05
-5 1 -10 164.55 6.39
-5 -1 -10 164.55 6.3
5 1 10 193.52 7.57
5 -1 10 149.01 12.66
-5 1 -11 19.78 2.77
-5 -1 -11 10.71 1.93
5 -1 11 10.03 1.62
-5 1 -12 73.19 3.77
-5 -1 -12 70.25 3.51
5 1 12 62.7 8.77
5 -1 12 66.82 10.98
5 -2 -14 5.79 1.06
5 2 -14 8.12 1.55
5 -2 -13 4.75 1.1
5 2 -13 2.06 0.97
5 -2 -12 9 1.41
5 2 -12 7.02 1.37
5 -2 -12 8.71 1.55
5 -2 -11 18.1 2.19
5 2 -11 16.33 2.37
5 -2 -11 17.63 2.47
5 -2 -10 969.03 22.14
5 2 -10 959.1 22.48
5 -2 -10 823.67 19.51
5 -2 -9 401.95 8.34
5 2 -9 365.49 8.18
5 -2 -9 419.81 9.26
5 -2 -8 1231.14 9.83
5 2 -8 1282.32 11.24
5 -2 -8 1256.2 11.32
5 -2 -7 368.83 7.1
5 2 -7 312.82 6.64
5 -2 -7 338.78 7
5 -2 -6 2.53 0.42
5 2 -6 3.6 0.63
-5 2 6 2.59 0.49
5 2 -6 1.14 0.28
5 -2 -6 1.57 0.54
5 -2 -5 31.87 1.04
5 2 -5 32.59 1.34
-5 2 5 28.78 0.98
5 2 -5 29.21 1.73
5 -2 -5 36.89 1.37
5 2 -5 31.03 0.84
5 -2 -4 47.77 1.79
5 2 -4 44.64 1.52
-5 2 4 42.41 1.18
5 2 -4 51.24 2.36
5 -2 -4 45.65 1.51
5 2 -4 46.28 1.05
5 -2 -2 1417.4 19.41
-5 2 2 1535.59 20.91
5 2 -2 1574.72 21.68
5 2 -2 1632.27 21.48
5 -2 -2 1527.24 21.14
5 -2 -1 1869.46 25.57
-5 2 1 1760.47 23.89
5 2 -1 1887.02 25.78
5 2 -1 1854.82 24.43
5 -2 -1 1827.25 24.99
-5 -2 1 1871.61 24.62
5 -2 0 2054.18 28.01
5 2 0 2020.5 27.46
5 2 0 2139.63 28.35
5 -2 0 2121.09 28.81
-5 -2 0 2097.7 27.71
5 2 1 308.18 5.18
5 2 1 314.55 4.81
-5 -2 -1 313.43 4.68
5 -2 1 314.52 5.33
5 2 2 0.57 0.36
5 2 2 0.73 0.2
-5 -2 -2 0.47 0.3
5 -2 2 0.99 0.48
5 2 3 178.2 2.65
-5 -2 -3 166.08 2.39
5 -2 3 170.53 2.91
5 2 4 15.31 1.93
-5 2 -4 11.98 1
5 2 4 13.46 2.34
5 -2 4 16.28 1.12
-5 2 -5 129.51 2.99
5 2 5 130.51 2.7
5 -2 5 124.54 2.79
-5 2 -6 817.1 18.59
5 2 6 810.67 18.2
5 -2 6 785.94 17.8
-5 -2 -7 640.6 12.95
5 -2 7 688.2 14.41
-5 2 -8 352.06 10.83
5 2 8 324.22 9.98
5 -2 8 327.39 10.17
-5 2 -9 2.51 1.13
-5 -2 -9 2.29 0.75
5 2 9 1.15 0.69
5 -2 9 1.01 0.87
-5 2 -10 51.12 3.05
-5 -2 -10 61.93 3.26
5 2 10 56.87 9.42
5 -2 10 52.79 6.23
-5 2 -11 35.56 2.78
-5 -2 -11 35.87 2.65
5 2 11 29.88 4.57
5 -2 11 33.66 4.26
-5 2 -12 1.16 0.99
-5 -2 -12 0.99 0.84
5 -2 12 1.95 0.92
5 3 -14 70.79 4.59
5 -3 -14 60.2 4.15
5 3 -13 6.62 1.22
5 -3 -13 9.91 1.73
5 -3 -12 2.37 0.89
5 3 -12 1.79 0.85
5 -3 -12 2.37 1.22
5 -3 -11 14.3 1.92
5 3 -11 11.05 1.8
5 -3 -11 8.7 1.63
5 -3 -10 113.51 3.43
5 3 -10 109.04 3.88
5 -3 -10 112.02 4.08
5 -3 -9 168.9 4.51
5 3 -9 174.08 5.28
5 -3 -9 177.91 5.29
5 -3 -8 217.35 4.66
5 3 -8 230.69 5.63
5 -3 -8 211.95 5.38
5 -3 -7 6.12 0.66
5 3 -7 7.62 1.05
-5 3 7 6.04 0.7
5 3 -7 5.05 0.64
5 -3 -7 5.83 0.94
5 -3 -6 0.83 0.26
5 3 -6 0.86 0.61
-5 3 6 1.11 0.35
5 3 -6 0.64 0.2
5 -3 -6 1.44 0.6
5 -3 -5 207.4 4.16
5 3 -5 210.79 4.79
-5 3 5 226.92 4.45
5 3 -5 217.43 4.12
5 -3 -5 192.6 4.46
5 -3 -4 2.19 0.37
5 3 -4 2.4 0.43
-5 3 4 3.97 0.39
5 3 -4 2.57 0.2
5 -3 -4 2.87 0.57
5 3 -4 1.6 0.16
5 -3 -3 231.15 7.14
-5 3 3 202.54 2.24
5 3 -3 205.33 3.1
5 -3 -3 208.68 3.15
5 -3 -2 78.37 1.52
-5 3 2 81.61 1.49
5 3 -2 79.77 1.8
5 -3 -2 95.51 2.2
-5 3 1 749.91 5.21
5 -3 0 65.06 1.73
-5 -3 0 58.45 0.67
5 3 1 50.57 2.35
-5 -3 -1 47.79 0.89
5 -3 1 56.5 1.64
5 3 2 290.83 4.83
5 3 2 277.12 2.77
-5 -3 -2 306.65 2.83
5 -3 2 284.55 3.86
5 3 3 238.66 5.93
-5 3 -3 213.02 4.85
5 3 3 211.65 4.36
-5 -3 -3 198.46 4.1
5 -3 3 225.94 5.12
5 3 4 8.05 1.12
-5 3 -4 6.35 1.11
5 3 4 4.55 1.14
5 -3 4 6.28 0.95
-5 3 -5 66.11 2.55
5 3 5 63.98 2.19
5 -3 5 66.13 2.54
-5 3 -6 58.11 4.97
5 3 6 56.56 5.31
5 -3 6 65.7 5.55
-5 3 -7 113.12 4.32
-5 -3 -7 145.81 5.03
5 3 7 137 4.97
5 -3 7 127.63 8.42
-5 3 -8 418.6 11.08
-5 -3 -8 481.45 12.14
5 -3 8 433.62 11.42
-5 3 -9 3.85 1.58
-5 -3 -9 3.26 0.71
5 -3 9 3.82 1.07
-5 3 -10 135.99 5.56
-5 -3 -10 154.49 5.74
5 -3 10 147.25 13.74
-5 3 -11 28.25 2.38
-5 -3 -11 25.02 1.83
5 -3 11 30.98 3.58
-5 3 -12 15.76 1.88
-5 -3 -12 10.99 1.63
5 -3 12 12.78 2.58
5 4 -13 94.57 4.49
5 -4 -13 93.99 4.45
5 4 -12 100.97 6.27
5 -4 -12 110.03 6.7
5 4 -11 16.68 2.48
5 -4 -11 12.25 1.81
5 4 -10 78.24 3.63
5 -4 -10 98 4.16
5 -4 -9 0.46 0.28
5 4 -9 2.43 0.93
5 -4 -9 2.89 1.03
5 -4 -8 289.84 6.83
5 4 -8 289.88 7.78
5 -4 -8 290.32 7.8
5 -4 -7 203.74 4.22
5 4 -7 210.8 5.31
-5 4 7 185.13 3.84
5 -4 -7 213.23 5.38
5 -4 -6 1495.18 31.52
5 4 -6 1514.69 32.76
-5 4 6 1393.97 29.34
5 4 -6 1608.1 124.81
5 -4 -6 1539.93 119.77
5 -4 -5 603.6 4.92
5 4 -5 629.65 6.92
5 -4 -5 651.64 8.21
5 -4 -4 235 2.72
-5 4 4 247.37 2.55
5 -4 -4 220.1 3.69
-5 4 3 75.05 1.76
5 4 -3 83.08 2.5
5 -4 -3 80.8 2.62
-5 4 2 1.05 0.22
5 4 -2 1.63 0.41
5 -4 -2 3.42 0.71
-5 4 1 1.05 0.36
5 4 -1 1.83 0.42
5 -4 -1 1.83 0.72
5 4 0 372.28 7.3
-5 4 0 445.65 8.68
5 -4 0 381.46 7.64
5 4 1 496.11 9.44
-5 4 -1 437.39 8.49
-5 -4 -1 463.36 8.08
5 -4 1 503.01 9.77
-5 -4 -1 497.14 8.66
5 4 2 642.15 6.81
5 -4 2 674.8 7.14
5 4 3 876.82 19.21
-5 4 -3 822.8 18.31
-5 -4 -3 744.41 16.1
5 -4 3 902.03 20.15
5 4 4 353.19 8.28
-5 4 -4 338.54 8.44
5 -4 4 373.8 9.15
-5 4 -5 8.54 1.49
5 -4 5 8.1 1.12
5 -4 6 100.84 3.9
-5 4 -7 41.5 2.28
-5 -4 -7 40.46 1.92
5 -4 7 46.57 3.58
-5 4 -8 2.57 1.25
-5 -4 -8 2.99 1.03
5 -4 8 0.66 0.75
-5 4 -9 149.41 8.88
-5 -4 -9 151.21 5.48
5 -4 9 157.88 10.86
-5 4 -10 15.04 1.97
-5 -4 -10 17.76 1.44
5 -4 10 15.59 3.3
-5 4 -11 219.78 11.76
5 -4 11 225.38 12.01
5 5 -12 13.04 1.8
5 -5 -12 20.71 2.01
5 5 -11 2.26 1.26
5 -5 -11 4.39 1.16
5 5 -10 17.05 2.39
5 -5 -10 17.81 2.46
5 5 -9 1.2 1.13
5 -5 -9 1.73 0.93
5 5 -8 9.51 1.52
5 -5 -8 13.46 2.25
5 -5 -7 3.73 1.06
5 5 -6 65.24 6.47
5 -5 -6 72.11 7.12
5 5 -5 2.73 0.95
-5 5 5 0.89 0.18
-5 5 5 0.19 0.15
5 5 -4 1.72 0.75
-5 5 4 0.22 0.16
5 -5 -4 1.33 0.66
-5 5 3 8.04 0.49
5 5 -3 12.14 1.01
-5 5 3 13 0.71
5 -5 -3 9.72 0.95
-5 5 2 2.9 0.41
5 5 -2 3.7 0.55
-5 5 2 5.26 0.51
5 -5 -2 7.33 1.33
-5 5 1 108.25 2.98
5 5 -1 119 3.4
-5 5 1 118.23 3.15
5 -5 -1 113.82 3.53
5 5 0 209.67 5.27
-5 5 0 213.82 5.34
5 -5 0 192.94 5.19
5 5 1 165.35 4.37
-5 5 -1 158.05 4.26
-5 -5 -1 156.39 3.56
5 -5 1 164.34 4.64
-5 -5 -1 141.56 3.2
5 5 2 71.65 9.06
-5 5 -2 81.89 10.47
5 -5 2 67.95 5.67
-5 -5 -2 77.29 7.35
5 5 3 74.79 7.23
-5 5 -3 89.81 3.14
5 -5 3 62.83 6.25
-5 -5 -3 72.24 6.93
5 5 4 51.32 5.78
-5 5 -4 58.71 2.63
5 -5 4 63.13 2.8
-5 5 -5 21.41 2.66
5 -5 5 22.87 3
-5 5 -6 66.32 3.13
5 -5 6 63.79 2.98
-5 5 -7 42.47 2.58
-5 -5 -7 36.5 1.85
5 -5 7 37.2 2.26
-5 5 -8 451.11 14.98
5 -5 8 463.22 23.05
-5 5 -9 115.92 8.05
5 -5 9 124.31 10.15
-5 5 -10 2.04 2.13
5 -5 10 2.54 1.01
5 -6 -11 311.29 16.11
5 6 -10 58.3 4.42
5 -6 -10 60.4 4.71
5 6 -9 825.28 43.99
5 -6 -9 890.08 34.75
5 6 -8 13.59 2.09
5 -6 -8 18.82 2.6
5 6 -7 132.88 5.2
5 -6 -7 119.32 4.85
5 6 -6 34.46 4.33
5 -6 -6 33.47 4.19
5 6 -5 11.31 1.55
5 -6 -5 12.63 1.79
5 6 -4 39.48 4.48
5 -6 -4 37.28 4.55
5 6 -3 403.73 11.77
5 -6 -3 404.93 12
5 6 -2 5.34 0.96
5 -6 -2 9.35 1.43
5 6 -1 1693.32 174.85
5 -6 -1 1575.72 43.38
5 6 0 133.1 4.57
-5 6 0 135.25 4.36
5 -6 0 144.61 5.04
5 6 1 324.62 9.64
-5 6 -1 285.55 8.53
5 -6 1 301.74 9.3
5 6 2 13.26 2.02
-5 6 -2 13.39 1.83
5 -6 2 15.61 2.13
-5 6 -3 21.71 2.62
5 -6 3 28.23 3.3
-5 -6 -3 20.49 2.29
5 6 4 24.19 4.88
-5 6 -4 31.56 3.98
5 -6 4 36.05 4.46
-5 -6 -4 32.35 3.85
-5 6 -5 125.66 5.11
5 -6 5 128.18 6.8
-5 -6 -5 149.56 5.33
-5 6 -6 75.03 3.59
5 -6 6 60.57 2.97
-5 -6 -6 63.59 2.74
-5 6 -7 607.1 32.66
5 -6 7 647.66 34.73
-5 -6 -7 597.86 31.83
-5 6 -8 28.24 2.38
5 -6 8 20.1 2.77
-5 6 -9 57.51 4.44
5 -6 9 70.99 6.95
5 7 -9 91.24 5.42
5 -7 -9 86.68 5.18
5 7 -8 2.78 0.9
5 -7 -8 0.16 0.69
5 7 -7 4.35 1.09
5 -7 -7 5.4 1.4
5 7 -6 189.07 6.94
5 -7 -6 206.8 7.59
5 7 -5 48.66 2.75
5 -7 -5 46.4 2.67
5 7 -4 6.18 1.2
5 -7 -4 5.17 1
5 7 -3 1.55 0.77
5 -7 -3 4.83 1
5 7 -2 176.3 6.21
5 -7 -2 186.03 6.79
5 7 -1 30.15 3.63
5 -7 -1 37.64 2.14
5 7 0 0.66 0.5
-5 7 0 0.15 0.39
5 -7 0 1.33 0.64
5 7 1 39.93 3.77
-5 7 -1 36.87 1.88
5 -7 1 37.59 2.14
5 -7 2 104.64 4.85
-5 7 -3 133.32 5.81
5 -7 3 115.69 5.36
-5 7 -4 15.57 2.65
5 -7 4 17.53 2.93
-5 7 -5 12.91 1.41
5 -7 5 9.78 1.3
-5 7 -6 141.41 5.75
5 -7 6 131.44 5.45
-5 7 -7 2.55 1.12
5 -7 7 5.39 1.07
5 8 -7 110.52 7.3
5 -8 -7 124.06 8.22
5 8 -6 433.66 21.7
5 -8 -6 501.86 25.15
5 -8 -5 90.39 4.09
5 -8 -4 427.58 26.55
5 -8 -3 3.28 0.86
5 8 -2 9.3 1.12
5 -8 -2 8.75 1.21
5 -8 -1 7.1 1.31
5 -8 0 3.07 0.78
5 -8 1 9.09 1.12
5 -8 2 549.89 33.92
5 -8 3 16.41 1.56
5 -8 4 351.7 17.88
6 0 -15 1.52 0.87
6 0 -14 485.14 30.03
6 0 -13 1.92 1.11
6 0 -12 306.11 10.56
6 0 -11 0.73 0.58
6 0 -10 68.72 6.78
6 0 -9 1.16 0.67
6 0 -9 2.09 0.73
6 0 -8 236.25 3.82
6 0 -8 230.83 3.59
6 0 -7 1.89 0.6
6 0 -7 0.83 0.28
6 0 -6 807.75 6.73
6 0 -6 860.95 6.4
6 0 -5 1.39 0.45
6 0 -5 3.09 0.57
6 0 -4 1582.97 21.87
6 0 -4 1708.63 23.25
6 0 -3 1.31 0.47
6 0 -3 1.28 0.45
-6 0 3 0.2 0.26
6 0 -2 762.37 11.22
6 0 -2 767.71 10.91
-6 0 2 751.78 10.72
6 0 -1 0.45 0.32
6 0 -1 1 0.4
-6 0 1 0.68 0.43
6 0 0 3.06 0.52
6 0 0 1.59 0.29
-6 0 0 2.49 0.35
6 0 1 0.28 0.29
6 0 1 1 0.34
6 0 2 533.67 5.24
6 0 3 1.78 0.64
6 0 5 1.53 1.08
-6 0 -6 277.04 7.19
-6 0 -7 2.64 1.14
6 0 7 1.04 0.76
-6 0 -8 326.2 10.38
6 0 8 263.59 8.52
-6 0 -9 0.34 0.67
6 0 9 0.88 0.79
-6 0 -10 66.12 3.25
6 0 10 53.74 5.15
-6 0 -11 2.15 1.08
6 0 11 1.62 0.55
-6 0 -12 624.94 31.01
6 0 12 879.15 53
6 -1 -14 2.56 1.09
6 1 -14 4.46 1.22
6 -1 -14 4.54 1.25
6 -1 -13 15.76 2.57
6 1 -13 15.23 2.56
6 -1 -13 18.21 3.06
6 -1 -12 72.75 3.2
6 1 -12 70.43 3.32
6 -1 -12 75.12 3.59
6 -1 -11 0.24 0.47
6 1 -11 1.98 0.89
6 -1 -11 3.42 1.15
6 -1 -10 216.58 5.98
6 1 -10 210.27 5.96
6 -1 -9 37.38 3.33
6 1 -9 29.22 2.7
6 -1 -8 9.88 0.83
6 1 -8 15.88 1.16
6 -1 -7 1.54 0.55
6 1 -7 3.53 1.02
6 -1 -7 1.78 0.53
6 1 -7 1.75 0.41
6 -1 -6 40.44 1.47
6 1 -6 32.63 1.45
6 -1 -6 34.6 1.44
6 1 -6 34.96 1.23
6 -1 -5 33.3 1.12
6 1 -5 36.23 1.42
6 -1 -5 34.66 1.28
6 1 -5 30.91 0.96
6 1 -4 147.48 3.13
6 -1 -4 127.37 2.72
6 1 -4 139.84 2.59
6 -1 -3 75.55 3.29
6 1 -3 79.15 2.09
6 1 -3 68.44 1.49
6 -1 -3 78.36 1.96
-6 -1 3 74.94 1.57
6 -1 -2 13.53 1.35
6 1 -2 11.27 0.76
6 1 -2 13.83 0.63
6 -1 -2 12.58 0.72
-6 -1 2 9.93 0.52
6 -1 -1 64.62 3.97
6 1 -1 61.13 4.06
6 1 -1 59.33 1.33
6 -1 -1 62.07 1.68
-6 -1 1 61.43 3.83
6 -1 0 548.07 8.49
6 1 0 549.04 8.52
6 1 0 582.72 8.47
6 -1 0 550.02 8.36
-6 -1 0 574.93 8.23
6 -1 1 15.53 2.09
6 1 1 14.46 1.73
6 1 1 19.35 0.87
6 -1 1 12.37 0.79
-6 -1 -1 14.43 0.7
6 -1 2 1.75 0.83
6 1 2 1.63 0.61
6 1 2 2.17 0.49
6 -1 2 2.44 0.64
-6 -1 -2 1.45 0.52
6 1 3 90.35 5.34
6 -1 3 70.01 1.87
6 1 4 19.07 2.63
6 -1 4 16.09 1.11
-6 1 -5 128.7 2.94
6 1 5 145.49 2.98
6 -1 5 148.22 11.14
-6 1 -6 723.98 14.62
6 1 6 759.84 15.19
6 -1 6 809.78 16.34
-6 1 -7 18.58 2.39
-6 -1 -7 16.95 2.03
6 1 7 15.69 2.34
6 -1 7 16.14 2.31
-6 1 -8 491.2 12.62
-6 -1 -8 573.38 14.38
6 1 8 516.57 13.11
6 -1 8 514.78 13.27
-6 1 -9 4.8 1.48
-6 -1 -9 1.58 0.85
6 1 9 4.07 1.71
6 -1 9 2.45 1.09
-6 1 -10 4.06 1.52
-6 -1 -10 1.72 0.89
6 1 10 1.81 1.43
6 -1 10 1.64 0.95
-6 1 -11 81.18 5.83
-6 -1 -11 85.23 5.99
6 1 11 72.62 8.68
6 -1 11 79.04 11.77
-6 1 -12 11.23 1.65
-6 -1 -12 8.91 1.59
6 1 12 5.56 1.34
6 -1 12 7.21 1.85
6 -2 -14 1.94 0.77
6 2 -14 2.42 1.12
6 -2 -14 1.59 1.67
6 -2 -13 109.46 6.48
6 2 -13 115.3 6.95
6 -2 -13 114.04 7.05
6 -2 -12 36.16 2.21
6 2 -12 39.22 2.55
6 -2 -12 37.12 2.59
6 -2 -11 152.97 5.38
6 2 -11 144.57 5.52
6 -2 -11 161.69 6.09
6 -2 -10 364.49 10.71
6 2 -10 363.94 11.05
6 -2 -10 376.45 11.49
6 -2 -9 1968.28 43.9
6 2 -9 2013.21 45.2
6 -2 -9 2061.25 232.64
6 -2 -8 709.8 15.71
6 2 -8 661.6 15.08
6 -2 -8 675.31 15.45
6 -2 -7 301.91 3.78
6 2 -7 330.34 4.8
6 -2 -7 318.76 4.62
6 2 -7 311.27 3.62
6 -2 -6 33.71 1.29
6 2 -6 33.04 1.59
6 2 -6 36.82 2.56
6 -2 -6 38.7 1.68
6 2 -6 36.62 1.21
6 -2 -5 321.78 3.49
6 2 -5 344.72 4.64
6 2 -5 324.51 3.04
6 -2 -5 339.78 4.09
6 2 -5 305.32 2.73
6 -2 -4 22.45 1.86
6 2 -4 23.21 1.12
6 2 -4 21.46 1.4
6 -2 -4 21 1
6 2 -4 23.07 0.65
6 2 -3 502.81 4.99
6 2 -3 498.11 3.06
6 -2 -2 1046 7
6 2 -2 1060.25 5.07
6 -2 -2 1036.72 7.27
6 -2 -1 4344.54 19.93
6 2 -1 4361.78 20.23
6 2 -1 4615.27 77.1
-6 -2 1 4594.16 76.73
6 -2 0 558.37 5.19
6 2 0 569.26 5.24
6 2 0 576.03 4.03
6 -2 0 541.9 5.19
-6 -2 0 568.45 3.67
6 2 1 616.39 5.44
6 2 1 637.74 4.56
6 -2 1 611.82 5.46
6 2 2 30.83 2.54
6 2 2 31.7 3.4
6 -2 2 25.3 1.26
-6 -2 -2 22.8 0.83
6 2 3 169.42 4.2
6 -2 3 185.63 4.43
6 2 4 30.9 3.75
-6 2 -4 31.33 2.77
6 2 4 32.49 4.23
6 -2 4 30.6 2.67
-6 2 -5 31.62 1.8
6 2 5 37.52 4.72
6 -2 5 34.36 1.78
-6 2 -6 246.84 6.28
6 2 6 237.29 5.7
6 -2 6 250.87 6.18
-6 2 -7 600.91 17.44
-6 -2 -7 632.66 18.1
6 2 7 675.26 19.47
6 -2 7 706.1 20.47
-6 2 -8 19.95 3.41
-6 -2 -8 12.57 1.84
6 2 8 16.3 3.74
6 -2 8 16.79 3.03
-6 2 -9 239.86 8.75
-6 -2 -9 240.34 8.61
6 2 9 234.31 8.49
6 -2 9 236.95 18.26
-6 2 -10 2.57 0.87
-6 -2 -10 0.7 0.61
6 2 10 3.59 0.82
6 -2 10 3.09 1.51
-6 -2 -11 0.7 1.14
6 2 11 -0.82 0.92
6 -2 11 3.61 1.27
6 3 -14 23.7 2.32
6 -3 -14 27.58 2.79
6 3 -13 7.98 1.27
6 -3 -13 4.48 1.41
6 -3 -12 5.79 1.12
6 3 -12 1.74 0.78
6 -3 -12 4.26 1.35
6 -3 -11 11.71 1.57
6 3 -11 13.52 1.99
6 -3 -11 18.56 2.62
6 -3 -10 33.91 4.07
6 3 -10 26.19 3.19
6 -3 -10 33.58 4.29
6 -3 -9 19.8 2.45
6 3 -9 19.28 2.58
6 -3 -9 21 2.79
6 -3 -8 4.34 0.62
6 3 -8 5.44 0.94
6 -3 -8 7.01 1.07
6 -3 -7 4.16 0.49
6 3 -7 5.79 0.87
6 3 -7 3.69 0.59
6 -3 -7 3.87 0.73
6 -3 -6 87.72 3.83
6 3 -6 96.15 2.54
-6 3 6 82.5 1.71
6 3 -6 77.15 3.96
6 -3 -6 78.82 2.23
6 3 -6 92.56 1.54
6 -3 -5 13.53 1.84
6 3 -5 14.05 1.47
-6 3 5 9.48 0.9
6 -3 -5 10.7 1.19
6 -3 -4 3.75 0.51
6 3 -4 3.35 0.63
-6 3 4 2.79 0.38
6 3 -4 4.56 0.38
6 3 -4 3.75 0.21
6 -3 -4 5.25 0.76
6 -3 -3 24.98 1.33
6 3 -3 17.21 1
-6 3 3 18.52 0.84
6 -3 -3 20.7 1.21
6 -3 -2 29.71 2.18
6 3 -2 23.86 1.12
6 -3 -2 22.71 1.18
6 -3 -1 633.82 5.4
6 3 -1 618.3 5.73
6 -3 -1 635.62 5.86
6 3 0 9.86 0.84
6 -3 0 11.79 0.9
-6 -3 0 9.78 0.39
6 3 1 163.14 4.59
6 3 1 168.41 3.35
6 -3 1 184.09 4.35
-6 -3 -1 165.54 3.24
6 3 2 28.78 3.05
6 3 2 29.8 2.79
-6 -3 -2 23.99 2.46
6 -3 2 28.35 1.44
6 3 3 25.74 3.68
-6 3 -3 16.83 1.82
6 3 3 22.91 3.27
-6 -3 -3 14.45 1.29
6 -3 3 12.93 1.44
6 3 4 23.17 2.48
-6 3 -4 20.97 1.36
6 3 4 22.86 2.8
6 -3 4 26.59 1.53
-6 3 -5 185.74 5.24
6 3 5 158.74 4.06
6 -3 5 168.13 4.55
-6 3 -6 1.77 1.17
6 3 6 1.06 0.86
6 -3 6 0.78 0.7
-6 3 -7 526.75 13.53
-6 -3 -7 586.73 14.36
6 3 7 552.8 13.8
6 -3 7 548.71 13.95
-6 3 -8 72.6 3.57
-6 -3 -8 62.27 3.61
6 3 8 71.36 7.2
6 -3 8 71.52 6.97
-6 3 -9 69.6 3.62
-6 -3 -9 95.31 4.16
6 3 9 63.21 9.62
6 -3 9 61.33 6.94
-6 3 -10 3.58 1.29
-6 -3 -10 4.33 0.91
6 -3 10 9.24 2.04
-6 3 -11 9.54 1.59
-6 -3 -11 8.33 1.67
6 -3 11 8.74 1.85
6 4 -13 305.41 15.75
6 -4 -13 305.49 15.83
6 4 -12 230.86 14.79
6 -4 -12 246.23 15.79
6 4 -11 46.05 2.79
6 -4 -11 37.26 2.53
6 4 -10 2.37 1.03
6 -4 -10 2.59 0.95
6 -4 -9 25.54 3.2
6 4 -9 33.71 4.28
6 -4 -9 31.52 3.8
6 -4 -8 2.87 0.83
6 4 -8 3.25 1.24
6 -4 -8 0.59 0.79
6 -4 -7 204.83 5.19
6 4 -7 251.42 6.89
6 -4 -7 236.83 6.54
6 4 -6 0.1 0.13
6 -4 -5 649.81 14.15
6 4 -5 748.47 16.89
-6 4 5 640.06 13.82
6 4 -5 708.24 14.77
6 -4 -5 735.35 16.6
6 -4 -4 385.49 8.65
-6 4 4 388.4 8.67
6 -4 -4 441.96 10.52
6 -4 -3 838.84 7.15
6 4 -3 825.84 7.84
6 4 -2 5.42 0.77
6 -4 -2 9.54 1.21
6 4 -1 97.88 2.22
6 -4 -1 95.99 2.38
6 4 0 0.83 0.4
6 -4 0 2.72 0.85
-6 4 -1 2.44 0.55
6 -4 1 2.55 0.97
-6 -4 -1 2.3 0.29
6 4 2 466 10.76
-6 4 -2 455.7 10.67
-6 -4 -2 427.46 9.4
6 -4 2 484.27 11.43
6 4 3 701.1 13.8
-6 4 -3 848.54 17.1
6 -4 3 757.14 15.19
6 4 4 251.6 6.49
-6 4 -4 240.83 6.59
6 -4 4 271.9 7.39
-6 4 -5 848.66 24.25
6 -4 5 851.23 24.15
6 -4 6 3.38 1.17
-6 4 -7 12.05 1.86
-6 -4 -7 7.7 1.18
6 -4 7 10.25 1.65
-6 4 -8 2.92 1.03
-6 -4 -8 -0.21 0.56
6 -4 8 1.72 1.05
-6 4 -9 34.91 2.96
-6 -4 -9 33.45 2.45
6 -4 9 27.39 4.16
-6 4 -10 26.27 4.17
-6 -4 -10 27.39 1.96
6 -4 10 25.61 3.57
6 5 -12 21.85 2.63
6 -5 -12 32.16 3.39
6 5 -11 136.11 9.25
6 -5 -11 162.89 10.69
6 5 -10 49.39 2.94
6 -5 -10 58.73 3.16
6 5 -9 1.43 0.85
6 -5 -9 2.57 0.83
6 5 -8 22.19 2.94
6 -5 -8 18.06 2.49
6 -5 -7 153.77 4.91
6 5 -6 12.96 1.82
6 -5 -6 15.43 2.12
6 5 -5 62.2 6.22
6 -5 -5 61.32 6.14
6 5 -4 38.74 3.97
6 -5 -4 39.11 4.06
6 5 -3 187.82 4.63
-6 5 3 151.34 3.42
6 -5 -3 166.33 4.48
6 5 -2 5.39 0.96
-6 5 2 1.59 0.37
6 -5 -2 2.29 0.97
6 5 -1 224 5.17
-6 5 1 200.05 4.68
6 -5 -1 242.64 5.86
6 5 0 0.63 0.54
-6 5 0 0.81 0.75
6 -5 0 1.77 0.62
6 5 1 178.38 4.84
-6 5 -1 164.84 4.63
6 -5 1 180.41 5.29
-6 -5 -1 165.57 3.74
6 5 2 100.27 3.12
-6 5 -2 93.15 3.13
6 -5 2 106.13 3.67
-6 -5 -2 90.54 2.37
6 5 3 160.36 5.17
-6 5 -3 160.19 5.39
6 -5 3 165.36 6.02
6 5 4 197.8 5.43
-6 5 -4 207.13 6.04
6 -5 4 203.84 6.09
-6 5 -5 0.19 0.7
6 -5 5 1.57 0.79
-6 5 -6 68.61 3.36
6 -5 6 57.52 3.06
-6 5 -7 367.05 12.38
-6 -5 -7 439.41 13.95
6 -5 7 377.78 12.69
-6 5 -8 30.05 2.38
6 -5 8 32.71 4.84
-6 5 -9 26.23 2.96
6 -5 9 30.73 5.27
6 -6 -11 16.52 1.86
6 6 -10 604.18 20.16
6 -6 -10 630.64 21.02
6 6 -9 12.47 2.1
6 -6 -9 12.46 1.99
6 6 -8 787.51 87.72
6 -6 -8 756.04 23.82
6 6 -7 4.69 1.18
6 -6 -7 3.25 1.05
6 -6 -6 2.81 0.86
6 6 -5 11.48 1.77
6 -6 -5 7.93 1.38
6 6 -4 6.65 1.08
6 -6 -4 8.06 1.44
6 6 -3 13.48 1.77
-6 6 3 10.72 1.79
6 -6 -3 12.3 1.78
6 6 -2 884.41 20.96
6 -6 -2 848.15 20.47
6 6 -1 1.57 0.7
6 -6 -1 1.35 0.7
6 6 0 991.46 23.54
-6 6 0 1062.24 24.72
6 -6 0 1058.68 25.19
6 6 1 101.35 8.28
-6 6 -1 91.77 3.17
6 -6 1 98.31 3.48
6 6 2 11.71 2.31
-6 6 -2 15.93 2.22
6 -6 2 11.64 1.74
-6 6 -3 7.27 1.31
6 -6 3 11.51 1.69
6 6 4 6.3 1.41
-6 6 -4 4.95 1.09
6 -6 4 5.72 1.08
-6 6 -5 162.84 6.14
6 -6 5 138.93 6.5
-6 6 -6 193.48 11.09
6 -6 6 192.83 10.97
-6 6 -7 20.11 1.81
6 -6 7 22.35 1.87
-6 6 -8 281.69 14.73
6 -6 8 267.58 14.04
6 7 -9 14.12 2.07
6 -7 -9 14.95 1.78
6 7 -8 3.84 1.59
6 -7 -8 2.54 0.99
6 7 -7 114.77 7.7
6 -7 -7 111.16 7.54
6 7 -6 8.86 1.99
6 -7 -6 4.43 1.07
6 7 -5 9.03 1.86
6 -7 -5 16.58 2.79
6 7 -4 1.78 0.84
6 -7 -4 2.98 0.77
6 7 -3 122.69 5.33
6 -7 -3 133.91 5.98
6 7 -2 6.85 1.21
6 -7 -2 8.93 1.41
6 7 -1 54.61 5.69
6 -7 -1 57.88 3.1
6 7 0 21.92 3.54
6 -7 0 27.16 1.89
6 7 1 1.16 0.66
-6 7 -1 2.2 0.65
6 -7 1 0.7 0.57
-6 7 -2 26.33 4.12
6 -7 2 32.74 4.03
-6 7 -3 1.39 0.91
6 -7 3 1.81 0.8
-6 7 -4 71.07 5.07
6 -7 4 89.37 6.18
-6 7 -5 2.43 1.16
6 -7 5 4.73 1.11
-6 7 -6 83.79 5.02
6 -7 6 78.47 4.84
6 8 -6 20.66 2.04
6 -8 -6 22.22 2.28
6 -8 -5 753.6 45.04
6 8 -4 76.48 3.56
6 -8 -4 89.07 4.27
6 8 -3 108.84 4.48
6 -8 -3 111.04 4.83
6 -8 -2 79.58 3.73
6 -8 -1 22.57 1.77
6 -8 0 1.26 0.88
6 -8 1 131.18 5.43
6 -8 2 2.18 1.07
6 -8 3 428.9 21.64
7 0 -14 2.49 0.89
7 0 -14 2.07 1.07
7 0 -13 508.41 27.39
7 0 -13 471.56 25.49
7 0 -12 0.61 0.96
7 0 -12 2.17 0.94
7 0 -11 894.46 26.9
7 0 -11 890.74 26.7
7 0 -10 1.69 0.92
7 0 -10 1.01 0.58
7 0 -9 4.31 0.83
7 0 -9 8.33 1.15
7 0 -8 1.6 0.7
7 0 -8 1.67 0.68
7 0 -7 41.83 3.42
7 0 -7 48.54 3.82
7 0 -6 1.63 0.63
7 0 -6 1.43 0.54
7 0 -5 1731.03 30.03
7 0 -5 1801.32 30.97
7 0 -4 2.35 0.65
7 0 -3 3541.37 17.58
7 0 -2 0.49 0.44
7 0 -2 0.77 0.49
7 0 -1 21.48 3.24
7 0 -1 19.75 0.9
7 0 0 0.96 0.61
7 0 0 0.85 0.36
7 0 1 111.08 7.99
7 0 1 110.87 2.16
7 0 2 0.64 0.49
7 0 2 0.91 0.57
7 0 3 968.35 11.84
7 0 3 977.26 8.73
7 0 4 1.47 0.83
7 0 5 934.64 19.03
7 0 6 1.87 1
-7 0 -7 30.56 3.86
7 0 7 40.11 6.19
-7 0 -8 2.12 1.27
7 0 8 0.74 0.81
-7 0 -9 12.68 1.94
7 0 9 15.29 2.29
-7 0 -10 1.87 1.18
7 0 10 2.47 1.05
-7 0 -11 185.96 9.97
7 0 11 146.34 12.49
7 -1 -14 5.46 1.24
7 1 -14 4.52 1.6
7 -1 -14 5.63 1.7
7 -1 -13 52.73 3.63
7 1 -13 50.93 3.48
7 -1 -13 54.77 3.94
7 -1 -12 12.95 1.86
7 1 -12 13.02 1.86
7 -1 -12 15.07 2.2
7 -1 -11 56.13 2.62
7 1 -11 59.69 2.86
7 -1 -11 75 3.36
7 1 -11 57.74 2.64
7 -1 -10 50.16 5.51
7 1 -10 50.32 5.6
7 -1 -10 52.44 2.53
7 1 -10 52.97 2.34
7 -1 -9 67.21 6.62
7 1 -9 75.1 7.42
7 -1 -9 60.57 6.04
7 1 -9 68.51 6.71
7 -1 -8 5.5 0.69
7 1 -8 4.6 0.84
7 -1 -8 8.59 1.11
7 1 -8 7.59 0.88
7 -1 -7 4.47 0.67
7 1 -7 6.21 1.14
7 -1 -7 3.92 0.65
7 1 -7 2.14 0.42
7 -1 -6 108.06 2.24
7 1 -6 111.58 2.55
7 -1 -6 108.66 2.4
7 1 -6 103.18 2.02
7 -1 -5 434.24 8.65
7 1 -5 357.13 7.27
7 1 -5 386.23 7.31
7 -1 -4 284.17 3.64
7 1 -4 277.73 3.73
7 1 -4 312.13 3.06
7 -1 -3 110.26 2.72
7 1 -3 114.25 2.4
7 1 -3 108.18 1.68
-7 -1 3 107.83 1.76
7 1 -2 0.85 0.47
7 1 -2 1.66 0.44
-7 -1 2 1.12 0.44
7 1 -1 1014.99 7.75
-7 -1 1 997.74 5.92
7 -1 0 217.81 3.32
7 1 0 216.73 3.97
7 1 0 230.61 2.81
-7 -1 0 231.12 2.8
7 -1 1 1.14 0.55
7 1 1 1.48 0.61
7 1 1 1.18 0.34
7 -1 1 1.6 0.42
7 -1 2 46.2 5.01
7 1 2 52.7 5.8
7 1 2 37.2 1.41
7 -1 2 53.2 2.08
7 1 3 57.48 7.67
7 1 3 48.24 6.36
7 -1 3 52.16 5.35
7 1 4 887.63 19.69
7 -1 4 788.63 17.71
7 1 5 284.73 6.57
7 -1 5 267.27 7.85
-7 1 -6 227.96 6.78
7 1 6 189.61 13.23
7 -1 6 174.14 7.11
-7 1 -7 309.16 8.56
-7 -1 -7 321.01 8.72
7 1 7 322.93 10.3
7 -1 7 319.51 8.79
-7 1 -8 93.67 4.29
-7 -1 -8 81.8 3.5
7 1 8 79.03 7.51
7 -1 8 71.77 8.48
-7 1 -9 36.78 2.48
-7 -1 -9 47.65 3.22
7 1 9 39.69 4.36
7 -1 9 32.46 4.11
-7 1 -10 3.46 1.08
-7 -1 -10 3.15 1.17
7 1 10 1.47 1.03
7 -1 10 2.35 1.28
-7 1 -11 78.89 4.97
-7 -1 -11 65.65 5.98
7 1 11 52.78 6.41
7 -1 11 55.35 7.38
7 -2 -14 11.73 1.62
7 2 -14 8.3 1.43
7 -2 -14 6.38 1.51
7 -2 -13 53.3 3.94
7 2 -13 43 3.46
7 -2 -12 1.99 1.06
7 2 -12 2.05 0.98
7 -2 -11 79.62 3.41
7 2 -11 78.83 3.67
7 -2 -10 899.18 21.22
7 2 -10 881.75 21.33
7 -2 -10 904.88 21.9
7 -2 -9 500.51 11.95
7 2 -9 574.91 16.7
7 -2 -9 486.88 12.16
7 2 -9 465.72 11.13
7 -2 -8 964.08 18.34
7 2 -8 1032.89 20.19
7 -2 -8 879.55 17.34
7 2 -8 848.58 16.17
7 -2 -7 42.44 1.71
7 2 -7 42.49 1.92
7 -2 -7 48.35 2.18
7 2 -7 40.01 1.49
7 -2 -6 17.12 1.53
7 2 -6 16.74 1.67
7 2 -6 12.12 1.91
7 -2 -6 18.58 1.77
7 2 -6 16 1.39
7 -2 -5 4.4 0.72
7 2 -5 1.69 0.66
7 2 -5 2.97 0.63
7 -2 -5 3.81 0.6
7 2 -5 5.01 0.43
7 -2 -4 69.79 5.86
7 2 -4 48.56 1.91
7 2 -4 51.04 1.33
7 -2 -4 54 1.92
7 -2 -3 283.11 5.95
7 2 -3 286.83 6.13
7 2 -3 253.1 4.65
7 -2 -3 274.64 5.88
7 -2 -2 1096.94 8.32
7 2 -2 1063.09 8.05
7 2 -2 1040.02 5.43
-7 -2 2 1048.97 17.89
7 -2 -1 246.27 5.28
7 2 -1 220.62 4.87
7 2 -1 225.54 4.3
7 -2 -1 220.16 4.87
-7 -2 1 222.81 4.21
7 -2 0 941.38 16.96
7 2 0 944.9 17.22
7 2 0 1046.53 18.08
7 -2 0 1070.79 19.13
-7 -2 0 1050.32 18.11
7 -2 1 80.86 2.77
7 2 1 88.53 6.02
7 2 1 107.13 2.66
7 -2 1 99.83 2.83
-7 -2 -1 82.12 2.02
7 2 2 326.68 4.7
7 2 2 348.27 4.11
7 -2 2 338.18 4.8
7 2 3 135.27 2.58
7 -2 3 134.57 3.01
7 2 4 94.55 7.8
7 2 4 98.49 3.07
7 -2 4 111.48 3.62
-7 2 -5 10.01 1.35
7 2 5 6.77 1.26
7 -2 5 8.73 1.16
-7 2 -6 112.61 4.4
7 2 6 115.28 4.16
7 -2 6 113.59 9.94
-7 2 -7 3.17 1.57
-7 -2 -7 2.43 0.89
7 2 7 0.51 0.69
7 -2 7 3.09 1.64
-7 2 -8 239.66 8.76
-7 -2 -8 250.7 8.87
7 2 8 269.65 9.82
7 -2 8 226.34 12.35
-7 2 -9 112.48 4.77
-7 -2 -9 137.87 5.64
7 2 9 104.15 8.35
7 -2 9 116.04 10.43
-7 2 -10 139.81 9.37
-7 -2 -10 113.7 7.59
7 2 10 97.71 10.18
7 -2 10 80.65 10.74
-7 2 -11 34.26 2.99
-7 -2 -11 33.84 2.86
7 2 11 30.06 5.55
7 -2 11 30.09 4.66
7 3 -13 1.49 1.21
7 -3 -13 1.66 1.3
7 3 -12 114.74 6.92
7 -3 -12 111.12 6.82
7 -3 -11 16.51 2.13
7 3 -11 14.37 2.07
7 -3 -11 12.76 2.11
7 -3 -10 18.14 2.34
7 3 -10 23.78 3.16
7 -3 -10 19.16 2.72
7 -3 -9 1.7 0.7
7 3 -9 0.67 0.79
7 -3 -9 0.82 0.97
7 3 -9 2.8 0.77
7 -3 -8 44.44 4.4
7 3 -8 41.46 4.37
7 -3 -8 39.71 4.2
7 3 -8 46 4.52
7 -3 -7 13.63 1.61
7 3 -7 14 1.56
7 -3 -7 13.08 1.52
7 3 -7 11.22 1.07
7 -3 -6 12.74 1.27
7 3 -6 11.7 1.3
7 3 -6 7.68 0.93
7 -3 -6 10.38 0.99
7 3 -6 10.32 0.57
7 -3 -4 46.17 5.18
7 3 -4 33.73 2.85
7 3 -4 35.03 2.88
7 3 -4 34.17 2.52
7 -3 -4 57.37 4.67
7 -3 -3 27.5 3.45
7 3 -3 28.47 2.44
7 -3 -3 30.36 2.62
7 3 -2 180.03 3.2
7 -3 -2 174.28 3.2
7 -3 -1 52.2 5.84
7 3 -1 42.18 5.13
7 3 -1 39.06 2.89
7 -3 -1 42.07 3.47
-7 -3 1 40.26 2.95
7 3 0 10.06 1.34
7 -3 0 12.19 1.35
-7 -3 0 10.28 0.86
7 3 1 125.63 3.41
7 3 1 116.48 1.79
7 -3 1 113.01 2.63
-7 -3 -1 125.8 1.8
7 3 2 14.12 1.93
7 3 2 11.71 1.51
7 -3 2 9.73 0.88
-7 -3 -2 6.16 0.57
7 3 3 122.79 3.65
7 3 3 117.35 8
7 -3 3 110.52 3.46
7 3 4 654.73 15.52
-7 3 -4 617.4 14.95
7 3 4 713.5 14.14
7 -3 4 695.58 14.28
-7 3 -5 294.23 9.24
7 3 5 297.82 9.02
7 -3 5 303.82 9.54
-7 3 -6 597.79 15.21
7 3 6 573.65 14.42
7 -3 6 589.79 14.87
-7 3 -7 72.49 3.54
7 3 7 77.28 9.34
7 -3 7 81.59 7.09
-7 3 -8 6.76 1.66
-7 -3 -8 8.23 1.37
7 3 8 5.79 1.49
7 -3 8 13.38 2.31
-7 3 -9 221.17 12.66
-7 -3 -9 288.61 16.12
7 3 9 204.52 11.62
7 -3 9 206.17 11.85
-7 3 -10 18.87 2.49
-7 -3 -10 16.86 1.98
7 -3 10 13.02 2.11
7 4 -13 246.39 15.38
7 -4 -13 261.74 16.35
7 4 -12 478.28 16.25
7 -4 -12 440.87 15.29
7 4 -11 47.56 3.52
7 -4 -11 47.57 3.74
7 4 -10 201.27 8.63
7 -4 -10 214.74 9.18
7 4 -9 22.13 3.01
7 -4 -9 21.57 2.98
7 4 -9 17.12 2.25
7 -4 -8 46.84 2.57
7 4 -8 41.85 2.37
7 -4 -8 40.14 2.25
7 -4 -7 16.4 2.85
7 4 -7 22.23 2.94
7 -4 -7 17.47 2.4
7 -4 -6 73.09 7.03
7 4 -6 109.57 4.11
7 -4 -6 86.97 10.1
7 -4 -5 266.16 8.74
7 4 -5 298.92 6.91
7 -4 -5 271.7 6.47
7 -4 -4 1735.97 31.95
7 -4 -4 1753.15 32.89
7 -4 -3 200.85 5.3
7 -4 -3 140.81 4.16
7 4 -2 516.39 12.21
7 -4 -2 401.63 9.71
7 4 -1 38.84 3.29
7 -4 -1 43.51 1.92
7 4 0 140.44 3.98
7 -4 0 163.75 4.64
7 4 1 9.48 1.63
-7 4 -1 6.67 0.9
7 -4 1 6.38 0.88
-7 -4 -1 4.74 0.49
7 4 2 189.7 4.79
-7 4 -2 199.14 5.07
7 -4 2 193.95 5
7 4 3 3.56 0.98
-7 4 -3 3.15 0.77
7 -4 3 4.08 0.95
7 4 4 1171.25 32.39
-7 4 -4 1491.23 41.49
7 -4 4 1261.94 35.2
-7 4 -5 28.29 3.42
7 -4 5 21.9 2.79
7 -4 6 35.22 2.2
-7 4 -7 29.24 3.43
7 -4 7 29.7 2.12
-7 4 -8 62.46 4.3
-7 -4 -8 63.9 4.03
7 -4 8 61.17 7.45
-7 4 -9 2.1 2.07
-7 -4 -9 4.43 1.31
7 -4 9 2.13 0.88
7 5 -12 95.67 6.58
7 -5 -12 127.07 8.52
7 5 -11 1.24 1.49
7 -5 -11 3.89 1.24
7 5 -10 6.36 1.64
7 -5 -10 8.97 1.5
7 5 -9 31.81 4.07
7 -5 -9 37.59 2.35
7 5 -8 154.07 6.04
7 -5 -8 157.05 6.07
7 -5 -7 25.28 3.25
7 5 -6 134.02 4.57
7 -5 -6 127.07 4.29
7 5 -5 15.99 2.2
7 -5 -5 20.45 2.73
7 5 -4 240.08 7.51
7 -5 -4 282.4 9.02
7 5 -3 48.92 5.34
7 -5 -3 49.15 5.43
-7 5 2 203.72 5.29
7 -5 -2 235.47 6.54
7 5 -1 7.65 1.42
-7 5 1 7.05 1.19
7 -5 -1 6.31 1.05
7 5 0 339.46 10.15
-7 5 0 292.76 8.77
7 -5 0 347.09 10.49
7 5 1 5.04 1
-7 5 -1 5.19 1
7 -5 1 6.65 1.2
7 5 2 37.92 6.05
-7 5 -2 53.4 2.38
7 -5 2 40.88 2.21
7 5 3 67.6 6.28
-7 5 -3 64.85 2.63
7 -5 3 60.59 2.74
7 5 4 24.76 4.35
-7 5 -4 27.2 3.49
7 -5 4 30.76 3.97
-7 5 -5 100.56 9.97
7 -5 5 109.08 5.14
-7 5 -6 96.27 4.24
7 -5 6 85.48 3.87
-7 5 -7 43.12 3.58
7 -5 7 46.65 3.69
-7 5 -8 73.34 3.77
7 -5 8 72.59 7.76
7 6 -10 8.28 1.8
7 -6 -10 11.9 1.82
7 6 -9 810.87 49.79
7 -6 -9 750.84 46.13
7 6 -8 9.51 1.82
7 -6 -8 12.13 2.01
7 6 -7 442.23 14.75
7 -6 -7 425.26 14.04
7 6 -6 16.55 2.38
7 -6 -6 13.53 2.01
7 6 -5 0.8 0.75
7 -6 -5 3.67 1.46
7 6 -4 31.55 3.8
7 -6 -4 37.91 2.26
7 6 -3 73.19 3.11
7 -6 -3 70.81 3.19
7 6 -2 1.29 0.83
-7 6 2 0.73 0.62
7 -6 -2 2.43 0.94
7 6 -1 728.96 22.36
7 -6 -1 747.72 22.69
7 6 0 116.43 9.82
-7 6 0 89.87 3.51
7 -6 0 114.56 4.56
7 6 1 476.39 15.47
-7 6 -1 413.1 13.58
7 -6 1 483.41 16.07
7 6 2 2.82 0.71
-7 6 -2 2.37 0.98
7 -6 2 2.3 0.75
-7 6 -3 3.85 1.09
7 -6 3 4.48 1.08
7 6 4 22.53 5.18
-7 6 -4 30.3 3.81
7 -6 4 39.61 2.66
-7 6 -5 0.34 0.72
7 -6 5 0.53 0.69
-7 6 -6 90.21 4.21
7 -6 6 78.52 3.86
-7 6 -7 184.6 9.99
7 -6 7 137.9 7.73
7 7 -8 7.37 2.1
7 -7 -8 5.65 1.6
7 7 -7 3.02 1.34
7 -7 -7 2.67 1.48
7 7 -6 36.64 2.42
7 -7 -6 39.91 4.28
7 7 -5 1.16 0.85
7 -7 -5 5.87 1.61
7 7 -4 12.68 1.88
7 -7 -4 16.4 2.37
7 7 -3 55.07 2.77
7 -7 -3 53.77 2.83
7 7 -2 9.42 1.77
7 -7 -2 9.78 1.77
7 7 -1 13.9 3.06
7 -7 -1 15.77 2.77
7 7 0 19.03 3.37
7 -7 0 27.99 4.38
7 7 1 2.31 0.93
-7 7 -1 2.01 1.25
7 -7 1 3.25 0.81
-7 7 -2 82.8 5.03
7 -7 2 113.61 6.8
-7 7 -3 68.33 4.85
7 -7 3 65.56 4.76
-7 7 -4 1.8 1.14
7 -7 4 2.42 1.24
-7 7 -5 237.97 12.41
7 -7 5 253.3 13.19
7 -8 -5 111.66 7.48
7 8 -4 308.05 15.66
7 -8 -4 309.46 15.85
7 8 -3 193.77 10.1
7 -8 -3 203.8 10.81
7 -8 -2 39.49 3.94
7 -8 -1 5.1 1.49
7 -8 0 4.44 1.07
7 -8 1 5.65 1.24
7 -8 2 62.18 4.51
8 0 -14 40.65 4.03
8 0 -14 44.7 3.52
8 0 -13 1.77 0.81
8 0 -13 5.11 1.39
8 0 -12 1725.2 191.62
8 0 -12 1915.68 212.73
8 0 -11 2.35 0.98
8 0 -10 371.42 10
8 0 -10 321.67 8.5
8 0 -9 0.52 0.61
8 0 -9 0.59 0.62
8 0 -8 344.22 7.65
8 0 -8 381.63 8.07
8 0 -7 0.47 0.53
8 0 -7 1.19 0.49
8 0 -6 394.83 5.07
8 0 -6 398.83 4.62
8 0 -5 1.98 0.74
8 0 -5 2 0.5
8 0 -4 3687.41 266.16
8 0 -4 4552.43 328.38
8 0 -3 1.45 0.78
8 0 -3 1.77 0.58
8 0 -2 448.74 8.88
8 0 -2 401.98 7.64
8 0 -1 1.69 0.68
8 0 -1 0.74 0.46
8 0 0 89.46 5.34
8 0 0 84.16 2.31
8 0 1 0.28 0.22
8 0 1 0.69 0.45
8 0 2 667.43 7.47
8 0 2 593.27 6.26
8 0 3 1.55 0.58
8 0 3 2.71 0.79
8 0 4 1458.83 27.89
8 0 5 3.38 1.29
8 0 6 180.73 14.81
-8 0 -7 0.26 1.14
8 0 7 0.59 0.88
-8 0 -8 3.75 1.09
8 0 8 5 1.7
-8 0 -9 0.5 1.07
8 0 9 0.25 0.82
-8 0 -10 6.54 1.35
8 0 10 6.48 1.78
8 -1 -14 36.31 3.76
8 1 -14 34.19 3.57
8 -1 -14 28.26 3.12
8 1 -14 32.59 3.29
8 -1 -13 5.13 1.52
8 1 -13 1.51 0.84
8 -1 -13 2.15 0.92
8 1 -13 1.49 0.81
8 -1 -12 123.88 4.95
8 1 -12 123.77 5.02
8 -1 -12 115.36 4.75
8 1 -12 121.79 4.77
8 -1 -11 20.02 2.56
8 1 -11 22.55 2.87
8 -1 -11 20.25 2.69
8 1 -11 20.87 2.65
8 -1 -10 15.2 1.94
8 1 -10 12.65 1.83
8 -1 -10 15.71 2.07
8 1 -10 9.3 1.33
8 -1 -9 32.46 3.98
8 1 -9 47.27 5.39
8 -1 -9 34.16 4.18
8 1 -9 32.75 3.95
8 -1 -8 87.71 3.03
8 1 -8 96.96 3.37
8 -1 -8 97.72 3.24
8 1 -8 99.27 3.04
8 -1 -7 265.32 6.08
8 1 -7 241.68 5.79
8 -1 -7 277.91 6.28
8 1 -7 278.8 6.01
8 -1 -6 63.26 2.43
8 1 -6 56.63 2.34
8 -1 -6 53.74 2.01
8 1 -6 59.22 1.94
8 -1 -5 2.16 0.87
8 1 -5 2.48 0.71
8 1 -5 0.87 0.35
8 -1 -5 2.92 0.99
8 -1 -4 148.09 2.78
8 -1 -4 151.97 2.81
8 -1 -3 294.21 6.19
8 1 -3 268.69 5.87
8 1 -3 254.91 5.03
8 -1 -3 275.04 6.35
8 -1 -2 39.46 2.67
8 1 -2 43.99 2.86
8 1 -2 35.58 1.21
8 -1 -2 32.47 1.38
-8 -1 2 32.34 1.17
8 -1 -1 9.24 2
8 1 -1 6.54 1.28
8 1 -1 8.16 0.63
8 -1 -1 8.93 0.87
-8 -1 1 5.31 0.44
8 -1 0 4.54 1.08
8 1 0 4.18 0.81
8 1 0 2.06 0.39
8 -1 0 3.53 0.74
8 -1 1 156.63 3.18
8 1 1 168.46 2.88
8 -1 1 177.28 3.21
8 -1 2 523.1 6.49
8 1 2 602.07 14.21
8 1 2 481.83 5.32
8 -1 2 476.21 11.15
8 1 3 72.45 6.07
8 1 3 64.67 6.72
8 1 4 750.31 15.33
8 1 5 263.57 8.15
-8 1 -6 33.13 4.23
8 1 6 25.26 3.66
-8 1 -7 1.2 0.88
-8 -1 -7 0.85 0.75
8 1 7 0.82 0.58
-8 1 -8 25.22 2.19
-8 -1 -8 16.84 2.35
8 1 8 16.05 2.76
-8 1 -9 21.74 2.95
-8 -1 -9 25.33 2.22
8 1 9 24.05 3.53
-8 1 -10 327.41 16.8
-8 -1 -10 315.11 16.08
8 1 10 314.16 16.15
8 -2 -14 1.87 0.85
8 2 -14 2.14 1.23
8 -2 -14 2.84 1.51
8 2 -14 3.44 1.18
8 -2 -13 2.82 0.75
8 2 -13 3.16 1.07
8 -2 -13 5.84 1.31
8 -2 -12 18.91 2.5
8 2 -12 19.98 2.9
8 -2 -12 20.75 2.87
8 2 -12 18.96 2.68
8 -2 -11 5.03 0.95
8 2 -11 5.88 1.39
8 -2 -11 7.31 1.47
8 -2 -10 49.83 2.31
8 2 -10 53.95 2.78
8 -2 -10 54.31 3.23
8 2 -10 49.91 2.27
8 -2 -9 401.3 10.06
8 2 -9 440.49 11.51
8 2 -9 371.41 9.3
8 -2 -8 88.59 3.02
8 2 -8 78.4 7.79
8 2 -8 68.74 6.68
8 -2 -7 819.38 15.9
8 2 -7 786.3 15.7
8 2 -7 797.46 15.09
8 -2 -6 224.59 12.34
8 2 -6 201.89 5.45
8 2 -6 166.78 4.46
8 2 -6 214.47 5.07
8 -2 -5 230.47 10.48
8 2 -5 240.2 6.2
8 2 -5 241.07 5.56
8 -2 -5 226.28 5.92
8 -2 -4 64.55 4.98
8 2 -4 68.5 2.56
8 2 -4 76.04 1.41
8 -2 -4 60.11 4.72
8 -2 -3 21.31 2.54
8 2 -3 20.06 1.9
8 2 -3 21.03 1.66
8 -2 -3 20.29 2.5
8 -2 -2 4.89 0.84
8 2 -2 4.15 0.99
8 2 -2 4.21 0.59
8 -2 -2 5.7 0.82
-8 -2 2 4.41 0.5
8 2 -1 306.03 5.39
8 2 -1 342.23 3.47
8 -2 -1 343.91 4.62
8 -2 0 187.91 3.5
8 2 0 184.18 4.66
8 2 0 196.86 2.65
8 -2 0 214.02 3.77
-8 -2 0 191.05 2.51
8 -2 1 827.45 18.73
8 2 1 772.85 18.31
8 2 1 863.54 18.84
8 -2 1 825.72 18.47
8 2 2 506.88 12.66
8 2 2 567.36 12.82
8 -2 2 589.37 13.67
8 2 3 14.9 2.38
8 -2 3 21.29 2.17
8 2 4 1.51 0.72
8 2 4 1.49 0.59
8 -2 4 1.4 0.83
-8 2 -5 120.62 4.64
8 2 5 131.02 4.65
8 -2 5 115.54 6.66
-8 2 -6 49.39 2.78
8 2 6 49.09 4.72
8 -2 6 51.33 4.76
-8 2 -7 164.39 6.98
8 2 7 116.16 10.01
8 -2 7 111.92 10.11
-8 2 -8 158.54 6.17
-8 -2 -8 160.21 6.21
8 2 8 174.98 6.71
8 -2 8 135.44 14.16
-8 2 -9 377.2 23.66
-8 -2 -9 378.25 23.61
8 2 9 404.79 25.5
8 -2 9 323.67 26.85
-8 2 -10 93.38 5.68
-8 -2 -10 83.24 4.97
8 2 10 72.2 11.58
8 -2 10 80.06 11.02
8 3 -13 79.39 4.99
8 -3 -13 77.96 5.1
8 3 -12 27.83 2.2
8 -3 -12 24.79 2.2
8 3 -12 19.04 1.52
8 -3 -11 6.01 1.17
8 3 -11 13.88 2.45
8 -3 -11 6.13 1.88
8 3 -11 6.89 1.41
8 -3 -10 73.49 3.21
8 3 -10 59.86 3.05
8 -3 -10 62.79 3.19
8 3 -10 52.68 2.39
8 -3 -9 5.47 0.93
8 3 -9 5.71 1.33
8 -3 -9 5.28 1.11
8 3 -9 4.27 0.8
8 -3 -8 201.9 6.29
8 3 -8 207.8 7.38
8 -3 -8 206.44 6.88
8 3 -8 202.07 5.98
8 -3 -7 188.91 9.87
8 3 -7 206.52 6.08
8 -3 -7 189.45 5.51
8 3 -7 197.66 4.84
8 -3 -6 325.6 8.11
8 3 -6 302.73 7.99
8 3 -6 278.93 6.49
8 -3 -6 325.48 8.42
8 -3 -5 20.23 3.27
8 3 -5 29.56 2.74
8 3 -5 27.8 2.26
8 -3 -5 24.49 2.42
8 -3 -4 148.75 6.96
8 3 -4 140.32 4.17
8 3 -4 122.98 2.81
8 3 -4 133.16 2.98
8 -3 -4 137.61 4.21
8 -3 -3 264.9 6.6
8 3 -3 304.61 7.71
8 3 -3 253.86 5.44
8 3 -3 297.04 6.34
8 -3 -3 268.05 7.12
8 3 -2 138.6 4.21
8 3 -2 141.42 3.15
8 -3 -2 137.5 4.04
8 -3 -1 60.35 3.92
8 3 -1 39.15 4.41
8 3 -1 44.78 2.21
8 -3 -1 41.04 1.83
-8 -3 1 43.35 1.19
8 3 0 344.98 7.68
8 -3 0 323.48 8.05
-8 -3 0 323.44 7.15
8 3 1 8.01 1.2
8 3 1 8.04 1.14
8 -3 1 10.57 1.26
-8 -3 -1 5.77 0.68
8 3 2 202.09 5.36
8 3 2 156.35 3.63
8 -3 2 162.98 4.42
8 3 3 148.82 4.63
8 3 3 132.76 3.82
8 -3 3 152.95 4.88
8 3 4 124.8 4.45
-8 3 -4 127.1 4.85
8 3 4 140.79 4.92
8 -3 4 138.16 5.05
-8 3 -5 212.64 7.51
8 3 5 226.89 6.73
8 -3 5 186.05 6.72
-8 3 -6 10.75 2.04
8 3 6 9.09 1.84
8 -3 6 13.3 2.24
-8 3 -7 16.7 2.98
8 3 7 17.11 3.7
8 -3 7 17.6 3.42
-8 3 -8 119.47 7.34
-8 -3 -8 158.01 9.22
8 3 8 134.07 8.27
8 -3 8 149.57 12.02
-8 3 -9 75.95 3.97
-8 -3 -9 63.54 8.51
8 3 9 65.67 11
8 -3 9 70.54 6.53
8 4 -12 231.03 12.26
8 -4 -12 219.12 11.74
8 4 -11 660.14 40.82
8 -4 -11 678.09 41.84
8 4 -10 37.48 2.59
8 -4 -10 33.88 2.48
8 4 -9 9.8 1.62
8 -4 -9 16.73 2.52
8 -4 -8 7.76 1.68
8 4 -8 17.48 2.61
8 -4 -8 12.43 1.93
8 -4 -7 7.06 1.21
8 4 -7 7.87 1.32
8 -4 -7 7.23 1.37
8 -4 -6 19.48 3.12
8 4 -6 19.78 2.65
8 -4 -6 18.41 2.5
8 -4 -5 1100.95 30.26
8 4 -5 1141.2 31.77
8 -4 -5 1225.17 34.11
8 -4 -4 428.18 10.47
8 4 -4 418.56 10.47
8 -4 -4 452.03 11.38
8 -4 -3 1036.54 23.67
8 -4 -3 983.72 22.82
8 4 -2 266.18 7.08
8 -4 -2 267.26 7.14
8 4 -1 5.73 1.13
8 -4 -1 4.87 0.89
8 4 0 5.01 0.85
8 -4 0 3 0.65
8 4 1 11.25 2.28
8 -4 1 9.43 1.28
8 4 2 4.08 1.08
-8 4 -2 3.87 0.82
8 -4 2 3.26 1
8 4 3 542.38 16.41
-8 4 -3 402.2 10.5
8 -4 3 438.69 11.52
8 4 4 418.41 13.32
-8 4 -4 457.68 14.58
8 -4 4 401.53 13.08
-8 4 -5 154.81 6.24
8 -4 5 179.8 7.08
-8 4 -6 194.56 9.44
8 -4 6 235.04 8.45
8 -4 7 21.07 2.87
-8 4 -8 17.58 2.2
-8 -4 -8 23.8 1.93
8 -4 8 16.03 2.78
-8 4 -9 12.41 1.7
-8 -4 -9 12.59 1.5
8 -4 9 12.96 2.62
8 5 -11 1.38 1.22
8 -5 -11 3.1 1.32
8 5 -10 18.57 1.89
8 -5 -10 29.94 2.33
8 5 -9 94.68 5.96
8 -5 -9 68.72 4.49
8 5 -8 4.03 1.64
8 -5 -8 3.48 1.04
8 -5 -7 7.62 1.36
8 5 -6 184.92 6.58
8 -5 -6 218.69 7.72
8 -5 -5 1.88 0.92
8 5 -4 143.63 4.48
8 -5 -4 143.7 4.65
8 5 -3 18.81 2.36
8 -5 -3 18.66 2.37
8 5 -2 0.95 0.6
8 -5 -2 3.05 1
8 5 -1 15.9 2.81
-8 5 1 19.44 2.33
8 -5 -1 21.06 2.59
8 5 0 1.63 0.66
-8 5 0 0.44 0.52
8 -5 0 0.85 0.71
8 5 1 53.13 7.33
-8 5 -1 61.43 2.73
8 -5 1 62.36 2.88
-8 5 -2 276.25 9.49
8 -5 2 207 7.19
8 5 3 174.24 6.72
-8 5 -3 118.86 4.83
8 -5 3 121.91 5.03
8 5 4 418.22 16.79
-8 5 -4 407.78 16.11
8 -5 4 455.87 18.02
-8 5 -5 2.28 0.88
8 -5 5 1.21 0.71
-8 5 -6 119.6 8.13
8 -5 6 123.49 8.27
-8 5 -7 3.11 1.34
8 -5 7 2.81 0.9
8 6 -10 91.98 6.52
8 -6 -10 103.01 6.96
8 6 -9 25.06 2.35
8 -6 -9 25.9 2.09
8 6 -8 618.21 38.17
8 -6 -8 505.98 31.36
8 6 -7 21.61 3.07
8 -6 -7 14.16 2.16
8 6 -6 236.79 8.3
8 -6 -6 235.73 8.48
8 6 -5 76.17 3.78
8 -6 -5 75.41 3.85
8 6 -4 1.74 0.75
8 -6 -4 0.44 0.71
8 6 -3 1.83 0.82
8 -6 -3 1.55 0.77
8 6 -2 49.17 5.22
-8 6 2 58.29 2.74
8 -6 -2 59.44 3.05
8 6 -1 103.8 4.67
-8 6 1 106.13 4.8
8 -6 -1 106.83 5.05
8 6 0 612.48 23.37
8 -6 0 715.98 27.53
8 6 1 39.47 3.76
-8 6 -1 36.96 5.25
8 -6 1 55.32 3.3
8 6 2 415.69 13.61
-8 6 -2 318.29 10.59
8 -6 2 358.27 12.02
-8 6 -3 127.81 7.47
8 -6 3 164.1 9.5
-8 6 -4 1.95 0.69
8 -6 4 1.48 1.03
-8 6 -5 14.53 1.49
8 -6 5 20.85 1.92
-8 6 -6 2.12 1.25
8 -6 6 3.79 1.3
8 7 -7 32.89 3.61
8 -7 -7 28.37 3.11
8 7 -6 64.88 3.34
8 -7 -6 65.41 3.46
8 7 -5 17.27 1.46
8 -7 -5 17.24 1.65
8 7 -4 60.41 4.41
8 -7 -4 66.39 4.88
8 7 -3 84.65 5.76
8 -7 -3 101 6.96
8 7 -2 100.19 10.27
8 -7 -2 106.27 7.2
8 -7 -1 65.3 4.74
8 7 0 5.69 0.97
8 -7 0 8.1 1.19
8 7 1 148.85 9.6
8 -7 1 186.56 12.14
-8 7 -2 0.72 0.86
8 -7 2 1.4 0.97
-8 7 -3 35.89 3.54
8 -7 3 42.29 4.21
8 -7 4 165.25 10.7
9 0 -13 653.17 54.24
9 0 -13 638.36 21.01
9 0 -12 3.94 1.51
9 0 -12 4.2 1.38
9 0 -11 491.32 19.15
9 0 -11 481.72 18.7
9 0 -10 1.74 0.71
9 0 -10 1.75 1.02
9 0 -9 4.69 0.91
9 0 -9 7.73 1.27
9 0 -8 0.99 0.55
9 0 -8 2.02 0.78
9 0 -7 158.92 4.74
9 0 -7 150.46 4.26
9 0 -6 1.18 0.79
9 0 -6 1.05 0.47
9 0 -5 1217.15 26.65
9 0 -5 1168.43 25.26
9 0 -4 0.9 0.53
9 0 -4 1.84 0.59
9 0 -3 715.32 16.34
9 0 -3 714.26 15.75
9 0 -2 1.1 0.59
9 0 -2 1.25 0.51
9 0 -1 181.49 6.51
9 0 -1 206.73 5.2
9 0 0 0.72 0.54
9 0 0 1.39 0.35
9 0 1 72.91 7.68
9 0 1 48.88 1.9
9 0 2 1.79 0.61
9 0 2 2.64 0.82
9 0 3 12.08 2.27
9 0 3 9.83 1.32
9 0 4 1.04 0.89
9 0 5 296.17 22
9 0 6 2.13 0.96
-9 0 -7 370.23 14.97
9 0 7 365.19 14.82
-9 0 -8 1.26 1.38
9 0 8 1.01 0.61
-9 0 -9 3.58 1.21
9 0 9 4.22 1.43
9 -1 -13 15.38 1.67
9 1 -13 22.48 2.19
9 -1 -13 15.83 1.67
9 1 -13 11.26 1.72
9 -1 -12 10.61 1.63
9 1 -12 14.31 2.27
9 -1 -12 11.07 1.81
9 1 -12 14.05 2.15
9 -1 -11 10.66 1.57
9 1 -11 10.05 1.73
9 -1 -11 9.55 1.62
9 1 -11 6.02 1.3
9 -1 -10 3.5 0.86
9 1 -10 7.09 1.28
9 -1 -10 3.8 1
9 1 -10 3.85 0.79
9 -1 -9 28.43 3.28
9 1 -9 24.48 2.96
9 -1 -9 26.98 3.14
9 1 -9 21.59 2.52
9 -1 -8 3.21 0.74
9 1 -8 5.28 1.06
9 -1 -8 4.63 0.87
9 1 -8 3.84 0.98
9 -1 -7 53.04 5.34
9 1 -7 43.15 4.42
9 -1 -7 32.95 3.53
9 1 -7 39.77 4.01
9 -1 -6 65.02 7.35
9 1 -6 59.62 5.08
9 1 -6 54.58 4.51
9 -1 -6 74.92 7.34
9 -1 -5 30.04 3.91
9 1 -5 30.51 2.93
9 1 -5 23.86 2.12
9 -1 -5 28.86 2.61
9 -1 -4 340.97 8.42
9 1 -4 314.72 7.98
9 1 -4 344.07 8.01
9 -1 -4 337.25 8.07
9 -1 -3 1.53 0.72
9 1 -3 1.32 0.61
9 1 -3 1.56 0.48
9 -1 -3 5.16 0.9
9 -1 -2 33.58 3.44
9 1 -2 37.24 3.72
9 1 -2 28.82 1.36
9 -1 -2 31.88 1.48
9 -1 -1 12.72 2.22
9 1 -1 5.2 1.42
9 1 -1 4.55 0.55
9 -1 -1 6.41 0.78
9 -1 0 27.8 2.51
9 1 0 20.98 2.32
9 1 0 18.42 1.06
9 -1 0 23.64 1.4
9 -1 1 423.84 9.19
9 1 1 413.06 9.12
9 1 1 396.94 8.19
9 -1 1 412.39 8.8
9 -1 2 97.1 6.65
9 1 2 112.28 8.75
9 1 2 95.09 2.78
9 -1 2 95.3 3.09
9 1 3 218.88 6.24
9 1 3 218.75 5.92
9 -1 3 244.56 6.79
9 1 4 486.58 14.13
9 -1 4 451.44 13.37
9 1 5 73.46 7.68
-9 1 -6 140.92 5.68
9 1 6 130.34 11.39
9 -1 6 129.05 9.72
-9 1 -7 13.89 2.4
-9 -1 -7 12.69 2.29
9 1 7 12.88 3.07
9 -1 7 12.24 3
-9 1 -8 5.8 1.36
-9 -1 -8 1.42 0.73
9 1 8 3.87 1.09
9 -1 8 3.73 1.03
-9 1 -9 581.89 28.96
-9 -1 -9 617.17 30.63
9 1 9 553.35 27.51
9 -1 9 563.78 28.09
9 -2 -13 71.01 4.31
9 2 -13 70.21 4.47
9 -2 -13 63.64 4.16
9 2 -13 56.92 3.54
9 -2 -12 1.51 0.58
9 2 -12 6.06 1.19
9 -2 -12 2.51 1.37
9 2 -12 1.73 0.96
9 -2 -11 10.36 1.8
9 2 -11 20.49 3.56
9 -2 -11 9.14 1.78
9 2 -11 8.01 1.46
9 2 -10 1.53 0.95
9 -2 -10 2.86 1.28
9 -2 -9 8.23 1.29
9 2 -9 6.66 1.35
9 -2 -9 3.96 1.05
9 -2 -8 509.19 12.65
9 2 -8 551.43 13.87
9 -2 -8 518.84 12.99
9 2 -8 494.86 11.85
9 -2 -7 592.62 20.17
9 2 -7 602.14 17.38
9 -2 -7 563.02 16.21
9 2 -7 575.2 15.98
9 -2 -6 921.21 21.4
9 2 -6 895.86 20.89
9 2 -6 854.98 19.25
9 -2 -6 784.14 18.43
9 -2 -5 200.8 4.92
9 2 -5 197.62 5.14
9 2 -5 183.75 3.95
9 -2 -5 176.9 4.61
9 -2 -4 6.64 1.49
9 2 -4 5.53 0.91
9 2 -4 8.17 0.82
9 -2 -4 5.86 0.97
9 -2 -3 88.56 7.14
9 2 -3 75.66 10.22
9 2 -3 84.25 2.08
9 -2 -2 5.95 1.07
9 2 -2 7.85 1.27
9 2 -2 8.33 0.59
-9 -2 2 5.38 0.47
9 -2 -1 78.78 11.21
9 2 -1 50.65 5.54
9 2 -1 57.31 4.66
-9 -2 1 45.38 3.7
9 -2 0 749.55 15.07
9 2 0 734.08 14.68
9 2 0 755.24 14.43
9 -2 1 591.34 12.42
9 2 1 582.8 12.23
9 2 1 610.65 11.96
9 2 2 782.71 18.84
9 2 2 889.76 20.98
9 2 3 6.48 1.35
9 -2 3 5.25 1.12
9 2 4 15.4 2.58
9 2 4 14.28 2.5
9 -2 4 13.49 1.96
-9 2 -5 50.18 2.78
9 2 5 43.96 6.62
9 -2 5 47.74 2.59
-9 2 -6 4.53 1.65
9 2 6 3.19 0.92
9 -2 6 3.79 1.34
-9 2 -7 70.57 3.76
9 2 7 66.06 9.05
9 -2 7 61.7 7.33
-9 2 -8 116.5 8.02
-9 -2 -8 111.2 7.69
9 2 8 93.91 11.76
9 -2 8 78.84 9.24
-9 2 -9 55.75 3.84
-9 -2 -9 45.43 3.16
9 2 9 52.07 8.73
9 -2 9 38.03 6.19
9 3 -12 2.48 0.94
9 -3 -12 1.11 1.11
9 -3 -11 94.83 5.57
9 3 -11 122.93 7.47
9 -3 -10 4.45 1.03
9 3 -10 4.38 1.19
9 -3 -9 19.73 3.28
9 3 -9 21.61 2.9
9 -3 -9 17.82 2.37
9 -3 -8 2.61 0.69
9 3 -8 4.01 1.11
9 -3 -8 3.62 1.23
9 3 -8 4.33 0.84
9 -3 -7 68.25 5.44
9 3 -7 63.76 2.82
9 -3 -7 68.22 2.86
9 -3 -6 190.8 6.09
9 3 -6 178.97 6.03
9 -3 -6 219.68 7.32
9 -3 -5 220.55 10.2
9 3 -5 192.5 5.65
9 -3 -5 202.56 5.87
9 -3 -4 304.22 14.35
9 3 -4 266.98 7.54
9 -3 -4 214.58 6.03
9 -3 -3 277.61 10.5
9 3 -3 265.82 7.15
9 -3 -3 288.4 7.75
9 -3 -2 1.99 0.85
9 3 -2 1.36 0.7
9 3 -2 1.6 0.33
9 -3 -2 0.89 0.56
9 -3 -1 86.7 10.87
9 3 -1 95.82 3.51
9 3 -1 73.66 7.58
9 -3 -1 92.08 3.25
9 3 0 39.58 4.58
9 -3 0 33.82 3.57
9 3 1 109.18 9.14
9 3 1 124.86 3.97
9 -3 1 113.8 4.23
9 3 2 739.86 20.99
9 -3 2 793.98 22.65
9 3 3 128.1 9.13
9 -3 3 86.38 3.41
9 3 4 391.35 12.59
-9 3 -4 371.35 12.09
9 -3 4 359.61 11.72
-9 3 -5 147.28 5.9
9 3 5 168.02 6.36
9 -3 5 132.55 5.4
-9 3 -6 10.62 2.15
9 3 6 7.66 1.89
9 -3 6 7.93 1.79
-9 3 -7 3.61 1.86
9 -3 7 1.46 0.83
-9 3 -8 85.48 5.33
-9 -3 -8 93.66 5.48
9 -3 8 99.86 9.48
9 4 -12 505.14 30.6
9 -4 -12 551.52 33.29
9 4 -11 85.69 4.33
9 -4 -11 125.84 5.89
9 4 -10 108.95 6.96
9 -4 -10 98.2 6.11
9 4 -9 29.75 4.03
9 -4 -9 25.33 4.33
9 -4 -8 0.69 0.5
9 4 -8 3.5 1.58
9 -4 -8 2.19 0.98
9 -4 -7 1.28 0.66
9 4 -7 -0.05 0.83
9 -4 -7 2.88 1.26
9 -4 -6 182.59 7.17
9 4 -6 175.76 6.33
9 -4 -6 160.42 5.95
9 -4 -5 153.91 4.6
9 4 -5 141.13 4.62
9 -4 -5 168.4 5.43
9 -4 -4 439.66 10.99
9 4 -4 461.98 11.95
9 -4 -4 420.94 10.99
9 -4 -3 451.18 13.2
9 -4 -3 395.47 11.92
9 4 -2 226.58 7.76
9 -4 -2 229.3 7.43
9 4 -1 10.42 2.34
9 -4 -1 9.38 1.55
9 4 0 144.75 4.54
9 -4 0 115.57 4.1
9 4 1 48.39 5.14
9 -4 1 56.41 2.68
9 4 2 33.5 6
-9 4 -2 23.7 3.06
9 -4 2 26.48 3.48
9 4 3 33.76 6.08
-9 4 -3 37.16 2.24
9 -4 3 36.21 2.52
9 4 4 36.2 5.79
-9 4 -4 37.96 2.55
9 -4 4 36.44 2.76
-9 4 -5 180.19 7.27
9 -4 5 163.74 6.66
-9 4 -6 198.76 12.85
9 -4 6 223.19 14.39
9 -4 7 3.4 1.19
9 5 -10 1.38 1.95
9 -5 -10 1.36 0.98
9 5 -9 4.74 1.16
9 -5 -9 7.69 1.78
9 5 -8 29.7 2.25
9 -5 -8 18.37 2.65
9 -5 -7 37.71 2.55
9 5 -6 10.4 1.7
9 -5 -6 6.35 1.42
9 5 -5 3.71 1.02
9 -5 -5 1.41 1.04
9 5 -4 6.07 1.49
9 -5 -4 6.11 1.6
9 5 -3 51.63 5.46
9 -5 -3 51.86 2.79
9 5 -2 65.09 7.59
9 -5 -2 40.74 5.07
9 5 -1 31.31 5.02
9 -5 -1 30.63 3.78
9 5 0 30.63 4.67
-9 5 0 26.72 3.31
9 -5 0 36.05 2.22
9 5 1 0.9 1.1
-9 5 -1 1.37 0.62
9 -5 1 1.82 0.85
9 5 2 288.37 11.79
-9 5 -2 246.51 10.1
9 -5 2 277.08 11.37
9 5 3 18.86 3.26
-9 5 -3 15.48 2.66
9 -5 3 17.98 2.99
9 5 4 13.94 2.57
-9 5 -4 13.92 2.02
9 -5 4 16.27 2.32
-9 5 -5 95.48 6.66
9 -5 5 106.1 7.32
-9 5 -6 108.01 6.38
9 -5 6 113.73 6.53
9 6 -9 139.14 9.13
9 -6 -9 161.87 10.44
9 6 -8 2.23 1.14
9 -6 -8 0.83 0.94
9 6 -7 777.87 47.76
9 -6 -7 866.91 78.04
9 6 -6 51.42 3.9
9 -6 -6 50 3.85
9 6 -5 175.35 10.01
9 -6 -5 170.56 9.79
9 6 -4 9.33 1.67
9 -6 -4 9.48 1.59
9 6 -3 9.26 2.33
9 -6 -3 12.05 2.16
9 6 -2 34.86 4.25
-9 6 2 31.13 3.75
9 -6 -2 46.67 2.55
9 6 -1 103.24 8.78
-9 6 1 89.72 3.69
9 -6 -1 101.79 6.22
9 6 0 33.6 3.52
9 -6 0 34.09 2.64
9 6 1 517.8 27.77
-9 6 -1 450.98 24.25
9 -6 1 564.8 30.42
9 6 2 2.33 1.01
-9 6 -2 1.05 1.09
9 -6 2 6.54 1.26
9 6 3 93.96 10.35
-9 6 -3 62.74 3.14
9 -6 3 87.57 4.2
9 6 4 70.25 8.06
-9 6 -4 83.85 5.01
9 -6 4 98.23 5.88
-9 6 -5 6.63 1.25
9 7 -6 68.92 4.88
9 -7 -6 70.29 5.07
9 7 -5 51.72 3.49
9 -7 -5 52.71 3.62
9 7 -4 75.28 4.47
9 -7 -4 79.65 4.98
9 7 -3 100.91 9.06
9 -7 -3 107.96 4.77
9 7 -2 0.25 0.68
9 -7 -2 1.55 0.99
9 -7 -1 3.04 1.47
9 7 0 139.37 13.09
9 -7 0 175.82 9.45
9 7 1 3.52 1.24
9 -7 1 2.92 1.41
-9 7 -2 47.9 3.56
9 -7 2 86.69 6.06
10 0 -13 2.23 0.97
10 0 -13 0.85 0.71
10 0 -12 282.26 17.79
10 0 -12 281.77 17.71
10 0 -11 2.96 1.23
10 0 -11 1.34 0.83
10 0 -10 435.81 17.06
10 0 -10 414.23 16.11
10 0 -9 3.91 1.01
10 0 -9 1.91 1.1
10 0 -8 165.45 5.14
10 0 -8 145.77 4.38
10 0 -7 1.52 0.69
10 0 -7 1.15 0.77
10 0 -6 0.33 0.44
10 0 -6 1.92 0.58
10 0 -5 1.34 1.02
10 0 -5 1.27 0.72
10 0 -4 164.99 4.88
10 0 -4 149.98 4.19
10 0 -3 2.42 0.76
10 0 -3 1.51 0.55
10 0 -2 1091.83 21.32
10 0 -2 1135.08 21.48
10 0 -1 1.1 0.83
10 0 -1 1.42 0.73
10 0 0 339.13 8.95
10 0 0 353.31 8.78
10 0 1 1.72 0.71
10 0 1 3.42 0.8
10 0 2 32.37 5.69
10 0 2 30.69 3.79
10 0 3 0.81 0.97
10 0 3 1.11 0.55
10 0 4 116.31 4.47
10 0 5 1.22 1.04
10 0 6 557.92 18.08
-10 0 -7 3.05 1.5
10 0 7 2.01 1.17
10 0 8 1.7 0.86
10 -1 -13 2.25 1.06
10 1 -13 2.11 0.95
10 -1 -13 1.75 1.14
10 1 -13 0.73 0.9
10 -1 -12 1.68 0.94
10 1 -12 0.98 0.82
10 -1 -12 2.15 1.18
10 -1 -11 60.3 3.89
10 1 -11 63.5 4.18
10 -1 -11 65.87 4.23
10 1 -11 70.64 4.4
10 -1 -10 85.39 4.15
10 1 -10 90.15 4.42
10 -1 -10 89.95 4.24
10 1 -10 82.12 3.84
10 -1 -9 3.27 1.19
10 1 -9 2.71 0.88
10 -1 -9 1.05 0.62
10 1 -9 0.39 0.55
10 -1 -8 63.21 2.83
10 1 -8 55.3 2.71
10 -1 -8 57.94 2.57
10 1 -8 48.7 2.19
10 -1 -7 156.34 10.7
10 1 -7 150.24 4.84
10 1 -7 153.35 4.44
10 -1 -7 148.75 4.54
10 -1 -6 629.1 18.56
10 1 -6 635.31 18.31
10 1 -6 676.87 19.01
10 -1 -6 605.03 17.23
10 -1 -5 11.94 2.49
10 1 -5 18.31 2.88
10 1 -5 9.76 1.29
10 -1 -5 14.48 1.73
10 -1 -4 1.12 0.93
10 1 -4 2.18 1
10 1 -4 0.88 0.48
10 -1 -4 2.02 0.75
10 -1 -3 157.55 5.97
10 1 -3 160.71 12.94
10 1 -3 167.47 4.5
10 -1 -3 146.13 4.26
10 -1 -2 117.64 8.98
10 1 -2 137.7 9.63
10 1 -2 116.12 3.34
10 -1 -2 132.66 3.98
10 -1 -1 172.85 11.97
10 1 -1 161.27 4.9
10 1 -1 154.88 4.3
10 -1 -1 147.95 4.3
10 -1 0 528.38 13.22
10 1 0 469.7 11.79
10 1 0 473.11 11.28
10 -1 0 450.64 11.01
10 -1 1 6.25 1.41
10 1 1 7.63 1.44
10 1 1 9.35 1.43
10 -1 1 8.38 1.32
10 -1 2 867.09 24.75
10 1 2 944.99 26.82
10 1 2 822.68 23
10 -1 2 934.29 26.26
10 1 3 31.91 4.59
10 1 3 32.7 5.22
10 -1 3 38.18 4.72
10 1 4 15.76 3.04
10 -1 4 4.87 1.21
10 1 5 91.37 7.97
-10 1 -6 1.34 0.84
10 1 6 1.77 1.23
10 -1 6 1.9 1.5
-10 1 -7 248.73 15.92
10 1 7 236.28 15.06
10 -1 7 229.76 14.75
-10 1 -8 303.69 15.74
-10 -1 -8 280.76 14.52
10 1 8 229.26 21.2
10 -1 8 248.8 13.03
10 2 -12 3.77 1.46
10 -2 -12 7.12 1.5
10 -2 -11 130.55 8.59
10 2 -11 130.92 8.72
10 -2 -11 133.04 8.83
10 2 -11 125.69 8.14
10 -2 -10 9.82 1.77
10 2 -10 12.76 2.24
10 -2 -10 10.42 1.94
10 2 -10 7.78 1.44
10 -2 -9 171.51 7.45
10 2 -9 173.05 7.48
10 -2 -9 162.55 6.98
10 2 -9 145.85 5.98
10 -2 -8 353.17 18.16
10 2 -8 337.54 11.03
10 2 -8 302.76 9.4
10 -2 -8 336.22 10.87
10 -2 -7 1576.2 36.7
10 2 -7 1581.99 36.93
10 -2 -7 1627.45 184.71
10 -2 -6 321.26 13.35
10 2 -6 267.87 8.58
10 -2 -6 248.54 7.86
10 -2 -5 278.19 8.56
10 2 -5 273.58 8.57
10 -2 -5 287.31 8.81
10 -2 -4 7.91 2.04
10 2 -4 14.79 2.45
10 2 -4 10.35 1.32
10 -2 -4 10.64 1.58
10 -2 -3 34.65 4.2
10 2 -3 33.88 4.78
10 2 -3 33.82 3.33
10 -2 -3 40.89 4.18
10 -2 -2 16.4 2.85
10 2 -2 20.91 3.13
10 2 -2 14.64 1.56
10 -2 -2 19.6 2.22
10 -2 -1 193.09 10.17
10 2 -1 115.11 9.67
10 2 -1 119.74 3.35
10 -2 -1 135.46 4.28
10 -2 0 258.06 9.13
10 2 0 261.11 8.27
10 2 0 244.4 7.27
10 -2 0 257.98 8.05
10 -2 1 552.39 16.36
10 2 1 682.68 19.94
10 2 1 593.25 16.74
10 -2 1 559.1 16.21
10 2 2 45.17 5.7
10 2 2 35.45 5.64
10 -2 2 37.19 4.64
10 2 3 107.44 4.17
10 -2 3 114.75 4.6
10 2 4 2 0.8
10 2 4 2.91 0.76
10 -2 4 7.33 1.45
-10 2 -5 3.66 1.35
10 2 5 4.01 1.07
10 -2 5 2.54 1.03
-10 2 -6 35.69 3.18
10 2 6 35.56 3.94
10 -2 6 30.94 5.54
-10 2 -7 9.65 1.97
10 2 7 11.58 1.99
10 -2 7 13.85 2.84
-10 2 -8 2.28 1.29
-10 -2 -8 1.91 1.45
10 2 8 2.2 0.72
10 -2 8 3.09 1.15
10 3 -12 73.16 5.33
10 -3 -12 58.19 4.35
10 3 -11 2.99 1.01
10 -3 -11 1.99 0.94
10 -3 -10 4.72 0.87
10 3 -10 4.4 1.09
10 -3 -10 5.86 1.47
10 -3 -9 8.26 2.25
10 3 -9 16.07 2.67
10 -3 -9 12.1 2.18
10 -3 -8 168.97 7.21
10 3 -8 130.46 5.89
10 -3 -8 126.75 5.78
10 -3 -7 2 0.57
10 3 -7 3.59 1.33
10 -3 -6 50.03 6.56
10 3 -6 56.16 2.88
10 -3 -5 7.71 1.26
10 3 -5 7.35 1.44
10 -3 -4 30.7 4.17
10 3 -4 29.76 4.63
10 -3 -3 1.79 0.57
10 3 -3 1.81 0.84
10 -3 -3 1.73 1.03
10 -3 -2 66.59 3.77
10 3 -2 72.15 7.13
10 -3 -2 68.08 3
10 -3 -1 151.09 4.8
10 3 -1 148.53 12.64
10 -3 -1 146.85 4.66
10 3 0 3.74 0.69
10 -3 0 7.91 1.28
10 3 1 348.04 11.33
10 -3 1 324.09 10.77
10 3 2 162.95 5.94
10 3 2 168.34 5.8
10 -3 2 165.39 6.08
10 3 3 8.16 1.94
10 3 3 5.78 1.07
10 -3 3 8.18 1.47
10 3 4 11.5 2.2
10 3 4 17.79 3.27
10 -3 4 16.09 2.4
-10 3 -5 3.26 1.17
10 3 5 2.55 0.89
10 -3 5 2.97 1.16
-10 3 -6 150.62 10.08
10 3 6 167.34 10.9
10 -3 6 158.76 10.52
-10 3 -7 347.38 18.14
10 3 7 298.09 15.34
10 -3 7 282.29 22.41
10 4 -11 144.96 9.47
10 -4 -11 138.33 9.15
10 4 -10 151.77 6.28
10 -4 -10 135.34 5.74
10 4 -9 225.45 14.51
10 -4 -9 245.31 15.64
10 -4 -8 9.85 2.21
10 4 -8 13.52 2.51
10 -4 -8 11.87 2.2
10 -4 -7 46.06 5.07
10 4 -7 46.56 2.78
10 -4 -7 39.24 2.55
10 -4 -6 1.4 0.65
10 -4 -6 0.74 0.95
10 -4 -5 5.31 1.48
10 4 -5 2.93 0.97
10 -4 -5 3.11 1.3
10 -4 -4 177.19 6.5
10 4 -4 191.13 6.78
10 -4 -4 188.59 6.72
10 -4 -3 343.96 11.02
10 -4 -3 339.51 11.09
10 4 -2 96.28 9.18
10 -4 -2 114.47 4.65
10 4 -1 604.59 18.71
10 -4 -1 585.77 18.11
10 4 0 1.29 0.68
10 -4 0 2.23 0.94
10 4 1 0.84 0.68
10 -4 1 -0.19 0.93
10 4 2 20.27 3.5
-10 4 -2 17.48 2.47
10 -4 2 22.49 1.9
10 4 3 42.93 7.69
-10 4 -3 42.71 2.69
10 -4 3 34.85 2.31
10 4 4 72.77 7.94
-10 4 -4 81.19 9.29
10 -4 4 81.22 5.32
-10 4 -5 319.4 20.5
10 -4 5 255.82 16.37
-10 4 -6 5.22 1.44
10 -4 6 4.09 1.18
10 5 -10 7.57 1.39
10 -5 -10 4.7 1.15
10 5 -9 60.51 4.13
10 -5 -9 54.76 3.76
10 5 -8 7.25 1.7
10 -5 -8 6.53 1.77
10 -5 -7 325.41 20.61
10 5 -6 11.36 1.97
10 -5 -6 12.87 2.3
10 5 -5 192.99 7.26
10 -5 -5 170.9 6.57
10 5 -4 38.32 2.79
10 -5 -4 43.98 2.75
10 5 -3 203.23 14.59
10 -5 -3 207.15 8.84
10 5 -2 50 4.97
10 -5 -2 66.44 3.71
10 5 -1 21.77 4.32
10 -5 -1 22.83 3.74
10 5 0 29.54 5.79
-10 5 0 28.55 4.36
10 -5 0 25.55 4.07
10 5 1 492.83 15.83
-10 5 -1 493.3 15.96
10 -5 1 469.68 15.39
10 5 2 45.94 5.62
-10 5 -2 45.59 5.86
10 -5 2 51.97 5.55
10 5 3 95.73 11.99
-10 5 -3 139.64 9.52
10 -5 3 118.1 8.13
10 5 4 124.8 5.17
-10 5 -4 132.53 5.7
10 -5 4 131.37 5.76
-10 5 -5 56.37 4.38
10 -5 5 54.81 4.32
10 6 -7 1.49 1.05
10 -6 -7 3.02 1.46
10 6 -6 524.2 17.79
10 -6 -6 523.85 17.76
10 6 -5 38.7 2.61
10 -6 -5 28.87 2.15
10 6 -4 14.42 2.54
10 -6 -4 12.63 1.41
10 6 -3 0.74 0.64
10 -6 -3 1.17 0.75
10 6 -2 0.96 1
10 -6 -2 2.54 1.14
10 6 -1 46.13 7.57
10 -6 -1 53.51 4.14
10 6 0 198.61 14.28
-10 6 0 189.9 7.12
10 -6 0 229.39 8.48
10 6 1 6.21 1.2
10 -6 1 6.29 1.12
-10 6 -2 260.38 13.33
10 -6 2 340.13 17.39
10 6 3 29.05 5.34
-10 6 -3 46.22 3.52
10 -6 3 52.45 4.12
11 0 -12 1.22 0.73
11 0 -12 2 0.86
11 0 -11 323.91 20.3
11 0 -11 316.46 19.74
11 0 -10 1.21 0.87
11 0 -10 -0.3 0.71
11 0 -9 1160.86 165.58
11 0 -9 1107.04 41.55
11 0 -8 1.47 0.67
11 0 -8 0.81 0.71
11 0 -7 13.2 3.11
11 0 -7 13.31 1.88
11 0 -6 0.74 0.72
11 0 -6 1.43 0.63
11 0 -5 25.13 4.62
11 0 -5 22.59 2.66
11 0 -4 1.57 0.55
11 0 -4 1.12 0.56
11 0 -3 860.66 24.37
11 0 -3 742.83 20.78
11 0 -2 2.44 0.82
11 0 -2 2.72 0.83
11 0 -1 1066.3 25.88
11 0 -1 824.85 23.06
11 0 0 0.86 0.53
11 0 0 2.61 0.96
11 0 1 6.51 2.02
11 0 1 3.29 0.9
11 0 2 1.79 0.69
11 0 2 1.2 0.85
11 0 3 4.23 1.18
11 0 3 4.56 0.95
11 0 4 1.69 1.09
11 0 5 380.83 20.91
11 0 6 1.69 1.4
-11 0 -7 42.84 3.52
11 0 7 46.76 6.06
11 -1 -12 1.71 0.78
11 1 -12 1.65 0.97
11 -1 -12 1.67 0.78
11 1 -12 1.19 0.96
11 -1 -11 55.92 2.96
11 1 -11 54.15 2.97
11 -1 -11 55.29 2.8
11 1 -11 45.28 2.47
11 -1 -10 40.39 2.91
11 1 -10 36.32 2.74
11 -1 -10 31.53 3.82
11 1 -10 31.78 2.29
11 -1 -9 1.19 0.77
11 1 -9 1.88 0.94
11 -1 -9 0.32 0.66
11 -1 -8 3.37 1.3
11 1 -8 2.54 0.98
11 -1 -8 3.93 0.89
11 -1 -7 138.49 9.25
11 1 -7 142.04 5.36
11 1 -7 164.91 5.63
11 -1 -7 151.1 5.41
11 -1 -6 43.32 5.81
11 1 -6 53.18 7.07
11 1 -6 49.09 2.28
11 -1 -6 55.67 2.52
11 -1 -5 4.18 0.89
11 1 -5 4.73 1.15
11 1 -5 3.89 0.82
11 -1 -5 2.98 0.64
11 -1 -4 1.65 0.81
11 1 -4 1.09 0.75
11 1 -4 0.2 0.58
11 -1 -4 0.58 0.55
11 -1 -3 0.93 0.53
11 1 -3 0.87 0.69
11 1 -3 0.95 0.58
11 -1 -3 1.6 0.61
11 -1 -2 353.51 17.99
11 1 -2 234.56 6.75
11 1 -2 250.59 6.55
11 -1 -2 266.46 7.21
11 -1 -1 297.63 17.64
11 1 -1 235.8 6.86
11 1 -1 291.91 7.59
11 -1 -1 305.17 8.07
11 -1 0 78.54 6.92
11 1 0 74.08 8.49
11 1 0 63.63 2.43
11 -1 0 54.27 2.38
11 -1 1 277.63 17.26
11 1 1 285.4 9.77
11 1 1 264.67 8.52
11 -1 1 281.73 9.25
11 -1 2 90.59 5.84
11 1 2 79.98 6.23
11 1 2 72.06 6.93
11 -1 2 77.32 3.41
11 1 3 8.68 1.95
11 1 3 14.65 2.97
11 -1 3 9.35 1.54
11 1 4 0.78 0.85
11 -1 4 2.94 1.32
11 1 5 76.25 7.08
11 -1 5 73.84 8.28
-11 1 -6 268.41 9.91
11 1 6 248.77 15.1
11 -1 6 371.01 13.9
-11 1 -7 208.57 13.27
11 1 7 168.89 18.19
11 -1 7 185.09 15.09
11 -2 -12 12.14 1.52
11 2 -12 21.35 2.19
11 -2 -12 24.63 2.8
11 -2 -11 0.99 0.89
11 2 -11 2.68 1.35
11 -2 -11 1.7 1.27
11 -2 -10 14.68 2.15
11 2 -10 15.57 1.6
11 -2 -10 17.64 1.56
11 -2 -9 66.88 6.23
11 2 -9 66.83 3.23
11 -2 -9 72.29 3.33
11 -2 -8 242.45 9.89
11 2 -8 278.03 11.42
11 -2 -8 268.48 11.07
11 -2 -7 108.7 10.79
11 2 -7 97.21 4.32
11 2 -7 83.5 3.18
11 -2 -7 94.54 4.04
11 -2 -6 290.48 12.8
11 2 -6 310.14 10.27
11 2 -6 306.4 9.4
11 -2 -6 304.51 9.91
11 -2 -5 21.94 4.26
11 2 -5 24.14 3.78
11 2 -5 23.12 2.86
11 -2 -5 26.96 3.44
11 -2 -4 89.23 6.85
11 2 -4 74.56 5.94
11 2 -4 81.59 2.9
11 -2 -4 86.62 3.52
11 -2 -3 91.91 10.32
11 2 -3 64.37 7.64
11 2 -3 62.83 2.09
11 -2 -3 59.93 2.49
11 -2 -2 25.68 3.52
11 2 -2 26.67 4.69
11 2 -2 21.71 2.48
11 -2 -2 28.13 4.05
11 -2 -1 22.12 3.89
11 2 -1 18.81 2.84
11 2 -1 18.17 2.28
11 -2 -1 19.08 2.5
11 -2 0 71.99 8.44
11 2 0 80.09 7.57
11 2 0 68.01 5.12
11 -2 0 77.12 3.28
11 -2 1 0.5 0.51
11 2 1 1.46 0.7
11 2 1 3.74 0.94
11 -2 1 1.67 1.06
11 2 2 305.51 11.03
11 -2 2 238.64 8.61
11 -2 3 71.03 3.73
11 2 4 96.47 12.92
11 -2 4 126.64 7.53
-11 2 -5 69.54 5.26
11 2 5 61.91 9.34
11 -2 5 69.7 5.12
-11 2 -6 6.91 1.52
11 2 6 6.45 1.5
11 -2 6 9.95 1.59
11 3 -11 4.03 1.25
11 -3 -11 1.74 0.97
11 -3 -10 2.82 0.75
11 3 -10 6.94 1.21
11 -3 -10 4.36 1.28
11 -3 -9 14.94 2.63
11 3 -9 20.06 1.68
11 -3 -9 13.39 1.6
11 -3 -8 83.23 4.56
11 3 -8 110.96 4.69
11 -3 -8 91.11 4.17
11 -3 -7 1.39 0.59
11 3 -7 1.64 0.77
11 -3 -7 4.53 0.99
11 -3 -6 33.64 3.31
11 3 -6 24.91 2.05
11 -3 -6 29.49 2.1
11 -3 -5 128.58 9
11 3 -5 98.39 8.81
11 -3 -5 88.93 3.89
11 -3 -4 12.66 2.27
11 3 -4 11.69 3.03
11 -3 -4 11.75 1.74
11 -3 -3 6.93 1.58
11 3 -3 9.68 1.83
11 -3 -3 5.46 1.14
11 -3 -2 78.83 8.77
11 3 -2 70.22 6.52
11 -3 -2 77.72 3.55
11 -3 -1 98.59 11.86
11 3 -1 103.59 11.65
11 -3 -1 127.65 5.11
11 -3 0 297.51 10.37
11 3 1 69.36 6.37
11 -3 1 59.97 3.26
11 3 2 21.21 4.66
11 3 3 167.77 15.88
11 3 4 11.7 2.6
-11 3 -5 48.72 3.16
-11 3 -6 209.39 13.33
11 4 -10 556.38 33.55
11 -4 -10 604.18 36.37
11 4 -9 58.71 3.3
11 4 -8 149.94 9.89
11 -4 -7 13.72 2.7
11 4 -7 14.49 2.31
11 -4 -7 17.73 2.63
11 -4 -6 34.9 5.22
11 4 -6 56.65 3.31
11 -4 -6 45.89 4.07
11 -4 -5 17.52 3.99
11 4 -5 10.13 2.23
11 -4 -5 12.7 2.35
11 -4 -4 68.97 3.42
11 4 -4 76.81 10.17
11 -4 -4 83.56 4.16
11 -4 -3 27.4 4.1
11 -4 -3 33.56 2.4
11 4 -2 796.01 30.51
11 -4 -2 804.91 30.81
11 4 -1 60.38 6.5
11 -4 -1 77.74 4.05
11 4 0 64.63 6.27
11 -4 0 64.14 3.18
11 4 1 62.48 6.33
11 -4 1 36.35 2.92
11 4 2 21.07 4.18
11 -4 2 25.52 2.26
11 4 3 0.91 0.53
-11 4 -3 1.71 1.18
11 -4 3 1.83 1.47
11 4 4 67.6 7.61
-11 4 -4 87.4 4.27
11 -4 4 81.6 4.12
-11 4 -5 3.25 1.82
11 -4 5 5.17 1.49
11 5 -8 54.78 3.83
11 -5 -8 61.38 4.23
11 -5 -7 14.59 1.87
11 5 -6 185.32 7.3
11 -5 -6 159.05 6.55
11 5 -5 2.14 1.13
11 -5 -5 1.81 1.33
11 5 -4 12.74 1.5
11 -5 -4 12.96 1.77
11 5 -3 167.32 9.63
11 -5 -3 154.94 9.04
11 5 -2 14.07 2.19
11 -5 -2 11.88 1.8
11 5 -1 158.63 10.33
11 -5 -1 165.77 10.85
11 5 0 100.84 11.54
-11 5 0 101.37 6.81
11 -5 0 97.45 6.75
11 5 1 12.55 2.41
-11 5 -1 12.42 1.7
11 -5 1 8.55 1.56
11 5 2 80.6 7.1
-11 5 -2 80.65 3.8
11 -5 2 93.45 4.47
11 5 3 4.77 1.18
-11 5 -3 4.44 1.28
11 -5 3 6.31 1.31
11 6 -5 206.04 14.55
11 -6 -5 205.7 12.96
11 6 -4 3.28 1.51
11 -6 -4 3.07 1.1
11 6 -3 8.25 1.6
11 -6 -3 8.68 1.59
11 6 -2 45.67 6.19
11 -6 -2 46.98 3.36
11 6 -1 1.76 0.78
-11 6 1 5.77 1.43
11 -6 -1 5.09 1.18
11 6 0 28.23 3.72
-11 6 0 18.38 3
11 -6 0 28.43 2.59
12 0 -11 1.51 0.96
12 0 -10 1177.01 97.24
12 0 -9 2.79 1.08
12 0 -9 0.61 0.93
12 0 -8 140.65 7
12 0 -8 134.37 5.09
12 0 -7 2.18 0.77
12 0 -7 0.85 0.65
12 0 -6 17.96 3.36
12 0 -6 19.4 3.09
12 0 -5 1.45 0.83
12 0 -5 2.26 1.01
12 0 -4 276.52 16.57
12 0 -4 265.78 9.04
12 0 -3 2.44 0.89
12 0 -3 1.73 0.78
12 0 -2 602.88 20.24
12 0 -2 620.43 19.85
12 0 -1 1.4 1.26
12 0 -1 0.91 0.63
12 0 0 125.09 12.29
12 0 0 75.65 3.33
12 0 1 0.16 0.53
12 0 1 0.83 0.76
12 0 2 13.67 3.63
12 0 2 20.25 3.22
12 0 3 1.21 1.04
12 0 4 26.95 3.46
12 0 5 1.27 0.82
12 -1 -11 37.56 3.71
12 1 -11 32.49 3.38
12 -1 -11 33.87 3.35
12 -1 -10 2.59 1.02
12 1 -10 3.07 1.22
12 1 -10 2.59 0.93
12 -1 -10 4.69 0.95
12 -1 -9 118.22 9.47
12 1 -9 143.78 9.56
12 1 -9 124.5 8.08
12 -1 -9 139.02 9.13
12 -1 -8 15.79 3.26
12 1 -8 19.13 2.73
12 1 -8 13.25 1.83
12 -1 -8 23.28 3.03
12 -1 -7 8.45 1.98
12 1 -7 10.86 2.81
12 1 -7 4.02 0.89
12 -1 -7 7.82 1.53
12 -1 -6 4.81 1.18
12 1 -6 1.45 0.89
12 1 -6 -0.07 0.61
12 -1 -5 46.07 4.11
12 1 -5 44.68 3.86
12 1 -5 38.13 2
12 -1 -5 46.53 2.42
12 -1 -4 20.69 3.72
12 1 -4 24.31 4.58
12 1 -4 14.77 1.99
12 -1 -4 16.97 2.19
12 -1 -3 238.44 8.51
12 1 -3 222.9 13.97
12 -1 -3 216.8 7.61
12 -1 -2 81.46 10.29
12 1 -2 68.58 6.89
12 -1 -2 67.61 6.81
12 -1 -1 609.36 33.86
12 1 -1 385.38 13.19
12 -1 -1 423.04 14.13
12 -1 0 1.11 0.53
12 1 0 1.58 0.74
12 1 0 0.75 0.71
12 -1 0 1.8 0.73
12 1 1 3.41 1.92
12 1 1 1.14 0.66
12 -1 1 0.53 0.73
12 1 2 2.26 1.51
12 1 2 4.66 1.14
12 -1 2 8.41 1.64
12 1 3 17.45 3.71
12 1 3 22.51 3.77
12 -1 3 18.58 2.53
12 1 4 221.52 14.19
12 -1 4 228.72 14.58
12 1 5 128.23 12.02
12 -1 5 130.5 12.16
12 -2 -10 24.44 3.6
12 2 -10 27.31 3.03
12 -2 -10 29.72 3.04
12 -2 -9 2.38 0.7
12 2 -9 3.07 0.92
12 -2 -9 2.08 0.87
12 -2 -8 1.66 1.18
12 2 -8 3 0.93
12 -2 -8 5.52 1.32
12 -2 -7 77.44 5.78
12 2 -7 80.23 5.93
12 -2 -7 77.4 3.47
12 -2 -6 52.06 6.37
12 2 -6 58.49 5.33
12 -2 -6 57.3 2.81
12 -2 -5 340.86 13.56
12 2 -5 303.56 12.68
12 -2 -5 321.09 12.77
12 -2 -4 266.92 13.39
12 2 -4 219.04 9.24
12 -2 -4 260.52 10.54
12 -2 -3 91.69 7.34
12 2 -3 93.78 10.47
12 -2 -3 83.78 4.04
12 -2 -2 4.18 1.13
12 -2 -2 3.45 0.84
12 -2 -1 7.88 1.55
12 2 -1 3.47 1.05
12 -2 -1 4.59 1.11
12 -2 0 22.14 2.96
12 2 0 36.36 4.62
12 -2 0 23.65 1.79
12 2 1 56.33 5.13
12 2 1 64.65 6.26
12 -2 1 70.38 3.55
12 2 2 98 12.41
12 2 2 90.37 10.96
12 -2 2 108.71 6.63
12 2 3 279.07 17.52
12 -2 3 312.8 19.85
12 2 4 92.55 8.62
12 -2 4 118.68 5.2
-12 2 -5 6.53 1.49
12 -2 5 10.16 1.59
12 3 -10 162.59 10.48
12 -3 -10 144.21 9.5
12 -3 -9 62.7 7.09
12 3 -9 80.8 4.95
12 -3 -9 69.21 4.4
12 -3 -8 57.92 8.12
12 3 -8 66.46 5.03
12 -3 -8 77.82 5.67
12 -3 -7 6.28 1.52
12 3 -7 8.2 1.4
12 -3 -7 7.37 1.37
12 -3 -6 152.23 12.18
12 3 -6 159.83 14.54
12 -3 -6 172.01 9.83
12 -3 -5 1.78 0.76
12 3 -5 1.61 1.15
12 -3 -5 0.74 0.89
12 -3 -4 23.59 4.23
12 3 -4 16.84 3.38
12 -3 -4 20.41 3.35
12 -3 -3 250.1 8.82
12 3 -3 241.85 16.55
12 -3 -3 242.17 8.56
12 -3 -2 325.19 15.49
12 3 -2 334.6 11.48
12 -3 -2 357.15 12.15
12 -3 -1 338.48 11.67
12 3 -1 286.54 10
12 -3 -1 282.04 9.7
12 -3 0 55.35 3.74
12 3 1 14.47 2.85
12 -3 1 16.05 2.36
12 3 2 175.53 18.9
12 -3 2 141.87 9.42
12 3 3 53.44 6.06
12 -3 3 57.27 4.52
12 3 4 2.91 1.19
-12 3 -4 3.26 1.38
12 -3 4 1.65 1.09
12 4 -8 68.61 4.49
12 -4 -8 63.08 4.12
12 -4 -7 2.96 0.76
12 4 -7 0.44 1.06
12 -4 -7 2.77 1.33
12 -4 -6 0.65 0.53
12 4 -6 1.89 1.38
12 -4 -6 2.33 1.36
12 -4 -5 3.96 0.93
12 4 -5 3.76 1.23
12 -4 -5 3.2 1
12 -4 -4 0.45 0.54
12 4 -4 3.07 0.93
12 -4 -3 269.37 17.14
12 4 -2 152.12 10.01
12 4 -1 109.32 12.13
12 4 0 105.39 13.39
12 4 1 7.05 1.93
12 -4 1 6.38 1.61
12 4 2 3.05 1.27
12 -4 2 4.48 2.23
12 4 3 22.17 4.27
-12 4 -3 23.65 2.52
12 -4 3 26.75 3.03
12 5 -6 1.36 1.12
12 -5 -6 2.25 1.64
12 5 -5 6.54 1.3
12 -5 -5 5.02 1.72
12 5 -4 9.97 1.63
12 -5 -4 8.95 1.69
12 5 -3 2.77 1.32
12 -5 -3 1.03 1.24
12 5 -2 69.76 7.68
12 -5 -2 62.34 4.32
12 5 -1 7.27 1.46
12 -5 -1 5.89 1.58
12 5 0 21.66 3.51
-12 5 0 26.86 2.77
12 -5 0 22.16 2.57
12 5 1 2.85 1.71
13 0 -10 9.24 1.5
13 0 -10 1.63 1.11
13 0 -9 119.07 8.56
13 0 -9 86.39 4.96
13 0 -8 -0.35 0.5
13 0 -8 0.23 0.78
13 0 -7 16.85 2.62
13 0 -7 11.25 1.34
13 0 -6 0.31 0.6
13 0 -5 30.91 3.93
13 0 -4 1.35 0.82
13 0 -4 1.68 0.97
13 0 -3 40.05 5.26
13 0 -3 38.97 2.26
13 0 -2 2.81 1.12
13 0 -2 2 0.89
13 0 -1 113.36 13.52
13 0 -1 118.89 6.97
13 0 0 4.28 1.51
13 0 0 0.35 0.8
13 0 1 207.11 13.39
13 0 1 199.86 12.74
13 0 2 0.39 0.64
13 0 2 1.3 0.87
13 0 3 0.34 0.55
13 0 4 0.79 0.86
13 -1 -10 42.54 5.49
13 1 -10 53.82 4.07
13 -1 -10 41.15 3.14
13 -1 -9 0.63 0.58
13 1 -9 1.43 0.75
13 -1 -9 1.17 0.81
13 -1 -8 7.65 1.48
13 1 -8 13.17 1.95
13 -1 -8 6.7 1.08
13 -1 -7 1.75 0.91
13 1 -7 1.12 1.23
13 -1 -7 3.87 1
13 -1 -6 55.74 7.27
13 1 -6 56.74 7.22
13 -1 -6 57.66 3.78
13 -1 -5 268.55 14.99
13 1 -5 272.65 15.16
13 -1 -5 248.84 13.67
13 -1 -4 7.06 1.51
13 1 -4 5.42 1.36
13 1 -4 6.2 1.24
13 -1 -4 5.08 1.23
13 1 -3 269.05 20.28
13 1 -3 289.88 9.55
13 -1 -3 291.68 9.71
13 -1 -2 94.15 12.28
13 1 -2 84.31 8.69
13 1 -2 94.2 3.7
13 -1 -2 92.83 3.9
13 -1 -1 11.86 4.47
13 1 -1 13.04 2.37
13 1 -1 4.02 0.92
13 -1 -1 7.14 1.38
13 -1 0 45.93 7.17
13 1 0 47.81 6.36
13 1 0 36.62 2.57
13 -1 0 50.38 3.46
13 -1 1 11.01 2.06
13 1 1 9.49 2.06
13 -1 1 9.06 1.22
13 1 2 15.93 2.75
13 1 2 8.39 1.46
13 -1 2 14.83 1.61
13 1 3 577.38 28.71
13 1 3 588.24 29.39
13 -1 3 599.61 29.62
13 -2 -9 21.41 2.58
13 2 -9 20.87 2.21
13 -2 -9 27.42 2.45
13 -2 -8 2.94 0.94
13 2 -8 4.75 1.14
13 -2 -8 2.57 0.94
13 -2 -7 6.26 1.15
13 2 -7 9.13 2.37
13 -2 -7 10.36 1.51
13 -2 -6 395.26 24.6
13 2 -6 373.89 32.26
13 -2 -6 379.56 23.58
13 -2 -5 242.15 13.53
13 2 -5 274.96 19.29
13 -2 -5 238.4 13.23
13 -2 -4 430.2 23.54
13 2 -4 367.52 20.13
13 -2 -4 420.72 22.77
13 -2 -3 14.43 4
13 2 -3 10.02 1.85
13 -2 -3 15.63 2.24
13 -2 -2 7.59 1.58
13 2 -2 5.29 1.21
13 -2 -2 2.27 0.77
13 -2 -1 18.06 2.42
13 2 -1 15.21 2.72
13 -2 -1 17.29 1.51
13 -2 0 4.43 1.27
13 2 0 5.89 1.43
13 -2 0 4.37 0.91
13 2 1 43.82 5.48
13 -2 1 52.07 2.85
13 2 2 126.88 11.64
13 -2 2 122.67 6.88
13 -2 3 52.61 4.13
13 -3 -8 2.03 0.84
13 3 -8 1.07 1.16
13 -3 -8 0.16 1.26
13 -3 -7 50.86 5.62
13 3 -7 36.28 4.37
13 -3 -7 48.06 3.58
13 -3 -6 0.38 0.7
13 3 -6 0.62 0.82
13 -3 -6 2.84 1.44
13 -3 -5 163.84 6.41
13 3 -5 158.19 14.08
13 -3 -5 206.43 7.77
13 -3 -4 139.4 10.53
13 3 -4 97.97 13.42
13 -3 -4 121.43 8.18
13 -3 -3 3.5 0.96
13 3 -3 3.34 0.94
13 -3 -3 6.18 1.37
13 -3 -2 49.32 6.55
13 3 -2 54.78 6.69
13 -3 -2 53.19 3.98
13 -3 -1 64.39 7.52
13 3 -1 56.84 6.48
13 -3 -1 63.21 3.29
13 3 0 1.3 0.98
13 -3 0 1 1.09
13 3 1 5.48 1.42
13 -3 1 5.77 1.7
13 3 2 28.79 4.29
13 -3 2 40.4 3.46
13 -4 -6 49.76 7.42
13 4 -6 48.96 6.96
13 -4 -6 62.84 4.59
13 -4 -5 10.65 2.95
13 4 -5 14.48 2.34
13 -4 -5 22.89 2.63
13 -4 -4 28.37 5.56
13 4 -4 33.09 5.81
13 -4 -4 36.71 3.81
13 -4 -3 19.37 5.66
13 4 -3 39.79 5.89
13 -4 -3 32.94 3.53
13 4 -2 15.1 2.45
13 -4 -2 16.36 2.1
13 4 -1 100.75 11.8
13 -4 -1 93.67 5.61
13 4 0 160.62 22.22
13 -4 0 120.49 8
14 0 -8 494.13 35.77
14 0 -7 2.87 1.15
14 0 -7 2 0.89
14 0 -6 305.4 15.68
14 0 -6 285.71 14.55
14 0 -5 0.75 0.7
14 0 -5 1.25 0.7
14 0 -4 5.99 1.44
14 0 -4 1.52 0.96
14 0 -3 -0.14 0.85
14 0 -3 0.87 0.67
14 0 -2 16.01 2.21
14 0 -2 17.76 1.68
14 0 -1 1.76 0.74
14 0 -1 1.85 0.93
14 0 0 363.62 18.45
14 0 0 394.26 19.77
14 0 1 1.84 1.06
14 0 1 0.99 0.89
14 -1 -7 49.76 5.01
14 1 -7 44.37 6.92
14 -1 -6 95.74 8.44
14 1 -6 93.67 11.02
14 -1 -6 89 5.12
14 -1 -5 2.16 0.77
14 1 -5 3.19 1.1
14 -1 -5 3.99 1.53
14 -1 -4 332.24 15.96
14 1 -4 239.99 18.07
14 -1 -4 251.9 8.96
14 -1 -3 4.08 1.08
14 1 -3 7.32 1.77
14 -1 -3 3.02 0.76
14 -1 -2 2.08 0.88
14 1 -2 2.46 1.02
14 -1 -2 3.19 1.26
14 -1 -1 69.6 7.8
14 1 -1 74.7 8.5
14 -1 -1 66.68 4.11
14 -1 0 2.67 1.55
14 1 0 3.36 1.24
14 -1 0 4.12 1.38
14 -1 1 168.17 16.24
14 1 1 155.06 10.01
14 -1 1 175.61 11.09
14 -2 -7 11.62 2.17
14 2 -7 10.18 2.1
14 -2 -7 9.75 1.21
14 -2 -6 96.29 7.51
14 2 -6 111.15 10.12
14 -2 -6 105 6.93
14 -2 -5 199.26 13.67
14 2 -5 196.19 14.8
14 -2 -5 207.91 10.88
14 -2 -4 9.61 1.99
14 2 -4 7.65 1.43
14 -2 -3 99.01 10.7
14 2 -3 63.24 11.47
14 -2 -3 51.77 7.31
14 -2 -2 1.71 1.15
14 2 -2 0.86 0.54
14 -2 -2 1.6 0.82
14 -2 -1 9.15 2.51
14 2 -1 10.72 2.29
14 -2 -1 9.16 1.54
14 -2 0 24.63 4.95
14 2 0 22.08 4.39
14 -2 0 28.74 2.77
14 -3 -4 32.8 8.53
14 3 -4 46.18 7.53
14 -3 -4 50.83 3.99
14 -3 -3 16.62 4.28
14 3 -3 14.15 2.5
14 -3 -3 21.22 2.28
