#------------------------------------------------------------------------------
#$Date: 2019-10-28 05:06:41 +0200 (Mon, 28 Oct 2019) $
#$Revision: 219656 $
#$URL: file:///home/coder/svn-repositories/cod/cif/4/51/44/4514467.cif $
#------------------------------------------------------------------------------
#
# This file is available in the Crystallography Open Database (COD),
# http://www.crystallography.net/
#
# All data on this site have been placed in the public domain by the
# contributors.
#
data_4514467
loop_
_publ_author_name
'Wang, Chun-Yun'
'Takeda, Takashi'
'Melvin Ten Kate, Otmar'
'Funahashi, Shiro'
'Xie, Rong-Jun'
'Takahashi, Kohsei'
'Hirosaki, Naoto'
_publ_section_title
;
 New Deep-Blue-Emitting Ce-Doped A<sub>4-<i>m</i></sub>B<sub> <i>n</i>
 </sub>C<sub>19+2<i>m</i></sub>X<sub>29+<i>m</i></sub> (A = Sr, La; B =
 Li; C = Si, Al; X = O, N; 0 &#x2264; <i>m</i> &#x2264; 1; 0 &#x2264;
 <i>n</i> &#x2264; 1) Phosphors for High-Color-Rendering Warm White
 Light-Emitting Diodes.
;
_journal_issue                   32
_journal_name_full               'ACS applied materials &amp; interfaces'
_journal_page_first              29047
_journal_page_last               29055
_journal_paper_doi               10.1021/acsami.9b09982
_journal_volume                  11
_journal_year                    2019
_chemical_absolute_configuration unk
_chemical_formula_sum
'Al4.51 Eu0.41 La3.19 Li N27.28 O2.12 Si15.29'
_chemical_formula_weight         1479.60
_space_group_IT_number           156
_space_group_name_Hall           'P 3 -2"'
_space_group_name_H-M_alt        'P 3 m 1'
_symmetry_cell_setting           trigonal
_symmetry_space_group_name_Hall  'P 3 -2"'
_symmetry_space_group_name_H-M   'P 3 m 1'
_audit_creation_date             2019-03-18T15:44:28-00:00
_audit_creation_method           'WinGX routine CIF_UPDATE'
_cell_angle_alpha                90
_cell_angle_beta                 90
_cell_angle_gamma                120
_cell_formula_units_Z            1
_cell_length_a                   12.1680(6)
_cell_length_b                   12.1680(6)
_cell_length_c                   4.8290(3)
_cell_measurement_reflns_used    3528
_cell_measurement_temperature    293(2)
_cell_measurement_theta_max      36.291
_cell_measurement_theta_min      3.867
_cell_volume                     619.19(6)
_computing_cell_refinement       'APEX2 (Bruker AXS, 2009)'
_computing_data_collection       'APEX2 (Bruker AXS, 2009)'
_computing_data_reduction        'SAINT (Bruker AXS, 2009)'
_computing_molecular_graphics    'VESTA (Momma and Izumi, 2011)'
_computing_structure_solution    'SHELXS-97 (Sheldrick, 2008)'
_diffrn_ambient_temperature      293(2)
_diffrn_detector_area_resol_mean 8.333
_diffrn_measured_fraction_theta_full 0.998
_diffrn_measured_fraction_theta_max 1
_diffrn_measurement_device_type  'Bruker APEXII CCD area detector'
_diffrn_measurement_method       'omega scans'
_diffrn_radiation_monochromator  'Bruker Helios multilayer confocal mirror'
_diffrn_radiation_source         'Bruker TXS fine-focus rotating anode'
_diffrn_radiation_type           MoK\a
_diffrn_radiation_wavelength     0.71073
_diffrn_reflns_av_R_equivalents  0.0272
_diffrn_reflns_Laue_measured_fraction_full 0.998
_diffrn_reflns_Laue_measured_fraction_max 1
_diffrn_reflns_limit_h_max       19
_diffrn_reflns_limit_h_min       -13
_diffrn_reflns_limit_k_max       19
_diffrn_reflns_limit_k_min       -19
_diffrn_reflns_limit_l_max       6
_diffrn_reflns_limit_l_min       -7
_diffrn_reflns_number            7432
_diffrn_reflns_point_group_measured_fraction_full 0.992
_diffrn_reflns_point_group_measured_fraction_max 0.957
_diffrn_reflns_theta_full        25.242
_diffrn_reflns_theta_max         35.605
_diffrn_reflns_theta_min         1.933
_exptl_absorpt_coefficient_mu    7.408
_exptl_absorpt_correction_T_max  0.945
_exptl_absorpt_correction_T_min  0.943
_exptl_absorpt_correction_type   multi-scan
_exptl_absorpt_process_details
;
SADABS Sheldrick 2001
;
_exptl_crystal_colour            clear
_exptl_crystal_density_diffrn    3.968
_exptl_crystal_description       columnar
_exptl_crystal_F_000             691.3
_exptl_crystal_size_max          0.029
_exptl_crystal_size_mid          0.010
_exptl_crystal_size_min          0.008
_refine_diff_density_max         1.31
_refine_diff_density_min         -0.829
_refine_diff_density_rms         0.16
_refine_ls_abs_structure_details
;
 Flack x determined using 882 quotients [(I+)-(I-)]/[(I+)+(I-)]
 (Parsons and Flack (2004), Acta Cryst. A60, s61).
;
_refine_ls_abs_structure_Flack   -0.05(2)
_refine_ls_extinction_method     none
_refine_ls_goodness_of_fit_ref   1.044
_refine_ls_hydrogen_treatment    undef
_refine_ls_matrix_type           full
_refine_ls_number_parameters     111
_refine_ls_number_reflns         2011
_refine_ls_number_restraints     1
_refine_ls_restrained_S_all      1.044
_refine_ls_R_factor_all          0.0302
_refine_ls_R_factor_gt           0.0282
_refine_ls_shift/su_max          0.001
_refine_ls_shift/su_mean         0
_refine_ls_structure_factor_coef Fsqd
_refine_ls_weighting_details
;
 w=1/[\s^2^(Fo^2^)+(0.0320P)^2^+2.8759P]
 where P=(Fo^2^+2Fc^2^)/3
;
_refine_ls_weighting_scheme      calc
_refine_ls_wR_factor_ref         0.067
_reflns_number_gt                1938
_reflns_number_total             2011
_reflns_threshold_expression     'I > 2\s(I)'
_iucr_refine_instructions_details
;
TITL 149B_01_01_P3m1 in P3m1
CELL 0.71073  12.1680  12.1680   4.8290  90.000  90.000 120.000
ZERR    1.00   0.0006   0.0006   0.0003   0.000   0.000   0.000
LATT  -1
SYMM  - Y,   X - Y,   Z
SYMM  - X + Y, - X,   Z
SYMM  - X + Y,   Y,   Z
SYMM    X,   X - Y,   Z
SYMM  - Y, - X,   Z
SFAC  N    SI   La   LI   O    AL   Eu
UNIT  24   15    3    0    0    0    0
MERG   2
TWIN   -1.00 0.00 0.00 0.00 -1.00 0.00 0.00 0.00 1.00
EXYZ Si6 al6
EXYZ Si7 Al7
EADP Si6 Si7 Al6 Al7
EXYZ La1 Eu1
EADP La1 Eu1
EXYZ La2 Eu2
EADP La2 Eu2
EXYZ La3 Eu3 O10 N10
EADP La3 Eu3 O10 N10
EXYZ si1 al1
EADP si1 al1
EXYZ si2 al2
EADP si2 al2
EXYZ si3 al3
EADP si3 al3
EXYZ si4 al4
EADP si4 al4
EXYZ si5 al5
EADP si5 al5
EXYZ N1 O1
EADP N1 O1
EXYZ N2 O2
EADP N2 O2
EXYZ N3 O3
EADP N3 O3
EXYZ N4 O4
EADP N4 O4
EXYZ N5 O5
EADP N5 O5
EXYZ N6 O6
EADP N6 O6
EXYZ N7 O7
EADP N7 O7
EXYZ N8 O8
EADP N8 O8
EXYZ N9 O9
EADP N9 O9
REM SUMP 1.0 0.00001 1.0 2 1.0 3 1.0 4
FMAP   2
PLAN   25
ACTA
BOND
L.S.  50
WGHT    0.032000    2.875900
BASF   0.62275
FVAR       0.10333   0.13814   0.45798   0.40387   1.04566
LA1   3    0.551665    0.103329    0.322293    10.44258    0.00837    0.00950 =
         0.01790   -0.00246   -0.00123    0.00475
EU1   7    0.551665    0.103329    0.322293    10.05742    0.00837    0.00950 =
         0.01790   -0.00246   -0.00123    0.00475
LA2   3    1.000000    0.000000    0.615152    10.02266    0.00716    0.00716 =
         0.00961    0.00000    0.00000    0.00358
EU2   7    1.000000    0.000000    0.615152    10.00294    0.00716    0.00716 =
         0.00961    0.00000    0.00000    0.00358
LA3   3    1.000000    0.000000    0.761975    10.06564    0.03419    0.03419 =
         0.04957    0.00000    0.00000    0.01710
EU3   7    1.000000    0.000000    0.761975    10.00852    0.03419    0.03419 =
         0.04957    0.00000    0.00000    0.01710
LI1   4    0.333333    0.666667    0.876097    10.16667    0.00163
SI1   2    0.590387    0.922350    0.820310    10.77224    0.00495    0.00518 =
         0.00361    0.00024    0.00059    0.00219
AL1   6    0.590387    0.922350    0.820310    10.22776    0.00495    0.00518 =
         0.00361    0.00024    0.00059    0.00219
SI2   2    0.507754    0.753877    0.326343    10.38612    0.00870    0.00923 =
         0.00974    0.00044    0.00088    0.00435
AL2   6    0.507754    0.753877    0.326343    10.11388    0.00870    0.00923 =
         0.00974    0.00044    0.00088    0.00435
SI3   2    0.759246    0.001927    0.301478    10.77224    0.00515    0.00533 =
         0.00536    0.00025   -0.00002    0.00284
AL3   6    0.759246    0.001927    0.301478    10.22776    0.00515    0.00533 =
         0.00536    0.00025   -0.00002    0.00284
SI4   2    0.818437    0.181563    0.787529    10.38612    0.00458    0.00458 =
         0.00578    0.00029   -0.00029    0.00156
AL4   6    0.818437    0.181563    0.787529    10.11388    0.00458    0.00458 =
         0.00578    0.00029   -0.00029    0.00156
SI5   2    0.666667    0.333333    0.787444    10.12871    0.00698    0.00698 =
         0.00376    0.00000    0.00000    0.00349
AL5   6    0.666667    0.333333    0.787444    10.03796    0.00698    0.00698 =
         0.00376    0.00000    0.00000    0.00349
SI6   2    1.000000    0.000000    0.116232    10.05168    0.00942    0.00942 =
         0.00864    0.00000    0.00000    0.00471
AL6   6    1.000000    0.000000    0.116232    10.01524    0.00942    0.00942 =
         0.00864    0.00000    0.00000    0.00471
SI7   2    1.000000    0.000000    0.429560    10.05168    0.00942    0.00942 =
         0.00864    0.00000    0.00000    0.00471
AL7   6    1.000000    0.000000    0.429560    10.01524    0.00942    0.00942 =
         0.00864    0.00000    0.00000    0.00471
N1    1    0.863388    0.136612    0.488718    10.46394    0.01179    0.01179 =
         0.01448   -0.00330    0.00330    0.00127
O1    5    0.863388    0.136612    0.488718    10.03606    0.01179    0.01179 =
         0.01448   -0.00330    0.00330    0.00127
N2    1    0.610694    0.924544    0.464027    10.92788    0.00835    0.00901 =
         0.00560   -0.00100    0.00002    0.00350
O2    5    0.610694    0.924544    0.464027    10.07212    0.00835    0.00901 =
         0.00560   -0.00100    0.00002    0.00350
N3    1    0.840247    0.920123    0.267740    10.46394    0.00992    0.00848 =
         0.01720    0.00087    0.00175    0.00496
O3    5    0.840247    0.920123    0.267740    10.03606    0.00992    0.00848 =
         0.01720    0.00087    0.00175    0.00496
N4    1    0.333333    0.666667    0.386040    10.15465    0.01134    0.01134 =
         0.06997    0.00000    0.00000    0.00567
O4    5    0.333333    0.666667    0.386040    10.01202    0.01134    0.01134 =
         0.06997    0.00000    0.00000    0.00567
N5    1    0.552051    0.776026    0.955722    10.46394    0.02246    0.01290 =
         0.00966    0.00170    0.00339    0.01123
O5    5    0.552051    0.776026    0.955722    10.03606    0.02246    0.01290 =
         0.00966    0.00170    0.00339    0.01123
N6    1    0.482520    0.965041    0.889265    10.46394    0.00900    0.01550 =
         0.01521   -0.00370   -0.00185    0.00775
O6    5    0.482520    0.965041    0.889265    10.03606    0.00900    0.01550 =
         0.01521   -0.00370   -0.00185    0.00775
N7    1    0.724583    0.047421    0.984255    10.92788    0.01002    0.00756 =
         0.01038    0.00023   -0.00251   -0.00080
O7    5    0.724583    0.047421    0.984255    10.07212    0.01002    0.00756 =
         0.01038    0.00023   -0.00251   -0.00080
N8    1    0.666667    0.333333    0.133800    10.15465    0.01486    0.01486 =
         0.00138    0.00000    0.00000    0.00743
O8    5    0.666667    0.333333    0.133800    10.01202    0.01486    0.01486 =
         0.00138    0.00000    0.00000    0.00743
N9    1    0.742181    0.257819    0.662925    10.46394    0.01080    0.01080 =
         0.01600    0.00058   -0.00058    0.00546
O9    5    0.742181    0.257819    0.662925    10.03606    0.01080    0.01080 =
         0.01600    0.00058   -0.00058    0.00546
N10   1    1.000000    0.000000    0.761975    10.06209    0.03419    0.03419 =
         0.04957    0.00000    0.00000    0.01710
O10   5    1.000000    0.000000    0.761975    10.00483    0.03419    0.03419 =
         0.04957    0.00000    0.00000    0.01710
HKLF    4
 
REM  149B_01_01_P3m1 in P3m1
REM R1 =  0.0282 for    1938 Fo > 4sig(Fo)  and  0.0302 for all    2011 data
REM    111 parameters refined using      1 restraints
 
END
 
WGHT      0.0319      2.8670
 
REM Highest difference peak  1.310,  deepest hole -0.829,  1-sigma level  0.160
Q1    1   0.5116  0.1316  0.2816  11.00000  0.05    1.13
Q2    1   0.5186  0.0372  0.2855  10.50000  0.05    1.12
Q3    1   0.5584  0.0490  0.3470  11.00000  0.05    1.07
Q4    1   0.5556  0.1112  0.1790  10.50000  0.05    1.00
Q5    1   0.5833  0.1666  0.3676  10.50000  0.05    0.94
Q6    1   0.9968 -0.0602  0.8245  11.00000  0.05    0.92
Q7    1   0.7028  0.4056  0.8068  10.50000  0.05    0.85
Q8    1   0.6667  0.3333  0.5205  10.16667  0.05    0.78
Q9    1   0.5448  0.0896  0.5037  10.50000  0.05    0.76
Q10   1   0.6956  0.3911  0.6333  10.50000  0.05    0.74
Q11   1   0.7428  0.3714  0.7438  10.50000  0.05    0.74
Q12   1   0.8205  0.1795  0.9203  10.50000  0.05    0.72
Q13   1   0.8795  0.1205  0.7535  10.50000  0.05    0.67
Q14   1   0.5999  0.1997  0.1407  10.50000  0.05    0.64
Q15   1   0.5212  0.9031  0.8292  11.00000  0.05    0.61
Q16   1   1.0376  0.0752  0.6861  10.50000  0.05    0.59
Q17   1   0.5579  0.7789  0.4478  10.50000  0.05    0.59
Q18   1   0.8208  0.1792  1.0586  10.50000  0.05    0.55
Q19   1   0.5175  0.0350  0.4538  10.50000  0.05    0.54
Q20   1   0.8198  0.9099  0.4827  10.50000  0.05    0.54
Q21   1   0.8008  0.1001  1.0292  11.00000  0.05    0.54
Q22   1   0.7968 -0.0133  0.3378  11.00000  0.05    0.54
Q23   1   1.0000  0.0000  0.9256  10.16667  0.05    0.52
Q24   1   0.6397  0.0671  0.8351  11.00000  0.05    0.51
Q25   1   0.7624  0.8812  0.8145  10.50000  0.05    0.51
;
_cod_data_source_file            am9b09982_si_003.cif
_cod_data_source_block           149b_01_01_p3m1
_cod_original_cell_volume        619.19(7)
_cod_original_formula_sum
' Al4.51 Eu0.41 La3.19 Li N27.28 O2.12 Si15.29 '
_cod_database_code               4514467
_iucr_refine_reflections_details
;
  -1   1   0   25.76    0.64
   1   0   0   26.26    0.67
   0   1   0   26.65    0.63
   0   1   0   26.55    0.67
   1   1   0    1.55    0.16
   1   1   0    1.47    0.18
  -1   2   0    1.42    0.18
   2  -1   0    1.30    0.19
  -1   2   0    1.76    0.21
   2   0   0   69.14    1.71
  -2   2   0   69.17    1.64
   0   2   0   67.72    1.71
   0   2   0   70.77    1.63
   1   2   0   11.22    0.49
   1   2   0   11.53    0.43
   3  -1   0   10.79    0.53
  -2   3   0   10.69    0.55
  -2   3   0   11.32    0.47
   2   1   0   11.36    0.47
   2   1   0   10.89    0.42
   3  -2   0   11.22    0.55
  -1   3   0   12.06    0.46
  -1   3   0   11.15    0.48
   3   0   0  220.71    5.27
   3  -3   0  220.66    5.28
   0   3   0  222.45    5.01
   0   3   0  221.18    5.27
   1   3   0   79.02    1.88
   1   3   0   80.18    2.01
   4  -1   0   79.25    2.02
  -3   4   0   79.56    2.04
  -3   4   0   79.99    1.94
   2   2   0   25.26    0.72
   2   2   0   23.62    0.79
  -2   4   0   23.98    0.79
   3   1   0   81.80    2.03
   3   1   0   82.34    1.91
  -1   4   0   80.04    1.94
   4  -3   0   78.89    2.05
  -1   4   0   80.37    2.05
  -4   4   0  353.70    8.09
   4   0   0  356.22    8.47
   4  -4   0  358.79    8.49
   0   4   0  357.64    8.46
   0   4   0  359.65    8.06
   1   4   0   38.64    1.11
   1   4   0   40.28    1.05
  -4   5   0   37.29    1.20
  -4   5   0   39.53    1.10
   5  -1   0   39.41    1.16
   2   3   0   97.55    2.27
   2   3   0   93.81    2.40
   5  -2   0   95.56    2.42
  -3   5   0   97.36    2.33
  -3   5   0   94.83    2.44
   3   2   0   96.32    2.26
   3   2   0   95.21    2.39
  -2   5   0   95.26    2.30
   5  -3   0   93.21    2.42
  -2   5   0   96.10    2.41
   4   1   0   37.83    1.12
   4   1   0   38.62    1.04
  -1   5   0   39.39    1.09
  -1   5   0   39.04    1.13
   5  -4   0   40.84    1.19
  -5   5   0   41.74    1.16
   5   0   0   40.47    1.21
   5  -5   0   41.11    1.23
   0   5   0   41.15    1.17
   0   5   0   40.09    1.12
   1   5   0  144.56    3.33
   1   5   0  144.32    3.52
   6  -1   0  138.84    3.53
  -5   6   0  139.48    3.39
   2   4   0   42.74    1.17
   2   4   0   44.54    1.28
   6  -2   0   44.77    1.28
  -4   6   0   43.69    1.26
  -4   6   0   43.78    1.31
   3   3   0  313.36    7.37
   3   3   0  311.82    6.99
   6  -3   0  309.58    7.39
  -3   6   0  302.38    7.04
  -3   6   0  303.14    7.39
   4   2   0   43.11    1.28
   4   2   0   44.07    1.16
  -2   6   0   44.32    1.22
   6  -4   0   44.85    1.30
  -2   6   0   43.48    1.30
   5   1   0  140.57    3.28
   5   1   0  140.29    3.48
  -1   6   0  140.18    3.32
   6  -5   0  140.34    3.51
  -1   6   0  139.74    3.49
   6   0   0  124.89    3.15
   6  -6   0  123.15    3.17
   0   6   0  124.74    2.97
   0   6   0  125.33    3.14
   1   6   0    9.39    0.54
   1   6   0    9.18    0.56
   6  -7   0    9.12    0.69
   7  -1   0    8.60    0.58
  -6   7   0    9.08    0.61
   2   5   0    2.20    0.30
   2   5   0    2.33    0.35
  -5   7   0    2.27    0.38
   7  -2   0    1.98    0.35
  -5   7   0    2.79    0.41
   3   4   0    7.36    0.51
   3   4   0    7.53    0.47
   7  -3   0    6.35    0.47
  -4   7   0    6.04    0.49
  -4   7   0    6.80    0.47
   4   3   0    6.92    0.50
   4   3   0    6.87    0.55
   7  -4   0    7.18    0.56
  -3   7   0    7.43    0.52
  -3   7   0    6.77    0.50
   5   2   0    2.38    0.29
   5   2   0    1.90    0.33
  -2   7   0    2.52    0.38
   7  -5   0    2.00    0.36
  -2   7   0    1.93    0.35
   6   1   0    8.07    0.51
   6   1   0    8.72    0.62
  -1   7   0    9.20    0.62
  -1   7   0    8.89    0.58
   7  -6   0   10.55    0.69
   7   0   0   14.64    0.70
   0   7   0   14.13    0.68
   0   7   0   14.86    0.63
   7  -7   0   14.65    0.75
   1   7   0   60.05    1.61
   1   7   0   59.48    1.73
   7  -8   0   62.15    1.83
  -7   8   0   63.31    1.73
   8  -1   0   62.69    1.77
   2   6   0   34.14    1.05
   2   6   0   37.18    1.15
  -6   8   0   33.77    1.17
   8  -2   0   36.44    1.21
   3   5   0   82.70    2.00
   3   5   0   81.69    2.14
   8  -3   0   79.19    2.17
  -5   8   0   77.70    2.10
  -5   8   0   78.56    2.20
   4   4   0  330.25    7.96
   4   4   0  336.57    7.55
  -4   8   0  329.99    8.00
   8  -4   0  330.06    8.00
  -4   8   0  327.75    7.63
   5   3   0   76.03    2.13
   5   3   0   81.77    2.00
  -3   8   0   80.58    2.09
   8  -5   0   81.94    2.19
  -3   8   0   80.79    2.19
   6   2   0   34.58    1.15
   6   2   0   35.02    1.02
   8  -6   0   34.17    1.17
  -2   8   0   34.10    1.13
  -2   8   0   34.70    1.07
   7   1   0   62.26    1.59
   7   1   0   60.53    1.74
  -1   8   0   58.79    1.64
   8  -7   0   60.02    1.76
  -1   8   0   58.58    1.70
   8   0   0    0.54    0.35
   8   0   0    0.09    0.30
   0   8   0    0.55    0.36
   8  -8   0    0.28    0.39
   0   8   0    0.60    0.30
   1   8   0   34.58    1.10
   8  -9   0   33.24    1.25
   1   8   0   35.56    1.20
   9  -1   0   34.41    1.23
   7  -9   0   93.35    2.55
   2   7   0   93.49    2.34
   2   7   0   91.72    2.49
  -7   9   0   94.99    2.45
   9  -2   0   92.16    2.53
   3   6   0  160.03    4.01
   3   6   0  163.80    3.78
  -6   9   0  156.09    3.88
  -6   9   0  157.58    4.08
   9  -3   0  157.98    4.05
   4   5   0   19.84    0.86
   4   5   0   19.77    0.74
  -5   9   0   19.21    0.83
   9  -4   0   18.88    0.85
  -5   9   0   18.29    0.87
   5   4   0   19.52    0.74
   5   4   0   19.14    0.86
  -4   9   0   19.44    0.88
   9  -5   0   19.51    0.91
  -4   9   0   19.92    0.87
   6   3   0  164.74    3.76
   6   3   0  155.83    3.99
  -3   9   0  156.90    3.84
  -3   9   0  158.94    4.01
   9  -6   0  155.60    4.03
   7   2   0   92.30    2.45
   7   2   0   94.26    2.26
   9  -7   0   87.69    2.48
  -2   9   0   87.31    2.43
  -2   9   0   89.95    2.33
   8   1   0   34.63    1.07
   8   1   0   33.70    1.21
  -1   9   0   35.04    1.13
  -1   9   0   33.29    1.16
   9  -8   0   35.95    1.25
   9   0   0  146.94    3.82
   9   0   0  149.54    3.58
   0   9   0  143.62    3.79
   0   9   0  148.68    3.60
   9  -9   0  151.30    3.88
   9 -10   0   18.70    0.95
   1   9   0   17.84    0.80
   1   9   0   16.57    0.87
  10  -1   0   16.71    0.87
   2   8   0    4.81    0.52
   8 -10   0    4.75    0.60
   2   8   0    4.48    0.45
  -8  10   0    5.22    0.57
  10  -2   0    4.59    0.52
   3   7   0   15.45    0.71
   3   7   0   14.58    0.82
  -7  10   0   15.57    0.81
  10  -3   0   15.23    0.86
   4   6   0   24.94    0.87
   4   6   0   23.96    0.96
  -6  10   0   26.08    1.00
  -6  10   0   25.03    1.13
  10  -4   0   24.60    1.01
   5   5   0   35.25    1.06
   5   5   0   33.55    1.16
  -5  10   0   34.05    1.21
  10  -5   0   34.22    1.27
  -5  10   0   34.54    1.24
   6   4   0   25.53    0.88
   6   4   0   23.84    0.98
  -4  10   0   23.03    0.97
  -4  10   0   23.52    1.00
  10  -6   0   24.06    1.01
   7   3   0   15.13    0.70
   7   3   0   13.07    0.74
  10  -7   0   14.75    0.82
  -3  10   0   14.72    0.79
  -3  10   0   14.62    0.77
   8   2   0    4.54    0.50
   8   2   0    4.77    0.43
  10  -8   0    3.99    0.53
  -2  10   0    4.73    0.54
  -2  10   0    4.23    0.47
   9   1   0   16.85    0.89
   9   1   0   16.81    0.76
  10  -9   0   17.61    0.92
  -1  10   0   17.77    0.85
  -1  10   0   18.30    0.84
  10   0   0    9.89    0.78
  10   0   0    9.38    0.66
   0  10   0    9.92    0.69
   0  10   0    8.75    0.69
  10 -10   0    9.77    0.78
  10 -11   0    3.62    0.58
   1  10   0    4.63    0.49
   1  10   0    4.08    0.52
  11  -1   0    4.52    0.49
  11  -1   0    4.85    0.58
   2   9   0   38.05    1.22
   9 -11   0   39.93    1.47
   2   9   0   37.61    1.34
  11  -2   0   37.78    1.39
   3   8   0   52.37    1.53
   8 -11   0   55.59    1.77
   3   8   0   53.15    1.64
  11  -3   0   53.16    1.72
  -8  11   0   52.74    1.66
   4   7   0   19.79    0.93
   4   7   0   21.06    0.81
  11  -4   0   19.61    0.95
  -7  11   0   19.46    1.01
  -7  11   0   19.09    0.92
   5   6   0   49.77    1.38
   5   6   0   47.05    1.53
  11  -5   0   48.19    1.60
  -6  11   0   47.99    1.64
  -6  11   0   46.94    1.53
   6   5   0   48.10    1.51
   6   5   0   49.78    1.39
  -5  11   0   48.27    1.59
  11  -6   0   48.36    1.59
  -5  11   0   47.61    1.50
   7   4   0   18.88    0.88
   7   4   0   20.96    0.82
  11  -7   0   19.42    0.99
  -4  11   0   18.80    0.87
  -4  11   0   19.83    0.99
   8   3   0   51.30    1.65
   8   3   0   53.65    1.50
  -3  11   0   53.53    1.68
  11  -8   0   53.28    1.70
  -3  11   0   53.01    1.59
   9   2   0   37.64    1.19
   9   2   0   34.61    1.28
  11  -9   0   36.75    1.37
  -2  11   0   37.83    1.35
  -2  11   0   37.26    1.23
  10   1   0    5.36    0.49
  10   1   0    4.98    0.56
  11 -10   0    4.48    0.63
  -1  11   0    4.05    0.55
  -1  11   0    4.17    0.51
  11   0   0   48.52    1.47
  11   0   0   45.09    1.58
  11 -11   0   49.08    1.67
   0  11   0   47.94    1.46
   0  11   0   47.20    1.58
  11 -12   0   40.19    1.53
   1  11   0   43.24    1.49
   1  11   0   40.68    1.35
  12  -1   0   40.23    1.51
  12  -1   0   41.65    1.35
  10 -12   0    4.71    0.63
   2  10   0    4.48    0.50
   2  10   0    5.50    0.62
  12  -2   0    4.50    0.62
   3   9   0   32.66    1.27
   9 -12   0   33.45    1.34
   3   9   0   34.20    1.14
  12  -3   0   32.35    1.33
   4   8   0   75.63    2.20
   4   8   0   76.92    2.02
   8 -12   0   73.29    2.29
  -8  12   0   75.68    2.17
  12  -4   0   74.81    2.26
   5   7   0   11.29    0.77
   5   7   0   10.44    0.68
  12  -5   0    9.68    0.77
  -7  12   0   10.33    0.77
  -7  12   0   11.42    0.84
   6   6   0   54.76    1.55
   6   6   0   54.04    1.68
  -6  12   0   54.39    1.68
  12  -6   0   53.30    1.76
  -6  12   0   53.61    1.80
   7   5   0   11.30    0.65
   7   5   0   10.95    0.77
  -5  12   0   10.11    0.78
  12  -7   0   10.98    0.81
  -5  12   0    9.26    0.70
   8   4   0   73.39    2.15
   8   4   0   77.02    1.99
  -4  12   0   71.01    2.06
  -4  12   0   74.31    2.19
  12  -8   0   74.13    2.22
   9   3   0   29.91    1.22
   9   3   0   32.94    1.09
  -3  12   0   30.56    1.19
  12  -9   0   34.52    1.30
  -3  12   0   31.24    1.26
  10   2   0    5.36    0.50
  10   2   0    3.73    0.56
  -2  12   0    4.41    0.55
  -2  12   0    3.74    0.58
  12 -10   0    4.76    0.65
  11   1   0   39.46    1.48
  11   1   0   40.82    1.30
  -1  12   0   42.96    1.36
  12 -11   0   40.46    1.53
  -1  12   0   39.58    1.47
  12   0   0   88.58    2.51
  12   0   0   86.69    2.28
   0  12   0   82.87    2.47
   0  12   0   79.28    2.28
  12 -12   0   80.11    2.55
  12 -13   0   15.36    1.00
   1  12   0   15.02    0.86
   1  12   0   15.30    0.96
  13  -1   0   14.69    1.00
  13  -1   0   16.00    0.91
   2  11   0    8.92    0.72
  11 -13   0    8.51    0.79
   2  11   0    9.72    0.77
  13  -2   0    9.85    0.79
  13  -2   0    9.20    0.67
   3  10   0   29.32    1.06
   3  10   0   28.30    1.15
  10 -13   0   27.50    1.29
  13  -3   0   25.53    1.18
   4   9   0   14.16    0.79
   4   9   0   11.82    0.80
   9 -13   0   11.75    0.97
  13  -4   0   14.22    0.94
  -9  13   0   13.31    0.87
   5   8   0   12.27    0.72
   5   8   0   13.49    0.86
  -8  13   0   12.23    0.90
  13  -5   0   12.74    0.92
   6   7   0   15.86    0.91
   6   7   0   15.93    0.80
  -7  13   0   16.44    0.98
  13  -6   0   16.74    0.95
  -7  13   0   15.84    0.90
   7   6   0   17.21    0.78
   7   6   0   16.75    0.93
  -6  13   0   16.11    0.88
  -6  13   0   15.27    1.01
  13  -7   0   17.16    1.00
   8   5   0   12.20    0.70
   8   5   0   12.15    0.78
  13  -8   0   12.80    0.88
  -5  13   0   11.95    0.85
  -5  13   0   12.44    0.86
   9   4   0   14.42    0.74
   9   4   0   13.13    0.82
  -4  13   0   12.85    0.86
  -4  13   0   12.71    0.85
  13  -9   0   13.81    0.91
  10   3   0   25.14    1.14
  10   3   0   28.28    1.02
  13 -10   0   25.83    1.19
  -3  13   0   27.17    1.20
  -3  13   0   25.61    1.10
  11   2   0   10.13    0.84
  11   2   0   10.20    0.75
  -2  13   0    9.70    0.78
  -2  13   0    9.25    0.76
  13 -11   0    8.35    0.81
  12   1   0   15.64    0.94
  12   1   0   17.09    0.85
  -1  13   0   14.80    0.98
  13 -12   0   15.52    1.07
  -1  13   0   15.81    0.91
  13   0   0   19.38    0.97
  13   0   0   18.52    1.03
  13 -13   0   18.77    1.10
   0  13   0   18.01    1.06
   0  13   0   18.10    0.96
  13 -14   0    3.30    0.67
   1  13   0    3.62    0.57
   1  13   0    2.66    0.62
  14  -1   0    2.87    0.55
  14  -1   0    1.96    0.58
  12 -14   0   37.16    1.52
   2  12   0   38.14    1.35
   2  12   0   37.69    1.48
  14  -2   0   37.62    1.35
  14  -2   0   37.30    1.48
  11 -14   0   27.80    1.35
   3  11   0   28.29    1.25
   3  11   0   27.87    1.10
  14  -3   0   27.70    1.25
   4  10   0    1.72    0.44
   4  10   0    2.17    0.55
  10 -14   0    1.59    0.61
  14  -4   0    1.68    0.60
   9 -14   0   15.10    1.04
   5   9   0   16.55    0.82
   5   9   0   16.99    0.98
  14  -5   0   15.65    0.95
  -9  14   0   13.90    0.93
   6   8   0   38.40    1.27
   6   8   0   38.13    1.42
  14  -6   0   36.88    1.49
  -8  14   0   35.44    1.38
   7   7   0    0.74    0.45
   7   7   0    1.24    0.42
  -7  14   0    1.51    0.55
  14  -7   0    0.70    0.51
  -7  14   0    0.90    0.54
   8   6   0   39.11    1.23
   8   6   0   35.68    1.38
  -6  14   0   35.75    1.48
  -6  14   0   34.65    1.34
  14  -8   0   38.22    1.48
   9   5   0   16.26    0.83
   9   5   0   16.02    0.94
  -5  14   0   15.56    0.96
  14  -9   0   14.67    0.96
  -5  14   0   15.96    0.95
  10   4   0    2.28    0.56
  14 -10   0    2.57    0.61
  -4  14   0    1.67    0.52
  -4  14   0    1.03    0.55
  11   3   0   24.97    1.12
  -3  14   0   25.56    1.21
  -3  14   0   24.38    1.11
  14 -11   0   24.90    1.21
  12   2   0   34.69    1.42
  -2  14   0   36.88    1.44
  -2  14   0   33.97    1.32
  14 -12   0   35.93    1.52
  13   1   0    2.52    0.62
  14 -13   0    3.34    0.71
  -1  14   0    3.16    0.63
  -1  14   0    3.02    0.57
  14   0   0   13.82    1.04
   0  14   0   16.02    1.05
  14 -14   0   15.29    1.06
   0  14   0   13.12    0.90
   1  14   0   13.94    0.92
  14 -15   0   17.88    1.19
   1  14   0   13.90    1.04
  15  -1   0   15.07    1.03
   2  13   0    4.74    0.69
  13 -15   0    4.46    0.79
  15  -2   0    4.58    0.75
  12 -15   0   65.78    2.25
   3  12   0   72.11    2.21
  15  -3   0   67.29    2.21
  15  -3   0   67.48    2.03
   4  11   0   28.78    1.27
  11 -15   0   26.26    1.30
  15  -4   0   26.94    1.28
   5  10   0    5.57    0.69
  10 -15   0    4.83    0.74
  15  -5   0    5.93    0.73
   6   9   0   23.26    1.10
   9 -15   0   25.18    1.19
  15  -6   0   21.44    1.14
  -9  15   0   22.65    1.17
   7   8   0   28.70    1.26
  15  -7   0   28.23    1.34
  -8  15   0   29.33    1.29
   8   7   0   29.62    1.28
  -7  15   0   28.07    1.27
  -7  15   0   29.66    1.33
  15  -8   0   30.37    1.37
   9   6   0   21.32    1.10
  -6  15   0   21.74    1.10
  15  -9   0   20.81    1.11
  -6  15   0   20.28    1.12
  10   5   0    5.31    0.66
  15 -10   0    4.53    0.69
  -5  15   0    5.10    0.67
  -5  15   0    5.50    0.73
  11   4   0   24.97    1.22
  -4  15   0   26.75    1.20
  -4  15   0   27.65    1.25
  15 -11   0   27.26    1.33
  12   3   0   65.51    2.10
  15 -12   0   65.30    2.20
  -3  15   0   64.49    2.02
  -3  15   0   65.24    2.15
  13   2   0    5.32    0.71
  -2  15   0    4.28    0.63
  -2  15   0    5.04    0.72
  15 -13   0    5.45    0.77
  14   1   0   12.83    1.04
  15 -14   0   16.52    1.17
  -1  15   0   14.41    0.94
  -1  15   0   14.89    1.05
  15   0   0   22.28    1.25
   0  15   0   20.62    1.21
  15 -15   0   22.42    1.33
   1  15   0    3.67    0.75
  15 -16   0    4.50    0.84
  16  -1   0    3.69    0.76
   2  14   0   10.22    0.92
  14 -16   0    9.87    0.96
  16  -2   0    9.03    0.89
   3  13   0    1.64    0.62
  13 -16   0    0.72    0.63
  16  -3   0    1.38    0.65
  12 -16   0    1.36    0.64
   4  12   0    1.17    0.60
  16  -4   0    1.01    0.53
  16  -4   0    0.58    0.62
   5  11   0   14.15    1.01
  11 -16   0   16.25    1.08
  16  -5   0   14.71    1.10
   6  10   0    1.04    0.57
  10 -16   0    1.40    0.62
  16  -6   0    1.41    0.63
   7   9   0    2.82    0.62
   9 -16   0    2.71    0.64
  16  -7   0    2.29    0.62
  -9  16   0    2.65    0.62
   8   8   0  104.76    2.99
  -8  16   0   99.51    2.92
  16  -8   0  105.28    3.11
   9   7   0    1.96    0.58
  16  -9   0    1.81    0.63
  -7  16   0    2.39    0.69
  -7  16   0    2.60    0.60
  10   6   0    1.14    0.56
  -6  16   0    1.29    0.64
  -6  16   0    0.91    0.53
  16 -10   0    0.99    0.58
  11   5   0   13.54    0.98
  -5  16   0   12.84    1.04
  -5  16   0   13.74    0.97
  16 -11   0   13.69    1.01
  12   4   0    0.87    0.57
  -4  16   0    2.10    0.66
  16 -12   0    1.44    0.63
  -4  16   0    1.00    0.57
  13   3   0    1.93    0.60
  16 -13   0    1.90    0.67
  -3  16   0    2.63    0.61
  -3  16   0    1.62    0.65
  14   2   0    9.46    0.86
  -2  16   0    8.80    0.88
  16 -14   0    8.13    0.95
  -2  16   0    7.77    0.78
  15   1   0    4.10    0.76
  16 -15   0    3.66    0.84
  -1  16   0    5.08    0.79
  16   0   0   10.39    0.96
  16 -16   0   10.51    1.04
   0  16   0    8.50    0.90
  16 -17   0   11.53    1.12
   1  16   0   11.73    1.02
  17  -1   0   11.62    1.05
  15 -17   0    7.28    0.96
   2  15   0    9.35    0.91
  17  -2   0    7.71    0.93
  14 -17   0   26.58    1.48
   3  14   0   28.01    1.40
  17  -3   0   25.82    1.36
  13 -17   0    0.34    0.62
   4  13   0    0.31    0.64
  17  -4   0    0.08    0.66
  12 -17   0   39.46    1.73
   5  12   0   41.36    1.64
  17  -5   0   39.90    1.71
  17  -5   0   40.03    1.53
  11 -17   0    5.89    0.81
   6  11   0    5.57    0.74
  17  -6   0    6.94    0.83
  10 -17   0   -0.44    0.63
   7  10   0    0.47    0.57
  17  -7   0    0.41    0.65
   9 -17   0   22.41    1.20
   8   9   0   20.30    1.17
  17  -8   0   22.08    1.22
  -9  17   0   21.62    1.15
   9   8   0   20.45    1.16
  -8  17   0   21.26    1.20
  17  -9   0   21.96    1.29
  10   7   0   -0.04    0.54
  17 -10   0    0.43    0.61
  -7  17   0    0.13    0.63
  -7  17   0   -0.29    0.51
  11   6   0    6.48    0.75
  17 -11   0    5.87    0.80
  -6  17   0    6.09    0.85
  -6  17   0    6.56    0.77
  12   5   0   39.35    1.61
  17 -12   0   39.10    1.66
  -5  17   0   38.86    1.56
  -5  17   0   42.55    1.69
  13   4   0    0.43    0.58
  17 -13   0    0.10    0.63
  -4  17   0    0.22    0.62
  -4  17   0    0.31    0.56
  14   3   0   27.09    1.39
  17 -14   0   27.28    1.49
  -3  17   0   28.47    1.30
  -3  17   0   27.86    1.43
  15   2   0    8.43    0.91
  -2  17   0    8.45    0.92
  17 -15   0    7.26    0.95
  16   1   0    9.41    0.95
  17 -16   0   12.39    1.11
  -1  17   0   10.89    1.00
  17   0   0   22.51    1.38
  17 -17   0   24.96    1.43
  16 -18   0    1.60    0.80
  18  -2   0    2.20    0.78
  15 -18   0   10.76    1.10
   3  15   0   12.28    1.04
  18  -3   0   13.02    1.10
  14 -18   0    5.46    0.84
   4  14   0    5.12    0.79
  18  -4   0    4.53    0.85
   5  13   0    4.01    0.75
  13 -18   0    4.10    0.79
  18  -5   0    3.67    0.81
   6  12   0   18.41    1.18
  12 -18   0   17.54    1.26
  18  -6   0   16.00    1.15
   7  11   0    3.84    0.72
  11 -18   0    4.24    0.83
  18  -7   0    4.63    0.83
   8  10   0   11.21    0.94
  10 -18   0    8.81    0.97
  18  -8   0   10.50    1.00
   9 -18   0   50.95    1.97
   9   9   0   52.86    1.91
  18  -9   0   52.00    1.98
  10   8   0   10.08    0.90
  18 -10   0   11.87    1.07
  -8  18   0    9.27    0.92
  11   7   0    3.96    0.73
  -7  18   0    4.65    0.84
  18 -11   0    5.56    0.87
  -7  18   0    3.15    0.70
  12   6   0   15.46    1.04
  18 -12   0   16.62    1.17
  -6  18   0   17.31    1.10
  -6  18   0   14.99    1.22
  13   5   0    4.13    0.74
  -5  18   0    3.95    0.80
  -5  18   0    3.76    0.71
  18 -13   0    3.11    0.80
  14   4   0    4.99    0.78
  -4  18   0    3.71    0.72
  18 -14   0    5.07    0.87
  -4  18   0    5.46    0.85
  15   3   0   11.89    1.01
  -3  18   0   12.11    1.07
  18 -15   0   11.61    1.11
  16   2   0    1.09    0.71
  18 -16   0    1.28    0.81
  -2  18   0    1.03    0.76
  14 -19   0    5.97    0.93
  19  -5   0    6.64    0.95
  13 -19   0    2.49    0.80
  19  -6   0    5.44    0.90
   7  12   0    0.02    0.65
  12 -19   0    0.11    0.73
  19  -7   0    0.26    0.72
  11 -19   0    4.56    0.83
   8  11   0    3.63    0.78
  19  -8   0    4.95    0.84
   9  10   0    1.27    0.68
  10 -19   0    2.07    0.76
  19  -9   0    2.56    0.81
  10   9   0    2.54    0.71
   9 -19   0    1.29    0.68
  19 -10   0    2.40    0.75
  11   8   0    5.59    0.80
  -8  19   0    3.46    0.75
  19 -11   0    4.68    0.87
  12   7   0    0.83    0.63
  19 -12   0    0.59    0.75
  -7  19   0    0.57    0.65
  -7  19   0    0.28    0.71
  13   6   0    3.57    0.76
  -6  19   0    3.42    0.72
  19 -13   0    3.41    0.84
  -6  19   0    4.40    0.87
  14   5   0    6.68    0.87
  -5  19   0    4.42    0.89
  19 -14   0    7.50    0.99
  -5  19   0    6.94    0.83
   0   0  -1  151.48    3.47
   0   0   1  152.13    3.61
  -1   0  -1   24.24    0.61
   0   1  -1   24.89    0.69
   1   0   1   24.59    0.70
  -1   1   1   24.85    0.70
   1   0  -1   18.35    0.58
  -1   1  -1   18.14    0.52
  -1   1  -1   17.70    0.60
   1  -1   1   17.23    0.51
   0   1   1   16.77    0.56
  -1   0   1   16.93    0.49
  -1  -1  -1    2.67    0.28
  -1   2  -1    3.15    0.26
  -2   1   1    3.93    0.25
   1  -2   1    4.08    0.26
   1   1   1    3.90    0.27
   3  -2  -1  195.24    4.76
  -1   3  -1  198.86    4.71
  -2  -1  -1  200.01    4.83
  -1   3  -1  194.09    4.55
   2   1   1  206.86    4.78
   0   2  -1   22.94    0.61
   0   2  -1   22.48    0.69
  -2   0  -1   22.28    0.58
   2   0   1   23.73    0.72
  -2   2   1   25.03    0.75
   1   1  -1    3.24    0.26
  -2   1  -1    3.30    0.30
   1   1  -1    2.96    0.20
  -2   1  -1    3.18    0.21
  -1   2   1    4.02    0.29
   2  -1   1    4.46    0.36
   2   0  -1   27.94    0.75
  -2   2  -1   27.33    0.76
  -2   2  -1   28.04    0.82
   0  -2  -1   27.56    0.83
   2   0  -1   27.13    0.80
   0   2   1   29.83    0.85
   2  -2   1   27.87    0.78
  -2   3  -1  220.75    5.36
  -1  -2  -1  224.87    5.39
  -2   3  -1  219.44    5.09
   3  -1  -1  223.57    5.31
   2  -3   1  228.44    5.30
   1   2   1  220.00    5.00
   1   2   1  227.36    5.35
  -2   4  -1   37.67    1.04
  -2   4  -1   37.04    1.02
  -2  -2  -1   37.67    1.11
   4  -2  -1   36.64    1.07
  -2   4  -1   36.73    1.01
   2   2   1   36.86    1.08
   2   2   1   35.85    0.87
  -3  -2  -1  103.80    2.72
  -2   5  -1  106.81    2.57
  -2   5  -1  105.47    2.65
   5  -3  -1  106.33    2.70
   3   2   1  108.64    2.71
   3   2   1  109.57    2.43
   4  -3  -1   60.32    1.63
  -3  -1  -1   61.06    1.65
  -1   4  -1   60.11    1.55
  -1   4  -1   61.03    1.55
   3   1   1   63.81    1.42
  -3   0  -1  354.81    8.55
   0   3  -1  359.77    8.38
   0   3  -1  356.66    8.07
   3   0   1  356.37    8.45
  -3   3   1  356.23    8.46
  -3   1  -1  201.86    4.90
   1   2  -1  205.97    4.63
   1   2  -1  200.00    4.76
  -3   1  -1  199.38    4.56
   3  -1   1  198.69    4.83
  -2   3   1  206.78    4.85
  -3   2  -1  223.16    5.40
   2   1  -1  224.41    5.28
   2   1  -1  224.34    5.11
  -3   2  -1  224.79    5.08
   1  -3  -1  220.46    5.35
   3  -2   1  225.68    5.33
  -1   3   1  223.91    5.36
  -3   3  -1  361.31    8.12
   3   0  -1  365.75    8.15
   3   0  -1  356.20    8.47
  -3   3  -1  364.28    8.58
   0  -3  -1  364.82    8.57
   0   3   1  350.23    8.06
   3  -3   1  362.42    8.50
   0   3   1  353.32    8.53
  -1  -3  -1   89.19    2.31
  -3   4  -1   90.81    2.22
   4  -1  -1   90.19    2.29
  -3   4  -1   91.00    2.29
   1   3   1   95.17    2.12
   1   3   1   93.31    2.33
   3  -4   1   94.06    2.30
  -2  -3  -1   67.81    1.83
  -3   5  -1   67.69    1.77
  -3   5  -1   70.39    1.76
   5  -2  -1   67.99    1.81
   2   3   1   71.92    1.85
   2   3   1   70.40    1.61
   3  -5   1   67.89    1.79
  -3   6  -1  103.04    2.45
  -3   6  -1   96.27    2.45
   6  -3  -1  100.51    2.56
  -3   6  -1   97.98    2.53
   3   3   1  100.61    2.30
   3   3   1   99.45    2.57
  -3   7  -1   31.09    0.99
  -3   7  -1   30.74    1.02
  -3   7  -1   30.97    0.84
   7  -4  -1   30.16    1.05
   4   3   1   28.88    0.80
   4   3   1   28.29    1.05
  -2   6  -1   86.20    2.19
   6  -4  -1   84.14    2.28
  -2   6  -1   89.21    2.23
   4   2   1   91.96    2.04
   4   2   1   85.38    2.28
  -1   5  -1    4.64    0.38
  -4  -1  -1    4.48    0.41
  -1   5  -1    5.48    0.40
   5  -4  -1    4.49    0.39
   4   1   1    4.82    0.28
   4   1   1    4.33    0.39
   0   4  -1   63.14    1.57
   0   4  -1   62.15    1.54
  -4   0  -1   61.32    1.66
  -4   4   1   58.90    1.67
   4   0   1   56.84    1.62
   1   3  -1   60.81    1.55
   1   3  -1   60.32    1.57
  -4   1  -1   62.19    1.68
  -3   4   1   65.18    1.68
   4  -1   1   62.97    1.64
  -4   2  -1   36.38    1.12
   2   2  -1   36.56    1.05
   2   2  -1   38.97    0.99
  -4   2  -1   37.76    0.97
   4  -2   1   35.29    1.06
  -2   4   1   36.89    1.11
   3   1  -1   90.35    2.19
  -4   3  -1   91.94    2.18
  -4   3  -1   91.75    2.31
   1  -4  -1   88.84    2.24
   3   1  -1   89.66    2.22
  -1   4   1   90.76    2.31
   4  -3   1   91.63    2.29
  -1   4   1   90.84    2.14
  -4   4  -1   38.73    1.10
   0  -4  -1   40.28    1.08
  -4   4  -1   39.57    1.11
   4   0  -1   39.09    1.09
   4   0  -1   38.33    1.09
   0   4   1   38.27    1.00
   4  -4   1   38.46    1.12
  -4   5  -1    6.97    0.50
  -1  -4  -1    6.92    0.46
  -4   5  -1    7.58    0.45
   5  -1  -1    7.36    0.50
   1   4   1    7.01    0.51
   4  -5   1    7.70    0.47
   1   4   1    7.32    0.37
   6  -2  -1   79.55    2.11
  -4   6  -1   79.59    2.06
  -4   6  -1   83.81    2.05
   2   4   1   80.60    1.92
   2   4   1   82.81    2.16
   4  -6   1   82.45    2.13
  -4   7  -1   30.80    1.04
  -4   7  -1   32.10    0.87
  -4   7  -1   31.35    1.01
   7  -3  -1   32.70    1.03
   3   4   1   29.16    0.83
   3   4   1   30.31    1.05
   8  -4  -1    5.78    0.51
  -4   8  -1    6.44    0.52
  -4   8  -1    5.79    0.35
  -4   8  -1    5.66    0.49
   4   4   1    7.41    0.38
   4   4   1    5.88    0.50
  -4   9  -1   59.58    1.43
  -4   9  -1   55.29    1.65
   9  -5  -1   58.47    1.72
  -4   9  -1   59.91    1.71
   5   4   1   58.59    1.46
   5   4   1   55.63    1.71
  -3   8  -1   92.19    2.37
   8  -5  -1   85.86    2.39
  -3   8  -1   89.38    2.31
  -3   8  -1   90.61    2.20
   5   3   1   85.37    2.39
   5   3   1   92.68    2.12
   7  -5  -1   14.72    0.73
  -2   7  -1   15.51    0.70
  -2   7  -1   14.92    0.68
   5   2   1   14.00    0.70
   5   2   1   15.51    0.51
  -1   6  -1   25.50    0.86
  -1   6  -1   27.15    0.84
   6  -5  -1   25.43    0.93
   5   1   1   23.36    0.92
   5   1   1   25.17    0.71
   0   5  -1   35.39    1.04
   0   5  -1   34.96    1.01
   5   0   1   35.12    1.09
  -5   5   1   35.77    1.17
   1   4  -1    4.60    0.37
  -5   1  -1    5.07    0.42
   1   4  -1    5.11    0.39
  -4   5   1    5.07    0.42
   5  -1   1    3.91    0.38
  -5   2  -1  107.04    2.77
   2   3  -1  111.10    2.62
   2   3  -1  108.16    2.65
   5  -2   1  108.17    2.74
  -3   5   1  108.79    2.75
   2  -5  -1   69.74    1.74
  -5   3  -1   70.38    1.86
   3   2  -1   70.11    1.76
  -5   3  -1   70.11    1.73
   3   2  -1   69.01    1.76
  -2   5   1   70.86    1.88
  -2   5   1   68.60    1.73
   5  -3   1   69.64    1.83
   4   1  -1    5.95    0.47
   4   1  -1    6.73    0.43
   1  -5  -1    6.21    0.38
  -5   4  -1    7.84    0.51
  -5   4  -1    7.46    0.52
  -1   5   1    6.37    0.52
   5  -4   1    7.30    0.54
  -1   5   1    6.77    0.43
  -5   5  -1   36.43    1.07
   5   0  -1   35.23    1.09
  -5   5  -1   35.39    1.05
   5   0  -1   35.68    1.06
   0  -5  -1   35.14    1.02
   0   5   1   37.78    0.98
   0   5   1   37.05    1.15
   5  -5   1   37.65    1.12
   6  -1  -1   32.24    0.96
  -5   6  -1   32.16    0.99
  -5   6  -1   32.52    0.91
   1   5   1   29.13    0.84
   1   5   1   28.07    1.00
   5  -6   1   28.63    1.00
   7  -2  -1   13.80    0.64
  -5   7  -1   14.02    0.54
  -5   7  -1   14.49    0.73
   5  -7   1   12.79    0.70
   2   5   1   13.63    0.52
   2   5   1   13.67    0.73
  -5   8  -1   82.39    2.20
  -5   8  -1   82.90    2.09
   8  -3  -1   84.26    2.27
   5  -8   1   85.72    2.27
   3   5   1   86.39    2.03
   3   5   1   85.20    2.30
   9  -4  -1   62.17    1.80
  -5   9  -1   60.49    1.82
  -5   9  -1   60.88    1.75
   4   5   1   64.15    1.85
   4   5   1   64.87    1.57
  -5  10  -1    1.70    0.44
  10  -5  -1    2.22    0.46
  -5  10  -1    2.14    0.47
   5   5   1    2.20    0.28
   5   5   1    1.82    0.43
  -5  11  -1   60.80    1.88
  -5  11  -1   63.80    1.86
  11  -6  -1   63.96    1.92
   6   5   1   61.56    1.91
   6   5   1   62.03    1.59
  -4  10  -1    2.91    0.46
  10  -6  -1    2.76    0.49
  -4  10  -1    2.22    0.43
   6   4   1    1.87    0.45
   6   4   1    2.55    0.30
  -3   9  -1   68.88    1.66
  -3   9  -1   65.08    1.85
   9  -6  -1   67.52    1.96
  -3   9  -1   64.27    1.87
   6   3   1   64.37    1.93
   6   3   1   70.11    1.67
  -2   8  -1   84.81    2.25
  -2   8  -1   83.75    2.20
   8  -6  -1   84.11    2.32
   6   2   1   88.64    2.05
   6   2   1   83.93    2.32
  -1   7  -1   75.69    1.98
   7  -6  -1   75.88    2.08
  -1   7  -1   74.76    1.95
   6   1   1   72.71    2.04
   6   1   1   75.47    1.81
   0   6  -1  198.74    4.75
   6  -6  -1  191.07    4.85
   0   6  -1  199.42    4.61
   6   0   1  194.93    4.83
   1   5  -1   25.11    0.82
   1   5  -1   26.44    0.89
   6  -1   1   24.84    0.93
  -5   6   1   25.79    0.97
   2   4  -1   88.89    2.19
   2   4  -1   87.89    2.21
   6  -2   1   88.05    2.30
  -4   6   1   88.10    2.34
   3  -6  -1   98.37    2.46
   3   3  -1  102.82    2.52
   3   3  -1   99.20    2.48
  -3   6   1  100.68    2.46
  -3   6   1  102.45    2.62
   6  -3   1  103.52    2.61
  -6   4  -1   80.60    2.16
  -6   4  -1   82.91    2.03
   2  -6  -1   81.08    2.01
   4   2  -1   80.42    2.05
   4   2  -1   81.71    2.07
  -2   6   1   81.25    2.18
   6  -4   1   81.01    2.14
  -2   6   1   82.38    2.02
  -6   5  -1   33.86    0.97
   1  -6  -1   31.39    0.86
   5   1  -1   31.33    0.94
  -6   5  -1   30.59    0.98
   5   1  -1   30.66    0.95
  -1   6   1   28.14    1.04
  -1   6   1   28.91    0.90
   6  -5   1   27.68    0.98
   6   0  -1  206.42    4.80
  -6   6  -1  207.80    4.99
  -6   6  -1  208.97    4.82
   6   0  -1  205.87    4.97
   0   6   1  204.83    4.71
   6  -6   1  202.23    5.01
   0   6   1  196.07    5.02
   7  -1  -1   70.25    1.84
  -6   7  -1   66.62    1.82
   1   6   1   69.73    1.69
   6  -7   1   65.18    1.86
   1   6   1   67.79    1.90
   8  -2  -1   82.69    2.24
  -6   8  -1   83.71    2.22
   6  -8   1   84.18    2.27
   2   6   1   84.42    2.31
   2   6   1   84.32    2.04
   9  -3  -1   57.76    1.72
  -6   9  -1   57.24    1.68
   6  -9   1   60.29    1.75
   3   6   1   59.78    1.50
   3   6   1   59.10    1.74
  -6  10  -1    2.11    0.47
  10  -4  -1    3.05    0.48
   4   6   1    2.23    0.44
   4   6   1    2.28    0.30
   6 -10   1    2.73    0.45
  11  -5  -1   53.89    1.71
  -6  11  -1   54.61    1.66
   5   6   1   54.91    1.43
   5   6   1   54.79    1.72
  -6  12  -1   27.38    1.16
  12  -6  -1   26.24    1.17
  -6  12  -1   27.71    1.17
   6   6   1   25.51    1.11
  -6  13  -1   13.82    0.87
  13  -7  -1   15.12    0.96
  -6  13  -1   14.54    0.93
   7   6   1   13.35    0.93
  12  -7  -1   30.81    1.24
  -5  12  -1   29.07    1.19
  -5  12  -1   28.16    1.15
   7   5   1   28.96    1.17
  -4  11  -1    8.36    0.71
  -4  11  -1    8.36    0.65
  11  -7  -1    7.36    0.66
   7   4   1    9.18    0.71
   7   4   1    9.36    0.52
  10  -7  -1   20.92    0.98
  -3  10  -1   23.71    0.98
  -3  10  -1   22.10    0.93
   7   3   1   22.69    0.74
   7   3   1   20.62    0.98
  -2   9  -1    9.87    0.66
   9  -7  -1    9.72    0.77
  -2   9  -1   10.03    0.64
   7   2   1    6.86    0.58
   7   2   1    8.47    0.46
  -1   8  -1    5.13    0.42
  -1   8  -1    3.94    0.43
   8  -7  -1    3.60    0.48
   7   1   1    4.00    0.45
   7   1   1    4.00    0.31
   7  -7  -1   48.21    1.50
   0   7  -1   46.26    1.34
   0   7  -1   46.62    1.36
   7   0   1   46.78    1.43
   1   6  -1   75.34    1.98
   1   6  -1   77.15    1.98
   7  -1   1   75.92    2.09
  -6   7   1   75.88    2.15
   2   5  -1   15.16    0.65
   2   5  -1   14.20    0.66
  -5   7   1   15.57    0.78
   7  -2   1   15.15    0.71
   3   4  -1   30.59    0.92
   3   4  -1   29.32    0.95
  -4   7   1   28.26    1.04
  -4   7   1   29.36    0.97
   7  -3   1   29.35    1.05
   4   3  -1   30.81    0.96
   4   3  -1   29.89    0.99
   3  -7  -1   30.64    0.80
  -3   7   1   29.61    1.05
  -3   7   1   30.42    0.97
   7  -4   1   29.02    1.01
   2  -7  -1   14.75    0.47
   5   2  -1   14.33    0.62
   5   2  -1   13.67    0.67
  -2   7   1   13.66    0.63
   7  -5   1   14.13    0.70
  -2   7   1   13.14    0.70
  -7   6  -1   69.58    1.80
   6   1  -1   67.31    1.79
   6   1  -1   65.83    1.75
  -1   7   1   65.69    1.86
   7  -6   1   65.68    1.85
  -1   7   1   65.82    1.70
   7   0  -1   38.45    1.21
  -7   7  -1   38.17    1.21
   7   0  -1   37.53    1.21
   0   7   1   39.46    1.29
   0   7   1   40.46    1.11
   7  -7   1   39.53    1.28
  -7   8  -1    5.46    0.50
   8  -1  -1    4.80    0.45
   1   7   1    5.63    0.51
   1   7   1    4.85    0.37
   7  -8   1    5.63    0.49
  -7   9  -1    5.55    0.52
   9  -2  -1    5.66    0.50
   7  -9   1    5.45    0.54
   2   7   1    5.46    0.39
   2   7   1    5.70    0.54
  -7  10  -1   23.61    0.99
  10  -3  -1   24.24    0.97
   3   7   1   25.05    0.80
   3   7   1   24.05    1.02
   7 -10   1   22.87    1.03
  11  -4  -1    5.74    0.57
  -7  11  -1    6.96    0.61
   7 -11   1    6.47    0.59
   4   7   1    6.47    0.60
   4   7   1    7.17    0.51
  -7  12  -1   31.48    1.22
  12  -5  -1   31.05    1.26
   7 -12   1   31.58    1.25
   5   7   1   33.17    1.27
  -7  13  -1    9.10    0.75
  13  -6  -1   11.89    0.81
   7 -13   1   13.12    0.87
   6   7   1   10.61    0.81
  14  -7  -1   12.84    0.94
  -7  14  -1   12.40    0.87
   7   7   1   12.04    0.93
   7 -14   1   13.36    0.91
  -7  15  -1   13.96    0.98
  15  -8  -1   11.87    0.98
   8   7   1   14.52    0.99
   7 -15   1   13.17    0.95
  -6  14  -1   17.00    1.01
  -6  14  -1   16.07    0.99
  14  -8  -1   16.43    0.97
   8   6   1   13.47    0.91
  -5  13  -1    3.50    0.56
  13  -8  -1    2.58    0.58
  -5  13  -1    3.51    0.54
   8   5   1    2.00    0.54
  -4  12  -1  101.96    2.74
  12  -8  -1   99.83    2.86
  -4  12  -1   99.96    2.76
   8   4   1  101.09    2.82
  11  -8  -1   19.45    0.99
  -3  11  -1   18.86    0.96
  -3  11  -1   20.04    0.92
   8   3   1   20.29    0.99
   8   3   1   20.34    0.74
  -2  10  -1   19.50    0.87
  10  -8  -1   17.41    0.98
  -2  10  -1   19.25    0.86
   8   2   1   19.28    0.71
   8   2   1   17.98    0.89
  -1   9  -1   52.14    1.54
  -1   9  -1   50.33    1.55
   9  -8  -1   50.74    1.65
   8   1   1   51.98    1.62
   8   1   1   54.58    1.39
   0   8  -1  106.84    2.70
   0   8  -1  104.70    2.68
   8  -8  -1  104.49    2.85
   8   0   1  103.70    2.53
   1   7  -1    3.85    0.39
   1   7  -1    4.34    0.44
   8  -1   1    3.26    0.44
   2   6  -1   86.05    2.21
   2   6  -1   86.66    2.25
   8  -2   1   87.39    2.36
  -6   8   1   84.86    2.40
   3   5  -1   84.80    2.24
   3   5  -1   91.42    2.30
   8  -3   1   90.49    2.41
  -5   8   1   88.02    2.43
   4   4  -1    4.75    0.43
   4   4  -1    6.38    0.50
  -4   8   1    7.71    0.54
   8  -4   1    7.72    0.56
  -4   8   1    8.20    0.65
   5   3  -1   83.96    2.22
   5   3  -1   82.54    2.15
   8  -5   1   87.85    2.31
  -3   8   1   85.23    2.17
  -3   8   1   85.97    2.34
   6   2  -1   83.66    2.13
   6   2  -1   84.38    2.20
  -2   8   1   83.81    2.11
  -2   8   1   81.14    2.28
   8  -6   1   83.37    2.27
   7   1  -1    4.99    0.42
  -8   7  -1    5.32    0.48
   7   1  -1    5.34    0.47
  -1   8   1    4.54    0.48
   8  -7   1    5.06    0.51
  -1   8   1    5.13    0.41
   8   0  -1  111.02    2.85
   8   0  -1  110.75    2.96
  -8   8  -1  113.49    2.89
   8  -8   1  116.41    3.01
   0   8   1  115.66    3.03
   0   8   1  117.74    2.79
   9  -1  -1   49.70    1.52
  -8   9  -1   49.38    1.52
   9  -1  -1   48.14    1.50
   1   8   1   48.30    1.55
   8  -9   1   50.17    1.57
   1   8   1   49.72    1.37
  10  -2  -1   20.85    0.89
  -8  10  -1   18.79    0.93
   2   8   1   20.25    0.76
   2   8   1   20.45    0.95
   8 -10   1   20.62    0.94
  11  -3  -1   19.70    0.96
  -8  11  -1   19.48    0.95
   8 -11   1   17.89    0.92
   3   8   1   19.69    0.95
   3   8   1   18.77    0.74
  -8  12  -1   94.93    2.65
  12  -4  -1   93.96    2.68
   8 -12   1   96.44    2.72
   4   8   1   96.21    2.39
   4   8   1   98.20    2.73
  -8  13  -1    3.74    0.58
  13  -5  -1    3.91    0.59
   8 -13   1    4.10    0.58
   5   8   1    3.06    0.56
  -8  14  -1   17.88    1.00
  14  -6  -1   18.00    1.04
   8 -14   1   18.63    1.04
   6   8   1   17.56    1.04
  15  -7  -1   15.20    0.98
  -8  15  -1   17.49    1.01
   8 -15   1   16.07    1.03
   7   8   1   16.45    0.99
  16  -8  -1    6.64    0.78
  -8  16  -1    6.57    0.80
   8   8   1    6.13    0.76
   8 -16   1    5.99    0.75
  -8  17  -1    7.27    0.84
  17  -9  -1    7.93    0.88
   8 -17   1    8.01    0.84
   9   8   1    5.60    0.77
  16  -9  -1    7.37    0.83
  -7  16  -1    6.70    0.79
   9   7   1    8.28    0.82
   7 -16   1    7.08    0.76
  -6  15  -1   35.62    1.46
  15  -9  -1   34.93    1.46
  -6  15  -1   34.71    1.40
   9   6   1   39.59    1.47
  -5  14  -1   45.76    1.61
  -5  14  -1   44.91    1.59
  14  -9  -1   42.80    1.61
   9   5   1   43.87    1.58
  -4  13  -1    2.97    0.58
  -4  13  -1    3.30    0.55
  13  -9  -1    3.36    0.58
   9   4   1    3.38    0.59
  12  -9  -1   52.60    1.77
  -3  12  -1   54.56    1.67
  -3  12  -1   52.79    1.67
   9   3   1   51.49    1.74
  -2  11  -1   29.42    1.15
  -2  11  -1   29.12    1.14
  11  -9  -1   31.86    1.31
   9   2   1   30.64    1.21
   9   2   1   34.34    1.00
  -1  10  -1   16.77    0.88
  -1  10  -1   16.64    0.82
  10  -9  -1   17.79    0.99
   9   1   1   17.07    0.89
   9   1   1   18.40    0.70
   9  -9  -1   94.73    2.66
   0   9  -1   91.81    2.48
   0   9  -1   91.24    2.46
   9   0   1   95.70    2.31
   9   0   1   94.36    2.60
   8  -9  -1   51.84    1.65
   1   8  -1   51.86    1.55
   1   8  -1   52.74    1.51
   9  -1   1   51.27    1.61
   2   7  -1    8.37    0.64
   2   7  -1    8.79    0.58
  -7   9   1    7.51    0.68
   9  -2   1    6.43    0.59
   3   6  -1   66.39    1.82
   3   6  -1   64.70    1.78
   9  -3   1   66.39    1.91
  -6   9   1   65.91    1.96
   4   5  -1   59.06    1.63
   4   5  -1   60.70    1.66
   9  -4   1   56.13    1.73
  -5   9   1   59.25    1.65
  -5   9   1   57.88    1.81
   5   4  -1   61.68    1.71
   5   4  -1   61.99    1.74
  -4   9   1   62.33    1.86
  -4   9   1   64.99    1.74
   9  -5   1   64.35    1.84
   6   3  -1   57.68    1.65
   6   3  -1   61.65    1.68
  -3   9   1   59.70    1.65
   9  -6   1   59.09    1.76
  -3   9   1   58.52    1.80
   7   2  -1    6.22    0.48
   7   2  -1    6.67    0.51
   9  -7   1    4.73    0.51
  -2   9   1    4.90    0.55
  -2   9   1    5.23    0.45
   8   1  -1   48.63    1.49
   8   1  -1   49.96    1.45
  -1   9   1   49.70    1.40
   9  -8   1   50.05    1.55
  -1   9   1   49.02    1.57
   9   0  -1   97.03    2.57
  -9   9  -1   99.69    2.67
   9   0  -1   98.86    2.67
   9  -9   1  102.04    2.76
   0   9   1  104.27    2.52
   0   9   1   99.88    2.75
  -9  10  -1   19.70    0.92
  10  -1  -1   19.72    0.92
  10  -1  -1   19.50    0.89
   1   9   1   17.35    0.74
   1   9   1   18.23    0.92
   9 -10   1   17.88    0.91
  -9  11  -1   34.18    1.29
  11  -2  -1   34.41    1.27
   2   9   1   32.33    1.27
   9 -11   1   34.12    1.31
   2   9   1   34.77    1.08
  -9  12  -1   58.16    1.83
  12  -3  -1   57.84    1.84
   3   9   1   59.48    1.60
   9 -12   1   60.53    1.89
   3   9   1   56.80    1.86
  13  -4  -1    2.24    0.52
  -9  13  -1    3.61    0.59
   4   9   1    3.09    0.55
   9 -13   1    2.52    0.57
  14  -5  -1   47.32    1.68
  -9  14  -1   46.03    1.66
   5   9   1   45.76    1.67
   9 -14   1   46.37    1.66
  15  -6  -1   32.63    1.39
  -9  15  -1   33.74    1.43
   6   9   1   36.18    1.46
   9 -15   1   34.39    1.42
  16  -7  -1    7.75    0.80
  -9  16  -1    7.64    0.82
   9 -16   1    7.82    0.81
   7   9   1    7.74    0.81
  -9  17  -1    7.50    0.85
  17  -8  -1    7.48    0.84
   8   9   1    6.93    0.83
   9 -17   1    6.05    0.78
  -9  18  -1   13.39    1.05
  18  -9  -1   14.74    1.17
   9   9   1   15.23    1.14
   9 -18   1   12.33    1.05
  19 -10  -1    5.64    0.90
  -9  19  -1    5.93    0.83
  10   9   1    5.09    0.83
  18 -10  -1    3.71    0.80
  -8  18  -1    4.86    0.80
   8 -18   1    4.75    0.79
  10   8   1    4.68    0.75
  -7  17  -1    0.87    0.64
  17 -10  -1    1.93    0.70
   7 -17   1    3.34    0.68
  10   7   1    2.49    0.67
  -6  16  -1    8.84    0.83
  -6  16  -1    8.80    0.85
  16 -10  -1    6.98    0.85
  10   6   1    8.24    0.83
  -5  15  -1    6.96    0.76
  -5  15  -1    7.26    0.75
  15 -10  -1    6.86    0.81
  10   5   1    5.90    0.73
  -4  14  -1    0.66    0.49
  14 -10  -1    1.07    0.59
  -4  14  -1    1.00    0.50
  10   4   1    0.37    0.51
  -3  13  -1    5.12    0.61
  -3  13  -1    4.55    0.59
  13 -10  -1    5.04    0.66
  10   3   1    3.31    0.57
  12 -10  -1   25.97    1.20
  -2  12  -1   24.24    1.06
  -2  12  -1   26.62    1.08
  10   2   1   27.27    1.15
  11 -10  -1    8.02    0.75
  -1  11  -1    7.73    0.66
  -1  11  -1    8.02    0.68
  10   1   1    8.51    0.59
  10   1   1    7.68    0.71
   0  10  -1   28.68    1.07
  10 -10  -1   28.23    1.25
   0  10  -1   27.34    1.11
  10   0   1   28.47    0.97
  10   0   1   28.95    1.16
   1   9  -1   17.02    0.88
   9 -10  -1   17.17    0.96
   1   9  -1   17.77    0.81
  10  -1   1   18.14    0.90
   2   8  -1   18.33    0.88
   2   8  -1   19.52    0.82
  10  -2   1   18.49    0.92
   3   7  -1   20.30    0.88
   3   7  -1   22.29    0.87
  10  -3   1   21.33    0.97
  -7  10   1   21.37    1.03
   4   6  -1    2.19    0.40
   4   6  -1    2.63    0.38
  10  -4   1    1.86    0.44
  -6  10   1    2.40    0.53
   5   5  -1    1.50    0.37
   5   5  -1    1.51    0.39
  -5  10   1    2.10    0.44
  10  -5   1    1.99    0.45
  -5  10   1    1.99    0.48
   6   4  -1    2.60    0.42
   6   4  -1    2.56    0.40
  10  -6   1    2.09    0.45
  -4  10   1    1.94    0.46
  -4  10   1    2.31    0.41
   7   3  -1   24.51    0.94
   7   3  -1   25.07    0.96
  -3  10   1   24.04    0.94
  -3  10   1   22.07    1.02
  10  -7   1   25.25    1.07
   8   2  -1   20.23    0.89
   8   2  -1   20.96    0.85
  10  -8   1   20.83    0.95
  -2  10   1   20.06    0.96
  -2  10   1   20.00    0.85
   9   1  -1   20.09    0.89
   9   1  -1   18.75    0.89
  -1  10   1   19.53    0.99
  -1  10   1   19.19    0.81
  10  -9   1   17.42    0.97
  10   0  -1   25.92    1.01
  10   0  -1   27.29    1.07
   0  10   1   26.30    0.95
  10 -10   1   26.53    1.11
   0  10   1   26.86    1.16
 -10  11  -1    7.01    0.66
  11  -1  -1    6.29    0.60
  11  -1  -1    6.24    0.61
   1  10   1    7.33    0.53
   1  10   1    6.83    0.68
  10 -11   1    6.84    0.69
  12  -2  -1   23.52    1.00
  12  -2  -1   21.44    1.04
 -10  12  -1   21.11    1.06
   2  10   1   22.95    0.89
   2  10   1   21.81    1.11
  10 -12   1   21.90    1.05
 -10  13  -1    3.80    0.62
  13  -3  -1    4.49    0.59
  10 -13   1    3.50    0.62
   3  10   1    3.12    0.57
 -10  14  -1    0.69    0.52
  14  -4  -1    1.04    0.54
   4  10   1    1.41    0.54
  10 -14   1    0.97    0.55
  15  -5  -1    3.89    0.67
 -10  15  -1    5.36    0.72
  10 -15   1    6.84    0.73
   5  10   1    5.77    0.74
 -10  16  -1    8.89    0.88
  16  -6  -1   11.33    0.91
   6  10   1   10.11    0.89
  10 -16   1    9.73    0.87
  17  -7  -1    3.69    0.69
 -10  17  -1    2.56    0.71
   7  10   1    3.88    0.69
  10 -17   1    2.60    0.68
 -10  18  -1    5.11    0.79
  18  -8  -1    5.36    0.80
   8  10   1    5.60    0.80
  10 -18   1    4.70    0.77
 -10  19  -1    5.19    0.85
  19  -9  -1    5.65    0.88
  10 -19   1    5.53    0.82
   9  10   1    5.89    0.85
  -8  19  -1   15.79    1.19
  11   8   1   15.80    1.18
  -7  18  -1    4.70    0.79
  18 -11  -1    5.23    0.86
   7 -18   1    4.81    0.75
  11   7   1    5.17    0.81
  -6  17  -1   45.48    1.73
  17 -11  -1   46.14    1.82
  -6  17  -1   43.09    1.71
  11   6   1   42.70    1.70
  16 -11  -1   18.65    1.13
  -5  16  -1   17.75    1.11
  -5  16  -1   17.52    1.09
  11   5   1   16.04    1.10
  15 -11  -1   22.45    1.20
  -4  15  -1   22.18    1.17
  -4  15  -1   22.60    1.14
  11   4   1   23.25    1.15
  -3  14  -1   29.56    1.26
  14 -11  -1   30.72    1.36
  -3  14  -1   29.54    1.24
  11   3   1   30.78    1.30
  13 -11  -1    8.35    0.81
  -2  13  -1    8.79    0.70
  -2  13  -1    9.57    0.76
  11   2   1    9.09    0.79
  -1  12  -1   24.00    1.03
  12 -11  -1   23.05    1.15
  -1  12  -1   22.76    1.03
  11   1   1   22.52    1.15
   0  11  -1   26.96    1.11
  11 -11  -1   26.57    1.25
   0  11  -1   24.80    1.04
  11   0   1   23.56    1.11
   1  10  -1    7.98    0.65
   1  10  -1    8.69    0.71
  10 -11  -1    8.24    0.73
  11  -1   1    7.67    0.69
  11  -1   1    9.14    0.62
   2   9  -1   30.22    1.12
   9 -11  -1   32.34    1.29
   2   9  -1   30.04    1.15
  11  -2   1   33.52    1.25
   3   8  -1   20.29    0.92
   3   8  -1   21.11    0.92
  11  -3   1   20.83    1.04
  -8  11   1   20.42    1.07
   4   7  -1    8.71    0.64
   4   7  -1    7.71    0.60
  -7  11   1    9.37    0.78
  11  -4   1    9.07    0.72
   5   6  -1   64.81    1.76
   5   6  -1   64.75    1.81
  -6  11   1   60.06    1.95
  11  -5   1   61.47    1.91
  -6  11   1   61.93    1.83
   6   5  -1   54.40    1.61
   6   5  -1   54.30    1.59
  -5  11   1   52.57    1.75
  -5  11   1   54.74    1.61
  11  -6   1   54.11    1.72
   7   4  -1    7.18    0.55
   7   4  -1    6.52    0.55
  -4  11   1    6.86    0.67
  11  -7   1    5.74    0.59
  -4  11   1    6.49    0.57
   8   3  -1   18.53    0.87
   8   3  -1   18.90    0.87
  -3  11   1   18.75    1.02
  11  -8   1   19.14    0.94
  -3  11   1   19.60    0.88
   9   2  -1   35.82    1.20
   9   2  -1   33.68    1.19
  -2  11   1   32.72    1.32
  11  -9   1   32.69    1.27
  -2  11   1   33.73    1.15
  10   1  -1    5.79    0.56
  10   1  -1    6.84    0.60
  -1  11   1    7.66    0.69
  -1  11   1    7.28    0.56
  11 -10   1    6.75    0.67
  11   0  -1   27.26    1.13
  11   0  -1   26.06    1.09
   0  11   1   27.75    1.02
  11 -11   1   26.46    1.16
   0  11   1   26.03    1.16
  12  -1  -1   21.39    1.04
  12  -1  -1   23.24    1.05
   1  11   1   21.62    1.07
   1  11   1   21.58    0.92
  11 -12   1   23.01    1.14
  13  -2  -1    8.23    0.69
  13  -2  -1    7.22    0.71
   2  11   1    9.30    0.80
  11 -13   1    8.53    0.79
  14  -3  -1   30.98    1.23
  14  -3  -1   29.57    1.27
 -11  14  -1   29.38    1.33
   3  11   1   31.28    1.36
  11 -14   1   30.36    1.31
  15  -4  -1   22.36    1.11
 -11  15  -1   18.57    1.14
  15  -4  -1   20.06    1.13
   4  11   1   20.84    1.11
  11 -15   1   20.99    1.11
 -11  16  -1   19.00    1.18
  16  -5  -1   20.91    1.20
   5  11   1   20.50    1.20
  11 -16   1   21.42    1.14
  17  -6  -1   37.99    1.65
 -11  17  -1   38.70    1.62
  11 -17   1   40.01    1.63
   6  11   1   38.21    1.59
  18  -7  -1    4.57    0.82
 -11  18  -1    4.62    0.82
   7  11   1    4.32    0.79
  11 -18   1    5.51    0.79
  19  -8  -1   16.76    1.26
   8  11   1   16.32    1.22
  11 -19   1   16.00    1.16
  19 -12  -1   -0.31    0.72
  -7  19  -1    0.11    0.68
  12   7   1   -0.54    0.63
  18 -12  -1   19.58    1.29
  -6  18  -1   22.85    1.21
  12   6   1   17.92    1.23
  17 -12  -1   24.26    1.38
  -5  17  -1   22.61    1.25
  -5  17  -1   25.32    1.30
  12   5   1   22.48    1.24
  16 -12  -1    8.43    0.88
  -4  16  -1    9.12    0.83
  -4  16  -1    9.86    0.86
  12   4   1    7.62    0.83
  -3  15  -1    7.70    0.75
  15 -12  -1    5.48    0.80
  -3  15  -1    7.65    0.74
  12   3   1    6.13    0.77
  -2  14  -1   29.73    1.25
  14 -12  -1   31.36    1.43
  -2  14  -1   29.04    1.29
  12   2   1   28.71    1.29
  -1  13  -1   17.33    0.93
  -1  13  -1   16.38    0.97
  13 -12  -1   17.01    1.05
  12   1   1   16.17    1.05
  12 -12  -1   26.21    1.28
   0  12  -1   23.95    1.13
   0  12  -1   26.31    1.11
  12   0   1   28.30    1.22
   1  11  -1   24.47    1.03
   1  11  -1   22.73    1.04
  11 -12  -1   22.85    1.21
  12  -1   1   21.64    1.10
  10 -12  -1   26.82    1.29
   2  10  -1   26.88    1.09
   2  10  -1   25.85    1.08
  12  -2   1   26.34    1.17
   3   9  -1   52.98    1.65
   9 -12  -1   53.57    1.82
   3   9  -1   53.01    1.67
  12  -3   1   56.65    1.81
   4   8  -1  105.33    2.74
   4   8  -1  108.32    2.84
  12  -4   1  103.57    2.97
  -8  12   1  106.87    3.07
   5   7  -1   30.18    1.12
   5   7  -1   29.15    1.11
  12  -5   1   29.82    1.21
  -7  12   1   31.02    1.30
   6   6  -1   26.49    1.04
   6   6  -1   26.95    1.04
  -6  12   1   27.76    1.07
  12  -6   1   25.32    1.17
  -6  12   1   25.61    1.19
   7   5  -1   30.28    1.12
   7   5  -1   29.17    1.12
  -5  12   1   30.80    1.13
  12  -7   1   31.25    1.28
  -5  12   1   33.33    1.30
   8   4  -1   93.49    2.59
   8   4  -1   96.00    2.51
  -4  12   1   94.44    2.74
  -4  12   1   94.63    2.53
  12  -8   1   94.79    2.71
   9   3  -1   57.24    1.70
   9   3  -1   58.09    1.77
  12  -9   1   59.29    1.89
  -3  12   1   55.27    1.69
  -3  12   1   58.13    1.90
  10   2  -1   22.13    0.99
  10   2  -1   23.06    1.02
  12 -10   1   21.83    1.12
  -2  12   1   21.26    0.94
  -2  12   1   24.15    1.14
  11   1  -1   24.27    1.03
  11   1  -1   22.50    1.05
  -1  12   1   21.83    0.94
  -1  12   1   22.35    1.15
  12 -11   1   22.07    1.07
  12   0  -1   25.77    1.15
  12   0  -1   24.68    1.11
   0  12   1   27.32    1.05
   0  12   1   25.40    1.17
  12 -12   1   26.56    1.18
  13  -1  -1   15.23    0.93
  13  -1  -1   15.08    0.95
   1  12   1   17.11    1.06
  12 -13   1   13.89    1.01
  14  -2  -1   28.20    1.18
  14  -2  -1   28.44    1.27
  12 -14   1   27.93    1.33
   2  12   1   29.18    1.34
  15  -3  -1    7.10    0.74
  15  -3  -1    9.41    0.81
   3  12   1    8.59    0.83
  12 -15   1    7.34    0.80
  16  -4  -1    7.67    0.79
  16  -4  -1    7.86    0.81
  12 -16   1    9.33    0.91
   4  12   1   10.00    0.88
  17  -5  -1   22.33    1.23
  17  -5  -1   23.88    1.25
  12 -17   1   23.48    1.25
   5  12   1   23.69    1.31
  18  -6  -1   19.76    1.28
  18  -6  -1   21.31    1.23
  12 -18   1   21.03    1.27
   6  12   1   20.88    1.28
  19  -7  -1    0.95    0.67
  19  -7  -1    0.28    0.63
  12 -19   1   -0.42    0.64
   7  12   1    0.27    0.68
  19 -13  -1    0.33    0.75
  -6  19  -1   -1.00    0.62
  13   6   1    0.31    0.65
  18 -13  -1    5.92    0.92
  -5  18  -1    7.19    0.86
  13   5   1    5.67    0.86
  17 -13  -1    3.76    0.76
  -4  17  -1    3.13    0.70
  13   4   1    2.17    0.69
  16 -13  -1    3.32    0.73
  -3  16  -1    2.72    0.67
  -3  16  -1    3.87    0.67
  13   3   1    3.02    0.69
  15 -13  -1   11.92    0.99
  -2  15  -1   11.13    0.89
  -2  15  -1   11.37    0.91
  13   2   1   11.57    0.93
  14 -13  -1    2.32    0.69
  -1  14  -1    2.34    0.57
  -1  14  -1    2.79    0.62
  13   1   1    3.79    0.66
  13 -13  -1   28.84    1.39
   0  13  -1   27.66    1.23
   0  13  -1   28.25    1.20
  13   0   1   27.78    1.34
   1  12  -1   16.08    0.95
   1  12  -1   17.98    0.99
  12 -13  -1   17.10    1.06
  13  -1   1   17.14    1.08
  11 -13  -1    9.20    0.85
   2  11  -1   10.10    0.80
   2  11  -1    9.29    0.71
  13  -2   1    9.38    0.80
   3  10  -1    5.83    0.59
   3  10  -1    4.88    0.56
  10 -13  -1    5.17    0.70
  13  -3   1    3.68    0.64
   4   9  -1    3.35    0.51
   4   9  -1    2.89    0.49
  13  -4   1    2.67    0.58
   5   8  -1    3.71    0.51
   5   8  -1    2.65    0.49
  13  -5   1    2.53    0.57
  -8  13   1    3.10    0.67
   6   7  -1   14.99    0.81
   6   7  -1   14.42    0.82
  -7  13   1   12.51    0.94
  13  -6   1   12.89    0.95
   7   6  -1   12.17    0.77
   7   6  -1   11.62    0.82
  -6  13   1   11.98    0.79
  -6  13   1   12.05    0.98
  13  -7   1   10.30    0.83
   8   5  -1    3.34    0.50
   8   5  -1    4.63    0.54
  13  -8   1    3.56    0.60
  -5  13   1    2.71    0.62
  -5  13   1    3.12    0.50
   9   4  -1    3.03    0.53
   9   4  -1    2.72    0.49
  -4  13   1    2.80    0.58
  13  -9   1    2.68    0.55
  -4  13   1    2.50    0.50
  10   3  -1    4.02    0.55
  10   3  -1    3.40    0.52
  13 -10   1    3.73    0.59
  -3  13   1    3.88    0.54
  -3  13   1    1.88    0.55
  11   2  -1    7.87    0.66
  11   2  -1    7.74    0.69
  13 -11   1    6.65    0.73
  -2  13   1    7.80    0.76
  -2  13   1    8.21    0.66
  12   1  -1   15.73    0.91
  12   1  -1   14.64    0.94
  -1  13   1   16.08    1.06
  13 -12   1   15.85    1.04
  -1  13   1   16.05    0.84
  13   0  -1   34.69    1.34
  13   0  -1   34.67    1.35
   0  13   1   35.44    1.50
  13 -13   1   35.27    1.49
  14  -1  -1    2.96    0.63
  14  -1  -1    3.55    0.60
  13 -14   1    4.58    0.72
   1  13   1    4.52    0.67
  15  -2  -1   12.90    0.93
  15  -2  -1   13.39    0.95
   2  13   1   12.41    1.05
  13 -15   1   12.94    0.98
  16  -3  -1    3.57    0.64
  16  -3  -1    2.86    0.68
  13 -16   1    2.02    0.69
   3  13   1    3.54    0.75
  17  -4  -1    3.79    0.70
  17  -4  -1    3.89    0.68
   4  13   1    2.68    0.73
  13 -17   1    3.94    0.75
  18  -5  -1    5.03    0.76
  18  -5  -1    7.59    0.86
  13 -18   1    6.09    0.85
   5  13   1    7.35    0.87
  19  -6  -1   -0.11    0.62
  19  -6  -1    0.94    0.70
  13 -19   1    0.12    0.65
   6  13   1   -0.18    0.69
  19 -14  -1    5.21    0.91
  -5  19  -1    3.96    0.81
  14   5   1    3.09    0.79
  18 -14  -1   14.11    1.19
  -4  18  -1   14.42    1.11
  14   4   1   14.79    1.17
  -3  17  -1   16.06    1.10
  17 -14  -1   15.70    1.24
  14   3   1   14.75    1.08
  16 -14  -1    3.89    0.80
  -2  16  -1    3.80    0.70
  14   2   1    5.28    0.80
  15 -14  -1    7.36    0.88
  -1  15  -1    7.74    0.78
  14   1   1    8.01    0.87
  14 -14  -1   38.65    1.67
   0  14  -1   36.74    1.47
   0  14  -1   37.15    1.45
  14   0   1   41.23    1.64
   1  13  -1    3.14    0.60
   1  13  -1    2.95    0.59
  13 -14  -1    3.21    0.71
  14  -1   1    2.97    0.68
  12 -14  -1   31.47    1.46
   2  12  -1   31.65    1.30
   2  12  -1   29.57    1.24
  14  -2   1   29.31    1.39
  11 -14  -1   29.90    1.43
   3  11  -1   28.61    1.19
   3  11  -1   31.21    1.26
  14  -3   1   29.72    1.36
   4  10  -1    0.37    0.47
  10 -14  -1    0.83    0.59
   4  10  -1    1.27    0.48
  14  -4   1    0.55    0.51
   5   9  -1   46.72    1.53
   5   9  -1   49.36    1.61
  14  -5   1   43.53    1.68
   6   8  -1   15.95    0.88
   6   8  -1   17.15    0.91
  -8  14   1   15.18    1.04
  14  -6   1   14.95    1.00
   7   7  -1   12.60    0.86
   7   7  -1   12.98    0.81
  -7  14   1   10.81    0.92
  14  -7   1   12.38    0.90
   8   6  -1   17.59    0.90
   8   6  -1   18.22    0.99
  14  -8   1   18.03    1.01
  -6  14   1   17.43    0.93
  -6  14   1   17.97    1.06
   9   5  -1   46.76    1.56
   9   5  -1   48.59    1.51
  14  -9   1   46.53    1.70
  -5  14   1   44.47    1.54
  -5  14   1   45.24    1.69
  10   4  -1    0.70    0.47
  10   4  -1    0.42    0.47
  -4  14   1    0.30    0.46
  -4  14   1   -0.38    0.50
  14 -10   1    0.95    0.56
  11   3  -1   29.78    1.25
  11   3  -1   30.61    1.21
  -3  14   1   32.79    1.26
  14 -11   1   30.31    1.38
  -3  14   1   32.18    1.35
  12   2  -1   27.82    1.18
  12   2  -1   28.99    1.24
  -2  14   1   30.35    1.38
  14 -12   1   28.79    1.35
  -2  14   1   28.45    1.18
  13   1  -1    3.84    0.62
  13   1  -1    3.55    0.59
  -1  14   1    4.61    0.70
  14 -13   1    4.04    0.71
  14   0  -1   37.18    1.43
  14   0  -1   39.32    1.54
   0  14   1   41.24    1.64
  14 -14   1   37.33    1.61
  15  -1  -1    7.50    0.74
  15  -1  -1    6.22    0.77
  14 -15   1    7.84    0.88
   1  14   1    8.09    0.89
  16  -2  -1    4.00    0.72
  16  -2  -1    4.40    0.68
   2  14   1    4.48    0.79
  14 -16   1    4.35    0.77
  17  -3  -1   14.13    1.12
  17  -3  -1   17.74    1.09
   3  14   1   18.36    1.22
  14 -17   1   16.90    1.21
  18  -4  -1   19.41    1.16
  18  -4  -1   17.50    1.23
  14 -18   1   16.78    1.23
   4  14   1   16.79    1.26
  19  -5  -1    3.56    0.82
  14 -19   1    4.25    0.84
   5  14   1    5.77    0.89
  18 -15  -1   17.86    1.35
  -3  18  -1   18.04    1.19
  15   3   1   17.66    1.26
  -2  17  -1   30.43    1.38
  15   2   1   24.74    1.38
  16 -15  -1    0.84    0.73
  -1  16  -1   -0.41    0.58
  15   1   1   -0.34    0.65
   0  15  -1   23.92    1.22
  15 -15  -1   21.52    1.29
  15   0   1   23.29    1.27
   1  14  -1    8.23    0.79
  14 -15  -1    7.83    0.88
  15  -1   1    8.42    0.90
   2  13  -1   11.86    0.90
   2  13  -1   11.83    0.91
  13 -15  -1   11.18    1.00
  15  -2   1   11.72    0.98
   3  12  -1    8.73    0.76
   3  12  -1    8.70    0.76
  12 -15  -1    7.57    0.85
  15  -3   1    7.20    0.83
   4  11  -1   22.76    1.08
  11 -15  -1   22.24    1.29
   4  11  -1   24.50    1.12
  15  -4   1   21.70    1.23
  10 -15  -1    5.82    0.79
   5  10  -1    6.67    0.67
   5  10  -1    7.43    0.68
  15  -5   1    5.71    0.76
   6   9  -1   37.06    1.36
   6   9  -1   37.87    1.45
  -9  15   1   37.09    1.60
  15  -6   1   39.57    1.55
   7   8  -1   12.22    0.83
   7   8  -1   13.73    0.89
  -8  15   1   12.89    1.02
  15  -7   1   14.70    0.96
   8   7  -1   16.79    0.95
   8   7  -1   16.39    0.94
  -7  15   1   16.10    1.15
  15  -8   1   16.71    1.09
   9   6  -1   33.63    1.36
   9   6  -1   35.82    1.28
  -6  15   1   34.75    1.35
  -6  15   1   32.22    1.45
  15  -9   1   33.93    1.43
  10   5  -1    5.18    0.65
  10   5  -1    5.41    0.61
  15 -10   1    6.67    0.77
  -5  15   1    4.00    0.73
  -5  15   1    5.25    0.65
  11   4  -1   20.98    1.07
  11   4  -1   20.80    1.01
  15 -11   1   21.10    1.12
  -4  15   1   20.59    1.02
  -4  15   1   19.19    1.19
  12   3  -1    7.44    0.73
  12   3  -1    7.96    0.70
  -3  15   1    8.97    0.75
  -3  15   1    7.85    0.85
  15 -12   1    7.78    0.85
  13   2  -1   12.28    0.93
  13   2  -1   12.83    0.95
  15 -13   1   12.47    1.05
  -2  15   1   11.96    0.99
  14   1  -1    8.39    0.81
  14   1  -1    7.87    0.74
  -1  15   1    9.58    0.94
  15 -14   1    7.14    0.84
  15   0  -1   25.48    1.29
  15   0  -1   26.09    1.22
   0  15   1   25.96    1.33
  15 -15   1   24.11    1.36
  16  -1  -1   -0.03    0.56
   1  15   1    0.06    0.63
  15 -16   1   -0.29    0.61
  17  -2  -1   26.38    1.41
   2  15   1   28.34    1.49
  15 -17   1   29.77    1.50
  18  -3  -1   20.99    1.31
   3  15   1   20.96    1.37
  18 -16  -1    1.36    0.75
  -2  18  -1    2.22    0.70
  16   2   1    1.15    0.71
  17 -16  -1    3.64    0.82
  -1  17  -1    2.02    0.70
  16   1   1    4.69    0.85
   0  16  -1   17.48    1.13
  16 -16  -1   17.98    1.25
  16   0   1   17.85    1.27
  15 -16  -1    0.26    0.66
   1  15  -1   -1.10    0.53
  16  -1   1   -0.72    0.58
   2  14  -1    4.69    0.70
  14 -16  -1    2.92    0.74
  16  -2   1    2.69    0.76
   3  13  -1    4.02    0.65
  13 -16  -1    3.80    0.77
  16  -3   1    2.61    0.73
   4  12  -1    8.41    0.77
  12 -16  -1    8.13    0.91
  16  -4   1    9.61    0.91
  11 -16  -1   18.70    1.17
   5  11  -1   17.26    1.04
  16  -5   1   17.40    1.12
   6  10  -1   10.44    0.82
   6  10  -1    9.83    0.78
  10 -16  -1    8.86    0.90
  16  -6   1    8.96    0.88
   7   9  -1    7.76    0.75
   7   9  -1    7.59    0.72
  -9  16   1    7.04    0.86
  16  -7   1    9.07    0.90
   8   8  -1    6.25    0.66
   8   8  -1    6.20    0.72
  16  -8   1    5.76    0.74
  -8  16   1    5.52    0.80
   9   7  -1    8.04    0.73
   9   7  -1    7.71    0.70
  16  -9   1    8.27    0.84
  -7  16   1    7.55    0.90
  10   6  -1   11.16    0.88
  10   6  -1   11.23    0.89
  -6  16   1    8.32    0.78
  16 -10   1   10.61    0.93
  -6  16   1    9.97    0.95
  11   5  -1   23.35    1.05
  11   5  -1   21.15    1.10
  -5  16   1   18.93    1.24
  -5  16   1   18.51    1.06
  16 -11   1   19.88    1.22
  12   4  -1    8.34    0.77
  12   4  -1    8.06    0.75
  -4  16   1    8.77    0.77
  -4  16   1    7.83    0.90
  16 -12   1    9.15    0.88
  13   3  -1    3.64    0.68
  -3  16   1    1.88    0.71
  16 -13   1    2.04    0.68
  14   2  -1    4.13    0.68
  16 -14   1    5.26    0.83
  -2  16   1    3.63    0.78
  15   1  -1    0.53    0.61
  -1  16   1    0.56    0.66
  16 -15   1   -0.71    0.65
  16   0  -1   16.16    1.12
  16 -16   1   13.76    1.17
   0  16   1   14.95    1.21
  17  -1  -1    3.53    0.74
  16 -17   1    2.26    0.78
   1  16   1    2.99    0.82
  18  -2  -1   -0.13    0.68
   2  16   1    1.30    0.75
  16 -18   1    1.94    0.79
  17 -17  -1   14.66    1.24
  17   0   1   15.73    1.25
  16 -17  -1    2.81    0.85
  17  -1   1    3.23    0.84
  15 -17  -1   28.47    1.51
  17  -2   1   30.20    1.56
  14 -17  -1   18.17    1.22
  17  -3   1   17.59    1.27
  13 -17  -1    2.84    0.79
  17  -4   1    2.58    0.77
  12 -17  -1   23.99    1.40
  17  -5   1   24.26    1.32
  11 -17  -1   43.62    1.81
  17  -6   1   45.54    1.84
  10 -17  -1    1.96    0.73
  17  -7   1    3.38    0.73
  -9  17   1    7.44    0.92
  17  -8   1    6.08    0.83
  -8  17   1    7.62    0.91
  17  -9   1    6.01    0.81
  10   7  -1    2.66    0.60
  17 -10   1    3.44    0.75
  -7  17   1    2.68    0.75
  11   6  -1   40.50    1.55
  17 -11   1   39.80    1.66
  -6  17   1   37.66    1.70
  12   5  -1   22.13    1.18
  17 -12   1   21.29    1.31
  -5  17   1   24.37    1.17
  13   4  -1    3.99    0.67
  -4  17   1    1.66    0.76
  17 -13   1    1.43    0.70
  14   3  -1   14.46    1.04
  17 -14   1   15.24    1.17
  -3  17   1   13.06    1.12
  15   2  -1   26.00    1.33
  -2  17   1   26.42    1.47
  17 -15   1   26.56    1.47
  16   1  -1    4.21    0.76
  17 -16   1    3.12    0.82
  -1  17   1    3.89    0.83
  17   0  -1   14.62    1.15
  17 -17   1   14.73    1.25
   0  17   1   14.53    1.19
  16 -18  -1    0.33    0.79
  18  -2   1    0.84    0.77
  15 -18  -1   20.77    1.34
  18  -3   1   19.17    1.30
  14 -18  -1   13.39    1.17
  18  -4   1   12.32    1.12
  13 -18  -1    7.00    0.97
  18  -5   1    6.76    0.94
  12 -18  -1   20.86    1.31
  11 -18  -1    5.00    0.88
  18  -7   1    5.39    0.87
  10 -18  -1    4.98    0.85
  18  -8   1    2.47    0.78
  18  -9   1   12.70    1.08
  18 -10   1    4.24    0.82
  -8  18   1    5.36    0.90
  18 -11   1    5.44    0.85
  -7  18   1    4.74    0.86
  18 -12   1   21.57    1.36
  -6  18   1   21.92    1.32
  18 -13   1    6.04    0.90
  -5  18   1    5.15    0.91
  18 -14   1   17.40    1.21
  -4  18   1   15.45    1.28
  18 -15   1   19.63    1.28
  -3  18   1   21.32    1.39
  -2  18   1    2.31    0.80
  18 -16   1    0.80    0.75
  14 -19  -1    4.44    0.91
  19  -5   1    3.41    0.87
  13 -19  -1   -0.23    0.74
  19  -6   1   -0.10    0.74
  12 -19  -1    0.80    0.72
  19  -7   1    1.21    0.77
  11 -19  -1   15.68    1.29
  19  -8   1   16.33    1.21
  10 -19  -1    4.63    0.87
  19  -9   1    4.72    0.88
  19 -10   1    5.21    0.92
  19 -11   1   16.57    1.27
  -8  19   1   17.63    1.35
  19 -12   1    0.16    0.73
  -7  19   1   -0.56    0.76
  -6  19   1   -0.20    0.70
  19 -13   1   -0.50    0.74
  -5  19   1    3.70    0.83
  19 -14   1    3.96    0.84
   0   0  -2 1000.00   22.02
   0   0   2  971.70   23.16
   1  -1  -2   27.39    0.82
  -1   0  -2   27.18    0.98
  -1   0  -2   27.81    0.77
   0   1  -2   28.92    0.83
  -1   1   2   30.11    0.82
   0  -1   2   30.31    0.74
   1   0   2   29.72    0.83
   1   0  -2   48.00    1.31
   0  -1  -2   49.92    1.26
  -1   1  -2   48.61    1.29
   0   1   2   52.21    1.34
  -1   0   2   52.81    1.27
   1  -1   2   54.21    1.29
  -1  -1  -2   22.82    0.85
   2  -1  -2   24.06    0.76
  -1  -1  -2   24.51    0.65
  -1   2  -2   24.77    0.78
   1  -2   2   25.11    0.66
  -2   1   2   24.10    0.73
   1   1   2   24.91    0.79
  -2  -1  -2   36.07    0.84
  -1   3  -2   34.96    1.02
  -2  -1  -2   34.62    1.12
  -3   2   2   36.85    1.06
   1  -3   2   36.87    0.90
   2   1   2   37.03    1.08
   0   2  -2   50.26    1.32
  -2   0  -2   48.15    1.40
  -2   0  -2   49.52    1.18
  -2   2   2   48.76    1.31
   2   0   2   49.03    1.32
  -2   1  -2   23.79    0.69
  -2   1  -2   23.17    0.90
   1   1  -2   24.96    0.81
   2  -1   2   24.82    0.75
  -1   2   2   24.73    0.77
  -2   2  -2   52.48    1.35
  -2   2  -2   52.19    1.48
   2   0  -2   53.60    1.38
   0  -2  -2   52.49    1.49
   2   0  -2   54.13    1.32
   2  -2   2   52.31    1.34
   0   2   2   52.42    1.42
  -1  -2  -2   30.75    1.03
  -2   3  -2   30.13    0.92
   3  -1  -2   30.71    0.98
   3  -1  -2   31.60    0.88
  -2   3  -2   30.76    0.99
  -1  -2  -2   31.67    0.76
   2  -3   2   31.17    0.84
   1   2   2   31.05    0.98
  -2   4  -2    2.62    0.35
  -2  -2  -2    2.28    0.35
   4  -2  -2    2.35    0.28
   2  -4   2    2.62    0.21
   2   2   2    2.50    0.35
  -3  -2  -2   99.01    2.63
  -2   5  -2   94.88    2.45
   5  -3  -2   98.50    2.52
   3   2   2  102.68    2.58
   2  -5   2  100.83    2.42
  -1   4  -2   35.69    1.08
  -3  -1  -2   34.61    1.17
   3   1   2   39.24    1.13
  -4   3   2   38.14    1.12
   1  -4   2   37.61    0.94
   0   3  -2  145.81    3.49
  -3   0  -2  147.50    3.71
  -3   0  -2  148.68    3.33
  -3   3   2  148.70    3.63
   3   0   2  147.56    3.63
  -3   1  -2   34.42    1.16
  -3   1  -2   36.34    0.92
   1   2  -2   35.50    1.07
   3  -1   2   37.29    1.02
  -2   3   2   35.84    1.07
   2   1  -2   31.11    0.77
  -3   2  -2   30.57    1.05
  -3   2  -2   29.66    0.84
   2   1  -2   29.87    0.92
  -1   3   2   31.32    0.94
   3  -2   2   30.89    0.89
   0  -3  -2  127.28    3.23
   3   0  -2  130.98    3.09
  -3   3  -2  132.04    3.04
   3   0  -2  131.87    3.10
  -3   3  -2  129.07    3.27
   0   3   2  125.91    3.21
   3  -3   2  126.96    3.13
  -1  -3  -2   37.52    1.14
  -3   4  -2   37.16    1.07
   4  -1  -2   38.05    1.15
   4  -1  -2   37.36    1.03
  -3   4  -2   35.83    1.12
   1   3   2   37.13    1.15
   3  -4   2   36.77    1.02
  -2  -3  -2  114.87    3.00
  -3   5  -2  113.97    2.83
   5  -2  -2  118.27    2.90
  -3   5  -2  114.30    2.96
   2   3   2  118.93    3.00
   3  -5   2  120.77    2.86
  -3   6  -2   84.99    2.16
  -3   6  -2   85.96    2.21
   6  -3  -2   84.76    2.21
  -3  -3  -2   85.60    2.29
   3  -6   2   83.74    2.13
   3   3   2   83.02    2.27
  -3   7  -2   18.23    0.78
  -4  -3  -2   18.39    0.89
  -3   7  -2   17.73    0.72
   7  -4  -2   18.13    0.78
   4   3   2   16.60    0.79
   3  -7   2   16.85    0.66
  -2   6  -2   49.77    1.43
  -4  -2  -2   49.33    1.53
   6  -4  -2   49.57    1.47
   4   2   2   52.26    1.53
   2  -6   2   51.75    1.34
  -4  -1  -2   14.79    0.74
  -1   5  -2   14.52    0.66
   1  -5   2   13.21    0.48
   4   1   2   13.64    0.66
   0   4  -2  162.11    3.81
  -4   0  -2  160.11    4.06
   4   0   2  157.74    3.96
  -4   4   2  162.45    3.98
  -4   1  -2   36.70    0.95
   1   3  -2   36.30    1.13
  -4   1  -2   38.13    1.20
   4  -1   2   38.48    1.11
  -3   4   2   37.83    1.15
   2   2  -2    2.51    0.32
  -4   2  -2    2.27    0.38
  -4   2  -2    2.29    0.25
   2   2  -2    2.25    0.19
   4  -2   2    2.32    0.30
  -2   4   2    2.14    0.32
   3   1  -2   36.30    1.13
   1  -4  -2   36.20    1.12
  -4   3  -2   37.58    1.20
  -4   3  -2   37.83    1.03
   3   1  -2   37.22    0.96
  -1   4   2   37.76    1.13
   4  -3   2   37.86    1.07
  -4   4  -2  144.42    3.37
   4   0  -2  145.63    3.44
   0  -4  -2  143.44    3.57
  -4   4  -2  145.69    3.59
   4   0  -2  139.06    3.42
   0   4   2  138.54    3.56
   4  -4   2  142.14    3.49
  -1  -4  -2   18.18    0.77
  -4   5  -2   18.48    0.76
  -4   5  -2   18.30    0.70
   5  -1  -2   18.20    0.77
   5  -1  -2   18.73    0.66
   1   4   2   18.27    0.81
   4  -5   2   17.43    0.67
  -2  -4  -2   55.48    1.61
  -4   6  -2   54.88    1.54
   6  -2  -2   54.86    1.53
  -4   6  -2   54.66    1.56
   2   4   2   56.15    1.61
   4  -6   2   56.30    1.50
  -3  -4  -2   20.07    0.90
  -4   7  -2   22.00    0.81
  -4   7  -2   20.93    0.88
   7  -3  -2   20.34    0.82
   4  -7   2   22.87    0.78
   3   4   2   21.29    0.90
  -4  -4  -2  135.31    3.49
  -4   8  -2  142.36    3.37
  -4   8  -2  131.50    3.33
   8  -4  -2  135.87    3.43
   4   4   2  130.24    3.48
   4  -8   2  129.77    3.35
  -4   9  -2   35.12    1.03
  -4   9  -2   32.22    1.14
   9  -5  -2   31.70    1.13
   5   4   2   30.14    1.17
   4  -9   2   32.02    1.07
  -3   8  -2   54.65    1.64
  -3   8  -2   59.45    1.59
   8  -5  -2   57.74    1.69
  -5  -3  -2   56.14    1.74
   3  -8   2   59.75    1.58
   5   3   2   56.35    1.73
   7  -5  -2   13.95    0.70
  -5  -2  -2   12.33    0.82
  -2   7  -2   12.71    0.68
   5   2   2   13.18    0.71
  -1   6  -2   50.45    1.45
  -5  -1  -2   49.56    1.58
  -1   6  -2   51.45    1.34
   6  -5  -2   51.67    1.51
   5   1   2   49.83    1.49
   0   5  -2   24.59    0.90
  -5   0  -2   27.05    1.00
   0   5  -2   26.34    0.73
  -5   5   2   25.37    0.95
   5   0   2   25.01    0.95
   1   4  -2   13.96    0.66
  -5   1  -2   13.88    0.74
   1   4  -2   14.65    0.45
  -4   5   2   13.68    0.74
   5  -1   2   13.72    0.64
  -5   2  -2   97.87    2.63
   2   3  -2   95.59    2.46
  -5   2  -2   99.81    2.34
   2   3  -2   98.45    2.37
  -3   5   2   99.80    2.57
   5  -2   2  102.15    2.54
   3   2  -2  121.29    2.80
  -5   3  -2  119.12    2.77
   3   2  -2  109.85    2.83
  -5   3  -2  115.96    3.02
   2  -5  -2  112.54    2.93
  -2   5   2  117.36    2.98
   5  -3   2  118.64    2.92
   4   1  -2   18.80    0.58
   1  -5  -2   16.70    0.69
  -5   4  -2   17.94    0.81
  -5   4  -2   17.47    0.68
   4   1  -2   17.94    0.73
  -1   5   2   16.74    0.75
   5  -4   2   17.26    0.69
  -5   5  -2   41.14    1.25
   5   0  -2   43.75    1.14
   5   0  -2   41.05    1.22
  -5   5  -2   39.05    1.18
   0  -5  -2   41.09    1.21
   0   5   2   37.77    1.25
   5  -5   2   39.02    1.17
   6  -1  -2   60.74    1.69
  -5   6  -2   58.87    1.66
  -5   6  -2   61.04    1.61
  -1  -5  -2   60.50    1.68
   6  -1  -2   59.17    1.60
   1   5   2   59.35    1.72
   5  -6   2   58.24    1.61
  -5   7  -2   10.21    0.57
   7  -2  -2    9.68    0.58
  -2  -5  -2   10.70    0.67
  -5   7  -2   10.49    0.63
   5  -7   2   10.96    0.58
   2   5   2   11.66    0.75
  -5   8  -2   78.83    2.01
  -3  -5  -2   74.37    2.12
  -5   8  -2   71.36    2.02
   8  -3  -2   75.35    2.06
   3   5   2   76.97    2.15
   5  -8   2   77.75    2.02
  -5   9  -2   35.06    1.05
   9  -4  -2   34.28    1.14
  -5   9  -2   32.05    1.19
   4   5   2   32.91    1.21
   5  -9   2   33.03    1.10
  -5  10  -2    0.81    0.44
  10  -5  -2    0.66    0.41
   5 -10   2    0.47    0.36
   5   5   2    0.67    0.41
  11  -6  -2   41.73    1.46
  -5  11  -2   41.62    1.44
   5 -11   2   44.87    1.38
   6   5   2   43.10    1.53
  10  -6  -2    7.29    0.62
  -4  10  -2    6.95    0.64
   6   4   2    6.17    0.59
   4 -10   2    7.19    0.52
  -3   9  -2  110.85    2.68
   9  -6  -2  102.49    2.82
  -3   9  -2  102.38    2.72
   6   3   2  102.43    2.85
  -6  -2  -2   42.99    1.48
   8  -6  -2   43.24    1.40
  -2   8  -2   45.20    1.29
  -2   8  -2   43.74    1.37
   6   2   2   47.06    1.44
  -1   7  -2   19.34    0.70
  -6  -1  -2   20.50    0.93
  -1   7  -2   19.42    0.88
   7  -6  -2   19.90    0.91
   6   1   2   19.98    0.86
   0   6  -2  112.35    2.76
   0   6  -2  113.05    2.82
  -6   0  -2  110.05    3.03
  -6   6   2  115.25    2.97
   6   0   2  113.42    2.94
  -6   1  -2   51.74    1.60
   1   5  -2   53.60    1.35
   1   5  -2   52.81    1.50
  -5   6   2   52.31    1.60
   6  -1   2   53.14    1.56
   2   4  -2   48.21    1.41
  -6   2  -2   46.21    1.54
   2   4  -2   50.04    1.27
   6  -2   2   52.02    1.45
  -4   6   2   51.99    1.52
  -6   3  -2   86.18    2.05
   3   3  -2   87.76    2.07
  -6   3  -2   86.59    2.32
   3  -6  -2   84.51    2.18
   3   3  -2   82.40    2.16
   6  -3   2   80.92    2.21
  -3   6   2   79.76    2.25
  -6   4  -2   55.13    1.65
   2  -6  -2   53.59    1.53
   4   2  -2   53.89    1.55
  -6   4  -2   57.33    1.48
   4   2  -2   57.38    1.45
  -2   6   2   56.78    1.63
   6  -4   2   57.51    1.57
   1  -6  -2   60.35    1.62
  -6   5  -2   60.03    1.71
   5   1  -2   58.58    1.64
   5   1  -2   58.49    1.55
  -6   5  -2   60.13    1.59
  -1   6   2   57.25    1.70
   6  -5   2   60.10    1.64
  -6   6  -2  105.57    2.66
   0  -6  -2  104.45    2.62
  -6   6  -2   97.97    2.54
   6   0  -2   99.97    2.57
   6   0  -2  100.93    2.56
   0   6   2   98.36    2.69
   6  -6   2  102.67    2.61
   7  -1  -2   15.16    0.67
  -1  -6  -2   16.95    0.76
  -6   7  -2   14.84    0.73
  -6   7  -2   14.79    0.71
   7  -1  -2   15.90    0.78
   1   6   2   17.45    0.86
   6  -7   2   16.28    0.71
  -2  -6  -2   45.68    1.39
  -6   8  -2   43.88    1.40
   8  -2  -2   44.58    1.34
  -6   8  -2   45.32    1.34
   6  -8   2   45.52    1.36
   2   6   2   44.85    1.46
  -6   9  -2  119.21    3.08
   9  -3  -2  121.37    3.13
  -6   9  -2  128.39    3.07
   6  -9   2  115.87    3.10
   3   6   2  118.65    3.22
  10  -4  -2    5.75    0.52
  -6  10  -2    5.49    0.58
   6 -10   2    5.86    0.51
   4   6   2    4.98    0.56
  11  -5  -2   48.25    1.54
  -6  11  -2   47.76    1.56
   6 -11   2   48.21    1.50
   5   6   2   47.23    1.65
  -6  12  -2   26.73    1.15
  12  -6  -2   26.66    1.11
   6 -12   2   28.66    1.12
   6   6   2   27.36    1.19
  -6  13  -2   15.03    0.92
  13  -7  -2   13.87    0.92
   6 -13   2   14.86    0.89
   7   6   2   15.22    0.94
  12  -7  -2   17.20    0.92
  -5  12  -2   17.76    1.01
   5 -12   2   18.95    0.88
   7   5   2   19.47    1.00
  11  -7  -2    4.45    0.59
  -4  11  -2    5.10    0.60
   7   4   2    5.07    0.57
  -3  10  -2    6.98    0.52
  10  -7  -2    6.55    0.62
  -3  10  -2    7.28    0.64
   7   3   2    5.27    0.59
  -2   9  -2   37.49    1.18
  -2   9  -2   37.60    1.26
   9  -7  -2   37.72    1.34
   7   2   2   36.88    1.33
   8  -7  -2   15.23    0.82
  -1   8  -2   16.19    0.80
  -1   8  -2   15.70    0.67
   7   1   2   15.26    0.81
   0   7  -2   16.46    0.78
  -7   0  -2   16.03    0.88
   0   7  -2   16.06    0.62
   7   0   2   14.96    0.79
  -7   1  -2   19.84    0.99
   1   6  -2   19.13    0.67
   1   6  -2   20.07    0.83
  -6   7   2   20.44    0.98
   7  -1   2   20.91    0.91
   2   5  -2   13.29    0.52
   2   5  -2   13.83    0.76
  -7   2  -2   13.12    0.84
  -5   7   2   14.37    0.84
   7  -2   2   13.25    0.70
  -7   3  -2   17.83    0.85
   3   4  -2   17.81    0.77
   3   4  -2   18.08    0.60
   7  -3   2   17.18    0.78
  -4   7   2   16.66    0.81
  -7   4  -2   22.87    0.81
   3  -7  -2   21.06    0.76
   4   3  -2   21.89    0.72
  -7   4  -2   22.37    0.96
   4   3  -2   22.21    0.90
   7  -4   2   22.49    0.89
  -3   7   2   21.94    0.95
   5   2  -2   10.40    0.64
  -7   5  -2   10.28    0.61
   2  -7  -2    8.89    0.54
  -7   5  -2   11.10    0.72
   5   2  -2   10.43    0.50
   7  -5   2   11.15    0.66
  -2   7   2   10.74    0.72
   1  -7  -2   14.99    0.66
   6   1  -2   16.83    0.83
   6   1  -2   14.75    0.64
  -7   6  -2   16.64    0.79
  -7   6  -2   15.94    0.75
  -1   7   2   16.30    0.80
   7  -6   2   16.28    0.76
   0  -7  -2   16.43    0.73
  -7   7  -2   16.57    0.77
   7   0  -2   16.82    0.69
  -7   7  -2   17.48    0.79
   7   0  -2   15.91    0.85
   7  -7   2   17.63    0.78
   0   7   2   19.06    0.86
   8  -1  -2   12.21    0.83
  -7   8  -2   13.24    0.70
  -1  -7  -2   13.19    0.70
  -7   8  -2   12.37    0.78
   8  -1  -2   11.82    0.65
   1   7   2   12.15    0.76
   1   7   2   12.01    0.52
   7  -8   2   12.10    0.70
   9  -2  -2   32.05    1.08
  -7   9  -2   31.04    1.02
  -7   9  -2   29.94    1.11
   7  -9   2   30.44    1.09
   2   7   2   29.85    1.18
  -7  10  -2    8.61    0.58
  -7  10  -2    7.71    0.63
  10  -3  -2    7.79    0.58
   3   7   2    6.84    0.64
   7 -10   2    6.34    0.56
  -7  11  -2    5.75    0.59
  11  -4  -2    5.70    0.56
   4   7   2    6.12    0.65
   7 -11   2    5.14    0.54
  -7  12  -2   13.61    0.87
  12  -5  -2   14.86    0.87
   7 -12   2   15.99    0.85
   5   7   2   16.60    0.94
  13  -6  -2   18.03    0.98
  -7  13  -2   16.84    0.97
   7 -13   2   18.35    0.97
   6   7   2   19.09    1.05
  14  -7  -2    0.74    0.49
  -7  14  -2   -0.07    0.52
   7   7   2    0.50    0.51
   7 -14   2    0.89    0.47
  15  -8  -2   29.30    1.31
  -7  15  -2   29.40    1.34
   8   7   2   26.71    1.28
  -6  14  -2   13.98    0.94
  14  -8  -2   15.80    0.95
   6 -14   2   15.13    0.94
   8   6   2   16.03    0.98
  13  -8  -2    7.54    0.72
  -5  13  -2    7.23    0.72
   5 -13   2    8.22    0.63
   8   5   2    7.00    0.71
  -4  12  -2   49.39    1.69
  12  -8  -2   50.54    1.72
   8   4   2   52.43    1.75
  11  -8  -2   48.69    1.64
  -3  11  -2   48.95    1.49
  -3  11  -2   46.88    1.56
   8   3   2   46.12    1.64
  10  -8  -2    5.88    0.63
  -2  10  -2    5.60    0.58
  -2  10  -2    6.70    0.50
   8   2   2    5.51    0.59
   9  -8  -2   28.18    1.13
  -1   9  -2   28.31    1.12
  -1   9  -2   27.45    0.94
   8   1   2   27.31    1.10
   8  -8  -2   12.89    0.86
   0   8  -2   13.19    0.76
   0   8  -2   12.86    0.62
   8   0   2   13.67    0.79
   1   7  -2   16.51    0.64
   1   7  -2   16.24    0.84
  -7   8   2   14.66    0.93
   8  -1   2   15.30    0.82
  -8   2  -2   43.03    1.49
   2   6  -2   44.16    1.22
   2   6  -2   44.31    1.40
  -6   8   2   45.89    1.48
   8  -2   2   44.80    1.44
  -8   3  -2   56.19    1.76
   3   5  -2   55.29    1.62
   3   5  -2   59.24    1.52
   8  -3   2   58.84    1.73
  -5   8   2   57.89    1.75
  -8   4  -2  133.20    3.51
   4   4  -2  133.09    3.31
   4   4  -2  137.93    3.28
   4  -8  -2  135.50    3.31
  -4   8   2  129.27    3.47
   8  -4   2  131.76    3.44
   3  -8  -2   74.85    1.97
  -8   5  -2   74.58    2.17
   5   3  -2   75.40    2.03
   5   3  -2   77.28    1.96
  -3   8   2   76.12    2.17
   8  -5   2   76.94    2.12
  -8   6  -2   44.38    1.40
   2  -8  -2   44.95    1.26
  -8   6  -2   45.30    1.30
   6   2  -2   45.10    1.28
   6   2  -2   43.76    1.36
  -2   8   2   44.19    1.47
   8  -6   2   43.63    1.40
  -8   7  -2   13.30    0.74
   7   1  -2   11.67    0.73
  -8   7  -2   12.16    0.73
   7   1  -2   12.70    0.63
   1  -8  -2   12.42    0.61
   8  -7   2   12.10    0.73
  -1   8   2   12.84    0.82
  -8   8  -2    8.53    0.63
   8   0  -2    7.56    0.59
   0  -8  -2    9.20    0.57
  -8   8  -2    7.47    0.58
   8   0  -2    7.65    0.59
   0   8   2    7.85    0.64
   8  -8   2    9.61    0.67
  -8   9  -2   33.11    1.12
   9  -1  -2   34.07    1.21
  -8   9  -2   33.56    1.22
   9  -1  -2   34.14    1.12
   1   8   2   34.50    1.26
   1   8   2   31.84    0.97
   8  -9   2   31.83    1.17
  -8  10  -2    7.86    0.64
  10  -2  -2    8.35    0.65
  -8  10  -2    8.10    0.60
  10  -2  -2    7.85    0.65
   2   8   2    7.99    0.68
   8 -10   2    8.30    0.62
  11  -3  -2   45.51    1.46
  -8  11  -2   44.58    1.52
   3   8   2   44.57    1.55
   8 -11   2   40.72    1.44
  -8  12  -2   50.35    1.64
  12  -4  -2   47.97    1.60
   8 -12   2   48.68    1.59
   4   8   2   48.67    1.72
  -8  13  -2    7.86    0.73
  13  -5  -2    9.80    0.75
   5   8   2    8.74    0.80
   8 -13   2    8.83    0.70
  14  -6  -2   18.02    1.02
  -8  14  -2   18.25    1.08
   8 -14   2   16.20    0.93
   6   8   2   16.12    1.01
  -8  15  -2   25.22    1.22
  15  -7  -2   27.69    1.26
   8 -15   2   24.96    1.15
   7   8   2   24.52    1.29
  -8  16  -2   45.00    1.74
  16  -8  -2   50.41    1.81
   8   8   2   49.88    1.83
  -8  17  -2   15.22    1.06
  17  -9  -2   13.96    1.09
   9   8   2   14.28    1.06
  -7  16  -2    1.85    0.63
  16  -9  -2    2.16    0.65
   9   7   2    1.47    0.60
  -6  15  -2   23.68    1.19
  15  -9  -2   28.06    1.29
   9   6   2   23.68    1.22
  14  -9  -2   18.91    1.11
  -5  14  -2   19.66    1.06
   9   5   2   19.92    1.08
  13  -9  -2    8.80    0.79
  -4  13  -2    8.61    0.76
   9   4   2    9.49    0.80
  12  -9  -2   30.11    1.25
  -3  12  -2   29.73    1.14
  -3  12  -2   31.13    1.24
   9   3   2   28.35    1.24
  11  -9  -2   19.75    0.99
  -2  11  -2   19.75    0.96
  -2  11  -2   17.90    0.83
   9   2   2   17.38    0.95
  10  -9  -2   19.49    1.05
  -1  10  -2   20.30    0.94
  -1  10  -2   18.62    0.81
   9   1   2   19.41    0.97
   0   9  -2  103.68    2.74
   0   9  -2  101.99    2.66
   9  -9  -2  102.96    2.90
   9   0   2  107.15    2.90
   1   8  -2   28.01    0.92
   1   8  -2   28.58    1.08
   9  -1   2   27.46    1.12
   2   7  -2   37.76    1.09
   2   7  -2   36.11    1.24
   9  -2   2   37.95    1.34
  -7   9   2   37.33    1.38
   3   6  -2  106.96    2.63
   3   6  -2  106.52    2.70
   9  -3   2  103.36    2.84
  -6   9   2  100.48    2.87
   4   5  -2   34.42    1.00
   5  -9  -2   34.19    0.99
   4   5  -2   33.23    1.17
  -5   9   2   29.59    1.22
   9  -4   2   33.50    1.23
   5   4  -2   34.00    1.01
   5   4  -2   31.71    1.17
   4  -9  -2   33.47    0.98
  -4   9   2   29.78    1.23
   9  -5   2   33.83    1.21
   6   3  -2  125.08    3.04
   6   3  -2  121.52    3.05
   3  -9  -2  120.88    3.00
  -9   6  -2  122.19    3.23
  -3   9   2  116.84    3.22
   9  -6   2  117.68    3.18
   7   2  -2   30.03    1.14
  -9   7  -2   31.59    1.16
   7   2  -2   31.53    1.01
   2  -9  -2   30.76    0.96
  -9   7  -2   31.14    1.11
   9  -7   2   31.28    1.11
  -2   9   2   30.13    1.19
  -9   8  -2   33.53    1.14
   8   1  -2   35.40    1.20
   8   1  -2   33.49    1.11
   9  -8   2   31.21    1.18
  -1   9   2   30.78    1.27
   9   0  -2  107.99    2.83
   9   0  -2  108.95    2.85
  -9   9  -2  110.81    2.85
   0   9   2  108.25    2.64
   0   9   2  105.43    2.99
   9  -9   2  106.65    2.90
  10  -1  -2   17.25    0.96
  10  -1  -2   17.23    0.84
  -9  10  -2   17.11    0.90
   9 -10   2   18.44    0.90
   1   9   2   18.55    0.97
  11  -2  -2   15.54    0.83
  11  -2  -2   14.03    0.95
  -9  11  -2   15.37    0.94
   9 -11   2   15.39    0.87
   2   9   2   15.78    0.94
  -9  12  -2   22.09    1.07
  12  -3  -2   23.26    1.04
  12  -3  -2   25.27    1.12
   9 -12   2   24.69    1.07
   3   9   2   23.46    1.13
  -9  13  -2    7.43    0.73
  13  -4  -2    8.14    0.71
   4   9   2    7.62    0.77
   9 -13   2    7.93    0.70
  14  -5  -2   19.55    1.00
  -9  14  -2   18.14    1.05
   5   9   2   20.53    1.16
   9 -14   2   19.54    1.07
  -9  15  -2   25.42    1.27
  15  -6  -2   24.44    1.21
   9 -15   2   25.59    1.17
   6   9   2   24.85    1.29
  -9  16  -2    1.63    0.62
  16  -7  -2    0.98    0.57
   7   9   2    0.91    0.59
  -9  17  -2   15.14    1.13
  17  -8  -2   13.95    1.01
   8   9   2   12.17    1.04
  -9  18  -2   19.62    1.29
  18  -9  -2   21.04    1.27
   9   9   2   19.48    1.29
  -9  19  -2    0.39    0.73
  19 -10  -2    1.50    0.71
  10   9   2    2.96    0.75
  -8  18  -2   12.99    1.10
  18 -10  -2   16.85    1.19
  10   8   2   12.43    1.07
  17 -10  -2    1.18    0.61
  -7  17  -2    3.04    0.71
  10   7   2    1.37    0.68
  -6  16  -2    0.54    0.57
  16 -10  -2    0.29    0.57
  10   6   2    0.55    0.62
  15 -10  -2    3.45    0.66
  -5  15  -2    3.86    0.71
  10   5   2    5.18    0.75
  14 -10  -2    1.19    0.60
  -4  14  -2    2.05    0.62
  10   4   2    1.39    0.55
  -3  13  -2   13.68    0.95
  13 -10  -2   12.73    0.98
  10   3   2   11.40    0.95
  -2  12  -2   11.55    0.91
  -2  12  -2   12.84    0.77
  12 -10  -2   12.30    0.89
  10   2   2   11.90    0.86
  -1  11  -2    6.21    0.63
  11 -10  -2    6.55    0.69
  -1  11  -2    6.53    0.54
  10   1   2    6.98    0.68
  10 -10  -2   11.93    0.87
   0  10  -2   12.20    0.68
   0  10  -2   12.75    0.87
  10   0   2   13.16    0.92
   1   9  -2   19.63    0.82
   1   9  -2   19.14    0.94
   9 -10  -2   20.61    1.07
  10  -1   2   20.90    1.04
   2   8  -2    5.78    0.56
   2   8  -2    6.35    0.44
  -8  10   2    5.77    0.70
  10  -2   2    5.98    0.60
   3   7  -2    6.73    0.52
   3   7  -2    6.33    0.57
  10  -3   2    5.81    0.62
  -7  10   2    5.67    0.68
   4   6  -2    7.83    0.62
   4   6  -2    6.71    0.50
  -6  10   2    6.81    0.65
  10  -4   2    6.29    0.60
   5   5  -2    0.72    0.41
   5   5  -2    0.55    0.30
  -5  10   2    0.26    0.44
  10  -5   2    1.19    0.42
   6   4  -2    7.22    0.57
   6   4  -2    7.13    0.59
  -4  10   2    5.35    0.60
  10  -6   2    6.13    0.58
   7   3  -2    7.77    0.58
   7   3  -2    6.85    0.58
  -3  10   2    6.23    0.62
  10  -7   2    6.51    0.60
   8   2  -2    9.32    0.67
   8   2  -2    8.75    0.63
  -2  10   2    7.25    0.67
  10  -8   2    6.90    0.61
   9   1  -2   16.38    0.88
   9   1  -2   17.69    0.81
 -10   9  -2   17.51    0.88
  10  -9   2   16.91    0.90
  -1  10   2   18.89    0.97
 -10  10  -2   16.44    0.86
  10   0  -2   14.44    0.81
  10   0  -2   14.35    0.90
  10 -10   2   14.67    0.86
   0  10   2   15.59    0.98
 -10  11  -2    9.27    0.74
  11  -1  -2    7.87    0.63
  11  -1  -2    7.94    0.68
  10 -11   2    6.99    0.65
   1  10   2    7.91    0.73
  12  -2  -2    8.60    0.69
 -10  12  -2    9.00    0.76
  12  -2  -2    9.01    0.74
  10 -12   2   10.04    0.80
   2  10   2   10.71    0.85
 -10  13  -2   14.72    1.01
  13  -3  -2   14.20    0.90
  13  -3  -2   15.52    0.94
   3  10   2   14.44    1.02
  10 -13   2   14.95    0.92
 -10  14  -2    2.60    0.60
  14  -4  -2    2.12    0.55
  14  -4  -2    2.50    0.59
   4  10   2    2.85    0.64
  10 -14   2    2.98    0.57
 -10  15  -2    4.46    0.70
  15  -5  -2    5.06    0.69
  15  -5  -2    3.31    0.63
   5  10   2    4.53    0.73
  10 -15   2    5.23    0.66
 -10  16  -2    0.05    0.62
  16  -6  -2    0.60    0.54
   6  10   2    0.79    0.64
  10 -16   2   -0.18    0.55
  17  -7  -2    2.22    0.67
 -10  17  -2    1.71    0.70
   7  10   2    1.82    0.69
 -10  18  -2    9.96    0.99
  18  -8  -2    9.15    0.94
   8  10   2   11.62    1.02
  19  -9  -2    3.37    0.75
 -10  19  -2    2.75    0.80
   9  10   2    3.37    0.78
  -8  19  -2    4.16    0.87
  19 -11  -2    5.28    0.87
  11   8   2    4.80    0.86
  -7  18  -2    3.91    0.77
  18 -11  -2    3.94    0.76
  11   7   2    3.71    0.78
  -6  17  -2   11.83    1.00
  17 -11  -2    9.99    0.96
  11   6   2   10.33    0.98
  -5  16  -2    7.17    0.82
  16 -11  -2    6.56    0.83
  11   5   2    4.77    0.78
  -4  15  -2   25.10    1.29
  15 -11  -2   25.31    1.32
  11   4   2   26.74    1.33
  14 -11  -2   28.61    1.32
  -3  14  -2   27.63    1.31
  11   3   2   29.95    1.32
  -2  13  -2    1.12    0.57
  13 -11  -2    1.95    0.59
  11   2   2    1.45    0.58
  12 -11  -2   44.73    1.65
  -1  12  -2   45.74    1.61
  11   1   2   45.99    1.65
   0  11  -2   36.31    1.35
  11 -11  -2   34.32    1.44
  11   0   2   33.20    1.36
   1  10  -2    6.46    0.63
  10 -11  -2    5.94    0.69
  11  -1   2    6.35    0.69
   2   9  -2   18.91    0.79
   9 -11  -2   18.22    1.02
   2   9  -2   19.83    0.94
  11  -2   2   17.63    0.97
   3   8  -2   50.41    1.43
   3   8  -2   49.75    1.58
  -8  11   2   46.61    1.70
  11  -3   2   47.56    1.66
   4   7  -2    5.04    0.44
   4   7  -2    4.66    0.54
  -7  11   2    5.85    0.65
  11  -4   2    4.68    0.59
   5   6  -2   41.82    1.44
   5   6  -2   45.30    1.34
  11  -5   2   45.11    1.55
  -6  11   2   44.18    1.58
   6   5  -2   47.01    1.50
   6   5  -2   49.60    1.44
  11  -6   2   48.02    1.59
  -5  11   2   48.74    1.69
   7   4  -2    5.96    0.49
   7   4  -2    5.66    0.57
  11  -7   2    5.60    0.58
  -4  11   2    4.42    0.62
   8   3  -2   45.16    1.46
   8   3  -2   45.54    1.36
  -3  11   2   43.07    1.59
  11  -8   2   40.68    1.49
   9   2  -2   16.22    0.79
   9   2  -2   16.36    0.87
  11  -9   2   14.99    0.90
  -2  11   2   15.56    0.95
  10   1  -2    8.33    0.67
  10   1  -2    7.66    0.68
  -1  11   2    9.05    0.64
  11 -10   2    8.34    0.71
  -1  11   2    8.63    0.77
 -11  11  -2   41.53    1.47
  11   0  -2   41.06    1.46
  11   0  -2   41.97    1.45
   0  11   2   41.70    1.57
  11 -11   2   45.60    1.52
  12  -1  -2   43.39    1.48
  12  -1  -2   43.24    1.55
 -11  12  -2   42.42    1.56
  11 -12   2   43.99    1.55
   1  11   2   41.37    1.59
 -11  13  -2    1.28    0.58
  13  -2  -2    1.96    0.54
  13  -2  -2    1.93    0.52
   2  11   2    1.86    0.63
  11 -13   2    1.18    0.52
  14  -3  -2   30.66    1.29
  14  -3  -2   31.50    1.36
 -11  14  -2   27.87    1.29
   3  11   2   31.66    1.43
  11 -14   2   33.17    1.33
 -11  15  -2   30.85    1.41
  15  -4  -2   31.46    1.37
  15  -4  -2   32.02    1.42
  11 -15   2   34.68    1.40
   4  11   2   32.97    1.50
  16  -5  -2    4.32    0.72
  16  -5  -2    5.81    0.77
 -11  16  -2    5.29    0.78
  11 -16   2    5.27    0.71
   5  11   2    4.88    0.75
  17  -6  -2   11.66    0.98
 -11  17  -2    9.88    0.94
  17  -6  -2   11.50    0.96
   6  11   2   12.34    1.04
  18  -7  -2    2.63    0.74
 -11  18  -2    3.74    0.78
  18  -7  -2    3.28    0.75
   7  11   2    2.65    0.76
  19  -8  -2    4.42    0.84
 -11  19  -2    4.35    0.86
  19  -8  -2    5.12    0.87
   8  11   2    2.83    0.80
  -7  19  -2    3.27    0.83
  19 -12  -2    3.27    0.83
  12   7   2    1.89    0.71
  18 -12  -2   18.86    1.22
  -6  18  -2   18.57    1.20
  12   6   2   19.68    1.30
  -5  17  -2   18.21    1.14
  17 -12  -2   16.72    1.22
  12   5   2   18.17    1.24
  -4  16  -2    1.84    0.68
  16 -12  -2    0.95    0.68
  12   4   2    1.85    0.68
  15 -12  -2   37.74    1.61
  -3  15  -2   38.19    1.50
  12   3   2   33.14    1.50
  14 -12  -2   24.32    1.25
  -2  14  -2   25.47    1.25
  12   2   2   25.51    1.31
  -1  13  -2    7.06    0.73
  13 -12  -2    6.35    0.79
  12   1   2    6.83    0.76
  12 -12  -2   43.10    1.65
   0  12  -2   45.17    1.60
  12   0   2   44.68    1.68
   1  11  -2   47.24    1.62
  11 -12  -2   48.23    1.71
  12  -1   2   43.48    1.65
   2  10  -2   12.58    0.89
  10 -12  -2   12.77    0.99
  12  -2   2   12.12    0.89
   3   9  -2   28.53    1.19
  12  -3   2   31.42    1.26
  -9  12   2   27.93    1.32
   4   8  -2   49.75    1.60
  -8  12   2   50.17    1.80
  12  -4   2   51.60    1.72
   5   7  -2   18.89    0.82
   5   7  -2   17.95    0.91
  -7  12   2   19.69    1.06
  12  -5   2   20.14    1.01
   6   6  -2   24.72    1.07
   6   6  -2   30.17    1.05
  -6  12   2   29.04    1.26
  12  -6   2   29.56    1.19
   7   5  -2   16.85    0.93
   7   5  -2   18.27    0.83
  -5  12   2   17.18    1.06
  12  -7   2   16.76    0.99
   8   4  -2   51.52    1.52
   8   4  -2   48.41    1.60
  12  -8   2   49.02    1.68
  -4  12   2   48.70    1.74
   9   3  -2   21.75    1.00
   9   3  -2   23.63    0.99
  -3  12   2   23.93    1.21
  12  -9   2   24.04    1.11
  10   2  -2    9.67    0.75
  10   2  -2    8.88    0.74
  12 -10   2   10.09    0.83
  -2  12   2    8.94    0.79
  11   1  -2   43.70    1.47
  11   1  -2   39.72    1.48
  12 -11   2   42.24    1.53
  -1  12   2   41.88    1.60
  12   0  -2   59.02    1.83
  12   0  -2   61.76    1.83
  12 -12   2   54.35    1.88
   0  12   2   53.09    1.97
  13  -1  -2    8.38    0.74
  13  -1  -2    7.16    0.70
  12 -13   2    8.05    0.77
   1  12   2    6.95    0.81
  14  -2  -2   24.39    1.16
  14  -2  -2   24.59    1.17
 -12  14  -2   25.04    1.26
  12 -14   2   26.69    1.24
   2  12   2   24.53    1.26
  15  -3  -2   35.19    1.41
  15  -3  -2   34.29    1.44
 -12  15  -2   33.89    1.45
  12 -15   2   32.51    1.42
   3  12   2   34.47    1.57
 -12  16  -2    1.39    0.69
  16  -4  -2    1.38    0.62
  16  -4  -2    1.52    0.64
   4  12   2    2.57    0.68
  12 -16   2    2.31    0.63
  17  -5  -2   18.82    1.18
  17  -5  -2   19.15    1.22
 -12  17  -2   18.49    1.26
  12 -17   2   20.93    1.17
   5  12   2   20.64    1.29
 -12  18  -2   18.02    1.22
  18  -6  -2   21.95    1.26
  18  -6  -2   19.03    1.19
  19  -7  -2    3.44    0.79
  19  -7  -2    2.36    0.76
 -12  19  -2    2.44    0.80
   7  12   2    2.06    0.78
  18 -13  -2    1.49    0.76
  -5  18  -2    2.32    0.74
  13   5   2    2.85    0.79
  17 -13  -2    1.59    0.68
  -4  17  -2   -0.55    0.64
  13   4   2    1.44    0.71
  16 -13  -2    2.14    0.73
  -3  16  -2    2.17    0.66
  13   3   2    2.75    0.73
  -2  15  -2   10.75    0.93
  15 -13  -2    8.94    0.95
  13   2   2    9.72    0.95
  14 -13  -2    4.59    0.78
  -1  14  -2    4.59    0.72
  13   1   2    3.97    0.69
  13 -13  -2   11.34    0.94
   0  13  -2   11.56    0.90
  13   0   2    8.94    0.89
   1  12  -2    7.29    0.72
  12 -13  -2    7.94    0.84
  13  -1   2    6.86    0.77
  11 -13  -2    1.26    0.59
   2  11  -2    1.00    0.53
  13  -2   2    1.15    0.58
   3  10  -2   12.22    0.90
  10 -13  -2   11.60    0.92
  13  -3   2   10.43    0.87
   4   9  -2    7.85    0.70
  -9  13   2    8.83    0.85
  13  -4   2    8.72    0.80
   5   8  -2    7.37    0.66
  13  -5   2    6.51    0.72
  -8  13   2    7.86    0.81
   6   7  -2   14.61    0.89
  -7  13   2   13.83    0.96
  13  -6   2   13.95    0.91
   7   6  -2   18.99    0.96
  -6  13   2   18.64    1.07
  13  -7   2   17.33    1.02
   8   5  -2    9.25    0.73
   8   5  -2   10.81    0.70
  -5  13   2    8.79    0.84
  13  -8   2    8.96    0.76
   9   4  -2    9.15    0.73
   9   4  -2    8.13    0.71
  13  -9   2    8.82    0.77
  -4  13   2    7.57    0.79
  10   3  -2   14.27    0.85
  10   3  -2   13.81    0.91
  13 -10   2   13.53    0.94
  -3  13   2   13.69    0.97
  11   2  -2    1.52    0.47
  11   2  -2    2.05    0.55
  -2  13   2    1.53    0.58
  13 -11   2    1.51    0.55
  12   1  -2    9.31    0.78
  12   1  -2    8.31    0.71
  13 -12   2    8.50    0.79
  -1  13   2    7.54    0.81
  13   0  -2    7.24    0.71
  13   0  -2    7.87    0.71
  13 -13   2    6.44    0.74
   0  13   2    6.20    0.79
  14  -1  -2    2.16    0.57
  14  -1  -2    2.08    0.63
   1  13   2    1.74    0.68
  13 -14   2    2.16    0.62
  15  -2  -2    8.54    0.80
  15  -2  -2    7.31    0.78
  13 -15   2    8.89    0.82
   2  13   2    9.46    0.95
  16  -3  -2    3.54    0.67
  16  -3  -2    3.35    0.70
  13 -16   2    2.82    0.67
   3  13   2    3.54    0.78
  17  -4  -2    0.91    0.64
  17  -4  -2    0.49    0.63
  13 -17   2    0.09    0.62
   4  13   2    1.80    0.72
  18  -5  -2    2.17    0.67
  18  -5  -2    1.43    0.71
   5  13   2    2.19    0.77
  -4  18  -2    5.41    0.86
  18 -14  -2    3.90    0.87
  14   4   2    4.51    0.85
  -3  17  -2   20.56    1.27
  17 -14  -2   18.05    1.32
  14   3   2   21.61    1.27
  16 -14  -2   10.95    1.04
  -2  16  -2    9.94    0.96
  14   2   2   11.56    1.02
  -1  15  -2    7.76    0.84
  15 -14  -2    8.14    0.91
  14   1   2    8.37    0.89
  14 -14  -2   23.27    1.34
   0  14  -2   23.40    1.24
  14   0   2   22.84    1.26
   1  13  -2    4.51    0.70
  13 -14  -2    4.30    0.79
  14  -1   2    3.64    0.70
  12 -14  -2   23.26    1.31
   2  12  -2   24.68    1.19
  14  -2   2   24.43    1.30
  11 -14  -2   27.87    1.36
   3  11  -2   29.02    1.23
  14  -3   2   33.38    1.44
   4  10  -2    1.55    0.55
  10 -14  -2    1.76    0.60
  14  -4   2    1.03    0.59
   5   9  -2   18.25    1.00
  -9  14   2   19.32    1.16
  14  -5   2   20.18    1.08
   6   8  -2   16.42    0.89
  14  -6   2   15.73    1.04
  -8  14   2   13.55    1.12
   7   7  -2   -0.27    0.48
  -7  14   2    0.70    0.55
  14  -7   2    0.69    0.56
   8   6  -2   17.87    0.97
  14  -8   2   16.25    1.04
  -6  14   2   17.44    1.15
   9   5  -2   21.10    1.04
  -5  14   2   20.30    1.14
  14  -9   2   18.48    1.05
  10   4  -2    2.81    0.57
  14 -10   2    2.53    0.63
  -4  14   2    2.82    0.69
  11   3  -2   30.17    1.28
  14 -11   2   29.92    1.36
  -3  14   2   32.66    1.42
  12   2  -2   26.75    1.21
  12   2  -2   26.46    1.16
  14 -12   2   27.80    1.23
  -2  14   2   25.83    1.32
  13   1  -2    2.07    0.55
  13   1  -2    1.87    0.59
  -1  14   2    1.74    0.68
  14 -13   2    1.83    0.58
  14   0  -2   21.11    1.17
  14   0  -2   20.96    1.15
  14 -14   2   21.16    1.19
   0  14   2   21.85    1.31
  15  -1  -2    8.80    0.84
  15  -1  -2    8.66    0.80
  14 -15   2    8.05    0.82
   1  14   2    8.06    0.93
  16  -2  -2   12.82    1.00
  16  -2  -2   11.53    0.96
  14 -16   2   12.02    0.98
   2  14   2   12.84    1.07
  17  -3  -2   16.90    1.18
  17  -3  -2   13.89    1.10
   3  14   2   18.41    1.30
  14 -17   2   17.90    1.17
  18  -4  -2    4.06    0.77
  18  -4  -2    4.30    0.78
   4  14   2    4.79    0.89
  14 -18   2    4.35    0.78
  18 -15  -2   11.76    1.15
  -3  18  -2   14.35    1.10
  15   3   2   14.45    1.16
  -2  17  -2    9.30    0.96
  17 -15  -2    7.82    0.98
  15   2   2    7.07    0.96
  16 -15  -2    5.76    0.89
  -1  16  -2    5.41    0.80
  15   1   2    5.28    0.89
   0  15  -2   16.86    1.13
  15 -15  -2   15.13    1.23
  15   0   2   16.20    1.22
  14 -15  -2    8.70    0.93
   1  14  -2    8.61    0.86
  15  -1   2    7.56    0.92
  13 -15  -2    9.37    0.97
   2  13  -2    9.94    0.88
  15  -2   2    9.99    0.94
   3  12  -2   36.50    1.44
  12 -15  -2   32.62    1.51
  15  -3   2   32.55    1.49
   4  11  -2   24.59    1.19
  11 -15  -2   23.75    1.28
  15  -4   2   24.78    1.27
   5  10  -2    3.33    0.62
  15  -5   2    2.98    0.69
   6   9  -2   28.21    1.16
  -9  15   2   25.46    1.35
  15  -6   2   25.90    1.28
   7   8  -2   28.20    1.22
  -8  15   2   26.80    1.40
  15  -7   2   30.36    1.38
   8   7  -2   25.96    1.12
  15  -8   2   24.93    1.28
  -7  15   2   24.47    1.29
   9   6  -2   24.08    1.14
  15  -9   2   24.34    1.25
  -6  15   2   24.97    1.36
  10   5  -2    4.23    0.60
  15 -10   2    4.37    0.68
  -5  15   2    3.12    0.73
  11   4  -2   30.74    1.30
  15 -11   2   29.78    1.40
  -4  15   2   33.11    1.48
  12   3  -2   34.15    1.37
  15 -12   2   31.32    1.44
  -3  15   2   33.58    1.50
  13   2  -2    6.01    0.73
  -2  15   2    7.85    0.92
  15 -13   2    7.50    0.79
  14   1  -2    9.17    0.84
  15 -14   2    7.57    0.84
  -1  15   2    7.36    0.90
  15   0  -2   17.74    1.14
   0  15   2   18.88    1.29
  15 -15   2   16.69    1.16
  16  -1  -2    4.56    0.74
  15 -16   2    4.26    0.77
   1  15   2    4.48    0.83
  17  -2  -2    9.86    0.91
   2  15   2    9.64    1.02
  15 -17   2    9.79    0.95
  18  -3  -2   15.30    1.15
   3  15   2   13.43    1.20
  15 -18   2   12.95    1.07
  17 -16  -2    6.22    0.98
  -1  17  -2    7.56    0.92
  16   1   2    8.26    0.97
  16 -16  -2    5.21    0.91
   0  16  -2    3.41    0.75
  16   0   2    4.55    0.87
   1  15  -2    5.61    0.82
  15 -16  -2    5.42    0.90
  16  -1   2    5.71    0.89
  14 -16  -2   10.36    1.04
   2  14  -2   11.50    0.95
  16  -2   2   11.92    1.04
   3  13  -2    2.81    0.67
  13 -16  -2    4.21    0.78
  16  -3   2    2.59    0.75
  12 -16  -2    1.34    0.69
   4  12  -2    0.87    0.58
  16  -4   2    2.19    0.68
   5  11  -2    6.75    0.75
  11 -16  -2    5.38    0.82
  16  -5   2    6.56    0.86
   6  10  -2    0.87    0.55
  16  -6   2    0.44    0.58
   7   9  -2    2.52    0.56
  -9  16   2    2.02    0.72
  16  -7   2    1.35    0.63
   8   8  -2   52.14    1.74
  16  -8   2   49.44    1.92
   9   7  -2    1.48    0.56
  16  -9   2    2.38    0.67
  -7  16   2    1.86    0.71
  10   6  -2    0.87    0.54
  16 -10   2    0.19    0.59
  -6  16   2    0.28    0.68
  11   5  -2    4.99    0.67
  16 -11   2    4.76    0.78
  -5  16   2    4.82    0.82
  12   4  -2    2.68    0.61
  16 -12   2    2.07    0.68
  -4  16   2    1.91    0.71
  13   3  -2    4.86    0.71
  16 -13   2    4.00    0.76
  -3  16   2    3.72    0.82
  14   2  -2   12.58    1.02
  16 -14   2   12.14    1.01
  -2  16   2   12.89    1.12
  15   1  -2    5.04    0.74
  -1  16   2    4.85    0.87
  16 -15   2    4.09    0.75
  16   0  -2    5.17    0.77
   0  16   2    6.58    0.96
  16 -16   2    4.54    0.79
  17  -1  -2    8.82    0.91
  16 -17   2    8.05    0.93
   1  16   2    9.00    1.06
   1  16  -2    8.17    0.90
  16 -17  -2    6.88    0.96
  17  -1   2    8.75    1.00
  15 -17  -2    9.03    1.03
   2  15  -2    8.60    0.90
  17  -2   2    9.88    1.05
  14 -17  -2   18.11    1.34
   3  14  -2   17.56    1.16
  17  -3   2   19.57    1.28
  13 -17  -2    0.54    0.73
   4  13  -2    0.61    0.61
  17  -4   2    0.25    0.64
  12 -17  -2   19.16    1.25
   5  12  -2   18.40    1.12
  17  -5   2   18.36    1.28
   6  11  -2   11.71    0.91
  11 -17  -2   11.10    1.02
  17  -6   2   10.86    1.02
   7  10  -2    1.76    0.61
  17  -7   2    1.76    0.67
   8   9  -2   15.12    0.99
  -9  17   2   16.27    1.30
  17  -8   2   15.40    1.11
   9   8  -2   13.45    0.97
  17  -9   2   14.24    1.08
  -8  17   2   14.33    1.20
  10   7  -2    2.11    0.60
  17 -10   2    0.90    0.63
  -7  17   2    2.54    0.75
  11   6  -2   11.23    0.87
  17 -11   2   10.12    0.97
  -6  17   2   10.39    1.08
  12   5  -2   18.31    1.09
  17 -12   2   20.10    1.21
  -5  17   2   19.59    1.36
  13   4  -2    0.32    0.57
  17 -13   2   -0.39    0.63
  -4  17   2   -0.05    0.71
  14   3  -2   15.93    1.08
  17 -14   2   16.28    1.20
  -3  17   2   15.98    1.29
  15   2  -2   10.18    0.94
  -2  17   2   10.43    1.07
  17 -15   2    8.88    0.93
  17 -16   2    8.50    0.96
  -1  17   2    8.75    1.03
   3  15  -2   12.15    1.03
  18  -3   2   15.08    1.20
  14 -18  -2    3.60    0.85
   4  14  -2    5.31    0.79
  18  -4   2    5.80    0.93
  13 -18  -2    2.24    0.81
   5  13  -2    1.54    0.66
  18  -5   2    0.53    0.69
  12 -18  -2   19.40    1.38
   6  12  -2   19.52    1.15
  18  -6   2   17.77    1.25
  11 -18  -2    2.68    0.78
   7  11  -2    3.38    0.70
  18  -7   2    3.23    0.81
   8  10  -2   12.62    0.97
  18  -8   2   13.08    1.10
   9   9  -2   20.47    1.18
  -9  18   2   18.70    1.41
  18  -9   2   20.85    1.28
  10   8  -2   10.36    0.88
  18 -10   2   10.55    1.02
  -8  18   2    9.50    1.07
  11   7  -2    3.72    0.68
  18 -11   2    2.85    0.80
  -7  18   2    3.14    0.83
  -6  18   2   19.50    1.33
  18 -12   2   21.09    1.32
  18 -13   2    2.19    0.76
  -5  18   2    2.24    0.85
  18 -14   2    3.72    0.82
  -4  18   2    5.24    0.91
  18 -15   2   14.49    1.21
  12 -19  -2    2.17    0.86
  19  -7   2    2.16    0.79
  11 -19  -2    4.47    0.93
  19  -8   2    5.48    0.92
  10 -19  -2    1.95    0.79
  19  -9   2    3.33    0.84
  -9  19   2    1.12    0.87
  19 -10   2    3.09    0.78
  19 -11   2    5.85    0.94
  -8  19   2    5.71    0.96
  -7  19   2    2.05    0.90
  19 -12   2    3.07    0.84
   0   0  -3   99.00    2.46
   0   0   3  104.70    2.51
   1  -1  -3   18.80    0.68
   0   1  -3   19.93    0.73
  -1   0  -3   20.15    0.93
  -1   0  -3   20.64    0.65
   1   0   3   17.89    0.66
   0  -1   3   18.52    0.56
  -1   1   3   19.07    0.67
   0  -1  -3   16.14    0.60
   1   0  -3   17.35    0.65
  -1   1  -3   17.85    0.81
  -1   1  -3   18.19    0.63
  -1   0   3   15.48    0.54
   1  -1   3   15.99    0.55
   0   1   3   16.15    0.63
  -1  -1  -3    3.20    0.26
   2  -1  -3    2.99    0.35
  -1  -1  -3    2.82    0.42
  -1   2  -3    3.10    0.34
  -2   1   3    4.02    0.30
   1   1   3    3.09    0.33
   1  -2   3    3.82    0.27
  -2  -1  -3   85.74    1.98
  -2  -1  -3   80.99    2.35
  -1   3  -3   85.23    2.14
   3  -2  -3   82.68    2.16
  -3   2   3   88.17    2.17
   2   1   3   86.05    2.22
   2  -2  -3   10.44    0.56
  -2   0  -3   11.48    0.46
  -2   0  -3   10.85    0.70
   0   2  -3   10.88    0.57
   2   0   3   12.63    0.58
  -2   2   3   11.85    0.55
  -2   1  -3    2.51    0.41
  -2   1  -3    3.24    0.30
   1   1  -3    2.15    0.33
   1  -2  -3    2.54    0.29
  -1   2   3    2.95    0.32
   2  -1   3    3.33    0.29
  -2   2  -3   14.04    0.58
   0  -2  -3   13.59    0.54
   0  -2  -3   13.06    0.74
   2   0  -3   13.35    0.67
  -2   2  -3   13.58    0.81
   2  -2   3   15.72    0.53
   0   2   3   14.70    0.62
   3  -1  -3   98.11    2.50
   3  -1  -3   98.02    2.48
  -2   3  -3  102.27    2.72
  -1  -2  -3  102.92    2.35
  -1  -2  -3   97.32    2.69
  -2   3  -3  100.80    2.47
   1   2   3  103.99    2.60
   2  -3   3  104.23    2.45
   4  -2  -3   22.74    0.78
  -2  -2  -3   24.15    0.96
  -2  -2  -3   23.94    0.58
  -2   4  -3   24.30    0.87
   4  -2  -3   23.34    0.87
  -2   4  -3   24.11    1.00
   2   2   3   22.25    0.88
   2  -4   3   21.63    0.65
  -2   5  -3   46.00    1.35
   5  -3  -3   46.06    1.28
  -3  -2  -3   46.77    1.48
   3   2   3   42.46    1.35
   2  -5   3   41.87    1.11
  -1   4  -3   50.77    1.42
  -3  -1  -3   48.42    1.56
   3   1   3   51.55    1.47
  -4   3   3   50.13    1.44
  -3   0  -3  165.06    4.35
  -3   0  -3  177.19    3.91
   0   3  -3  172.18    4.08
  -3   3   3  170.96    4.21
   3   0   3  171.97    4.22
  -3   1  -3   83.50    2.04
   1   2  -3   84.15    2.17
   3  -1   3   85.26    2.19
  -2   3   3   89.38    2.23
   1  -3  -3   98.63    2.68
  -3   2  -3  100.69    2.42
   1  -3  -3  103.60    2.42
   2   1  -3  100.28    2.52
  -3   2  -3   96.03    2.72
  -1   3   3  103.01    2.59
   3  -2   3  104.78    2.53
   0  -3  -3  151.52    3.54
  -3   3  -3  151.99    3.93
   0  -3  -3  153.17    3.92
   3   0  -3  149.65    3.69
  -3   3  -3  155.02    3.63
   3   0  -3  155.51    3.67
   0   3   3  154.37    3.83
   3  -3   3  158.69    3.73
   4  -1  -3   51.07    1.36
  -3   4  -3   52.04    1.43
  -3   4  -3   50.65    1.56
   4  -1  -3   51.97    1.47
  -1  -3  -3   54.11    1.25
  -1  -3  -3   48.03    1.58
   3  -4   3   51.30    1.34
   1   3   3   53.06    1.50
  -3   5  -3   31.75    1.10
   5  -2  -3   30.84    1.07
  -2  -3  -3   29.65    1.11
  -3   5  -3   31.35    1.04
   5  -2  -3   30.95    0.95
   2   3   3   30.38    1.05
   3  -5   3   31.49    0.87
   6  -3  -3   82.22    2.12
  -3   6  -3   82.08    2.24
  -3  -3  -3   78.64    2.26
  -3   6  -3   81.00    2.13
   3  -6   3   79.38    1.99
   3   3   3   78.62    2.21
   7  -4  -3   10.51    0.62
  -4  -3  -3   10.10    0.82
  -3   7  -3   10.72    0.73
  -3   7  -3   11.15    0.73
   3  -7   3   10.52    0.47
   4   3   3    9.57    0.69
  -4  -2  -3   44.73    1.48
   6  -4  -3   44.43    1.36
  -2   6  -3   43.88    1.40
   4   2   3   45.92    1.44
   2  -6   3   45.66    1.14
  -1   5  -3    4.27    0.46
  -4  -1  -3    3.17    0.48
  -5   4   3    3.81    0.44
   4   1   3    4.45    0.45
   0   4  -3  111.66    2.81
  -4   0  -3  113.77    2.55
  -4   4   3  112.44    2.88
   4   0   3  109.40    2.87
   1   3  -3   49.78    1.45
  -4   1  -3   48.54    1.58
  -4   1  -3   52.85    1.28
   4  -1   3   51.68    1.45
  -3   4   3   51.87    1.47
  -4   2  -3   22.00    0.93
   2   2  -3   22.03    0.84
  -4   2  -3   22.52    0.71
   4  -2   3   21.76    0.80
  -2   4   3   20.75    0.85
  -4   3  -3   50.64    1.56
  -4   3  -3   52.10    1.37
   3   1  -3   52.08    1.50
   1  -4  -3   52.91    1.57
  -1   4   3   49.62    1.49
   4  -3   3   49.47    1.39
   0  -4  -3  101.19    2.80
  -4   4  -3  105.25    2.84
  -4   4  -3  105.55    2.59
   4   0  -3  102.88    2.66
   0  -4  -3  108.14    2.47
   4   0  -3  105.85    2.57
   4  -4   3  106.35    2.63
   0   4   3  110.36    2.77
  -4   5  -3    3.43    0.41
   5  -1  -3    3.62    0.29
   5  -1  -3    3.50    0.44
  -4   5  -3    4.11    0.48
  -1  -4  -3    4.19    0.26
  -1  -4  -3    3.64    0.48
   1   4   3    3.19    0.44
   4  -5   3    3.67    0.32
  -4   6  -3   43.20    1.33
   6  -2  -3   44.42    1.41
  -4   6  -3   43.55    1.41
   6  -2  -3   43.62    1.24
  -2  -4  -3   42.93    1.40
   4  -6   3   42.87    1.20
   2   4   3   42.59    1.41
   7  -3  -3    9.68    0.59
  -4   7  -3    9.05    0.71
  -4   7  -3    9.77    0.71
  -3  -4  -3    8.24    0.65
   4  -7   3    9.82    0.49
   3   4   3    8.65    0.72
   8  -4  -3    5.33    0.46
  -4   8  -3    4.40    0.49
  -4  -4  -3    3.77    0.55
  -4   8  -3    4.56    0.51
   4   4   3    4.38    0.52
   4  -8   3    4.35    0.35
  -5  -4  -3   27.76    1.18
   9  -5  -3   28.10    1.06
  -4   9  -3   26.90    1.15
  -4   9  -3   30.24    1.10
   5   4   3   28.44    1.15
  -3   8  -3   54.74    1.64
  -5  -3  -3   52.12    1.74
  -3   8  -3   55.23    1.65
   8  -5  -3   52.23    1.59
   5   3   3   52.71    1.67
   7  -5  -3    4.90    0.47
  -5  -2  -3    5.09    0.57
  -2   7  -3    4.58    0.51
   5   2   3    5.36    0.54
  -1   6  -3   14.97    0.76
  -5  -1  -3   16.37    0.93
   5   1   3   14.67    0.75
  -5   0  -3   53.66    1.71
   0   5  -3   52.41    1.54
   5   0   3   53.57    1.57
  -5   5   3   52.94    1.58
  -5   1  -3    3.25    0.48
  -5   1  -3    3.94    0.25
   1   4  -3    3.08    0.42
  -4   5   3    3.61    0.44
   5  -1   3    3.43    0.41
  -5   2  -3   46.73    1.17
   2   3  -3   45.56    1.34
  -5   2  -3   45.11    1.45
  -3   5   3   42.51    1.36
   5  -2   3   42.02    1.31
  -5   3  -3   31.49    0.95
   2  -5  -3   31.60    1.08
  -5   3  -3   33.33    1.16
   3   2  -3   31.19    1.07
  -2   5   3   32.36    1.12
   5  -3   3   31.68    1.01
   4   1  -3    4.27    0.29
  -5   4  -3    4.08    0.48
  -5   4  -3    3.94    0.37
   1  -5  -3    3.69    0.44
   4   1  -3    3.61    0.44
   5  -4   3    3.80    0.35
  -1   5   3    3.39    0.42
   5   0  -3   49.46    1.29
  -5   5  -3   47.57    1.55
   0  -5  -3   49.20    1.51
  -5   5  -3   49.72    1.39
   5   0  -3   47.71    1.47
   0   5   3   49.66    1.50
   5  -5   3   49.18    1.37
   6  -1  -3   22.82    0.74
  -5   6  -3   22.45    0.95
   6  -1  -3   23.39    0.99
  -1  -5  -3   21.04    0.93
  -5   6  -3   21.93    0.88
   1   5   3   20.09    0.95
   5  -6   3   19.27    0.76
   7  -2  -3    2.89    0.34
  -2  -5  -3    3.18    0.45
  -5   7  -3    2.94    0.45
   7  -2  -3    2.93    0.47
  -5   7  -3    2.53    0.43
   2   5   3    3.46    0.51
   5  -7   3    3.34    0.34
  -3  -5  -3   53.00    1.69
  -5   8  -3   48.48    1.56
  -5   8  -3   53.49    1.61
   8  -3  -3   51.34    1.52
   5  -8   3   54.80    1.47
   3   5   3   54.98    1.71
  -5   9  -3   25.01    1.01
   9  -4  -3   23.07    0.95
  -5   9  -3   23.01    1.01
  -4  -5  -3   24.49    1.11
   4   5   3   24.81    1.05
   5  -9   3   25.01    0.85
  -5  10  -3    9.34    0.74
  -5  -5  -3    9.99    0.78
  10  -5  -3   10.18    0.69
  -5  10  -3    9.92    0.72
   5   5   3    8.53    0.71
  -5  11  -3   37.96    1.37
  11  -6  -3   37.87    1.32
   6   5   3   34.93    1.39
  -6  -4  -3    2.29    0.58
  10  -6  -3    2.67    0.47
  -4  10  -3    2.37    0.43
  -4  10  -3    1.68    0.49
   6   4   3    1.78    0.52
   9  -6  -3   48.58    1.51
  -6  -3  -3   46.99    1.65
  -3   9  -3   48.70    1.55
  -3   9  -3   51.34    1.53
   6   3   3   47.23    1.59
   8  -6  -3   55.01    1.65
  -2   8  -3   53.44    1.64
  -6  -2  -3   52.99    1.79
   6   2   3   53.87    1.68
   7  -6  -3   34.77    1.21
  -1   7  -3   35.01    1.21
  -6  -1  -3   35.45    1.33
   6   1   3   36.37    1.27
   0   6  -3  118.91    3.09
  -6   0  -3  120.69    3.30
  -6   6   3  126.80    3.24
   6   0   3  124.44    3.21
   1   5  -3   17.12    0.81
  -6   1  -3   18.27    0.90
  -5   6   3   15.72    0.84
   6  -1   3   15.50    0.79
  -6   2  -3   44.41    1.50
  -6   2  -3   45.55    1.17
   2   4  -3   44.87    1.38
  -4   6   3   46.04    1.45
   6  -2   3   44.79    1.38
   3   3  -3   81.94    2.18
   3  -6  -3   83.17    2.23
  -6   3  -3   81.73    2.32
  -6   3  -3   83.90    2.02
  -3   6   3   78.74    2.25
   6  -3   3   80.44    2.18
  -6   4  -3   40.81    1.40
   4   2  -3   41.42    1.32
   2  -6  -3   43.15    1.36
  -6   4  -3   44.45    1.22
   6  -4   3   40.86    1.29
  -2   6   3   43.57    1.36
  -6   5  -3   22.02    0.97
   1  -6  -3   20.36    0.87
   5   1  -3   19.89    0.88
  -6   5  -3   20.30    0.80
   5   1  -3   21.84    0.65
   6  -5   3   18.52    0.77
  -1   6   3   18.00    0.86
  -6   6  -3  139.11    3.41
   6   0  -3  143.29    3.42
  -6   6  -3  136.95    3.63
   6   0  -3  141.74    3.50
   0  -6  -3  137.57    3.60
   0   6   3  141.52    3.64
   6  -6   3  138.16    3.49
  -1  -6  -3   31.88    1.17
   7  -1  -3   31.44    0.99
   7  -1  -3   32.21    1.18
  -6   7  -3   33.19    1.17
  -6   7  -3   31.34    1.11
   1   6   3   31.74    1.19
   6  -7   3   32.06    1.04
  -2  -6  -3   57.86    1.77
  -6   8  -3   57.98    1.71
  -6   8  -3   57.46    1.73
   8  -2  -3   60.29    1.81
   8  -2  -3   58.61    1.61
   2   6   3   56.87    1.80
   6  -8   3   57.89    1.61
  -3  -6  -3   42.16    1.45
   9  -3  -3   43.84    1.49
   9  -3  -3   43.54    1.34
  -6   9  -3   45.27    1.46
  -6   9  -3   46.13    1.43
   6  -9   3   42.72    1.31
   3   6   3   43.63    1.55
  -6  10  -3    2.15    0.49
  -4  -6  -3    2.43    0.52
  -6  10  -3    2.21    0.43
  10  -4  -3    2.35    0.43
   6 -10   3    2.07    0.39
   4   6   3    2.47    0.56
  11  -5  -3   29.46    1.14
  -6  11  -3   26.97    1.16
   5   6   3   29.31    1.27
  12  -6  -3   26.97    1.09
  -6  12  -3   23.82    1.17
   6   6   3   21.60    1.10
  13  -7  -3   12.78    0.88
  -6  13  -3   12.72    0.91
   7   6   3   10.95    0.88
  -5  12  -3   24.93    1.17
  12  -7  -3   23.49    1.07
   7   5   3   21.81    1.12
  -4  11  -3    8.73    0.75
  11  -7  -3   10.22    0.72
   7   4   3    8.15    0.76
  10  -7  -3    9.07    0.70
  -3  10  -3   10.60    0.74
  -7  -3  -3    9.24    0.80
  -3  10  -3   10.19    0.78
   7   3   3    9.26    0.75
  -7  -2  -3    7.48    0.73
  -2   9  -3    7.06    0.66
   9  -7  -3    8.62    0.65
   7   2   3    5.10    0.57
   8  -7  -3    5.59    0.56
  -1   8  -3    4.47    0.58
  -7  -1  -3    5.76    0.64
   7   1   3    3.83    0.53
   0   7  -3   28.07    1.06
  -7   0  -3   27.58    1.17
  -7   7   3   27.92    1.11
   7   0   3   25.86    1.09
  -7   1  -3   34.91    1.37
   1   6  -3   32.91    1.23
   7  -1   3   36.03    1.22
  -6   7   3   36.95    1.27
   2   5  -3    4.33    0.50
  -7   2  -3    5.49    0.61
  -5   7   3    5.12    0.53
   7  -2   3    4.48    0.47
   3   4  -3    9.45    0.67
  -7   3  -3   10.28    0.53
  -7   3  -3   10.23    0.77
   7  -3   3   10.97    0.68
  -4   7   3   10.94    0.77
   4   3  -3    9.27    0.66
  -7   4  -3    8.84    0.72
  -7   4  -3    9.87    0.57
   3  -7  -3    9.02    0.63
   7  -4   3    9.22    0.63
  -3   7   3    9.72    0.75
   2  -7  -3    3.00    0.41
   5   2  -3    2.71    0.46
  -7   5  -3    3.03    0.38
  -7   5  -3    2.77    0.48
  -2   7   3    3.78    0.48
   7  -5   3    3.21    0.41
   6   1  -3   33.91    0.95
  -7   6  -3   31.75    1.22
   6   1  -3   30.82    1.14
   1  -7  -3   31.30    1.10
  -7   6  -3   31.34    1.07
   7  -6   3   32.58    1.07
  -1   7   3   32.49    1.22
   7   0  -3   33.39    1.01
  -7   7  -3   30.42    1.20
  -7   7  -3   32.59    1.13
   0  -7  -3   32.10    1.14
   7   0  -3   33.52    1.25
   7  -7   3   34.48    1.11
   0   7   3   30.87    1.25
  -1  -7  -3    7.19    0.56
   8  -1  -3    6.38    0.53
   8  -1  -3    6.44    0.63
  -7   8  -3    6.80    0.58
  -7   8  -3    6.45    0.57
   1   7   3    5.64    0.60
   7  -8   3    6.10    0.48
   9  -2  -3    6.44    0.64
   9  -2  -3    7.06    0.55
  -7   9  -3    8.40    0.60
  -2  -7  -3    7.18    0.60
  -7   9  -3    6.90    0.62
   2   7   3    5.16    0.62
   7  -9   3    5.10    0.48
  -7  10  -3   12.51    0.87
  -7  10  -3   12.84    0.80
  -3  -7  -3   13.81    0.86
  10  -3  -3   12.08    0.91
  10  -3  -3   14.06    0.73
   3   7   3   13.37    0.87
   7 -10   3   12.79    0.72
  -7  11  -3    9.29    0.76
  11  -4  -3   10.80    0.69
  11  -4  -3    8.82    0.75
   4   7   3    7.34    0.75
  12  -5  -3   21.74    1.00
  -7  12  -3   22.31    1.13
   5   7   3   22.38    1.13
  13  -6  -3   12.78    0.85
  -7  13  -3    9.71    0.84
   6   7   3   12.67    0.98
  -7  14  -3    9.23    0.84
  14  -7  -3   11.82    0.88
   7   7   3   11.67    0.93
  -7  15  -3    6.32    0.79
  15  -8  -3    6.66    0.74
   8   7   3    5.97    0.78
  14  -8  -3   10.88    0.88
  -6  14  -3    9.03    0.87
   8   6   3    8.12    0.84
  13  -8  -3    0.91    0.49
  -5  13  -3    0.77    0.53
   8   5   3    1.44    0.59
  -4  12  -3   86.33    2.48
  12  -8  -3   82.04    2.44
   8   4   3   82.25    2.52
  11  -8  -3   10.79    0.84
  -3  11  -3   11.28    0.90
   8   3   3   11.27    0.88
  -2  10  -3    5.42    0.62
  10  -8  -3    5.09    0.60
   8   2   3    4.51    0.62
   9  -8  -3   24.49    1.11
  -8  -1  -3   25.60    1.19
  -1   9  -3   25.57    1.08
   8   1   3   24.90    1.12
  -8   0  -3   69.49    2.17
   8  -8  -3   71.61    2.09
   0   8  -3   70.96    2.05
   8   0   3   67.40    2.08
   1   7  -3    5.24    0.59
  -8   1  -3    5.01    0.65
  -7   8   3    4.95    0.59
   8  -1   3    5.84    0.57
   2   6  -3   54.09    1.64
  -8   2  -3   53.77    1.78
   8  -2   3   55.46    1.69
  -6   8   3   53.20    1.74
  -8   3  -3   52.66    1.73
   3   5  -3   52.32    1.59
  -5   8   3   52.45    1.67
   8  -3   3   54.45    1.64
   4  -8  -3    4.47    0.43
   4   4  -3    3.89    0.49
  -8   4  -3    4.41    0.59
   8  -4   3    4.68    0.50
  -4   8   3    4.85    0.54
  -8   5  -3   53.21    1.45
  -8   5  -3   50.22    1.71
   3  -8  -3   50.60    1.53
   5   3  -3   51.50    1.59
   8  -5   3   53.13    1.58
  -3   8   3   52.90    1.68
  -8   6  -3   57.25    1.81
   6   2  -3   58.24    1.73
   2  -8  -3   57.83    1.65
  -8   6  -3   58.61    1.62
  -2   8   3   55.39    1.80
   8  -6   3   56.20    1.69
   7   1  -3    6.70    0.59
   7   1  -3    6.98    0.50
  -8   7  -3    7.17    0.56
  -8   7  -3    6.29    0.59
   1  -8  -3    8.00    0.64
   8  -7   3    5.16    0.50
  -1   8   3    5.18    0.61
  -8   8  -3   61.38    1.80
   8   0  -3   60.98    1.87
   0  -8  -3   61.70    1.82
   8   0  -3   62.76    1.71
  -8   8  -3   65.17    1.89
   0   8   3   62.59    1.94
   8  -8   3   59.16    1.77
  -8   9  -3   25.04    1.02
  -8   9  -3   25.63    1.04
   9  -1  -3   24.30    1.15
  -1  -8  -3   25.26    1.01
   9  -1  -3   24.46    0.92
   1   8   3   23.63    1.10
   8  -9   3   25.37    0.98
  -8  10  -3    6.05    0.61
  -8  10  -3    7.46    0.59
  10  -2  -3    7.55    0.56
  -2  -8  -3    7.44    0.62
  10  -2  -3    6.62    0.66
   2   8   3    5.90    0.67
   8 -10   3    6.07    0.55
  11  -3  -3   12.40    0.79
  11  -3  -3   13.71    0.91
  -8  11  -3   10.87    0.80
   8 -11   3   12.05    0.76
   3   8   3   13.96    0.91
  12  -4  -3   86.28    2.41
  12  -4  -3   86.34    2.47
  -8  12  -3   80.54    2.41
   4   8   3   83.89    2.56
  13  -5  -3    1.73    0.60
  -8  13  -3    2.82    0.62
  13  -5  -3    2.25    0.51
   5   8   3    0.55    0.58
  -8  14  -3    8.82    0.85
  14  -6  -3    9.85    0.79
   6   8   3    9.06    0.87
  15  -7  -3    6.43    0.74
  -8  15  -3    7.79    0.86
   7   8   3    8.23    0.86
  16  -8  -3    7.96    0.81
  -8  16  -3    6.80    0.87
   8   8   3    7.57    0.87
  -8  17  -3    5.98    0.86
  17  -9  -3    5.52    0.79
   9   8   3    5.94    0.89
  -7  16  -3    9.06    0.93
  16  -9  -3    8.44    0.84
   9   7   3    9.47    0.96
  15  -9  -3   29.27    1.34
  -6  15  -3   28.63    1.41
   9   6   3   31.38    1.46
  -5  14  -3   22.65    1.23
  14  -9  -3   22.23    1.10
   9   5   3   20.46    1.20
  13  -9  -3    9.09    0.78
  -4  13  -3    7.76    0.79
   9   4   3    8.53    0.80
  12  -9  -3   48.00    1.68
  -3  12  -3   45.71    1.65
   9   3   3   49.52    1.70
  11  -9  -3   24.40    1.14
  -2  11  -3   22.73    1.08
   9   2   3   22.93    1.16
  10  -9  -3    4.29    0.61
  -1  10  -3    3.59    0.60
   9   1   3    3.27    0.58
   0   9  -3   66.79    2.03
   9  -9  -3   66.04    2.06
   9   0   3   67.59    2.05
   1   8  -3   25.15    1.06
  -9   1  -3   24.56    1.18
  -8   9   3   25.44    1.14
   9  -1   3   26.21    1.13
  -9   2  -3    8.38    0.76
   2   7  -3    7.00    0.61
  -7   9   3    5.58    0.67
   9  -2   3    5.92    0.60
  -9   3  -3   47.64    1.67
   3   6  -3   48.46    1.53
  -6   9   3   47.93    1.62
   9  -3   3   48.20    1.55
  -9   4  -3   27.75    1.24
   5  -9  -3   27.36    0.99
   4   5  -3   28.19    1.07
   9  -4   3   26.36    1.08
  -5   9   3   26.37    1.14
   4  -9  -3   21.98    0.90
   5   4  -3   23.22    1.05
  -9   5  -3   22.78    1.07
  -4   9   3   25.77    1.12
   9  -5   3   25.72    1.03
   3  -9  -3   43.43    1.32
   6   3  -3   41.17    1.40
  -9   6  -3   43.25    1.30
  -9   6  -3   41.20    1.47
   9  -6   3   43.37    1.41
  -3   9   3   41.05    1.50
   7   2  -3    5.46    0.59
  -9   7  -3    6.62    0.63
  -9   7  -3    8.33    0.66
   2  -9  -3    6.90    0.58
  -2   9   3    5.04    0.61
   9  -7   3    5.18    0.53
  -9   8  -3   25.34    0.99
   8   1  -3   25.15    1.12
  -9   8  -3   25.27    1.09
   1  -9  -3   25.13    0.96
  -1   9   3   23.49    1.11
   9  -8   3   22.90    0.99
   0  -9  -3   67.45    1.92
  -9   9  -3   67.96    1.99
  -9   9  -3   66.37    1.94
   9   0  -3   64.22    2.02
   9   0  -3   66.01    1.84
   9  -9   3   65.31    1.92
   0   9   3   65.44    2.07
  10  -1  -3    4.61    0.61
  -1  -9  -3    6.69    0.58
  10  -1  -3    6.43    0.53
  -9  10  -3    5.46    0.59
  -9  10  -3    6.27    0.61
   1   9   3    4.88    0.68
   9 -10   3    5.82    0.54
  11  -2  -3   32.20    1.31
  11  -2  -3   32.31    1.15
  -9  11  -3   34.36    1.27
   9 -11   3   30.96    1.18
   2   9   3   31.80    1.34
  12  -3  -3   50.86    1.62
  -9  12  -3   50.62    1.71
  12  -3  -3   52.14    1.80
   9 -12   3   52.21    1.63
   3   9   3   51.36    1.85
  -9  13  -3    8.17    0.79
  13  -4  -3    7.85    0.67
  13  -4  -3    6.80    0.78
   4   9   3    7.81    0.80
  -9  14  -3   21.07    1.13
  14  -5  -3   20.66    1.13
  14  -5  -3   20.79    1.10
   5   9   3   23.48    1.21
  15  -6  -3   26.76    1.37
  15  -6  -3   27.68    1.26
  -9  15  -3   29.36    1.34
   6   9   3   28.28    1.37
  16  -7  -3    7.05    0.79
  -9  16  -3    8.73    0.92
  16  -7  -3    6.95    0.87
   7   9   3    8.21    0.92
  17  -8  -3    7.90    0.85
  -9  17  -3    7.30    0.92
   8   9   3    6.70    0.92
  -9  18  -3   15.13    1.23
  18  -9  -3   16.12    1.15
   9   9   3   15.46    1.26
  -8  18  -3    1.43    0.77
  18 -10  -3    3.07    0.75
  10   8   3    2.26    0.77
  -7  17  -3    5.31    0.85
  17 -10  -3    4.54    0.75
  10   7   3    2.87    0.76
  -6  16  -3    6.76    0.89
  16 -10  -3    6.88    0.82
  10   6   3    6.35    0.85
  15 -10  -3    5.47    0.76
  -5  15  -3    5.40    0.78
  10   5   3    5.26    0.80
  -4  14  -3    1.16    0.58
  14 -10  -3    1.61    0.61
  10   4   3    0.99    0.58
  -3  13  -3    1.72    0.58
  13 -10  -3    2.33    0.61
  10   3   3    0.75    0.57
  12 -10  -3   17.70    1.06
  -2  12  -3   18.31    1.08
  10   2   3   19.55    1.06
  11 -10  -3    6.15    0.70
  -1  11  -3    5.72    0.69
  10   1   3    6.36    0.69
  10 -10  -3   22.27    1.13
   0  10  -3   23.37    1.12
  10   0   3   20.93    1.07
   1   9  -3    3.94    0.57
   9 -10  -3    4.34    0.60
  10  -1   3    4.97    0.64
   2   8  -3    4.12    0.56
  10  -2   3    5.04    0.61
  -8  10   3    5.32    0.68
 -10   3  -3   10.64    0.86
   3   7  -3    8.61    0.69
  -7  10   3    9.71    0.77
  10  -3   3    9.64    0.80
 -10   4  -3    2.88    0.61
   4   6  -3    1.91    0.50
  -6  10   3    2.62    0.58
  10  -4   3    3.02    0.53
 -10   5  -3    9.36    0.77
   5   5  -3    8.43    0.70
  10  -5   3    8.91    0.75
  -5  10   3    9.35    0.78
   6   4  -3    1.12    0.45
 -10   6  -3    2.19    0.56
  -4  10   3    1.54    0.50
  10  -6   3    1.36    0.46
   7   3  -3   13.01    0.89
 -10   7  -3   10.53    0.88
  -3  10   3   10.98    0.90
  10  -7   3   13.64    0.79
 -10   8  -3    6.61    0.66
   8   2  -3    6.09    0.66
 -10   8  -3    7.41    0.61
  -2  10   3    5.75    0.66
  10  -8   3    6.99    0.61
 -10   9  -3    5.94    0.60
   9   1  -3    6.34    0.65
 -10   9  -3    6.13    0.64
  10  -9   3    4.49    0.54
  -1  10   3    5.61    0.66
  10   0  -3   24.33    1.20
 -10  10  -3   27.35    1.16
 -10  10  -3   26.62    1.15
   0  10   3   26.92    1.22
  10 -10   3   25.96    1.08
 -10  11  -3    3.98    0.62
  11  -1  -3    4.83    0.65
   1  10   3    5.26    0.69
  10 -11   3    6.06    0.59
  12  -2  -3   18.56    0.95
 -10  12  -3   19.29    1.08
  12  -2  -3   20.57    1.14
  10 -12   3   19.66    1.00
   2  10   3   19.30    1.10
  13  -3  -3    1.29    0.59
  13  -3  -3    1.13    0.49
 -10  13  -3    1.07    0.58
   3  10   3    1.00    0.58
 -10  14  -3    1.72    0.61
  14  -4  -3    2.57    0.55
  14  -4  -3    1.55    0.59
   4  10   3    1.04    0.63
 -10  15  -3    4.95    0.78
  15  -5  -3    6.05    0.70
  15  -5  -3    4.87    0.77
   5  10   3    4.52    0.76
  16  -6  -3    6.80    0.85
  16  -6  -3    7.89    0.79
 -10  16  -3    6.85    0.84
   6  10   3    6.87    0.89
  17  -7  -3    4.98    0.83
  17  -7  -3    6.24    0.77
 -10  17  -3    4.83    0.86
   7  10   3    5.07    0.84
  18  -8  -3    4.79    0.77
  18  -8  -3    2.59    0.79
 -10  18  -3    3.94    0.87
   8  10   3    3.08    0.83
  18 -11  -3    6.04    0.85
  -7  18  -3    4.54    0.84
  11   7   3    3.86    0.85
  -6  17  -3   23.58    1.33
  17 -11  -3   24.97    1.36
  11   6   3   24.63    1.42
  16 -11  -3    9.96    0.89
  -5  16  -3    7.33    0.87
  11   5   3    6.67    0.88
  15 -11  -3   18.30    1.16
  -4  15  -3   19.66    1.21
  11   4   3   18.30    1.16
  -3  14  -3   20.40    1.20
  14 -11  -3   19.74    1.17
  11   3   3   20.46    1.21
  -2  13  -3    9.20    0.86
  13 -11  -3    8.92    0.84
  11   2   3    8.77    0.84
  -1  12  -3    8.16    0.78
  12 -11  -3    9.11    0.83
  11   1   3    7.41    0.76
  11 -11  -3   20.36    1.07
   0  11  -3   19.96    1.09
  11   0   3   19.06    1.11
   1  10  -3    7.41    0.74
  10 -11  -3    5.07    0.70
  11  -1   3    4.67    0.63
   2   9  -3   23.07    1.06
  11  -2   3   22.61    1.10
   3   8  -3   11.50    0.81
  11  -3   3   11.00    0.82
  -8  11   3   11.44    0.91
   4   7  -3    7.76    0.70
  -7  11   3    8.08    0.75
  11  -4   3    8.71    0.73
   5   6  -3   34.35    1.33
  -6  11   3   35.03    1.40
  11  -5   3   36.12    1.32
   6   5  -3   29.28    1.23
  -5  11   3   29.95    1.28
  11  -6   3   31.00    1.24
   7   4  -3    8.46    0.70
  11  -7   3    7.54    0.68
  -4  11   3    8.44    0.78
   8   3  -3   12.45    0.84
  11  -8   3   13.09    0.83
  -3  11   3   10.88    0.89
   9   2  -3   31.37    1.31
 -11   9  -3   35.40    1.24
  11  -9   3   30.56    1.23
  -2  11   3   28.12    1.31
  10   1  -3    4.75    0.64
 -11  10  -3    6.34    0.66
  11 -10   3    5.64    0.61
  -1  11   3    5.45    0.71
  11   0  -3   24.66    1.20
 -11  11  -3   25.38    1.08
  11 -11   3   22.33    1.06
   0  11   3   22.34    1.20
  12  -1  -3    6.20    0.75
 -11  12  -3    8.01    0.76
  11 -12   3    7.37    0.66
   1  11   3    7.12    0.81
  13  -2  -3    6.36    0.77
 -11  13  -3    6.27    0.75
   2  11   3    6.99    0.81
  11 -13   3    7.86    0.70
  14  -3  -3   19.96    1.14
 -11  14  -3   23.01    1.23
   3  11   3   23.95    1.32
 -11  15  -3   17.57    1.16
  15  -4  -3   17.53    1.16
   4  11   3   17.46    1.21
 -11  16  -3   10.67    0.97
  16  -5  -3   12.77    1.03
   5  11   3    9.08    0.97
  17  -6  -3   21.18    1.31
 -11  17  -3   20.67    1.25
   6  11   3   22.25    1.37
  18  -7  -3    4.52    0.84
 -11  18  -3    3.94    0.85
   7  11   3    2.32    0.82
  18 -12  -3   12.99    1.10
  -6  18  -3   13.36    1.12
  12   6   3   14.11    1.13
  17 -12  -3   17.19    1.19
  -5  17  -3   15.84    1.16
  12   5   3   17.03    1.27
  16 -12  -3   10.06    0.93
  -4  16  -3    9.74    0.99
  12   4   3    8.48    0.95
  -3  15  -3    6.58    0.83
  15 -12  -3    7.47    0.86
  12   3   3    6.79    0.83
  14 -12  -3   12.96    0.99
  -2  14  -3   12.89    1.02
  12   2   3   12.34    1.01
  13 -12  -3   12.22    1.01
  -1  13  -3   13.56    1.03
  12   1   3   12.62    0.98
  12 -12  -3   29.01    1.36
   0  12  -3   28.08    1.25
  12   0   3   27.44    1.29
   1  11  -3    8.92    0.81
  11 -12  -3    7.94    0.83
  12  -1   3    7.56    0.80
  10 -12  -3   20.15    1.12
   2  10  -3   20.18    1.04
  12  -2   3   18.35    1.12
   3   9  -3   47.63    1.68
  -9  12   3   50.25    1.83
  12  -3   3   52.99    1.80
   4   8  -3   83.62    2.40
  -8  12   3   82.33    2.57
  12  -4   3   82.61    2.50
   5   7  -3   22.15    1.04
  -7  12   3   23.36    1.22
  12  -5   3   21.64    1.10
   6   6  -3   21.92    1.05
  12  -6   3   20.05    1.02
  -6  12   3   20.43    1.12
   7   5  -3   20.88    1.01
  -5  12   3   20.68    1.11
  12  -7   3   20.54    1.06
   8   4  -3   80.89    2.42
  -4  12   3   84.64    2.59
  12  -8   3   85.27    2.45
   9   3  -3   46.72    1.62
  12  -9   3   49.81    1.65
  -3  12   3   45.90    1.74
  10   2  -3   16.09    1.03
  12 -10   3   17.30    0.98
  -2  12   3   17.85    1.07
  11   1  -3    7.26    0.78
 -12  11  -3    7.59    0.71
  12 -11   3    7.54    0.70
  -1  12   3    6.82    0.82
 -12  12  -3   27.30    1.26
  12   0  -3   28.26    1.31
  12 -12   3   26.11    1.19
   0  12   3   28.25    1.33
  13  -1  -3   11.67    0.94
 -12  13  -3   10.77    0.90
  12 -13   3   10.74    0.84
   1  12   3   11.98    1.01
 -12  14  -3   11.49    0.94
  14  -2  -3   10.20    0.93
   2  12   3   11.69    1.01
  15  -3  -3    6.99    0.85
 -12  15  -3    6.80    0.84
   3  12   3    6.38    0.86
 -12  16  -3    6.14    0.84
  16  -4  -3    7.48    0.88
   4  12   3    6.21    0.91
 -12  17  -3   17.92    1.25
  17  -5  -3   17.36    1.15
   5  12   3   17.45    1.30
  18  -6  -3   14.16    1.11
   6  12   3   14.75    1.19
  -4  17  -3    1.35    0.71
  17 -13  -3    0.26    0.70
  13   4   3   -0.03    0.66
  -3  16  -3    0.66    0.66
  16 -13  -3    0.94    0.71
  13   3   3    1.75    0.72
  15 -13  -3    8.03    0.91
  -2  15  -3    6.39    0.87
  13   2   3    9.51    0.96
  -1  14  -3    3.14    0.69
  14 -13  -3    2.76    0.73
  13   1   3    4.20    0.76
   0  13  -3   13.10    0.97
  13 -13  -3   11.76    0.98
  13   0   3   15.70    1.11
   1  12  -3   11.21    0.90
  12 -13  -3   11.02    0.96
  13  -1   3   11.39    0.95
   2  11  -3    7.91    0.77
  11 -13  -3    9.87    0.88
  13  -2   3    8.62    0.86
  10 -13  -3    1.59    0.64
   3  10  -3    2.04    0.59
  13  -3   3    1.27    0.56
   4   9  -3    7.97    0.75
  -9  13   3    8.02    0.84
  13  -4   3    8.42    0.79
   5   8  -3    1.03    0.51
  13  -5   3    1.00    0.56
  -8  13   3    1.39    0.66
   6   7  -3   12.25    0.85
  -7  13   3   11.11    0.96
  13  -6   3   12.21    0.87
   7   6  -3   11.30    0.82
  13  -7   3   10.81    0.85
  -6  13   3   11.51    0.95
   8   5  -3    1.67    0.56
  -5  13   3    1.53    0.60
  13  -8   3    1.32    0.56
   9   4  -3    7.90    0.75
  -4  13   3    7.19    0.79
  13  -9   3    8.33    0.74
  10   3  -3    0.59    0.55
  13 -10   3    0.42    0.52
  -3  13   3    1.26    0.60
  11   2  -3    7.62    0.78
  -2  13   3    7.82    0.85
  13 -11   3    8.32    0.76
  12   1  -3   10.48    0.90
  -1  13   3   11.53    1.01
  13 -12   3   12.77    0.92
  13   0  -3   15.04    1.01
  13 -13   3   16.38    1.00
   0  13   3   14.58    1.18
  14  -1  -3    4.90    0.72
   1  13   3    4.59    0.78
  13 -14   3    3.47    0.63
 -13  15  -3    7.93    0.86
  15  -2  -3    9.79    0.94
   2  13   3    8.40    0.99
  16  -3  -3    2.81    0.75
 -13  16  -3    3.35    0.73
   3  13   3    2.70    0.79
 -13  17  -3    0.82    0.72
  17  -4  -3    1.31    0.72
   4  13   3    1.03    0.74
  17 -14  -3   15.81    1.23
  -3  17  -3   17.39    1.19
  14   3   3   14.85    1.19
  16 -14  -3    5.17    0.84
  -2  16  -3    4.04    0.82
  14   2   3    4.45    0.85
  15 -14  -3    6.69    0.89
  -1  15  -3    7.31    0.91
  14   1   3    6.59    0.91
  14 -14  -3   22.08    1.31
   0  14  -3   20.05    1.18
  14   0   3   24.00    1.29
   1  13  -3    2.32    0.68
  13 -14  -3    3.05    0.75
  14  -1   3    4.19    0.75
   2  12  -3   12.72    0.98
  12 -14  -3   13.63    1.03
  14  -2   3   13.62    1.10
   3  11  -3   21.31    1.16
  11 -14  -3   19.24    1.16
  14  -3   3   20.10    1.16
   4  10  -3    0.99    0.54
  14  -4   3    0.20    0.55
   5   9  -3   20.72    1.06
  -9  14   3   19.70    1.29
  14  -5   3   23.07    1.23
   6   8  -3    9.75    0.80
  14  -6   3    9.20    0.85
  -8  14   3    7.94    0.88
   7   7  -3   11.05    0.87
  14  -7   3   11.64    0.96
  -7  14   3   12.61    1.02
   8   6  -3    9.23    0.80
  14  -8   3   10.05    0.86
  -6  14   3    8.88    0.93
   9   5  -3   18.73    1.10
  14  -9   3   21.25    1.15
  -5  14   3   21.90    1.22
  10   4  -3    2.02    0.57
  -4  14   3    1.44    0.68
  14 -10   3    1.01    0.55
  11   3  -3   22.17    1.11
  14 -11   3   21.75    1.15
  -3  14   3   19.20    1.21
  12   2  -3   12.11    0.95
  14 -12   3   11.11    0.94
  -2  14   3   11.18    1.04
  13   1  -3    4.39    0.74
  14 -13   3    5.45    0.71
  -1  14   3    3.23    0.75
  14   0  -3   24.34    1.33
  14 -14   3   25.22    1.26
   0  14   3   26.76    1.48
  15  -1  -3    6.63    0.84
   1  14   3    6.78    0.92
  16  -2  -3    2.30    0.73
   2  14   3    3.43    0.84
  17  -3  -3   13.79    1.09
   3  14   3   13.60    1.18
  16 -15  -3    0.42    0.73
  -1  16  -3    0.23    0.68
  15   1   3    0.06    0.71
   0  15  -3   20.65    1.21
  15 -15  -3   18.72    1.31
  15   0   3   20.07    1.34
  14 -15  -3    7.67    0.91
   1  14  -3    7.19    0.88
  15  -1   3    6.65    0.88
   2  13  -3    5.88    0.80
  13 -15  -3    6.39    0.89
  15  -2   3    8.07    0.91
   3  12  -3    6.45    0.77
  12 -15  -3    7.73    0.93
  15  -3   3    6.03    0.87
  11 -15  -3   17.21    1.14
   4  11  -3   17.57    1.12
  15  -4   3   17.17    1.19
   5  10  -3    6.18    0.76
  15  -5   3    5.32    0.80
   6   9  -3   28.78    1.33
  15  -6   3   31.58    1.40
  -9  15   3   31.52    1.57
   7   8  -3    6.52    0.71
  -8  15   3    6.48    0.91
  15  -7   3    6.16    0.78
   8   7  -3    6.39    0.73
  -7  15   3    8.15    0.91
  15  -8   3    8.02    0.85
   9   6  -3   24.62    1.25
  15  -9   3   28.70    1.35
  -6  15   3   28.22    1.42
  10   5  -3    3.42    0.63
  -5  15   3    3.93    0.77
  15 -10   3    4.11    0.73
  11   4  -3   17.15    1.02
  -4  15   3   16.90    1.25
  15 -11   3   17.34    1.08
  12   3  -3    6.99    0.81
  15 -12   3    6.55    0.76
  -3  15   3    6.09    0.87
  13   2  -3    8.55    0.88
  -2  15   3   10.51    1.02
  15 -13   3    8.67    0.87
  14   1  -3    5.28    0.80
  15 -14   3    7.14    0.80
  -1  15   3    6.10    0.94
  15   0  -3   20.66    1.26
   0  15   3   20.79    1.41
  16  -1  -3    0.46    0.68
   1  15   3   -0.80    0.67
  15 -16  -3    0.11    0.73
   1  15  -3    0.29    0.66
  16  -1   3   -0.49    0.71
   2  14  -3    4.21    0.76
  14 -16  -3    4.62    0.87
  16  -2   3    3.26    0.84
  13 -16  -3    1.20    0.69
   3  13  -3    2.43    0.66
  16  -3   3    2.11    0.77
  12 -16  -3    8.82    0.97
   4  12  -3    8.03    0.87
  16  -4   3    9.14    0.99
   5  11  -3    7.72    0.86
  11 -16  -3    8.70    0.94
  16  -5   3    8.40    0.91
   6  10  -3    6.68    0.79
  16  -6   3    6.58    0.86
   7   9  -3    8.22    0.82
  16  -7   3    8.38    0.89
  -9  16   3    8.16    1.00
   8   8  -3    5.81    0.75
  16  -8   3    7.24    0.85
  -8  16   3    6.49    0.92
   9   7  -3    7.85    0.80
  16  -9   3    7.63    0.87
  -7  16   3    6.39    0.90
  10   6  -3    7.41    0.80
  16 -10   3    6.10    0.79
  -6  16   3    6.64    0.94
  11   5  -3   10.54    0.87
  -5  16   3   10.20    1.05
  16 -11   3    9.21    0.91
  12   4  -3    7.85    0.84
  -4  16   3    7.26    0.98
  16 -12   3    6.28    0.81
  13   3  -3    1.52    0.67
  16 -13   3    1.13    0.63
  -3  16   3    3.07    0.84
  14   2  -3    3.14    0.72
  -2  16   3    3.83    0.88
  16 -14   3    4.83    0.80
  15   1  -3   -0.60    0.62
  -1  16   3    0.21    0.77
  16 -15   3   -0.14    0.62
   3  14  -3   17.23    1.18
  17  -3   3   14.22    1.21
  13 -17  -3    0.40    0.76
   4  13  -3    0.19    0.58
  17  -4   3    0.38    0.68
   5  12  -3   16.82    1.15
  12 -17  -3   15.88    1.22
  17  -5   3   19.60    1.32
  11 -17  -3   22.78    1.42
   6  11  -3   22.69    1.28
  17  -6   3   23.69    1.33
   7  10  -3    4.35    0.74
  17  -7   3    4.20    0.82
   8   9  -3    5.52    0.76
  17  -8   3    5.56    0.85
  -9  17   3    4.81    0.90
   9   8  -3    6.93    0.80
  17  -9   3    5.56    0.84
  -8  17   3    5.53    0.93
  10   7  -3    5.05    0.76
  17 -10   3    3.88    0.79
  -7  17   3    5.42    0.92
  11   6  -3   20.51    1.20
  17 -11   3   24.08    1.27
  12   5  -3   16.97    1.12
  -5  17   3   17.09    1.29
  17 -12   3   16.98    1.19
  13   4  -3    0.75    0.64
  -4  17   3    0.49    0.79
  17 -13   3    0.83    0.66
  14   3  -3   11.74    0.99
  -3  17   3   14.92    1.25
  17 -14   3   12.21    1.02
   6  12  -3   10.38    0.96
  12 -18  -3   11.46    1.16
  18  -6   3   13.05    1.14
   7  11  -3    4.10    0.76
  11 -18  -3    4.27    0.90
  18  -7   3    3.75    0.85
   8  10  -3    1.30    0.66
  18  -8   3    2.49    0.79
   9   9  -3   11.90    0.98
  -9  18   3   15.05    1.27
  18  -9   3   16.50    1.14
  10   8  -3    2.61    0.70
  18 -10   3    2.82    0.78
  -8  18   3    4.11    0.96
  11   7  -3    3.35    0.72
  18 -11   3    3.65    0.82
  -7  18   3    4.06    0.94
  12   6  -3   13.47    1.08
  18 -12   3   13.61    1.15
  -6  18   3   13.83    1.24
   0   0  -4  301.00    7.16
   0   0   4  323.48    7.43
   1  -1  -4   14.15    0.63
  -1   0  -4   13.75    0.84
  -1   0  -4   13.29    0.60
   0   1  -4   12.33    0.69
  -1   1   4   13.07    0.59
   1   0   4   13.83    0.61
  -1   1  -4   20.67    0.79
  -1   1  -4   20.00    1.01
   0  -1  -4   21.17    0.75
   0  -1  -4   20.15    1.01
   1   0  -4   20.24    0.81
  -1   0   4   20.76    0.67
   0   1   4   20.91    0.75
   1  -1   4   19.81    0.69
  -1  -1  -4    4.51    0.34
   2  -1  -4    4.49    0.43
  -1   2  -4    4.32    0.43
  -1   2  -4    4.48    0.56
  -1  -1  -4    4.68    0.59
   1   1   4    4.32    0.40
  -2   1   4    5.18    0.35
  -1   3  -4   12.87    0.70
  -2  -1  -4   13.95    0.52
   3  -2  -4   12.63    0.70
  -2  -1  -4   11.89    0.83
  -3   2   4   12.37    0.62
   2   1   4   11.73    0.65
  -2   0  -4   23.99    0.76
   0   2  -4   23.88    0.86
  -2   0  -4   23.60    1.06
   2  -2  -4   25.26    0.87
  -2   2   4   21.82    0.83
   2   0   4   21.59    0.83
  -2   1  -4    4.25    0.37
  -2   1  -4    3.52    0.54
   1   1  -4    4.51    0.44
   1  -2  -4    3.49    0.36
   1  -2  -4    4.50    0.55
  -1   2   4    4.51    0.40
   2  -1   4    4.57    0.37
  -2   2  -4   21.84    1.02
  -2   2  -4   21.62    0.77
   0  -2  -4   21.23    0.72
   2   0  -4   20.70    0.84
   0  -2  -4   20.25    1.06
   0   2   4   17.51    0.79
   2  -2   4   19.68    0.68
   3  -1  -4   13.98    0.56
  -1  -2  -4   14.87    0.89
  -2   3  -4   13.80    0.96
  -1  -2  -4   14.23    0.54
   3  -1  -4   15.45    0.75
  -2   3  -4   15.49    0.70
   1   2   4   14.23    0.74
   4  -2  -4    0.33    0.26
   4  -2  -4    0.77    0.35
  -2   4  -4    0.42    0.35
  -2  -2  -4   -0.12    0.45
  -2   4  -4    0.34    0.44
   2   2   4    0.37    0.34
  -2   5  -4   51.11    1.54
  -3  -2  -4   53.00    1.78
   5  -3  -4   51.28    1.49
  -2   5  -4   53.13    1.76
   5  -3  -4   53.68    1.60
   3   2   4   55.55    1.61
  -1   4  -4   18.10    0.85
  -3  -1  -4   17.36    0.97
   4  -3  -4   18.53    0.84
  -4   3   4   19.74    0.82
   3   1   4   19.76    0.82
   3  -3  -4   56.50    1.56
  -3   0  -4   56.44    1.41
  -3   0  -4   54.86    1.82
   0   3  -4   54.97    1.59
   3   0   4   56.34    1.61
  -3   3   4   57.03    1.60
   1   2  -4   13.08    0.69
   2  -3  -4   11.69    0.64
  -3   1  -4   13.15    0.58
  -3   1  -4   13.36    0.93
   3  -1   4   12.91    0.63
  -2   3   4   12.54    0.67
  -3   2  -4   16.10    0.66
  -3   2  -4   15.43    0.89
   1  -3  -4   14.63    0.88
   2   1  -4   14.85    0.77
   1  -3  -4   14.67    0.61
  -1   3   4   14.07    0.69
   3  -2   4   14.27    0.63
  -3   3  -4   62.85    1.67
  -3   3  -4   61.63    1.92
   0  -3  -4   63.80    1.55
   0  -3  -4   58.83    1.93
   3   0  -4   60.94    1.75
   3  -3   4   60.54    1.60
   0   3   4   60.66    1.75
  -3   4  -4   20.75    1.03
  -3   4  -4   20.90    0.85
  -1  -3  -4   20.95    1.01
   4  -1  -4   19.85    0.87
   1   3   4   23.63    0.91
  -2  -3  -4   48.40    1.69
  -3   5  -4   47.65    1.48
   5  -2  -4   52.52    1.56
   5  -2  -4   48.66    1.37
  -3   5  -4   48.80    1.65
   2   3   4   53.53    1.57
  -3   6  -4   32.27    1.15
   6  -3  -4   32.06    1.15
  -3   6  -4   31.52    1.23
   6  -3  -4   30.08    1.00
  -3  -3  -4   30.83    1.24
   3   3   4   30.89    1.18
  -4  -3  -4    7.27    0.69
   7  -4  -4    7.44    0.67
   7  -4  -4    7.13    0.51
  -3   7  -4    7.40    0.67
  -3   7  -4    8.40    0.66
   4   3   4    6.19    0.58
  -4  -2  -4   29.78    1.24
  -2   6  -4   29.96    1.26
  -2   6  -4   28.83    1.14
   6  -4  -4   30.68    1.16
   6  -4  -4   30.80    1.04
   4   2   4   29.58    1.13
  -4  -1  -4    6.74    0.66
   5  -4  -4    8.43    0.63
  -1   5  -4    7.46    0.60
   4   1   4    7.59    0.64
  -5   4   4    7.68    0.56
  -4   0  -4   43.84    1.64
   0   4  -4   47.13    1.44
   4  -4  -4   47.97    1.41
   4   0   4   46.61    1.43
  -4   4   4   50.13    1.45
   3  -4  -4   18.65    0.76
  -4   1  -4   17.26    1.03
  -4   1  -4   18.87    0.65
   1   3  -4   17.54    0.81
  -3   4   4   19.80    0.84
   4  -1   4   18.41    0.78
   2   2  -4    0.26    0.38
   2  -4  -4    0.26    0.41
  -4   2  -4    0.22    0.28
  -4   2  -4   -0.83    0.38
   2  -4  -4    0.38    0.28
  -2   4   4    0.10    0.33
   4  -2   4    0.17    0.28
   1  -4  -4   20.37    0.99
  -4   3  -4   20.75    1.04
   1  -4  -4   20.82    0.74
  -4   3  -4   21.96    0.80
   3   1  -4   19.18    0.88
   4  -3   4   23.09    0.77
  -1   4   4   21.58    0.88
  -4   4  -4   53.76    1.73
   4   0  -4   51.34    1.61
   0  -4  -4   49.67    1.72
  -4   4  -4   52.07    1.49
   0   4   4   55.01    1.62
   4  -4   4   55.57    1.44
  -4   5  -4    8.25    0.62
  -4   5  -4    7.09    0.65
   5  -1  -4    7.54    0.63
  -1  -4  -4    7.19    0.64
   1   4   4    7.17    0.59
  -4   6  -4   34.14    1.13
  -4   6  -4   33.85    1.33
  -2  -4  -4   32.23    1.26
   6  -2  -4   30.57    1.23
   2   4   4   33.81    1.23
   7  -3  -4    7.86    0.66
  -3  -4  -4    8.26    0.73
   7  -3  -4    7.17    0.56
  -4   7  -4    8.02    0.64
  -4   7  -4    8.53    0.69
   3   4   4    6.86    0.64
  -4   8  -4   52.59    1.65
  -4   8  -4   54.13    1.73
   8  -4  -4   52.80    1.71
   8  -4  -4   49.94    1.52
  -4  -4  -4   50.93    1.74
   4   4   4   50.78    1.70
   9  -5  -4   20.92    1.12
   9  -5  -4   23.28    0.95
  -5  -4  -4   21.30    1.11
  -4   9  -4   24.25    1.10
  -4   9  -4   24.32    1.15
   5   4   4   22.34    1.08
  -3   8  -4   30.87    1.22
   8  -5  -4   30.59    1.07
  -5  -3  -4   31.28    1.34
  -3   8  -4   32.64    1.27
   5   3   4   27.90    1.17
   7  -5  -4    5.80    0.50
  -2   7  -4    6.43    0.64
  -5  -2  -4    4.93    0.66
  -2   7  -4    7.34    0.67
   5   2   4    5.10    0.55
  -1   6  -4   25.68    1.07
  -5  -1  -4   25.65    1.16
   6  -5  -4   27.94    0.99
   5   1   4   25.01    1.04
   0   5  -4   13.58    0.82
  -5   0  -4   13.33    0.96
  -5   5   4   12.79    0.80
   5   0   4   13.60    0.75
   1   4  -4    6.47    0.59
  -5   1  -4    6.72    0.65
  -4   5   4    6.81    0.55
   5  -1   4    6.20    0.50
   3  -5  -4   55.05    1.49
  -5   2  -4   50.37    1.74
  -5   2  -4   53.98    1.42
   2   3  -4   54.34    1.64
   5  -2   4   54.31    1.56
  -3   5   4   56.72    1.63
   2  -5  -4   45.39    1.63
   2  -5  -4   48.80    1.38
   3   2  -4   49.85    1.53
  -5   3  -4   52.27    1.38
  -5   3  -4   53.18    1.74
   5  -3   4   50.41    1.44
  -2   5   4   50.98    1.55
  -5   4  -4    7.33    0.69
   4   1  -4    7.42    0.60
  -5   4  -4    7.42    0.51
   1  -5  -4    7.09    0.47
   1  -5  -4    8.29    0.66
   5  -4   4    8.17    0.52
  -1   5   4    6.69    0.58
   0  -5  -4   20.03    1.01
   5   0  -4   19.12    0.90
  -5   5  -4   20.43    0.83
  -5   5  -4   19.77    1.05
   0   5   4   18.11    0.92
   5  -5   4   17.82    0.72
  -5   6  -4   24.48    1.14
  -5   6  -4   24.70    0.96
   6  -1  -4   23.58    1.02
  -1  -5  -4   23.29    1.11
   1   5   4   22.18    0.98
  -5   7  -4    5.11    0.55
  -5   7  -4    5.00    0.61
   7  -2  -4    4.98    0.61
  -2  -5  -4    5.19    0.62
   2   5   4    5.31    0.60
  -5   8  -4   28.49    1.11
  -3  -5  -4   28.72    1.26
  -5   8  -4   30.90    1.25
   8  -3  -4   28.95    1.24
   3   5   4   28.61    1.22
   9  -4  -4   20.86    0.86
   9  -4  -4   18.27    1.01
  -5   9  -4   21.49    1.04
  -4  -5  -4   21.57    1.14
  -5   9  -4   21.49    1.06
   4   5   4   18.31    1.04
  -5  -5  -4    0.36    0.54
  -5  10  -4    0.02    0.47
  10  -5  -4   -0.10    0.37
  -5  10  -4   -0.17    0.45
  10  -5  -4    0.84    0.51
   5   5   4    0.11    0.51
  -6  -5  -4   24.85    1.22
  -5  11  -4   27.82    1.26
  11  -6  -4   27.48    1.08
   6   5   4   24.46    1.18
  -4  10  -4    4.33    0.59
  10  -6  -4    4.69    0.54
  -6  -4  -4    4.98    0.71
  -4  10  -4    3.07    0.61
   6   4   4    3.67    0.59
   9  -6  -4   45.00    1.47
  -6  -3  -4   46.16    1.70
  -3   9  -4   46.35    1.58
  -3   9  -4   47.98    1.64
   6   3   4   45.17    1.57
  -2   8  -4   22.29    1.08
  -2   8  -4   20.69    1.05
   8  -6  -4   21.64    0.96
  -6  -2  -4   20.28    1.17
   6   2   4   22.84    1.04
   7  -6  -4   11.02    0.70
  -1   7  -4   11.32    0.76
  -6  -1  -4   11.36    0.87
   6   1   4    9.93    0.70
  -6   0  -4   47.04    1.69
   0   6  -4   49.04    1.56
   6   0   4   51.10    1.58
  -6   6   4   52.50    1.61
  -6   1  -4   26.03    1.16
   1   5  -4   27.54    1.06
   6  -1   4   24.26    1.00
  -5   6   4   25.09    1.05
  -6   2  -4   29.99    1.25
   2   4  -4   30.56    1.12
  -4   6   4   29.42    1.13
   6  -2   4   29.10    1.07
   3   3  -4   30.97    1.14
  -6   3  -4   32.01    0.96
  -6   3  -4   31.92    1.26
   3  -6  -4   29.64    1.21
  -3   6   4   29.38    1.15
   6  -3   4   29.63    1.06
  -6   4  -4   31.77    1.28
  -6   4  -4   35.10    1.07
   4   2  -4   32.54    1.25
   2  -6  -4   32.75    1.27
   6  -4   4   33.40    1.10
  -2   6   4   32.99    1.22
   1  -6  -4   23.55    1.08
  -6   5  -4   24.69    1.08
  -6   5  -4   24.29    0.90
   5   1  -4   23.03    1.06
  -1   6   4   21.63    1.02
   6  -5   4   24.04    0.88
   6   0  -4   54.63    1.69
  -6   6  -4   51.34    1.79
  -6   6  -4   55.88    1.59
   0  -6  -4   55.19    1.76
   0   6   4   53.58    1.70
  -1  -6  -4    8.20    0.68
   7  -1  -4    6.47    0.65
  -6   7  -4    8.01    0.68
  -6   7  -4    6.81    0.59
   1   6   4    6.18    0.61
   8  -2  -4   27.12    1.16
  -6   8  -4   25.84    1.08
  -6   8  -4   25.61    1.18
  -2  -6  -4   26.34    1.13
   2   6   4   26.62    1.18
  -6   9  -4   42.72    1.53
  -3  -6  -4   42.38    1.57
  -6   9  -4   40.42    1.42
   9  -3  -4   43.11    1.52
   3   6   4   44.09    1.54
  -6  10  -4    4.45    0.60
  -6  10  -4    5.67    0.64
  -4  -6  -4    4.51    0.66
  10  -4  -4    4.07    0.66
   4   6   4    2.97    0.59
  -5  -6  -4   26.31    1.27
  -6  11  -4   27.20    1.18
  11  -5  -4   27.29    1.28
   5   6   4   25.06    1.21
  12  -6  -4   13.57    0.96
  -6  12  -4   13.97    0.94
   6   6   4   14.60    0.98
  -6  13  -4    8.39    0.86
  13  -7  -4   10.03    0.89
  13  -7  -4   10.22    0.79
   7   6   4    9.31    0.87
  12  -7  -4    8.83    0.75
  -5  12  -4    9.23    0.83
   7   5   4   10.06    0.85
  -4  11  -4    1.82    0.60
  11  -7  -4    2.14    0.49
  -7  -4  -4    2.23    0.66
   7   4   4    2.41    0.60
  -3  10  -4    2.51    0.60
  10  -7  -4    4.65    0.56
  -3  10  -4    3.29    0.58
  -7  -3  -4    3.96    0.70
   7   3   4    3.78    0.59
   9  -7  -4   14.63    0.83
  -2   9  -4   13.92    0.92
  -2   9  -4   14.32    0.88
  -7  -2  -4   15.55    1.00
   7   2   4   14.77    0.93
   8  -7  -4    6.29    0.60
  -1   8  -4    6.08    0.64
  -7  -1  -4    5.22    0.68
   7   1   4    6.47    0.61
  -7   0  -4   10.92    0.89
   0   7  -4   11.08    0.76
   7   0   4   10.20    0.71
   1   6  -4   10.77    0.81
  -7   1  -4    8.93    0.76
   7  -1   4    9.74    0.72
  -6   7   4    9.16    0.72
  -7   2  -4    5.89    0.68
   2   5  -4    6.04    0.60
   7  -2   4    6.13    0.54
  -5   7   4    5.84    0.60
   3   4  -4    7.15    0.64
   4  -7  -4    7.70    0.63
  -7   3  -4    6.92    0.68
  -4   7   4    5.56    0.60
   7  -3   4    6.64    0.55
  -7   4  -4    8.05    0.71
   3  -7  -4    6.99    0.61
  -7   4  -4    8.73    0.59
   4   3  -4    7.98    0.69
   7  -4   4    7.63    0.61
  -3   7   4    6.45    0.63
  -7   5  -4    6.18    0.49
  -7   5  -4    6.00    0.64
   5   2  -4    5.05    0.59
   2  -7  -4    5.31    0.56
  -2   7   4    5.81    0.58
   7  -5   4    5.56    0.48
   6   1  -4    6.72    0.65
   1  -7  -4    7.64    0.64
  -7   6  -4    7.27    0.57
  -7   6  -4    6.93    0.70
  -1   7   4    6.86    0.65
   7  -6   4    6.54    0.51
   7   0  -4    9.77    0.78
  -7   7  -4   10.64    0.81
  -7   7  -4    9.32    0.71
   0  -7  -4    9.83    0.79
   0   7   4   10.89    0.78
  -7   8  -4    6.19    0.64
   8  -1  -4    6.10    0.66
  -7   8  -4    6.30    0.61
  -1  -7  -4    5.22    0.61
   1   7   4    5.19    0.63
   9  -2  -4   16.38    0.98
  -2  -7  -4   16.11    0.98
  -7   9  -4   17.34    0.94
  -7   9  -4   16.74    0.98
   2   7   4   17.59    1.02
  -7  10  -4    5.78    0.64
  -7  10  -4    5.69    0.65
  10  -3  -4    5.02    0.66
  -3  -7  -4    5.50    0.66
   3   7   4    4.49    0.67
  11  -4  -4    3.13    0.62
  -7  11  -4    2.24    0.59
  -4  -7  -4    3.13    0.62
   4   7   4    2.88    0.61
  -7  12  -4   11.69    0.90
  12  -5  -4   10.43    0.91
   5   7   4   10.44    0.91
  -7  13  -4    9.50    0.89
  13  -6  -4    9.48    0.87
   6   7   4    9.15    0.87
  -7  14  -4    0.95    0.65
  14  -7  -4   -0.06    0.62
   7   7   4    1.09    0.62
  -7  15  -4   15.91    1.18
  15  -8  -4   15.53    1.17
   8   7   4   14.39    1.10
  14  -8  -4    9.30    0.79
  -6  14  -4   10.08    0.93
   8   6   4    8.73    0.91
  -5  13  -4    6.07    0.76
  13  -8  -4    5.65    0.65
   8   5   4    6.37    0.77
  -4  12  -4   29.17    1.33
  12  -8  -4   27.83    1.20
   8   4   4   27.68    1.28
  -8  -3  -4   22.09    1.23
  11  -8  -4   24.17    1.09
  -3  11  -4   25.16    1.16
   8   3   4   23.86    1.20
  10  -8  -4    4.19    0.57
  -2  10  -4    3.75    0.61
  -2  10  -4    4.98    0.60
  -8  -2  -4    3.55    0.70
   8   2   4    3.97    0.63
  -8  -1  -4   14.11    0.99
   9  -8  -4   13.64    0.84
  -1   9  -4   12.63    0.87
   8   1   4   13.59    0.84
   8  -8  -4    6.98    0.63
   0   8  -4    7.11    0.68
  -8   0  -4    7.13    0.79
   8   0   4    4.98    0.59
  -8   1  -4    6.26    0.74
   1   7  -4    6.96    0.67
  -7   8   4    6.02    0.67
   8  -1   4    5.70    0.59
  -8   2  -4   22.05    1.13
   2   6  -4   23.39    1.09
  -6   8   4   22.81    1.08
   8  -2   4   23.11    1.01
   3   5  -4   30.52    1.20
  -8   3  -4   30.91    1.29
   5  -8  -4   29.74    1.18
   8  -3   4   31.54    1.15
  -5   8   4   31.26    1.21
  -8   4  -4   49.04    1.72
   4  -8  -4   53.51    1.63
   4   4  -4   50.75    1.66
   8  -4   4   49.00    1.56
  -4   8   4   49.11    1.64
   5   3  -4   29.56    1.18
   3  -8  -4   29.14    1.13
  -8   5  -4   30.15    1.02
  -8   5  -4   27.85    1.23
  -3   8   4   29.60    1.23
   8  -5   4   28.98    1.07
   2  -8  -4   25.88    1.06
  -8   6  -4   24.51    1.14
  -8   6  -4   25.15    0.95
   6   2  -4   23.62    1.14
   8  -6   4   25.62    0.99
  -2   8   4   24.92    1.10
   7   1  -4    5.12    0.66
  -8   7  -4    6.34    0.58
  -8   7  -4    5.43    0.66
   1  -8  -4    5.34    0.56
  -1   8   4    6.32    0.66
   8  -7   4    6.48    0.53
  -8   8  -4    8.17    0.73
   8   0  -4    8.43    0.77
  -8   8  -4    9.38    0.74
   0  -8  -4    9.30    0.77
   0   8   4    8.78    0.77
  -8   9  -4   17.83    0.96
   9  -1  -4   18.83    1.09
  -1  -8  -4   18.86    0.99
  -8   9  -4   19.87    1.05
   1   8   4   17.56    1.07
  10  -2  -4    3.80    0.63
  -8  10  -4    3.38    0.59
  -8  10  -4    2.50    0.58
  -2  -8  -4    3.20    0.59
   2   8   4    3.39    0.65
  -8  11  -4   20.68    1.09
  -3  -8  -4   22.15    1.12
  11  -3  -4   20.58    1.17
   3   8   4   19.54    1.15
  -8  12  -4   27.39    1.23
  12  -4  -4   28.09    1.29
   4   8   4   27.78    1.35
  -8  13  -4    6.75    0.79
  13  -5  -4    7.61    0.83
   5   8   4    7.17    0.82
  14  -6  -4   12.49    1.01
  -8  14  -4   12.24    0.98
   6   8   4   12.96    1.09
  15  -7  -4   15.21    1.16
  -8  15  -4   13.69    1.11
   7   8   4   14.06    1.09
  16  -8  -4   29.79    1.45
  -8  16  -4   29.68    1.46
   8   8   4   31.58    1.52
  -8  17  -4    7.94    0.99
  17  -9  -4    9.23    0.98
   9   8   4    7.96    1.00
  -7  16  -4    1.62    0.77
  16  -9  -4    2.35    0.77
   9   7   4    1.39    0.74
  -6  15  -4   15.12    1.12
   9   6   4   18.69    1.18
  14  -9  -4    9.56    0.83
  -5  14  -4   11.21    0.98
   9   5   4   12.25    1.00
  -4  13  -4    4.08    0.76
  13  -9  -4    6.48    0.71
   9   4   4    5.14    0.73
  12  -9  -4   14.76    0.93
  -3  12  -4   14.85    0.99
   9   3   4   12.62    1.01
  -2  11  -4   19.66    1.12
  11  -9  -4   21.18    1.04
   9   2   4   18.53    1.04
  -1  10  -4   10.95    0.85
  -9  -1  -4   10.56    0.94
  10  -9  -4   10.86    0.83
   9   1   4   10.05    0.81
   0   9  -4   57.89    1.89
   9  -9  -4   60.43    1.91
  -9   0  -4   60.01    2.05
   9   0   4   59.15    1.91
  -9   1  -4   14.74    1.06
   1   8  -4   13.28    0.92
   9  -1   4   13.71    0.83
  -9   2  -4   15.64    1.08
   2   7  -4   14.79    0.94
   9  -2   4   16.71    0.92
  -7   9   4   16.26    1.02
  -9   3  -4   45.59    1.74
   3   6  -4   45.88    1.58
   6  -9  -4   47.30    1.57
  -6   9   4   48.70    1.68
   9  -3   4   48.56    1.58
  -9   4  -4   21.32    1.18
   5  -9  -4   22.89    1.02
   4   5  -4   23.81    1.04
   9  -4   4   20.64    0.98
  -5   9   4   20.06    1.08
   4  -9  -4   19.15    0.93
  -9   5  -4   18.43    1.11
   5   4  -4   20.49    0.99
   9  -5   4   16.95    0.88
  -4   9   4   17.38    1.02
  -9   6  -4   43.27    1.33
   3  -9  -4   42.70    1.45
  -9   6  -4   38.78    1.59
   6   3  -4   41.96    1.50
   9  -6   4   44.12    1.41
  -3   9   4   44.46    1.55
  -9   7  -4   15.98    0.83
   2  -9  -4   15.41    0.84
   7   2  -4   16.26    0.95
  -9   7  -4   15.22    1.02
   9  -7   4   16.42    0.85
  -2   9   4   17.68    0.98
  -9   8  -4   19.41    0.93
  -9   8  -4   19.23    1.07
   8   1  -4   17.70    1.00
   1  -9  -4   19.23    0.96
   9  -8   4   17.16    0.85
  -1   9   4   17.24    1.06
  -9   9  -4   64.07    1.88
  -9   9  -4   63.36    2.01
   9   0  -4   61.08    2.00
   0  -9  -4   62.88    1.93
   0   9   4   57.67    2.04
  -9  10  -4   13.29    0.93
  -1  -9  -4   12.48    0.86
  -9  10  -4   13.17    0.91
  10  -1  -4   11.09    0.90
   1   9   4   12.15    0.93
  -9  11  -4   13.17    0.95
  11  -2  -4   13.30    0.96
  -2  -9  -4   14.21    0.92
   2   9   4   13.41    1.04
  12  -3  -4   12.63    0.95
  -9  12  -4   12.80    0.96
   3   9   4   11.64    0.95
  13  -4  -4    8.98    0.86
  -9  13  -4    7.33    0.81
   4   9   4    8.53    0.89
  -9  14  -4    9.22    0.90
  14  -5  -4   10.08    0.95
   5   9   4   10.12    0.97
  -9  15  -4   10.32    0.99
  15  -6  -4   13.24    1.03
   6   9   4   13.24    1.10
  16  -7  -4   -0.02    0.64
  -9  16  -4    0.35    0.64
   7   9   4    1.27    0.69
  17  -8  -4   10.71    1.05
  -9  17  -4   11.42    1.08
   8   9   4   10.28    1.06
  -7  17  -4    1.42    0.79
  10   7   4   -0.32    0.73
  -6  16  -4    1.45    0.75
  10   6   4    0.85    0.67
  -5  15  -4    4.10    0.78
  15 -10  -4    5.22    0.74
  10   5   4    4.18    0.80
  14 -10  -4    2.38    0.61
  -4  14  -4    2.37    0.71
  10   4   4    0.77    0.61
  -3  13  -4    6.81    0.83
  13 -10  -4    6.61    0.73
  10   3   4    5.97    0.80
  12 -10  -4    7.68    0.74
  -2  12  -4    5.89    0.75
  10   2   4    5.99    0.77
  11 -10  -4    4.88    0.66
  -1  11  -4    5.43    0.71
  10   1   4    5.61    0.69
  10 -10  -4    7.82    0.75
   0  10  -4    7.89    0.78
  10   0   4   10.64    0.83
   1   9  -4   11.13    0.90
 -10   1  -4   10.76    0.93
   9 -10  -4   10.33    0.84
  10  -1   4   10.49    0.81
 -10   2  -4    4.28    0.69
   2   8  -4    3.22    0.57
  10  -2   4    4.21    0.61
  -8  10   4    5.56    0.69
 -10   3  -4    2.95    0.67
   3   7  -4    2.85    0.56
  10  -3   4    3.66    0.57
  -7  10   4    3.84    0.67
   4   6  -4    3.29    0.60
 -10   4  -4    3.23    0.66
  -6  10   4    3.56    0.61
  10  -4   4    2.77    0.54
 -10   5  -4    0.16    0.54
   5   5  -4    0.25    0.45
  -5  10   4    0.79    0.54
  10  -5   4   -0.64    0.40
 -10   6  -4    5.31    0.70
   6   4  -4    4.26    0.61
  10  -6   4    4.71    0.57
  -4  10   4    4.22    0.65
 -10   7  -4    5.66    0.70
   7   3  -4    4.97    0.65
  -3  10   4    4.69    0.70
  10  -7   4    5.91    0.58
   8   2  -4    2.84    0.59
 -10   8  -4    3.10    0.62
 -10   8  -4    4.69    0.55
  -2  10   4    4.22    0.69
  10  -8   4    3.48    0.52
 -10   9  -4   13.43    0.96
 -10   9  -4   12.71    0.86
   9   1  -4   12.36    0.98
  -1  10   4   13.95    0.97
 -10  10  -4   10.06    0.82
 -10  10  -4    8.49    0.74
  10   0  -4    8.20    0.80
   0  10   4    8.17    0.84
 -10  11  -4    3.68    0.61
  11  -1  -4    3.64    0.67
   1  10   4    4.91    0.74
  12  -2  -4    4.48    0.71
 -10  12  -4    4.91    0.69
   2  10   4    5.80    0.77
 -10  13  -4    7.27    0.82
  13  -3  -4    7.91    0.87
   3  10   4    8.85    0.90
 -10  14  -4    0.91    0.64
  14  -4  -4    0.84    0.67
   4  10   4    1.47    0.70
 -10  15  -4    7.62    0.88
  15  -5  -4    6.41    0.88
   5  10   4    5.13    0.81
  16  -6  -4    2.28    0.75
 -10  16  -4    0.72    0.72
   6  10   4    0.89    0.71
  17  -7  -4    1.36    0.76
 -10  17  -4    3.08    0.82
   7  10   4    1.35    0.73
  16 -11  -4    4.92    0.77
  -5  16  -4    2.99    0.82
  11   5   4    3.10    0.75
  -4  15  -4   15.84    1.20
  15 -11  -4   14.86    1.11
  11   4   4   16.14    1.21
  -3  14  -4   19.40    1.23
  14 -11  -4   16.12    1.12
  11   3   4   17.49    1.20
  -2  13  -4    0.94    0.60
  13 -11  -4    1.21    0.57
  11   2   4    1.10    0.60
  -1  12  -4   23.11    1.19
  12 -11  -4   23.74    1.20
  11   1   4   22.70    1.24
  11 -11  -4   22.29    1.10
   0  11  -4   21.67    1.12
  11   0   4   19.66    1.18
   1  10  -4    4.55    0.71
  10 -11  -4    4.65    0.68
  11  -1   4    5.50    0.72
   2   9  -4   19.07    1.02
  11  -2   4   19.37    1.09
 -11   3  -4   25.54    1.33
   3   8  -4   24.04    1.11
  11  -3   4   22.54    1.14
  -8  11   4   22.10    1.25
 -11   4  -4    1.99    0.66
   4   7  -4    1.68    0.57
  11  -4   4    2.50    0.57
  -7  11   4    1.43    0.57
 -11   5  -4   25.00    1.25
   5   6  -4   26.13    1.21
  11  -5   4   26.70    1.17
  -6  11   4   28.35    1.32
 -11   6  -4   25.10    1.29
   6   5  -4   24.69    1.17
  11  -6   4   23.88    1.12
  -5  11   4   24.69    1.26
   7   4  -4    2.53    0.56
 -11   7  -4    3.26    0.64
  11  -7   4    3.00    0.54
  -4  11   4    2.87    0.62
 -11   8  -4   22.26    1.19
   8   3  -4   20.14    1.12
  11  -8   4   19.90    0.99
  -3  11   4   20.67    1.19
   9   2  -4   14.12    0.95
 -11   9  -4   13.66    0.93
 -11   9  -4   14.80    1.03
  11  -9   4   12.99    0.86
  -2  11   4   14.06    1.05
  10   1  -4    3.73    0.67
 -11  10  -4    5.01    0.70
 -11  10  -4    4.24    0.61
  -1  11   4    4.65    0.76
 -11  11  -4   20.67    1.10
  11   0  -4   20.19    1.15
   0  11   4   21.99    1.19
  12  -1  -4   24.40    1.30
 -11  12  -4   24.64    1.23
   1  11   4   24.55    1.36
 -11  13  -4    1.27    0.64
  13  -2  -4    1.67    0.65
   2  11   4    1.11    0.68
  14  -3  -4   22.06    1.26
   3  11   4   25.14    1.34
 -11  15  -4   13.63    1.07
   4  11   4   14.35    1.14
  16  -5  -4    3.47    0.81
 -11  16  -4    2.12    0.77
   5  11   4    3.23    0.83
  -4  16  -4    0.52    0.73
  16 -12  -4    1.38    0.67
  12   4   4    0.67    0.72
  -3  15  -4   19.57    1.27
  15 -12  -4   20.14    1.20
  12   3   4   19.68    1.31
  14 -12  -4   13.35    1.04
  -2  14  -4   12.41    1.02
  12   2   4   12.54    1.05
  -1  13  -4    5.12    0.75
  13 -12  -4    3.47    0.69
  12   1   4    4.20    0.75
   0  12  -4   19.78    1.20
  12 -12  -4   21.53    1.19
  12   0   4   21.55    1.25
  11 -12  -4   23.40    1.23
   1  11  -4   22.97    1.23
  12  -1   4   23.56    1.20
  10 -12  -4    6.10    0.75
   2  10  -4    5.71    0.75
  12  -2   4    5.49    0.71
   3   9  -4   12.80    0.97
  12  -3   4   13.49    0.99
  -9  12   4   13.08    1.11
   4   8  -4   26.09    1.21
  -8  12   4   28.00    1.40
  12  -4   4   28.55    1.29
   5   7  -4    9.65    0.82
  -7  12   4    9.21    0.89
  12  -5   4   12.12    0.91
 -12   6  -4   15.93    1.13
   6   6  -4   13.73    0.98
  -6  12   4   13.81    1.08
  12  -6   4   12.74    0.86
   7   5  -4   10.47    0.84
 -12   7  -4   10.46    0.92
  -5  12   4   10.87    0.94
  12  -7   4   10.70    0.86
   8   4  -4   27.42    1.28
 -12   8  -4   27.36    1.36
  -4  12   4   27.78    1.38
  12  -8   4   26.78    1.21
 -12   9  -4   11.95    1.02
   9   3  -4   12.17    0.93
  12  -9   4   13.01    0.92
  -3  12   4   13.80    1.08
 -12  10  -4    5.81    0.76
  10   2  -4    4.65    0.70
  -2  12   4    4.17    0.77
 -12  11  -4   22.46    1.19
  11   1  -4   23.64    1.21
  -1  12   4   23.65    1.34
 -12  12  -4   23.16    1.19
  12   0  -4   23.40    1.30
   0  12   4   20.65    1.33
 -12  13  -4    5.20    0.74
  13  -1  -4    5.47    0.84
   1  12   4    4.84    0.79
 -12  14  -4   12.32    0.98
  14  -2  -4   10.68    0.99
   2  12   4   13.78    1.13
  15  -3  -4   18.24    1.27
 -12  15  -4   16.72    1.19
   3  12   4   19.31    1.32
  16  -4  -4    0.50    0.72
 -12  16  -4   -0.38    0.64
   4  12   4    0.34    0.71
  16 -13  -4    1.55    0.71
  -3  16  -4    1.43    0.73
  13   3   4    3.28    0.79
  -2  15  -4    7.06    0.93
  15 -13  -4    5.72    0.83
  13   2   4    4.47    0.86
  14 -13  -4    2.41    0.69
  -1  14  -4    0.74    0.69
  13   1   4    1.91    0.72
   0  13  -4    2.82    0.69
  13 -13  -4    3.37    0.71
  13   0   4    2.82    0.74
  12 -13  -4    4.15    0.74
   1  12  -4    5.09    0.79
  13  -1   4    3.62    0.76
  11 -13  -4   -0.38    0.59
   2  11  -4    0.31    0.57
  13  -2   4    0.44    0.57
  10 -13  -4    5.97    0.79
   3  10  -4    6.48    0.78
  13  -3   4    5.73    0.77
   4   9  -4    6.06    0.72
  -9  13   4    5.27    0.80
  13  -4   4    6.36    0.77
   5   8  -4    3.75    0.68
  13  -5   4    4.62    0.70
  -8  13   4    4.99    0.78
   6   7  -4   10.05    0.85
  -7  13   4   10.07    0.96
  13  -6   4   10.51    0.86
   7   6  -4    9.43    0.84
  -6  13   4    9.14    0.90
  13  -7   4   11.46    0.91
   8   5  -4    6.83    0.77
  13  -8   4    7.65    0.74
  -5  13   4    5.78    0.83
   9   4  -4    8.80    0.83
  -4  13   4    8.11    0.88
  13  -9   4    8.28    0.77
  10   3  -4    6.36    0.81
  -3  13   4    6.99    0.88
  13 -10   4    8.53    0.78
  11   2  -4    0.99    0.63
  -2  13   4    0.52    0.69
  12   1  -4    4.26    0.77
  -1  13   4    5.94    0.85
 -13  13  -4    1.38    0.65
  13   0  -4    2.20    0.72
   0  13   4    1.92    0.76
  14  -1  -4    2.14    0.74
 -13  14  -4    1.54    0.68
   1  13   4    1.26    0.71
 -13  15  -4    5.42    0.85
  15  -2  -4    7.34    0.89
   2  13   4    5.35    0.90
  16  -3  -4    2.12    0.77
 -13  16  -4    2.56    0.78
   3  13   4    2.57    0.78
  -1  15  -4    8.07    0.93
  15 -14  -4    6.72    0.89
  14   1   4    6.96    0.95
   0  14  -4   13.69    1.11
  14 -14  -4   14.44    1.13
  14   0   4   12.73    1.09
  13 -14  -4    1.57    0.67
   1  13  -4    1.26    0.68
  14  -1   4    1.19    0.72
   2  12  -4   11.38    0.99
  12 -14  -4   13.43    1.03
  14  -2   4   12.54    1.03
   3  11  -4   17.74    1.10
  11 -14  -4   16.59    1.12
  14  -3   4   18.82    1.21
  10 -14  -4    1.88    0.70
   4  10  -4    1.22    0.62
  14  -4   4    0.96    0.64
   5   9  -4    8.87    0.87
  14  -5   4   12.34    0.96
  -9  14   4   12.26    1.07
   6   8  -4    8.17    0.84
  14  -6   4    9.88    0.90
  -8  14   4   10.17    1.02
   7   7  -4    0.87    0.60
  14  -7   4    1.82    0.64
  -7  14   4    0.61    0.67
   8   6  -4   11.13    0.93
  14  -8   4   12.42    0.96
  -6  14   4    9.94    1.01
   9   5  -4   11.49    0.92
  -5  14   4    9.92    1.02
  14  -9   4   12.80    1.00
  10   4  -4    0.68    0.64
  -4  14   4    0.24    0.64
  14 -10   4    1.12    0.58
  11   3  -4   22.07    1.22
  -3  14   4   22.76    1.32
  12   2  -4   12.19    1.02
  -2  14   4   12.28    1.12
  13   1  -4    3.14    0.72
  -1  14   4    1.38    0.79
  14   0  -4   11.74    1.04
   0  14   4   12.88    1.15
  15  -1  -4    7.35    0.94
   1  14   4    6.30    0.99
   1  14  -4    7.59    0.93
  14 -15  -4    7.64    0.93
  15  -1   4    7.67    0.96
  13 -15  -4    5.18    0.85
   2  13  -4    4.96    0.82
  15  -2   4    4.33    0.83
  12 -15  -4   18.33    1.28
   3  12  -4   16.20    1.18
  15  -3   4   19.54    1.27
   4  11  -4   15.53    1.15
  11 -15  -4   14.18    1.10
  15  -4   4   16.21    1.18
   5  10  -4    3.46    0.73
  15  -5   4    3.60    0.73
   6   9  -4   14.34    1.00
  15  -6   4   13.93    1.03
  -9  15   4   14.89    1.25
   7   8  -4   15.99    1.10
  15  -7   4   14.40    1.01
  -8  15   4   15.70    1.20
   8   7  -4   14.20    1.01
  15  -8   4   13.39    1.06
  -7  15   4   15.24    1.24
   9   6  -4   11.83    0.97
  -6  15   4   13.86    1.17
  15  -9   4   14.51    1.04
  10   5  -4    5.49    0.79
  15 -10   4    4.82    0.73
  -5  15   4    4.91    0.90
  11   4  -4   13.68    1.10
  15 -11   4   14.10    1.04
  -4  15   4   15.31    1.27
  12   3  -4   17.25    1.19
  -3  15   4   17.48    1.35
  13   2  -4    5.40    0.81
  -2  15   4    5.43    0.93
  14   1  -4    6.17    0.90
  -1  15   4    6.35    0.99
  13 -16  -4    1.33    0.71
   3  13  -4    0.54    0.68
  16  -3   4    1.57    0.76
  12 -16  -4    1.21    0.76
   4  12  -4    0.91    0.69
  16  -4   4   -0.87    0.67
  11 -16  -4    3.67    0.84
   5  11  -4    4.81    0.78
  16  -5   4    3.57    0.79
   6  10  -4   -0.07    0.63
  16  -6   4    0.26    0.67
   7   9  -4    1.95    0.65
  -9  16   4    0.49    0.77
  16  -7   4    1.65    0.70
   8   8  -4   28.62    1.35
  16  -8   4   29.88    1.45
   9   7  -4    0.75    0.62
  16  -9   4    1.18    0.66
  -7  16   4   -0.72    0.72
  10   6  -4    1.07    0.67
  16 -10   4    0.50    0.63
  -6  16   4    1.47    0.81
  11   5  -4    2.08    0.71
  -5  16   4    2.69    0.87
  16 -11   4    2.45    0.73
  12   4  -4    1.01    0.69
  -4  16   4    1.68    0.82
  13   3  -4    1.76    0.68
  -3  16   4    2.43    0.86
   7  10  -4    1.15    0.68
  17  -7   4    0.43    0.70
   8   9  -4    8.14    0.90
  17  -8   4    9.87    0.98
  -9  17   4    9.29    1.09
   9   8  -4   10.63    0.99
  17  -9   4   11.65    1.04
  -8  17   4   10.24    1.17
  10   7  -4    2.64    0.74
  -7  17   4    1.76    0.82
  17 -10   4    1.14    0.72
   0   0  -5   34.57    1.51
   0   0  -5   36.80    1.14
  -1   0  -5    6.26    0.72
   1  -1  -5    7.56    0.53
   1  -1  -5    7.85    0.75
  -1   0  -5    7.77    0.57
   0   1  -5    7.28    0.74
   0   1  -5    7.62    0.60
  -1   1  -5    8.55    0.62
   0  -1  -5    6.76    0.76
   1   0  -5    7.82    0.57
  -1   1  -5    7.67    0.79
   0  -1  -5    8.84    0.56
  -1  -1  -5    0.35    0.56
  -1   2  -5    1.28    0.52
   2  -1  -5    1.70    0.40
  -1   2  -5    1.27    0.41
  -1   3  -5   26.75    1.02
  -1   3  -5   25.94    1.25
  -2  -1  -5   26.44    1.33
   3  -2  -5   24.53    0.99
   2   1   5   27.88    1.01
  -2   0  -5    5.47    0.69
   0   2  -5    4.08    0.65
   2  -2  -5    5.14    0.48
   0   2  -5    6.95    0.57
   1   1  -5    1.99    0.43
  -2   1  -5    1.00    0.52
   1  -2  -5    1.34    0.34
  -2   1  -5    0.94    0.36
   1  -2  -5    1.21    0.54
   2   0  -5    7.98    0.61
  -2   2  -5    7.11    0.74
   0  -2  -5    8.60    0.81
  -2   2  -5    7.85    0.63
   3  -1  -5   32.31    1.16
  -2   3  -5   32.60    1.45
  -1  -2  -5   31.69    1.44
  -2   3  -5   31.89    1.11
   1   2   5   34.43    1.16
  -2   4  -5    5.67    0.73
  -2  -2  -5    6.29    0.75
   4  -2  -5    6.59    0.59
  -2   4  -5    6.74    0.59
   2   2   5    7.49    0.59
   5  -3  -5   13.69    0.82
  -3  -2  -5   13.62    1.07
  -2   5  -5   13.28    1.04
  -2   5  -5   15.28    0.84
   3   2   5   11.17    0.81
  -3  -1  -5   25.02    1.29
   4  -3  -5   26.00    1.00
  -1   4  -5   24.43    1.28
  -1   4  -5   24.58    1.03
   3   1   5   26.64    1.03
  -3   0  -5   74.09    2.35
   3  -3  -5   75.83    2.03
   0   3  -5   74.82    2.08
   2  -3  -5   28.14    1.31
  -3   1  -5   25.23    1.23
   1   2  -5   24.57    1.02
   2  -3  -5   24.74    0.90
   2   1  -5   32.30    1.19
  -3   2  -5   32.88    1.46
   1  -3  -5   32.98    1.46
  -3   2  -5   33.80    1.09
  -1   3   5   35.70    1.19
  -3   3  -5   75.80    2.00
   0  -3  -5   73.59    2.35
   3   0  -5   71.36    2.05
  -3   3  -5   72.90    2.33
   0   3   5   76.25    2.10
  -3   4  -5   18.49    0.86
  -3   4  -5   18.34    1.07
   4  -1  -5   18.87    0.88
  -1  -3  -5   18.08    1.16
   1   3   5   19.60    0.93
  -2  -3  -5   10.04    0.88
   5  -2  -5   11.24    0.75
  -3   5  -5   12.28    0.93
  -3   5  -5   12.18    0.77
   2   3   5   10.52    0.75
  -3  -3  -5   36.99    1.54
  -3   6  -5   42.34    1.41
   6  -3  -5   45.01    1.43
  -3   6  -5   40.81    1.57
   3   3   5   39.31    1.42
  -3   7  -5    8.69    0.73
  -4  -3  -5    7.41    0.78
   7  -4  -5    8.05    0.71
  -3   7  -5    9.77    0.82
   4   3   5    8.55    0.70
  -2   6  -5   16.30    1.01
  -4  -2  -5   15.38    1.09
   6  -4  -5   17.33    0.91
  -2   6  -5   15.43    0.87
   4   2   5   16.00    0.88
  -1   5  -5    1.56    0.48
  -4  -1  -5    1.23    0.54
  -1   5  -5    1.93    0.61
   5  -4  -5    1.62    0.44
   4   1   5    2.30    0.46
   0   4  -5   26.57    1.09
   4  -4  -5   27.17    1.02
  -4   0  -5   27.01    1.29
   4   0   5   28.54    1.06
   1   3  -5   25.26    1.06
   3  -4  -5   24.97    1.21
  -4   1  -5   26.10    1.24
   3  -4  -5   25.44    0.94
   2  -4  -5    6.56    0.74
  -4   2  -5    5.92    0.74
   2   2  -5    6.75    0.61
  -2   4   5    6.97    0.58
   1  -4  -5   20.56    1.18
  -4   3  -5   17.86    1.17
   3   1  -5   20.06    0.96
  -1   4   5   19.50    0.90
   0  -4  -5   31.47    1.40
  -4   4  -5   32.39    1.13
  -4   4  -5   27.20    1.40
   4   0  -5   30.70    1.22
   0   4   5   34.58    1.19
  -4   5  -5    1.32    0.43
  -4   5  -5    1.42    0.55
   5  -1  -5    1.09    0.49
  -1  -4  -5    1.25    0.58
   1   4   5    1.57    0.48
  -4   6  -5   15.26    0.85
  -2  -4  -5   14.78    1.04
   6  -2  -5   14.87    0.91
  -4   6  -5   15.34    1.00
   2   4   5   13.23    0.86
  -4   7  -5    7.63    0.69
  -4   7  -5    7.72    0.76
   7  -3  -5    7.33    0.68
  -3  -4  -5    7.87    0.81
   3   4   5    7.76    0.70
  -4  -4  -5    2.83    0.63
   8  -4  -5    2.70    0.57
  -4   8  -5    2.71    0.63
  -4   8  -5    2.73    0.58
   4   4   5    2.59    0.57
   9  -5  -5   20.17    1.05
  -5  -4  -5   20.27    1.16
  -4   9  -5   20.92    1.20
  -4   9  -5   18.66    1.07
   5   4   5   20.04    1.08
  -5  -3  -5   22.95    1.20
   8  -5  -5   22.53    1.11
  -3   8  -5   20.01    1.02
  -3   8  -5   23.78    1.24
   5   3   5   22.78    1.09
  -2   7  -5    3.12    0.64
  -2   7  -5    2.95    0.57
   7  -5  -5    3.36    0.55
  -5  -2  -5    2.48    0.66
   5   2   5    4.16    0.57
  -5  -1  -5    3.76    0.66
  -1   6  -5    3.60    0.66
   6  -5  -5    5.28    0.57
  -1   6  -5    4.18    0.58
   5   1   5    3.80    0.52
   0   5  -5    7.41    0.64
   5  -5  -5    7.29    0.59
  -5   0  -5    5.85    0.76
   5   0   5    5.70    0.57
   4  -5  -5    0.79    0.39
  -5   1  -5    1.09    0.58
   1   4  -5    0.57    0.47
   5  -1   5    1.88    0.43
  -4   5   5    2.29    0.48
  -5   2  -5   13.98    0.99
   3  -5  -5   14.44    1.05
   2   3  -5   13.60    0.86
   3  -5  -5   12.86    0.70
  -3   5   5   14.00    0.84
   2  -5  -5   11.20    0.87
  -5   3  -5   10.67    0.87
   3   2  -5   11.01    0.81
  -2   5   5   11.06    0.80
  -5   4  -5    1.38    0.57
   1  -5  -5    1.33    0.57
   4   1  -5    1.23    0.49
  -1   5   5    1.66    0.46
   0  -5  -5    3.53    0.65
   5   0  -5    4.56    0.61
  -5   5  -5    5.80    0.72
  -5   5  -5    5.40    0.54
   0   5   5    4.27    0.58
  -5   6  -5    5.62    0.59
   6  -1  -5    5.92    0.67
  -1  -5  -5    6.12    0.73
  -5   6  -5    6.51    0.76
   1   5   5    4.82    0.60
  -2  -5  -5    2.95    0.64
   7  -2  -5    1.96    0.55
  -5   7  -5    2.35    0.51
  -5   7  -5    1.44    0.60
   2   5   5    2.45    0.54
  -5   8  -5   22.91    1.24
  -5   8  -5   22.76    1.09
   8  -3  -5   22.38    1.16
  -3  -5  -5   21.44    1.15
   3   5   5   23.59    1.12
  -4  -5  -5   14.40    1.09
   9  -4  -5   13.42    1.00
  -5   9  -5   14.14    0.95
  -5   9  -5   16.01    1.09
   4   5   5   15.71    1.00
  10  -5  -5    4.90    0.68
  -5  10  -5    4.20    0.69
  -5  -5  -5    4.83    0.75
  -5  10  -5    4.91    0.70
   5   5   5    4.55    0.68
  -5  11  -5   18.98    1.15
  11  -6  -5   18.50    1.15
  -6  -5  -5   20.82    1.26
   6   5   5   19.14    1.14
  -4  10  -5    0.78    0.56
  10  -6  -5    0.85    0.53
  -4  10  -5    0.46    0.53
  -6  -4  -5   -0.15    0.62
   6   4   5    0.72    0.55
  -3   9  -5   22.12    1.09
  -6  -3  -5   23.33    1.24
   9  -6  -5   22.93    1.10
  -3   9  -5   24.59    1.26
   6   3   5   22.46    1.14
  -2   8  -5   20.62    1.08
  -2   8  -5   20.03    1.17
   8  -6  -5   23.12    1.08
  -6  -2  -5   19.19    1.21
   6   2   5   18.99    1.00
  -6  -1  -5   18.52    1.11
   7  -6  -5   17.98    0.96
  -1   7  -5   18.64    1.03
  -1   7  -5   18.63    1.15
   6   1   5   19.82    0.98
   0   6  -5   34.97    1.38
   6  -6  -5   40.65    1.35
  -6   0  -5   40.04    1.62
   6   0   5   39.70    1.37
   1   5  -5    3.91    0.56
  -6   1  -5    3.88    0.67
   5  -6  -5    4.62    0.52
   6  -1   5    3.88    0.52
  -5   6   5    4.82    0.61
   4  -6  -5   15.54    0.79
   2   4  -5   16.13    0.94
  -6   2  -5   16.59    1.12
   4  -6  -5   18.22    1.08
   6  -2   5   16.70    0.84
  -4   6   5   17.32    0.92
   3  -6  -5   41.04    1.50
  -6   3  -5   39.22    1.55
   3   3  -5   38.28    1.36
  -3   6   5   38.78    1.40
   4   2  -5   15.83    0.89
   2  -6  -5   15.94    0.97
  -6   4  -5   15.35    1.08
  -2   6   5   15.24    0.95
  -6   5  -5    5.72    0.72
   5   1  -5    4.21    0.62
   1  -6  -5    5.32    0.65
  -1   6   5    5.51    0.62
   6   0  -5   52.19    1.75
  -6   6  -5   55.33    1.65
  -6   6  -5   53.57    1.88
   0  -6  -5   52.91    1.86
   0   6   5   51.96    1.76
  -1  -6  -5   17.11    1.08
  -6   7  -5   19.07    0.98
  -6   7  -5   17.36    1.16
   7  -1  -5   17.71    1.06
   1   6   5   19.09    1.02
  -6   8  -5   25.67    1.25
   8  -2  -5   27.14    1.24
  -6   8  -5   26.96    1.18
  -2  -6  -5   27.77    1.25
   2   6   5   24.84    1.20
  -6   9  -5   18.47    1.03
   9  -3  -5   18.98    1.07
  -6   9  -5   21.76    1.21
  -3  -6  -5   21.61    1.19
   3   6   5   18.90    1.09
  -4  -6  -5    0.39    0.59
  -6  10  -5    0.96    0.58
  -6  10  -5   -0.32    0.53
  10  -4  -5    0.44    0.60
   4   6   5    0.27    0.56
  11  -5  -5   15.44    1.10
  -5  -6  -5   16.81    1.10
  -6  11  -5   17.14    1.03
   5   6   5   17.15    1.11
  -6  12  -5   16.52    1.12
  12  -6  -5   17.10    1.09
  -6  -6  -5   18.73    1.22
   6   6   5   16.03    1.11
  -6  13  -5    5.34    0.78
  13  -7  -5    6.64    0.83
   7   6   5    4.35    0.78
  12  -7  -5   10.16    0.93
  -7  -5  -5   10.90    1.01
  -5  12  -5   11.33    0.93
   7   5   5    7.51    0.86
  -4  11  -5    2.96    0.69
  -7  -4  -5    3.10    0.73
  11  -7  -5    2.30    0.63
   7   4   5    3.21    0.67
  -7  -3  -5    5.22    0.81
  -3  10  -5    4.77    0.73
  -3  10  -5    5.44    0.73
  10  -7  -5    4.57    0.69
   7   3   5    4.39    0.65
  -2   9  -5    2.74    0.63
  -2   9  -5    3.16    0.64
   9  -7  -5    2.07    0.57
  -7  -2  -5    2.31    0.70
   7   2   5    1.92    0.54
   8  -7  -5    0.32    0.47
  -1   8  -5    0.18    0.55
  -1   8  -5    0.25    0.53
  -7  -1  -5    0.18    0.56
   7   1   5    0.21    0.46
   7  -7  -5   13.90    0.86
   7  -7  -5   15.31    0.86
  -7   0  -5   16.06    1.12
   0   7  -5   13.86    0.95
   7   0   5   14.43    0.92
   1   6  -5   17.83    1.02
  -7   1  -5   19.23    1.12
   6  -7  -5   19.64    0.96
  -6   7   5   21.20    1.05
   7  -1   5   19.83    0.99
   2   5  -5    3.87    0.58
   5  -7  -5    2.59    0.59
  -7   2  -5    3.75    0.70
   5  -7  -5    3.54    0.46
  -5   7   5    4.11    0.59
   7  -2   5    3.70    0.51
   3   4  -5    8.46    0.72
   4  -7  -5    8.92    0.77
  -7   3  -5    8.51    0.83
  -4   7   5   10.19    0.77
   3  -7  -5    8.25    0.74
   4   3  -5    6.74    0.71
  -7   4  -5    6.71    0.77
  -3   7   5    8.68    0.72
  -7   5  -5    2.47    0.61
   2  -7  -5    2.61    0.57
   5   2  -5    2.07    0.53
  -2   7   5    1.97    0.54
   1  -7  -5   16.37    1.05
  -7   6  -5   16.94    1.06
   6   1  -5   15.74    1.03
  -1   7   5   19.91    1.04
   7   0  -5   24.35    1.20
   0  -7  -5   22.83    1.18
  -7   7  -5   24.58    1.09
  -7   7  -5   26.41    1.29
   0   7   5   23.40    1.15
  -1  -7  -5    1.35    0.57
   8  -1  -5    1.31    0.56
  -7   8  -5    0.27    0.56
  -7   8  -5    0.81    0.50
   1   7   5   -0.59    0.50
  -7   9  -5    3.34    0.65
  -7   9  -5    1.42    0.55
   9  -2  -5    1.45    0.61
  -2  -7  -5    3.06    0.64
   2   7   5    1.21    0.59
  -7  10  -5    8.23    0.83
  -7  10  -5    9.05    0.79
  -3  -7  -5    7.92    0.82
  10  -3  -5    7.45    0.81
   3   7   5    8.76    0.82
  -4  -7  -5    3.22    0.71
  11  -4  -5    4.47    0.73
  -7  11  -5    4.13    0.69
   4   7   5    3.29    0.70
  12  -5  -5   10.98    0.94
  -7  12  -5    8.62    0.87
  -5  -7  -5   10.04    0.93
   5   7   5    7.29    0.84
  13  -6  -5    4.57    0.81
  -7  13  -5    5.63    0.81
   6   7   5    4.89    0.77
  14  -7  -5    1.81    0.73
  -7  14  -5    1.86    0.73
   7   7   5    1.12    0.66
  15  -8  -5    2.71    0.79
  -7  15  -5    1.79    0.77
   8   7   5    0.97    0.73
  -6  14  -5    5.83    0.87
  14  -8  -5    3.57    0.81
   8   6   5    5.48    0.84
  -5  13  -5    4.30    0.76
  13  -8  -5    5.50    0.83
   8   5   5    4.88    0.79
  12  -8  -5   31.65    1.42
  -4  12  -5   36.47    1.48
  -8  -4  -5   30.96    1.59
   8   4   5   34.23    1.50
  -3  11  -5    3.33    0.67
  -8  -3  -5    2.99    0.77
  11  -8  -5    2.33    0.65
   8   3   5    3.94    0.64
  -8  -2  -5    5.27    0.83
  -2  10  -5    5.09    0.74
  10  -8  -5    4.61    0.70
  -2  10  -5    4.88    0.73
   8   2   5    4.72    0.68
  -1   9  -5   12.71    0.91
  -8  -1  -5   12.60    1.00
  -1   9  -5   12.46    1.03
   9  -8  -5   11.09    0.90
   8   1   5   12.16    0.90
   8  -8  -5   51.00    1.68
   0   8  -5   50.35    1.75
   8  -8  -5   49.98    1.66
  -8   0  -5   51.84    1.88
   8   0   5   48.41    1.69
   1   7  -5    0.10    0.51
   7  -8  -5    0.14    0.43
  -8   1  -5    0.20    0.60
   8  -1   5    0.96    0.47
   6  -8  -5   21.16    0.95
   6  -8  -5   22.10    1.12
  -8   2  -5   21.42    1.24
   2   6  -5   19.29    1.02
  -6   8   5   21.39    1.12
   8  -2   5   20.18    1.00
  -8   3  -5   20.46    1.17
   5  -8  -5   21.50    1.11
   3   5  -5   21.12    1.11
  -5   8   5   24.32    1.18
   8  -3   5   21.54    1.01
   4   4  -5    4.10    0.60
   4  -8  -5    2.50    0.58
  -8   4  -5    3.40    0.65
  -4   8   5    2.43    0.58
   5   3  -5   21.51    1.08
  -8   5  -5   21.18    1.18
   3  -8  -5   23.60    1.15
  -3   8   5   23.71    1.14
  -8   6  -5   23.55    1.23
   6   2  -5   26.04    1.24
   2  -8  -5   26.14    1.20
  -2   8   5   23.63    1.20
  -8   7  -5    0.54    0.58
   1  -8  -5    0.77    0.50
   7   1  -5   -0.04    0.56
  -1   8   5    0.52    0.54
   8   0  -5   39.60    1.51
  -8   8  -5   39.60    1.42
  -8   8  -5   39.34    1.56
   0  -8  -5   39.42    1.51
   0   8   5   37.95    1.52
  -8   9  -5   14.63    1.08
   9  -1  -5   13.14    1.00
  -1  -8  -5   14.10    0.99
  -8   9  -5   13.51    0.92
   1   8   5   13.06    0.94
  -2  -8  -5    5.13    0.72
  -8  10  -5    6.07    0.73
  -8  10  -5    6.84    0.80
  10  -2  -5    5.92    0.79
   2   8   5    7.49    0.78
  -3  -8  -5    5.47    0.75
  -8  11  -5    5.08    0.72
  11  -3  -5    5.60    0.81
   3   8   5    5.62    0.76
  -8  12  -5   39.99    1.59
  -4  -8  -5   39.09    1.63
  12  -4  -5   40.23    1.64
   4   8   5   39.08    1.62
  13  -5  -5    3.37    0.77
  -8  13  -5    3.18    0.72
   5   8   5    3.05    0.75
  -8  14  -5    4.05    0.80
  14  -6  -5    3.32    0.79
   6   8   5    3.93    0.76
  -8  15  -5    2.70    0.77
  15  -7  -5    3.11    0.78
   7   8   5    2.90    0.79
  -6  15  -5   11.61    1.09
  15  -9  -5   13.73    1.13
   9   6   5   11.00    1.06
  14  -9  -5   15.28    1.19
  -5  14  -5   16.31    1.14
   9   5   5   14.50    1.17
  -4  13  -5    2.92    0.76
  13  -9  -5    2.62    0.73
   9   4   5    1.97    0.66
  -3  12  -5   17.20    1.16
  12  -9  -5   14.83    1.03
   9   3   5   14.28    1.07
  -9  -2  -5    7.18    0.93
  -2  11  -5    7.95    0.86
   9   2   5    8.58    0.80
  -1  10  -5    4.36    0.73
  -9  -1  -5    4.07    0.81
   9   1   5    4.19    0.66
   9  -9  -5   37.90    1.45
   0   9  -5   38.25    1.54
  -9   0  -5   35.59    1.66
   9   0   5   38.85    1.49
  -9   1  -5   12.38    1.00
   1   8  -5   12.38    0.90
   8  -9  -5   11.42    0.88
   9  -1   5   12.12    0.87
   2   7  -5    1.74    0.59
   7  -9  -5    3.27    0.58
  -9   2  -5    2.69    0.66
  -7   9   5    0.99    0.58
   9  -2   5    1.56    0.51
   3   6  -5   22.09    1.15
   6  -9  -5   22.72    1.17
  -9   3  -5   21.50    1.28
   9  -3   5   21.45    1.07
  -6   9   5   22.65    1.18
  -9   4  -5   20.51    1.24
   5  -9  -5   20.83    1.07
   4   5  -5   19.90    1.11
  -5   9   5   20.37    1.13
   5   4  -5   13.12    0.96
   4  -9  -5   16.63    1.03
  -9   5  -5   14.68    1.03
  -4   9   5   14.69    1.02
  -9   6  -5   17.19    1.11
   6   3  -5   17.28    1.08
   3  -9  -5   20.95    1.10
  -3   9   5   20.07    1.10
   7   2  -5    3.23    0.67
   2  -9  -5    1.96    0.53
  -9   7  -5    1.74    0.65
  -2   9   5    1.02    0.59
   8   1  -5   13.84    0.97
  -9   8  -5   12.48    0.98
   1  -9  -5   14.87    0.95
  -1   9   5   11.62    0.92
   0  -9  -5   27.68    1.27
  -9   9  -5   31.08    1.43
   9   0  -5   30.39    1.41
   0   9   5   30.66    1.40
  -9  10  -5    4.68    0.73
  -1  -9  -5    5.41    0.70
  10  -1  -5    5.57    0.81
  -9  10  -5    6.03    0.71
   1   9   5    4.43    0.76
  -9  11  -5   14.66    1.00
  11  -2  -5   13.84    1.02
   2   9   5   11.48    0.99
  -9  12  -5   14.78    1.06
  12  -3  -5   14.49    1.13
   3   9   5   14.50    1.07
  13  -4  -5    2.25    0.75
  -9  13  -5    1.87    0.67
   4   9   5    2.11    0.73
  14  -5  -5   13.80    1.13
  -9  14  -5   15.33    1.16
   5   9   5   14.32    1.18
  -9  15  -5   11.40    1.06
   6   9   5    9.23    1.01
  15 -10  -5    1.59    0.75
  -5  15  -5    1.62    0.78
  10   5   5    1.77    0.72
  -4  14  -5    0.60    0.70
  14 -10  -5    1.73    0.70
  10   4   5    0.30    0.67
  13 -10  -5    0.87    0.64
  -3  13  -5    0.66    0.70
  10   3   5    1.64    0.67
  -2  12  -5    7.46    0.86
  10   2   5    9.15    0.86
 -10  -1  -5    1.98    0.74
  -1  11  -5    2.88    0.67
  10   1   5    2.81    0.66
   0  10  -5    8.26    0.86
 -10   0  -5    7.91    0.94
  10 -10  -5    8.36    0.75
  10   0   5   10.14    0.86
   1   9  -5    4.41    0.72
 -10   1  -5    3.92    0.76
   9 -10  -5    4.32    0.65
  10  -1   5    4.21    0.64
   2   8  -5    3.66    0.68
 -10   2  -5    4.65    0.77
  10  -2   5    4.77    0.64
   3   7  -5    5.29    0.73
 -10   3  -5    4.26    0.77
  10  -3   5    4.62    0.63
  -7  10   5    5.47    0.76
   4   6  -5   -0.29    0.52
 -10   4  -5   -0.01    0.59
  -6  10   5    0.73    0.59
  10  -4   5    1.09    0.48
 -10   5  -5    4.38    0.75
   5   5  -5    3.98    0.69
  -5  10   5    4.82    0.73
 -10   6  -5    1.36    0.65
   6   4  -5    0.43    0.52
  -4  10   5    0.98    0.60
   7   3  -5    7.81    0.82
 -10   7  -5    6.54    0.80
  -3  10   5    6.86    0.79
   8   2  -5    6.82    0.77
 -10   8  -5    7.01    0.82
  -2  10   5    7.52    0.84
   9   1  -5    4.87    0.78
 -10   9  -5    5.53    0.77
  -1  10   5    4.19    0.75
  10   0  -5   12.63    1.01
 -10  10  -5   14.62    1.10
   0  10   5   11.55    1.01
 -10  11  -5    2.26    0.63
  11  -1  -5    1.56    0.68
   1  10   5    1.76    0.68
  12  -2  -5    7.71    0.90
 -10  12  -5   10.25    0.89
   2  10   5   11.29    1.00
 -10  13  -5    2.13    0.69
  13  -3  -5    0.97    0.67
   3  10   5    1.44    0.67
 -10  14  -5    1.03    0.70
  14  -4  -5    1.37    0.74
   4  10   5    1.78    0.75
 -10  15  -5    2.20    0.75
  15  -5  -5    1.87    0.78
   5  10   5    0.78    0.74
  -3  14  -5    9.20    1.01
  11   3   5    9.67    0.97
  -2  13  -5    2.78    0.77
  11   2   5    4.47    0.78
  -1  12  -5    5.01    0.78
  11   1   5    5.09    0.77
   0  11  -5   10.52    0.96
  11 -11  -5    9.77    0.85
  11   0   5   11.25    0.93
   1  10  -5    2.33    0.69
  10 -11  -5    2.24    0.60
 -11   1  -5    1.66    0.72
  11  -1   5    3.48    0.67
 -11   2  -5    8.14    0.93
   9 -11  -5    8.41    0.78
   2   9  -5    9.01    0.84
  11  -2   5    8.26    0.81
   3   8  -5    2.49    0.66
 -11   3  -5    3.71    0.78
  11  -3   5    3.77    0.64
  -8  11   5    3.68    0.75
 -11   4  -5    3.36    0.77
   4   7  -5    2.88    0.62
  11  -4   5    2.20    0.56
  -7  11   5    3.40    0.73
   5   6  -5   21.72    1.14
 -11   5  -5   18.58    1.26
  -6  11   5   21.71    1.23
   6   5  -5   15.12    1.01
 -11   6  -5   15.21    1.18
  -5  11   5   17.31    1.14
   7   4  -5    3.22    0.69
 -11   7  -5    3.75    0.72
  -4  11   5    2.25    0.68
 -11   8  -5    6.17    0.82
   8   3  -5    4.49    0.74
  -3  11   5    5.56    0.79
 -11   9  -5   13.81    1.10
   9   2  -5   13.62    1.09
  -2  11   5   12.62    1.04
 -11  10  -5    1.36    0.66
  10   1  -5    2.53    0.74
  -1  11   5    2.54    0.73
  11   0  -5    9.74    0.94
   0  11   5    8.26    0.92
  12  -1  -5    4.98    0.82
   1  11   5    5.33    0.86
  13  -2  -5    3.72    0.83
 -11  13  -5    2.59    0.71
   2  11   5    2.91    0.76
  14  -3  -5   12.36    1.09
 -11  14  -5   11.26    1.00
   3  11   5    9.75    1.05
  -2  14  -5   10.04    1.03
  12   2   5   13.97    1.15
  -1  13  -5    3.10    0.76
  12   1   5    4.21    0.79
  12 -12  -5   13.04    0.99
   0  12  -5   13.76    1.08
  12   0   5   12.20    1.02
  11 -12  -5    5.11    0.73
   1  11  -5    5.23    0.80
  12  -1   5    5.42    0.72
  10 -12  -5    6.86    0.79
   2  10  -5    9.48    0.92
  12  -2   5    6.42    0.78
   9 -12  -5   14.16    1.02
 -12   3  -5   15.17    1.17
   3   9  -5   14.27    1.08
  12  -3   5   15.98    1.05
 -12   4  -5   34.20    1.65
  -8  12   5   34.60    1.60
  12  -4   5   33.98    1.41
   5   7  -5   10.06    0.91
 -12   5  -5   11.02    1.01
  -7  12   5    9.06    0.96
  12  -5   5   10.34    0.84
 -12   6  -5   18.02    1.17
   6   6  -5   16.49    1.06
  -6  12   5   15.38    1.17
   7   5  -5    8.59    0.89
 -12   7  -5    9.98    0.99
  -5  12   5    7.41    0.89
 -12   8  -5   37.48    1.64
   8   4  -5   40.05    1.64
  -4  12   5   41.42    1.73
   9   3  -5   14.28    1.12
 -12   9  -5   15.51    1.17
  -3  12   5   16.86    1.20
 -12  10  -5    8.90    0.93
  10   2  -5    9.34    0.97
  -2  12   5    9.66    0.95
  11   1  -5    5.29    0.82
  -1  12   5    5.14    0.86
  12   0  -5   14.88    1.18
   0  12   5   13.01    1.12
  13  -1  -5    4.52    0.84
   1  12   5    4.52    0.87
  14  -2  -5    8.37    0.99
 -12  14  -5    9.09    0.94
   2  12   5   10.16    1.06
  13 -13  -5   10.14    0.92
   0  13  -5    9.56    0.97
  13   0   5    8.81    0.96
  12 -13  -5    3.69    0.72
   1  12  -5    4.15    0.82
  13  -1   5    4.52    0.78
  11 -13  -5    2.97    0.69
   2  11  -5    3.80    0.78
  13  -2   5    4.05    0.74
   3  10  -5    0.64    0.65
  10 -13  -5    0.09    0.59
  13  -3   5    1.17    0.63
   4   9  -5    2.10    0.66
  13  -4   5    4.05    0.70
   5   8  -5    3.08    0.68
  13  -5   5    4.15    0.70
  -8  13   5    4.46    0.84
   6   7  -5    4.19    0.78
  -7  13   5    3.80    0.81
   7   6  -5    4.76    0.80
  -6  13   5    4.98    0.85
 -13   8  -5    2.78    0.78
   8   5  -5    2.81    0.73
  -5  13   5    3.50    0.81
   9   4  -5    2.31    0.71
 -13   9  -5    1.67    0.73
  -4  13   5    1.01    0.73
  10   3  -5    1.57    0.71
 -13  10  -5    1.40    0.73
  -3  13   5    2.07    0.76
  11   2  -5    1.78    0.71
  -2  13   5    3.37    0.81
  12   1  -5    5.33    0.87
  -1  13   5    4.70    0.89
  13   0  -5    8.42    0.98
   0  13   5    8.41    1.02
   2  12  -5    9.78    1.00
  12 -14  -5   12.07    1.01
  14  -2   5   12.06    1.02
  11 -14  -5    9.39    0.95
   3  11  -5   10.78    1.00
  14  -3   5    8.69    0.92
   4  10  -5    1.00    0.68
  10 -14  -5    1.41    0.67
  14  -4   5    0.77    0.63
   5   9  -5   12.83    1.06
  -9  14   5   13.85    1.19
  14  -5   5   13.23    1.04
   6   8  -5    5.15    0.81
  -8  14   5    4.40    0.88
   7   7  -5    1.69    0.70
  -7  14   5    2.75    0.81
   8   6  -5    1.67    0.73
  -6  14   5    4.28    0.86
   9   5  -5   13.31    1.06
  -5  14   5   13.64    1.17
  10   4  -5    1.10    0.70
  -4  14   5    1.60    0.76
  11   3  -5   10.01    0.99
  -3  14   5    9.97    1.08
  12   2  -5    9.56    1.03
  -2  14   5   11.25    1.10
   5  10  -5    2.15    0.75
  10 -15  -5    0.24    0.68
  15  -5   5    2.85    0.72
   6   9  -5   10.58    0.98
  -9  15   5   11.68    1.17
  15  -6   5   11.09    0.98
   7   8  -5    2.00    0.73
  -8  15   5    2.34    0.86
   8   7  -5    3.14    0.78
  -7  15   5    2.61    0.86
   9   6  -5   11.09    1.04
  -6  15   5   10.86    1.11
  10   5  -5    0.97    0.69
  -5  15   5    1.44    0.77
   0   0  -6  190.70    5.19
  -1   0  -6    7.06    0.86
   0   1  -6    7.53    0.83
   1  -1  -6    7.45    0.82
   0  -1  -6    9.98    0.93
   1   0  -6    8.85    0.88
  -1   1  -6   10.10    0.95
   2  -1  -6    3.65    0.70
  -1   2  -6    4.00    0.71
   2  -1  -6    4.47    0.52
  -1  -1  -6    4.15    0.73
  -1   3  -6    4.04    0.76
  -1   3  -6    3.39    0.53
   3  -2  -6    3.91    0.70
   3  -2  -6    4.51    0.55
  -2  -1  -6    2.97    0.74
   0   2  -6    3.35    0.54
   2  -2  -6    2.95    0.72
  -2   0  -6    3.78    0.76
   0   2  -6    2.60    0.69
   1   1  -6    3.42    0.74
   1  -2  -6    3.41    0.71
   1   1  -6    4.10    0.54
  -2   1  -6    4.66    0.77
  -2   2  -6    3.20    0.70
   2   0  -6    4.43    0.73
   0  -2  -6    2.69    0.69
   2   0  -6    4.26    0.55
  -2   3  -6    3.57    0.71
   3  -1  -6    3.64    0.52
  -1  -2  -6    3.22    0.75
  -2   4  -6    3.33    0.55
  -2   4  -6    3.23    0.75
  -2  -2  -6    4.19    0.77
   4  -2  -6    3.09    0.54
  -2   5  -6   15.61    0.92
  -2   5  -6   15.29    1.12
  -3  -2  -6   17.80    1.13
   5  -3  -6   15.00    0.92
  -1   4  -6    5.05    0.79
  -3  -1  -6    4.41    0.76
   4  -3  -6    4.82    0.56
  -1   4  -6    4.28    0.61
   0   3  -6   24.23    1.30
  -3   0  -6   25.97    1.33
   3  -3  -6   23.90    1.28
   0   3  -6   25.28    1.10
   1   2  -6    4.26    0.59
  -3   1  -6    3.57    0.70
   1   2  -6    3.33    0.72
   2  -3  -6    3.74    0.75
   1  -3  -6    4.46    0.78
   2   1  -6    4.15    0.56
  -3   2  -6    3.45    0.73
   0  -3  -6   35.35    1.61
  -3   3  -6   36.01    1.58
   3   0  -6   37.10    1.32
  -3   4  -6    5.35    0.83
  -1  -3  -6    6.08    0.80
   4  -1  -6    5.31    0.64
  -3   5  -6   15.63    1.22
   5  -2  -6   17.04    1.00
  -2  -3  -6   17.14    1.24
  -3   5  -6   17.59    0.98
   6  -3  -6   13.35    0.91
  -3   6  -6   14.35    0.96
  -3  -3  -6   15.19    1.09
  -3   6  -6   17.00    1.23
  -3   7  -6    8.09    0.91
  -4  -3  -6    7.97    0.89
   7  -4  -6    8.13    0.75
  -3   7  -6    7.32    0.73
  -4  -2  -6   12.28    1.05
  -2   6  -6   11.81    1.01
  -2   6  -6    9.50    0.79
   6  -4  -6   11.87    0.85
  -1   5  -6    3.40    0.59
   5  -4  -6    3.47    0.55
  -4  -1  -6    2.94    0.71
  -1   5  -6    3.52    0.73
   4  -4  -6   24.44    1.37
  -4   0  -6   26.92    1.41
   0   4  -6   25.15    1.32
   0   4  -6   26.74    1.13
   1   3  -6    4.61    0.59
   3  -4  -6    4.64    0.73
  -4   1  -6    4.45    0.76
   1   3  -6    3.08    0.73
  -4   2  -6    4.95    0.76
   2  -4  -6    3.66    0.75
   2   2  -6    4.02    0.59
   3   1  -6    5.08    0.62
   1  -4  -6    5.60    0.80
  -4   3  -6    5.25    0.79
   4   0  -6   22.10    1.06
   0  -4  -6   23.08    1.27
  -4   4  -6   22.10    1.35
  -4   5  -6    2.56    0.73
  -1  -4  -6    3.29    0.76
   5  -1  -6    4.01    0.60
  -4   6  -6   13.03    1.09
  -2  -4  -6   12.62    1.04
   6  -2  -6   13.78    0.93
  -4   7  -6    8.43    0.75
   7  -3  -6    8.83    0.79
  -3  -4  -6    6.79    0.88
  -4   7  -6    6.96    0.86
   8  -4  -6   36.68    1.47
  -4   8  -6   35.53    1.43
  -4   8  -6   37.14    1.68
  -5  -4  -6    7.56    0.95
  -4   9  -6    9.10    0.84
   9  -5  -6    8.69    0.82
  -4   9  -6    9.73    0.95
   5   4   6    7.49    0.81
  -3   8  -6    4.59    0.79
   8  -5  -6    4.07    0.64
  -5  -3  -6    4.41    0.83
  -3   8  -6    4.12    0.68
  -2   7  -6    3.86    0.64
   7  -5  -6    3.75    0.59
  -5  -2  -6    3.95    0.80
  -2   7  -6    4.04    0.77
   6  -5  -6   14.15    0.88
  -1   6  -6   12.12    1.03
  -5  -1  -6   11.53    1.06
  -1   6  -6   13.71    0.93
   0   5  -6   14.45    0.93
   5  -5  -6   14.41    1.14
  -5   0  -6   14.77    1.17
   0   5  -6   14.96    1.09
  -5   1  -6    3.00    0.70
   4  -5  -6    3.26    0.72
   1   4  -6    3.82    0.61
  -5   2  -6   15.20    1.16
   3  -5  -6   16.69    1.09
   2   3  -6   14.69    0.88
   3   2  -6   16.43    0.97
   2  -5  -6   15.65    1.09
  -5   3  -6   16.38    1.14
  -5   4  -6    4.14    0.78
   4   1  -6    2.97    0.59
   1  -5  -6    2.68    0.72
   0  -5  -6   24.12    1.34
   5   0  -6   22.28    1.13
  -5   5  -6   21.13    1.34
  -5   6  -6   11.60    1.02
   6  -1  -6   12.59    0.96
  -1  -5  -6   11.26    0.98
  -2  -5  -6    2.06    0.73
  -5   7  -6    2.98    0.75
   7  -2  -6    2.84    0.63
   8  -3  -6    7.28    0.82
  -5   8  -6    6.59    0.73
  -5   8  -6    7.34    0.88
  -3  -5  -6    6.26    0.85
   3   5   6    8.75    0.80
   9  -4  -6    6.46    0.80
  -4  -5  -6    7.06    0.91
  -5   9  -6    6.02    0.76
  -5   9  -6    7.53    0.89
   4   5   6    5.69    0.73
  -5  10  -6    1.29    0.68
  -5  10  -6    0.13    0.59
  10  -5  -6    0.80    0.63
  -5  -5  -6    0.57    0.71
   5   5   6    0.99    0.58
  -6  -5  -6    9.92    1.06
  11  -6  -6   11.59    0.98
  -5  11  -6    8.31    0.89
   6   5   6    9.53    0.90
  10  -6  -6    3.91    0.71
  -4  10  -6    2.09    0.68
  -6  -4  -6    2.36    0.79
   6   4   6    4.22    0.71
  -3   9  -6   26.24    1.42
   9  -6  -6   25.21    1.23
  -3   9  -6   23.76    1.25
  -6  -3  -6   24.31    1.45
  -2   8  -6    8.32    0.81
  -6  -2  -6    7.52    0.93
  -2   8  -6    6.82    0.87
   8  -6  -6    8.75    0.77
  -6  -1  -6    1.80    0.75
  -1   7  -6    2.27    0.70
  -1   7  -6    3.32    0.66
   7  -6  -6    1.48    0.51
   6  -6  -6   25.82    1.34
  -6   0  -6   30.63    1.52
   0   6  -6   28.42    1.26
   0   6  -6   30.98    1.50
   5  -6  -6   12.59    1.00
  -6   1  -6   12.61    1.07
   1   5  -6   12.48    0.91
   2   4  -6   10.01    0.82
   4  -6  -6   10.66    0.94
  -6   2  -6   10.93    1.03
  -6   3  -6   14.58    1.17
   3   3  -6   14.40    0.97
   3  -6  -6   16.62    1.15
   2  -6  -6   13.48    1.12
   4   2  -6   13.49    0.95
  -6   4  -6   13.39    1.09
  -6   5  -6   11.26    1.00
   5   1  -6   11.78    0.87
   1  -6  -6   11.63    0.98
   6   0  -6   27.48    1.26
  -6   6  -6   32.02    1.53
   0  -6  -6   28.69    1.44
   7  -1  -6    1.32    0.62
  -6   7  -6    1.89    0.72
  -1  -6  -6    1.25    0.68
  -6   8  -6    8.75    0.91
   8  -2  -6    8.89    0.84
  -2  -6  -6    9.46    0.95
   2   6   6    9.61    0.85
  -6   9  -6   28.16    1.29
  -3  -6  -6   27.73    1.48
  -6   9  -6   28.99    1.49
   9  -3  -6   26.11    1.36
   3   6   6   30.02    1.35
  -4  -6  -6    4.39    0.83
  -6  10  -6    5.95    0.83
  -6  10  -6    4.17    0.72
  10  -4  -6    3.73    0.72
   4   6   6    5.17    0.77
  11  -5  -6   10.77    0.98
  -5  -6  -6   11.17    1.05
  -6  11  -6   11.23    0.98
   5   6   6   10.28    0.93
  12  -6  -6    3.68    0.80
  -6  12  -6    3.56    0.78
  -6  -6  -6    2.21    0.81
   6   6   6    3.04    0.71
  -7  -5  -6    3.14    0.84
  -5  12  -6    2.79    0.71
  12  -7  -6    3.20    0.78
   7   5   6    3.26    0.72
  -4  11  -6    1.13    0.68
  -7  -4  -6    1.02    0.77
  11  -7  -6    1.61    0.67
   7   4   6    1.84    0.64
  -7  -3  -6    1.57    0.77
  10  -7  -6    1.33    0.63
  -3  10  -6    1.88    0.67
   7   3   6    2.18    0.63
   9  -7  -6   11.51    0.90
  -2   9  -6    9.77    0.89
  -2   9  -6    9.64    0.96
  -7  -2  -6    9.26    1.02
  -7  -1  -6    5.89    0.91
  -1   8  -6    7.04    0.86
   8  -7  -6    5.53    0.66
  -1   8  -6    5.92    0.73
   0   7  -6    2.46    0.71
  -7   0  -6    2.26    0.75
   0   7  -6    1.41    0.62
   6  -7  -6    1.72    0.63
  -7   1  -6    2.32    0.75
   1   6  -6    2.74    0.63
   5  -7  -6    2.46    0.67
   2   5  -6    3.18    0.64
  -7   2  -6    3.50    0.80
   3   4  -6    9.32    0.83
   4  -7  -6    9.30    0.88
  -7   3  -6    6.50    0.89
  -7   4  -6    7.55    0.93
   3  -7  -6    7.35    0.79
   4   3  -6    6.60    0.76
   5   2  -6    1.84    0.62
   2  -7  -6    2.86    0.67
  -7   5  -6    1.86    0.73
  -7   6  -6    1.43    0.71
   1  -7  -6    2.42    0.67
   6   1  -6    0.92    0.59
   7   0  -6    1.03    0.64
  -7   7  -6    0.73    0.68
   0  -7  -6    2.02    0.67
   0   7   6    1.58    0.63
  -7   8  -6    3.87    0.81
  -1  -7  -6    5.21    0.79
   8  -1  -6    4.82    0.77
   1   7   6    5.78    0.75
  -7   9  -6    9.90    0.96
   9  -2  -6    7.92    0.88
  -2  -7  -6    9.83    0.95
   2   7   6    9.71    0.91
  -3  -7  -6    2.07    0.74
  -7  10  -6    3.38    0.75
  10  -3  -6    2.65    0.74
   3   7   6    2.50    0.68
  -4  -7  -6    2.18    0.76
  11  -4  -6    2.47    0.75
  -7  11  -6    1.45    0.70
   4   7   6    1.52    0.66
  -7  12  -6    4.82    0.81
  12  -5  -6    4.20    0.83
  -5  -7  -6    4.46    0.86
   5   7   6    3.51    0.75
  -8  -4  -6    9.01    1.06
  -4  12  -6   11.23    1.02
  12  -8  -6    8.93    0.92
  11  -8  -6   15.69    1.08
  -3  11  -6   13.67    1.07
  -8  -3  -6   15.54    1.21
   8   3   6   13.52    1.05
  -8  -2  -6    3.80    0.87
  10  -8  -6    4.73    0.69
  -2  10  -6    4.18    0.76
   9  -8  -6    6.75    0.72
  -1   9  -6    7.53    0.84
  -1   9  -6    5.99    0.84
  -8  -1  -6    4.95    0.88
  -8   0  -6    2.34    0.79
   0   8  -6    1.72    0.62
   0   8  -6    2.32    0.67
   1   7  -6    5.03    0.71
  -8   1  -6    3.83    0.83
   7  -8  -6    5.78    0.77
  -8   2  -6    7.39    0.94
   6  -8  -6    8.55    0.85
   2   6  -6    6.75    0.77
   3   5  -6    4.47    0.71
   5  -8  -6    5.32    0.74
  -8   3  -6    4.74    0.84
   4  -8  -6   34.35    1.47
  -8   4  -6   28.47    1.54
   4   4  -6   30.74    1.39
   5   3  -6    6.07    0.74
  -8   5  -6    5.56    0.84
   3  -8  -6    7.17    0.80
   6   2  -6    8.46    0.85
  -8   6  -6    7.27    0.92
   2  -8  -6    8.65    0.88
   1  -8  -6    5.06    0.75
  -8   7  -6    4.46    0.78
   7   1  -6    5.30    0.77
  -1   8   6    4.91    0.74
   8   0  -6    3.01    0.73
   0  -8  -6    3.89    0.74
  -8   8  -6    3.42    0.79
   0   8   6    1.88    0.66
   9  -1  -6   10.18    0.97
  -8   9  -6    7.52    0.92
  -1  -8  -6    9.47    0.92
   1   8   6   10.80    0.94
  -8  10  -6    4.99    0.82
  10  -2  -6    5.13    0.80
  -2  -8  -6    4.07    0.77
   2   8   6    4.13    0.74
  -3  -8  -6   13.99    1.16
  11  -3  -6   15.96    1.20
   3   8   6   14.98    1.14
  12  -4  -6    9.54    0.99
  -8  12  -6    9.84    0.94
  -4  -8  -6    7.61    0.95
   4   8   6    8.57    0.91
  -9  -3  -6    8.29    1.07
  12  -9  -6    8.32    0.89
  -3  12  -6    9.34    0.95
   9   3   6    8.43    0.90
  -9  -2  -6   11.43    1.12
  11  -9  -6   12.38    0.99
  -2  11  -6   12.18    1.03
   9   2   6   12.22    1.03
  -9  -1  -6    5.37    0.91
  -1  10  -6    5.08    0.80
  10  -9  -6    5.29    0.71
  -9   0  -6   16.34    1.30
   0   9  -6   16.81    1.16
   0   9  -6   17.42    1.26
  -9   1  -6    7.25    0.93
   1   8  -6    5.53    0.80
   8  -9  -6    6.04    0.80
  -9   2  -6    9.23    1.01
   7  -9  -6    7.87    0.86
   2   7  -6    9.81    0.89
  -9   3  -6   21.80    1.32
   6  -9  -6   23.56    1.26
   3   6  -6   22.78    1.23
   5  -9  -6    8.48    0.82
  -9   4  -6    7.57    0.95
   4   5  -6    7.60    0.85
   5   4  -6    6.61    0.81
  -9   5  -6    6.03    0.85
   4  -9  -6    6.08    0.75
   6   3  -6   28.62    1.36
  -9   6  -6   26.34    1.42
  -9   7  -6    9.04    0.99
   7   2  -6    8.98    0.91
  -2   9   6   11.06    0.94
   8   1  -6    9.48    0.95
  -9   8  -6   10.52    1.02
  -1   9   6   10.18    0.95
   9   0  -6   17.20    1.23
  -9   9  -6   19.17    1.30
   0   9   6   21.12    1.24
  -9  10  -6    5.64    0.86
  10  -1  -6    5.11    0.82
   1   9   6    5.03    0.81
  11  -2  -6    8.75    0.94
   2   9   6    7.45    0.89
  12  -3  -6    5.59    0.90
   3   9   6    5.06    0.85
  12 -10  -6    0.83    0.64
  -2  12  -6    1.19    0.73
  10   2   6    1.97    0.69
 -10  -1  -6    1.08    0.82
  -1  11  -6    2.03    0.69
  11 -10  -6    2.29    0.65
   0  10  -6    1.87    0.72
 -10   0  -6    2.92    0.85
 -10   1  -6    6.38    0.97
   1   9  -6    6.28    0.85
   1   9  -6    4.83    0.82
   2   8  -6    4.74    0.78
 -10   2  -6    4.60    0.86
   3   7  -6    0.37    0.62
 -10   3  -6    2.67    0.82
 -10   4  -6    4.14    0.80
   4   6  -6    2.95    0.71
   5   5  -6    0.67    0.66
 -10   5  -6    1.64    0.76
 -10   6  -6    3.46    0.83
   6   4  -6    3.94    0.72
 -10   7  -6    1.68    0.76
   7   3  -6    2.97    0.69
  -3  10   6    2.15    0.71
 -10   8  -6    4.52    0.84
   8   2  -6    3.52    0.78
  -2  10   6    4.87    0.81
   9   1  -6    5.40    0.85
 -10   9  -6    4.85    0.85
  -1  10   6    5.62    0.84
 -10  10  -6    4.42    0.87
  10   0  -6    4.58    0.84
   0  10   6    3.73    0.79
  11  -1  -6    1.50    0.77
   1  10   6    2.09    0.74
  12  -2  -6    0.34    0.73
   2  10   6    0.87    0.72
   0  11  -6    5.09    0.85
 -11   0  -6    3.69    0.91
   1  10  -6    1.58    0.74
 -11   1  -6    1.89    0.80
 -11   2  -6   12.97    1.18
   2   9  -6   11.80    1.04
   3   8  -6   14.27    1.13
 -11   3  -6   12.85    1.17
 -11   4  -6    2.05    0.81
   4   7  -6    1.07    0.67
   5   6  -6    8.61    0.91
 -11   5  -6    9.10    1.00
 -11   6  -6    9.85    1.02
   6   5  -6   11.60    1.00
   7   4  -6    2.32    0.74
 -11   7  -6    2.06    0.77
  -4  11   6    1.39    0.70
 -11   8  -6   13.39    1.13
   8   3  -6   15.40    1.17
  -3  11   6   15.04    1.19
   9   2  -6    8.77    0.98
 -11   9  -6    9.81    1.01
  -2  11   6    5.98    0.89
  10   1  -6    3.37    0.79
  -1  11   6    2.38    0.76
  11   0  -6    8.11    1.01
   0  11   6    8.66    0.99
   2  10  -6    0.35    0.72
   3   9  -6    8.59    0.95
 -12   3  -6    6.92    1.02
 -12   4  -6   10.02    1.08
   4   8  -6    7.22    0.92
 -12   5  -6    3.23    0.87
   5   7  -6    4.32    0.82
   6   6  -6    3.45    0.76
 -12   6  -6    2.84    0.84
 -12   7  -6    5.01    0.88
   7   5  -6    4.19    0.84
  -5  12   6    4.59    0.85
 -12   8  -6    9.64    1.04
   8   4  -6    9.91    1.02
  -4  12   6    8.41    0.98
 -12   9  -6    7.11    0.95
   9   3  -6    6.36    0.92
  -3  12   6    5.58    0.89
  10   2  -6    1.31    0.72
  -2  12   6    0.52    0.76
   0   0  -7   15.66    1.25
  -1   0  -7    1.90    0.75
   1  -1  -7    1.51    0.77
   0   1  -7    2.24    0.75
   0  -1  -7    3.81    0.81
   1   0  -7    3.58    0.78
  -1   1  -7    2.01    0.79
   2  -1  -7    0.98    0.74
  -1  -1  -7    0.22    0.69
  -1   2  -7   -0.53    0.69
  -1   3  -7    6.13    0.91
  -2  -1  -7    7.14    0.95
   3  -2  -7    6.24    0.91
   0   2  -7    2.46    0.79
  -2   0  -7    2.18    0.76
   2  -2  -7    3.74    0.84
  -2   1  -7   -0.24    0.65
   1  -2  -7    0.41    0.72
   1   1  -7    0.69    0.68
   0  -2  -7    4.20    0.88
  -2   2  -7    4.77    0.85
   2   0  -7    4.05    0.82
   3  -1  -7    7.10    0.94
  -2   3  -7    8.26    1.01
  -1  -2  -7    8.62    1.00
   4  -2  -7    4.40    0.86
  -2  -2  -7    4.22    0.91
  -2   4  -7    4.44    0.87
  -2   5  -7    7.01    0.97
   5  -3  -7    7.92    0.96
  -3  -2  -7    6.94    0.99
   4  -3  -7    9.05    0.99
  -1   4  -7    6.87    0.95
  -3  -1  -7    7.74    0.97
   0   3  -7   16.57    1.20
   3  -3  -7   18.03    1.31
  -3   0  -7   15.95    1.24
   2  -3  -7    7.37    0.93
  -3   1  -7    6.85    0.93
   1   2  -7    6.00    0.91
   2   1  -7    8.64    0.97
  -3   2  -7    9.10    1.01
   1  -3  -7    8.45    1.01
   0  -3  -7   22.44    1.43
   3   0  -7   18.93    1.34
  -3   3  -7   20.47    1.39
  -1  -3  -7    6.01    0.96
  -3   4  -7    6.74    0.92
   4  -1  -7    6.00    0.87
  -3   5  -7    3.23    0.88
  -2  -3  -7    5.06    0.90
   5  -2  -7    4.82    0.89
  -3  -3  -7   13.26    1.17
  -3   6  -7   13.09    1.18
  -3   7  -7    1.71    0.75
  -4  -3  -7    1.68    0.83
   6  -4  -7    3.81    0.85
  -2   6  -7    4.14    0.87
  -4  -2  -7    3.07    0.85
  -1   5  -7    0.24    0.73
  -4  -1  -7    0.21    0.76
   5  -4  -7    0.26    0.71
   4  -4  -7   10.59    1.06
   0   4  -7    9.80    1.05
  -4   0  -7   11.11    1.09
   1   3  -7    7.31    0.95
   3  -4  -7    8.33    0.99
  -4   1  -7    8.22    1.01
  -4   2  -7    5.18    0.89
   2  -4  -7    4.22    0.82
   2   2  -7    4.78    0.83
   3   1  -7    6.41    0.91
   1  -4  -7    6.12    0.94
  -4   3  -7    6.48    0.93
   0  -4  -7   10.69    1.08
  -4   4  -7    9.04    1.02
   4   0  -7    7.08    0.97
  -4   5  -7    1.77    0.74
  -1  -4  -7    0.64    0.70
  -2  -4  -7    3.84    0.87
  -4   6  -7    1.55    0.74
  -3  -4  -7    2.87    0.88
  -4   7  -7    2.13    0.81
  -4  -4  -7    0.70    0.73
  -4   8  -7    0.56    0.73
  -5  -4  -7    7.96    1.07
  -4   9  -7    9.68    1.08
  -3   8  -7    8.15    1.00
  -5  -3  -7    8.45    1.07
  -5  -2  -7    0.57    0.79
  -2   7  -7   -0.32    0.70
   7  -5  -7    0.64    0.74
  -1   6  -7    4.23    0.89
   6  -5  -7    3.86    0.86
  -5  -1  -7    4.18    0.93
  -5   0  -7    0.76    0.78
   5  -5  -7    0.17    0.71
   0   5  -7    0.64    0.75
  -5   1  -7    1.39    0.80
   4  -5  -7   -0.07    0.71
   1   4  -7    0.10    0.57
   1   4  -7   -0.08    0.65
   2   3  -7    5.90    0.74
  -5   2  -7    6.84    0.96
   3  -5  -7    6.09    0.88
   2   3  -7    5.49    0.87
   3   2  -7    3.91    0.66
   3   2  -7    3.61    0.84
   2  -5  -7    5.56    0.91
  -5   3  -7    3.99    0.83
  -5   4  -7    0.62    0.76
   4   1  -7    1.97    0.59
   1  -5  -7    0.79    0.75
  -5   5  -7    0.91    0.71
   0  -5  -7    1.70    0.79
   5   0  -7    1.54    0.59
   6  -1  -7    5.05    0.75
  -5   6  -7    4.71    0.94
  -1  -5  -7    4.50    0.90
  -5   7  -7   -0.48    0.73
  -2  -5  -7    0.65    0.79
   7  -2  -7    0.18    0.59
  -3  -5  -7   11.19    1.11
  -5   8  -7    9.26    1.07
   8  -3  -7    9.95    0.95
   9  -4  -7    5.31    0.82
  -4  -5  -7    5.83    0.98
  -5   9  -7    6.41    0.95
  -3   9  -7    8.82    1.07
  -6  -3  -7    8.87    1.11
  -2   8  -7    7.85    0.86
  -2   8  -7    7.29    0.97
   8  -6  -7    6.71    0.96
  -6  -2  -7    7.37    1.05
  -6  -1  -7    5.33    0.97
   7  -6  -7    6.18    0.92
  -1   7  -7    6.72    0.79
  -1   7  -7    5.35    0.91
   0   6  -7    7.14    0.94
   0   6  -7    6.95    0.83
  -6   0  -7    6.56    1.02
   6  -6  -7    7.15    0.94
   1   5  -7    4.69    0.86
   5  -6  -7    4.56    0.85
   1   5  -7    3.70    0.69
  -6   1  -7    4.58    0.93
   4  -6  -7    3.67    0.82
  -6   2  -7    3.49    0.84
   2   4  -7    3.76    0.79
   2   4  -7    3.21    0.66
   3   3  -7   11.50    0.91
  -6   3  -7   12.62    1.19
   3  -6  -7   13.04    1.11
   3   3  -7   13.23    1.14
   2  -6  -7    4.16    0.83
   4   2  -7    1.34    0.63
  -6   4  -7    1.46    0.80
   5   1  -7    6.12    0.77
   1  -6  -7    6.33    0.93
  -6   5  -7    5.70    0.95
  -6   6  -7    9.53    1.06
   6   0  -7    9.97    0.88
   0  -6  -7    9.54    1.03
   7  -1  -7    4.77    0.77
  -1  -6  -7    6.43    0.94
  -6   7  -7    5.66    0.93
   8  -2  -7    7.82    0.89
  -6   8  -7    8.18    1.01
  -2  -6  -7    9.43    1.06
  -3  -6  -7    5.54    0.95
  -6   9  -7    6.57    0.94
   9  -3  -7    7.62    0.91
  -7  -1  -7   -0.11    0.76
  -1   8  -7    0.46    0.73
  -1   8  -7   -0.14    0.62
   8  -7  -7    0.76    0.70
   0   7  -7    5.63    0.79
   0   7  -7    4.39    0.87
   7  -7  -7    2.73    0.76
  -7   0  -7    4.16    0.94
   6  -7  -7    6.51    0.89
   1   6  -7    6.21    0.81
  -7   1  -7    5.83    0.97
   1   6  -7    6.27    0.88
   2   5  -7    0.49    0.61
   2   5  -7   -0.58    0.70
  -7   2  -7   -1.26    0.73
   5  -7  -7    0.53    0.66
   4  -7  -7    1.55    0.71
  -7   3  -7    1.50    0.83
   3   4  -7    1.67    0.64
   4   3  -7    1.45    0.65
  -7   4  -7    2.88    0.85
   3  -7  -7    2.56    0.75
   2  -7  -7    0.95    0.71
  -7   5  -7   -0.51    0.72
   5   2  -7    0.06    0.61
   6   1  -7    4.46    0.77
  -7   6  -7    4.34    0.91
   1  -7  -7    5.44    0.87
   7   0  -7    5.29    0.80
   0  -7  -7    8.21    0.99
  -7   7  -7    6.29    0.97
   8  -1  -7   -0.02    0.64
  -7   8  -7    0.72    0.77
  -1  -7  -7    1.25    0.81
   0   8  -7   17.34    1.36
  -8   0  -7   19.44    1.44
   0   8  -7   17.83    1.18
   8  -8  -7   18.16    1.30
   1   7  -7   -0.28    0.70
  -8   1  -7    0.16    0.75
   1   7  -7    0.26    0.64
   7  -8  -7    0.18    0.65
   2   6  -7    6.04    0.92
   2   6  -7    6.83    0.84
   6  -8  -7    9.39    0.96
  -8   3  -7   10.00    1.12
   3   5  -7    9.04    0.90
   5  -8  -7   11.17    1.04
  -8   4  -7    0.85    0.78
   4  -8  -7    1.24    0.69
   4   4  -7    0.90    0.64
   5   3  -7    7.97    0.90
   3  -8  -7    9.26    0.98
  -8   5  -7    9.26    1.08
  -8   6  -7    9.22    1.09
   6   2  -7    8.58    0.92
   2  -8  -7   10.15    0.99
   7   1  -7   -0.06    0.65
   1  -8  -7    1.64    0.74
  -8   7  -7    0.37    0.76
  -8   8  -7   12.80    1.18
   8   0  -7   15.35    1.15
   3   6  -7    6.84    0.86
  -9   3  -7    5.95    1.02
  -9   4  -7    9.27    1.11
   4   5  -7    6.55    0.87
  -9   5  -7    3.31    0.91
   5   4  -7    4.72    0.80
   6   3  -7    6.30    0.90
  -9   6  -7    7.20    0.99
   0   0   0    0.00    0.00
;
loop_
_space_group_symop_operation_xyz
'x, y, z'
'-y, x-y, z'
'-x+y, -x, z'
'-x+y, y, z'
'x, x-y, z'
'-y, -x, z'
loop_
_atom_site_label
_atom_site_fract_x
_atom_site_fract_y
_atom_site_fract_z
_atom_site_U_iso_or_equiv
_atom_site_adp_type
_atom_site_calc_flag
_atom_site_occupancy
_atom_site_type_symbol
La1 0.55166(2) 0.10333(5) 0.3223(2) 0.01180(10) Uani d 0.8852 La
Eu1 0.55166(2) 0.10333(5) 0.3223(2) 0.01180(10) Uani d 0.1148 Eu
La2 1 0 0.6152(17) 0.0080(10) Uani d 0.136 La
Eu2 1 0 0.6152(17) 0.0080(10) Uani d 0.0176 Eu
La3 1 0 0.7620(10) 0.0393(11) Uani d 0.3938 La
Eu3 1 0 0.7620(10) 0.0393(11) Uani d 0.0511 Eu
Li1 0.3333 0.6667 0.876(5) 0.002(5) Uiso d 1 Li
Si1 0.59039(15) 0.92235(14) 0.8203(6) 0.0047(2) Uani d 0.7722 Si
Al1 0.59039(15) 0.92235(14) 0.8203(6) 0.0047(2) Uani d 0.2278 Al
Si2 0.5078(3) 0.75388(13) 0.3263(10) 0.0093(4) Uani d 0.7722 Si
Al2 0.5078(3) 0.75388(13) 0.3263(10) 0.0093(4) Uani d 0.2278 Al
Si3 0.75925(16) 0.00193(17) 0.3015(6) 0.0052(3) Uani d 0.7722 Si
Al3 0.75925(16) 0.00193(17) 0.3015(6) 0.0052(3) Uani d 0.2278 Al
Si4 0.81844(12) 0.18156(12) 0.7875(6) 0.0053(5) Uani d 0.7722 Si
Al4 0.81844(12) 0.18156(12) 0.7875(6) 0.0053(5) Uani d 0.2278 Al
Si5 0.6667 0.3333 0.7874(12) 0.0059(9) Uani d 0.7723 Si
Al5 0.6667 0.3333 0.7874(12) 0.0059(9) Uani d 0.2278 Al
Si6 1 0 0.116(3) 0.0092(16) Uani d 0.3101 Si
Al6 1 0 0.116(3) 0.0092(16) Uani d 0.0914 Al
Si7 1 0 0.430(3) 0.0092(16) Uani d 0.3101 Si
Al7 1 0 0.430(3) 0.0092(16) Uani d 0.0914 Al
N1 0.8634(5) 0.1366(5) 0.489(2) 0.0147(17) Uani d 0.9279 N
O1 0.8634(5) 0.1366(5) 0.489(2) 0.0147(17) Uani d 0.0721 O
N2 0.6107(6) 0.9245(6) 0.4640(13) 0.0080(9) Uani d 0.9279 N
O2 0.6107(6) 0.9245(6) 0.4640(13) 0.0080(9) Uani d 0.0721 O
N3 0.8402(8) 0.9201(4) 0.2677(19) 0.0117(18) Uani d 0.9279 N
O3 0.8402(8) 0.9201(4) 0.2677(19) 0.0117(18) Uani d 0.0721 O
N4 0.3333 0.6667 0.386(6) 0.031(7) Uani d 0.9279 N
O4 0.3333 0.6667 0.386(6) 0.031(7) Uani d 0.0721 O
N5 0.5521(12) 0.7760(6) 0.956(2) 0.0139(16) Uani d 0.9279 N
O5 0.5521(12) 0.7760(6) 0.956(2) 0.0139(16) Uani d 0.0721 O
N6 0.4825(5) 0.9650(10) 0.8893(18) 0.0125(17) Uani d 0.9279 N
O6 0.4825(5) 0.9650(10) 0.8893(18) 0.0125(17) Uani d 0.0721 O
N7 0.7246(6) 0.0474(6) 0.9843(13) 0.0116(11) Uani d 0.9279 N
O7 0.7246(6) 0.0474(6) 0.9843(13) 0.0116(11) Uani d 0.0721 O
N8 0.6667 0.3333 0.134(3) 0.010(3) Uani d 0.9279 N
O8 0.6667 0.3333 0.134(3) 0.010(3) Uani d 0.0721 O
N9 0.7422(5) 0.2578(5) 0.663(2) 0.0125(16) Uani d 0.9279 N
O9 0.7422(5) 0.2578(5) 0.663(2) 0.0125(16) Uani d 0.0721 O
N10 1 0 0.7620(10) 0.0393(11) Uani d 0.3725 N
O10 1 0 0.7620(10) 0.0393(11) Uani d 0.029 O
loop_
_atom_site_aniso_label
_atom_site_aniso_U_11
_atom_site_aniso_U_22
_atom_site_aniso_U_33
_atom_site_aniso_U_12
_atom_site_aniso_U_13
_atom_site_aniso_U_23
La1 0.00837(14) 0.00950(19) 0.0179(2) 0.00475(9) -0.00123(16) -0.0025(3)
Eu1 0.00837(14) 0.00950(19) 0.0179(2) 0.00475(9) -0.00123(16) -0.0025(3)
La2 0.0072(16) 0.0072(16) 0.010(3) 0.0036(8) 0 0
Eu2 0.0072(16) 0.0072(16) 0.010(3) 0.0036(8) 0 0
La3 0.0342(11) 0.0342(11) 0.050(3) 0.0171(6) 0 0
Eu3 0.0342(11) 0.0342(11) 0.050(3) 0.0171(6) 0 0
Si1 0.0050(5) 0.0052(5) 0.0036(6) 0.0022(5) 0.0006(10) 0.0002(10)
Al1 0.0050(5) 0.0052(5) 0.0036(6) 0.0022(5) 0.0006(10) 0.0002(10)
Si2 0.0087(9) 0.0092(7) 0.0097(12) 0.0043(5) 0.0009(17) 0.0004(8)
Al2 0.0087(9) 0.0092(7) 0.0097(12) 0.0043(5) 0.0009(17) 0.0004(8)
Si3 0.0052(6) 0.0053(6) 0.0054(8) 0.0028(5) 0.0000(8) 0.0002(9)
Al3 0.0052(6) 0.0053(6) 0.0054(8) 0.0028(5) 0.0000(8) 0.0002(9)
Si4 0.0046(6) 0.0046(6) 0.0058(14) 0.0016(7) -0.0003(5) 0.0003(5)
Al4 0.0046(6) 0.0046(6) 0.0058(14) 0.0016(7) -0.0003(5) 0.0003(5)
Si5 0.0070(10) 0.0070(10) 0.004(2) 0.0035(5) 0 0
Al5 0.0070(10) 0.0070(10) 0.004(2) 0.0035(5) 0 0
Si6 0.009(2) 0.009(2) 0.009(5) 0.0047(10) 0 0
Al6 0.009(2) 0.009(2) 0.009(5) 0.0047(10) 0 0
Si7 0.009(2) 0.009(2) 0.009(5) 0.0047(10) 0 0
Al7 0.009(2) 0.009(2) 0.009(5) 0.0047(10) 0 0
N1 0.012(3) 0.012(3) 0.014(4) 0.001(3) 0.0033(18) -0.0033(18)
O1 0.012(3) 0.012(3) 0.014(4) 0.001(3) 0.0033(18) -0.0033(18)
N2 0.008(2) 0.009(2) 0.006(2) 0.0035(19) 0.0000(18) -0.0010(18)
O2 0.008(2) 0.009(2) 0.006(2) 0.0035(19) 0.0000(18) -0.0010(18)
N3 0.010(3) 0.008(2) 0.017(5) 0.0050(16) 0.002(3) 0.0009(14)
O3 0.010(3) 0.008(2) 0.017(5) 0.0050(16) 0.002(3) 0.0009(14)
N4 0.011(4) 0.011(4) 0.07(2) 0.006(2) 0 0
O4 0.011(4) 0.011(4) 0.07(2) 0.006(2) 0 0
N5 0.022(4) 0.013(3) 0.010(4) 0.011(2) 0.003(4) 0.002(2)
O5 0.022(4) 0.013(3) 0.010(4) 0.011(2) 0.003(4) 0.002(2)
N6 0.009(2) 0.015(4) 0.015(4) 0.0077(19) -0.0019(14) -0.004(3)
O6 0.009(2) 0.015(4) 0.015(4) 0.0077(19) -0.0019(14) -0.004(3)
N7 0.010(3) 0.008(2) 0.010(3) -0.001(2) -0.003(2) 0.0002(19)
O7 0.010(3) 0.008(2) 0.010(3) -0.001(2) -0.003(2) 0.0002(19)
N8 0.015(4) 0.015(4) 0.001(6) 0.007(2) 0 0
O8 0.015(4) 0.015(4) 0.001(6) 0.007(2) 0 0
N9 0.011(3) 0.011(3) 0.016(4) 0.005(3) -0.0006(15) 0.0006(15)
O9 0.011(3) 0.011(3) 0.016(4) 0.005(3) -0.0006(15) 0.0006(15)
N10 0.0342(11) 0.0342(11) 0.050(3) 0.0171(6) 0 0
O10 0.0342(11) 0.0342(11) 0.050(3) 0.0171(6) 0 0
loop_
_atom_type_symbol
_atom_type_description
_atom_type_scat_dispersion_real
_atom_type_scat_dispersion_imag
_atom_type_scat_source
N N 0.0061 0.0033 'International Tables Vol C Tables 4.2.6.8 and 6.1.1.4'
Si Si 0.0817 0.0704 'International Tables Vol C Tables 4.2.6.8 and 6.1.1.4'
La La -0.2871 2.4523 'International Tables Vol C Tables 4.2.6.8 and 6.1.1.4'
Li Li -0.0003 0.0001 'International Tables Vol C Tables 4.2.6.8 and 6.1.1.4'
O O 0.0106 0.006 'International Tables Vol C Tables 4.2.6.8 and 6.1.1.4'
Al Al 0.0645 0.0514 'International Tables Vol C Tables 4.2.6.8 and 6.1.1.4'
Eu Eu -0.1578 3.6682 'International Tables Vol C Tables 4.2.6.8 and 6.1.1.4'
loop_
_geom_angle_atom_site_label_1
_geom_angle_atom_site_label_2
_geom_angle_atom_site_label_3
_geom_angle
_geom_angle_site_symmetry_1
_geom_angle_site_symmetry_3
O6 La1 N6 0.0(5) 1_544 1_544
O6 La1 N8 104.3(4) 1_544 .
N6 La1 N8 104.3(4) 1_544 .
O6 La1 N9 147.8(2) 1_544 .
N6 La1 N9 147.8(2) 1_544 .
N8 La1 N9 69.4(3) . .
O6 La1 O9 147.8(2) 1_544 3_665
N6 La1 O9 147.8(2) 1_544 3_665
N8 La1 O9 69.4(3) . 3_665
N9 La1 O9 61.6(4) . 3_665
O6 La1 N9 147.8(2) 1_544 3_665
N6 La1 N9 147.8(2) 1_544 3_665
N8 La1 N9 69.4(3) . 3_665
N9 La1 N9 61.6(4) . 3_665
O9 La1 N9 0.0(5) 3_665 3_665
O6 La1 O2 79.0(2) 1_544 1_545
N6 La1 O2 79.0(2) 1_544 1_545
N8 La1 O2 137.98(13) . 1_545
N9 La1 O2 85.7(2) . 1_545
O9 La1 O2 127.6(2) 3_665 1_545
N9 La1 O2 127.6(2) 3_665 1_545
O6 La1 N2 79.0(2) 1_544 1_545
N6 La1 N2 79.0(2) 1_544 1_545
N8 La1 N2 137.98(13) . 1_545
N9 La1 N2 85.7(2) . 1_545
O9 La1 N2 127.6(2) 3_665 1_545
N9 La1 N2 127.6(2) 3_665 1_545
O2 La1 N2 0.0(3) 1_545 1_545
O6 La1 O2 79.0(2) 1_544 4_545
N6 La1 O2 79.0(2) 1_544 4_545
N8 La1 O2 137.98(13) . 4_545
N9 La1 O2 127.6(2) . 4_545
O9 La1 O2 85.7(2) 3_665 4_545
N9 La1 O2 85.7(2) 3_665 4_545
O2 La1 O2 84.0(3) 1_545 4_545
N2 La1 O2 84.0(3) 1_545 4_545
O6 La1 N2 79.0(2) 1_544 4_545
N6 La1 N2 79.0(2) 1_544 4_545
N8 La1 N2 137.98(13) . 4_545
N9 La1 N2 127.6(2) . 4_545
O9 La1 N2 85.7(2) 3_665 4_545
N9 La1 N2 85.7(2) 3_665 4_545
O2 La1 N2 84.0(3) 1_545 4_545
N2 La1 N2 84.0(3) 1_545 4_545
O2 La1 N2 0.0(5) 4_545 4_545
O3 La2 N3 0.0(4) 1_545 1_545
O3 La2 O3 75.7(4) 1_545 3_665
N3 La2 O3 75.7(4) 1_545 3_665
O3 La2 N3 75.7(4) 1_545 3_665
N3 La2 N3 75.7(4) 1_545 3_665
O3 La2 N3 0.0(5) 3_665 3_665
O3 La2 O3 75.7(4) 1_545 2_755
N3 La2 O3 75.7(4) 1_545 2_755
O3 La2 O3 75.7(4) 3_665 2_755
N3 La2 O3 75.7(4) 3_665 2_755
O3 La2 N3 75.7(4) 1_545 2_755
N3 La2 N3 75.7(4) 1_545 2_755
O3 La2 N3 75.7(4) 3_665 2_755
N3 La2 N3 75.7(4) 3_665 2_755
O3 La2 N3 0.0(4) 2_755 2_755
O3 La3 N3 0.0(3) 1_545 1_545
O3 La3 O3 59.9(3) 1_545 3_665
N3 La3 O3 59.9(3) 1_545 3_665
O3 La3 N3 59.9(3) 1_545 3_665
N3 La3 N3 59.9(3) 1_545 3_665
O3 La3 N3 0.0(4) 3_665 3_665
O3 La3 O3 59.9(3) 1_545 2_755
N3 La3 O3 59.9(3) 1_545 2_755
O3 La3 O3 59.9(3) 3_665 2_755
N3 La3 O3 59.9(3) 3_665 2_755
O3 La3 N3 59.9(3) 1_545 2_755
N3 La3 N3 59.9(3) 1_545 2_755
O3 La3 N3 59.9(3) 3_665 2_755
N3 La3 N3 59.9(3) 3_665 2_755
O3 La3 N3 0.0(3) 2_755 2_755
O5 Li1 N5 0.00(18) 2_665 2_665
O5 Li1 O5 117.3(4) 2_665 3_565
N5 Li1 O5 117.3(4) 2_665 3_565
O5 Li1 N5 117.3(4) 2_665 3_565
N5 Li1 N5 117.3(4) 2_665 3_565
O5 Li1 N5 0.0(3) 3_565 3_565
O5 Li1 N5 117.3(4) 2_665 .
N5 Li1 N5 117.3(4) 2_665 .
O5 Li1 N5 117.3(4) 3_565 .
N5 Li1 N5 117.3(4) 3_565 .
O5 Li1 N4 99.5(6) 2_665 .
N5 Li1 N4 99.5(6) 2_665 .
O5 Li1 N4 99.5(6) 3_565 .
N5 Li1 N4 99.5(6) 3_565 .
N5 Li1 N4 99.5(6) . .
O5 Li1 O4 80.5(6) 2_665 1_556
N5 Li1 O4 80.5(6) 2_665 1_556
O5 Li1 O4 80.5(6) 3_565 1_556
N5 Li1 O4 80.5(6) 3_565 1_556
N5 Li1 O4 80.5(6) . 1_556
N4 Li1 O4 180 . 1_556
O5 Li1 N4 80.5(6) 2_665 1_556
N5 Li1 N4 80.5(6) 2_665 1_556
O5 Li1 N4 80.5(6) 3_565 1_556
N5 Li1 N4 80.5(6) 3_565 1_556
N5 Li1 N4 80.5(6) . 1_556
N4 Li1 N4 180 . 1_556
O4 Li1 N4 0.000(10) 1_556 1_556
O5 Li1 Al2 40.3(4) 2_665 2_666
N5 Li1 Al2 40.3(4) 2_665 2_666
O5 Li1 Al2 101.1(7) 3_565 2_666
N5 Li1 Al2 101.1(7) 3_565 2_666
N5 Li1 Al2 101.1(7) . 2_666
N4 Li1 Al2 139.8(3) . 2_666
O4 Li1 Al2 40.2(3) 1_556 2_666
N4 Li1 Al2 40.2(3) 1_556 2_666
O5 Li1 Si2 40.3(4) 2_665 2_666
N5 Li1 Si2 40.3(4) 2_665 2_666
O5 Li1 Si2 101.1(7) 3_565 2_666
N5 Li1 Si2 101.1(7) 3_565 2_666
N5 Li1 Si2 101.1(7) . 2_666
N4 Li1 Si2 139.8(3) . 2_666
O4 Li1 Si2 40.2(3) 1_556 2_666
N4 Li1 Si2 40.2(3) 1_556 2_666
N6 Si1 N5 113.3(5) . .
N6 Si1 N2 108.7(4) . .
N5 Si1 N2 110.7(4) . .
N6 Si1 O7 100.0(4) . 1_565
N5 Si1 O7 112.0(5) . 1_565
N2 Si1 O7 111.6(3) . 1_565
N6 Si1 N7 100.0(4) . 1_565
N5 Si1 N7 112.0(5) . 1_565
N2 Si1 N7 111.6(3) . 1_565
O7 Si1 N7 0.0(6) 1_565 1_565
O5 Si2 N5 0.0(5) 1_554 1_554
O5 Si2 N4 113.5(9) 1_554 .
N5 Si2 N4 113.5(9) 1_554 .
O5 Si2 O2 101.0(3) 1_554 5_565
N5 Si2 O2 101.0(3) 1_554 5_565
N4 Si2 O2 120.1(4) . 5_565
O5 Si2 N2 101.0(3) 1_554 5_565
N5 Si2 N2 101.0(3) 1_554 5_565
N4 Si2 N2 120.1(4) . 5_565
O2 Si2 N2 0.0(4) 5_565 5_565
O5 Si2 N2 101.0(3) 1_554 .
N5 Si2 N2 101.0(3) 1_554 .
N4 Si2 N2 120.1(4) . .
O2 Si2 N2 97.5(4) 5_565 .
N2 Si2 N2 97.5(4) 5_565 .
O3 Si3 N3 0.0(6) 1_545 1_545
O3 Si3 N1 103.6(5) 1_545 .
N3 Si3 N1 103.6(5) 1_545 .
O3 Si3 O7 113.4(4) 1_545 1_554
N3 Si3 O7 113.4(4) 1_545 1_554
N1 Si3 O7 109.5(4) . 1_554
O3 Si3 N7 113.4(4) 1_545 1_554
N3 Si3 N7 113.4(4) 1_545 1_554
N1 Si3 N7 109.5(4) . 1_554
O7 Si3 N7 0.0(5) 1_554 1_554
O3 Si3 O2 117.8(3) 1_545 1_545
N3 Si3 O2 117.8(3) 1_545 1_545
N1 Si3 O2 110.1(4) . 1_545
O7 Si3 O2 102.4(3) 1_554 1_545
N7 Si3 O2 102.4(3) 1_554 1_545
O3 Si3 N2 117.8(3) 1_545 1_545
N3 Si3 N2 117.8(3) 1_545 1_545
N1 Si3 N2 110.1(4) . 1_545
O7 Si3 N2 102.4(3) 1_554 1_545
N7 Si3 N2 102.4(3) 1_554 1_545
O2 Si3 N2 0.0(7) 1_545 1_545
N9 Si4 N1 102.8(5) . .
N9 Si4 N7 114.9(3) . .
N1 Si4 N7 108.9(3) . .
N9 Si4 O7 114.9(3) . 6_665
N1 Si4 O7 108.9(3) . 6_665
N7 Si4 O7 106.2(5) . 6_665
N9 Si4 N7 114.9(3) . 6_665
N1 Si4 N7 108.9(3) . 6_665
N7 Si4 N7 106.2(5) . 6_665
O7 Si4 N7 0.0(4) 6_665 6_665
O8 Si5 N8 0.000(5) 1_556 1_556
O8 Si5 N9 110.7(4) 1_556 .
N8 Si5 N9 110.7(4) 1_556 .
O8 Si5 O9 110.7(4) 1_556 3_665
N8 Si5 O9 110.7(4) 1_556 3_665
N9 Si5 O9 108.2(4) . 3_665
O8 Si5 N9 110.7(4) 1_556 3_665
N8 Si5 N9 110.7(4) 1_556 3_665
N9 Si5 N9 108.2(4) . 3_665
O9 Si5 N9 0.0(9) 3_665 3_665
O8 Si5 O9 110.7(4) 1_556 2_655
N8 Si5 O9 110.7(4) 1_556 2_655
N9 Si5 O9 108.2(4) . 2_655
O9 Si5 O9 108.2(4) 3_665 2_655
N9 Si5 O9 108.2(4) 3_665 2_655
O8 Si5 N9 110.7(4) 1_556 2_655
N8 Si5 N9 110.7(4) 1_556 2_655
N9 Si5 N9 108.2(4) . 2_655
O9 Si5 N9 108.2(4) 3_665 2_655
N9 Si5 N9 108.2(4) 3_665 2_655
O9 Si5 N9 0.0(8) 2_655 2_655
Si7 Si6 O10 180 . 1_554
Si7 Si6 N10 180 . 1_554
O10 Si6 N10 0 1_554 1_554
O10 Si6 O3 113.5(5) 1_554 3_665
N10 Si6 O3 113.5(5) 1_554 3_665
O10 Si6 N3 113.5(5) 1_554 3_665
N10 Si6 N3 113.5(5) 1_554 3_665
O3 Si6 N3 0.0(6) 3_665 3_665
O10 Si6 O3 113.5(5) 1_554 1_545
N10 Si6 O3 113.5(5) 1_554 1_545
O3 Si6 O3 105.2(6) 3_665 1_545
N3 Si6 O3 105.2(6) 3_665 1_545
O10 Si6 N3 113.5(5) 1_554 1_545
N10 Si6 N3 113.5(5) 1_554 1_545
O3 Si6 N3 105.2(6) 3_665 1_545
N3 Si6 N3 105.2(6) 3_665 1_545
O3 Si6 N3 0.0(4) 1_545 1_545
O10 Si6 O3 113.5(5) 1_554 2_755
N10 Si6 O3 113.5(5) 1_554 2_755
O3 Si6 O3 105.2(6) 3_665 2_755
N3 Si6 O3 105.2(6) 3_665 2_755
O3 Si6 O3 105.2(6) 1_545 2_755
N3 Si6 O3 105.2(6) 1_545 2_755
O10 Si6 N3 113.5(5) 1_554 2_755
N10 Si6 N3 113.5(5) 1_554 2_755
O3 Si6 N3 105.2(6) 3_665 2_755
N3 Si6 N3 105.2(6) 3_665 2_755
O3 Si6 N3 105.2(6) 1_545 2_755
N3 Si6 N3 105.2(6) 1_545 2_755
O3 Si6 N3 0.0(4) 2_755 2_755
O3 Si7 N3 0.0(4) 1_545 1_545
O3 Si7 O3 103.5(6) 1_545 3_665
N3 Si7 O3 103.5(6) 1_545 3_665
O3 Si7 N3 103.5(6) 1_545 3_665
N3 Si7 N3 103.5(6) 1_545 3_665
O3 Si7 N3 0.0(7) 3_665 3_665
loop_
_geom_bond_atom_site_label_1
_geom_bond_atom_site_label_2
_geom_bond_site_symmetry_2
_geom_bond_distance
La1 O6 1_544 2.549(9)
La1 N6 1_544 2.549(9)
La1 N8 . 2.589(5)
La1 N9 . 2.694(6)
La1 O9 3_665 2.694(6)
La1 N9 3_665 2.694(6)
La1 O2 1_545 2.698(6)
La1 N2 1_545 2.698(6)
La1 O2 4_545 2.698(6)
La1 N2 4_545 2.698(6)
La2 O3 1_545 2.377(11)
La2 N3 1_545 2.377(11)
La2 O3 3_665 2.377(11)
La2 N3 3_665 2.377(11)
La2 O3 2_755 2.377(11)
La2 N3 2_755 2.377(11)
La3 O3 1_545 2.921(10)
La3 N3 1_545 2.921(10)
La3 O3 3_665 2.921(10)
La3 N3 3_665 2.921(10)
La3 O3 2_755 2.921(10)
La3 N3 2_755 2.921(10)
Li1 O5 2_665 2.337(13)
Li1 N5 2_665 2.337(13)
Li1 O5 3_565 2.337(13)
Li1 N5 3_565 2.337(13)
Li1 N5 . 2.337(13)
Li1 N4 . 2.37(4)
Li1 O4 1_556 2.46(4)
Li1 N4 1_556 2.46(4)
Si1 N6 . 1.669(4)
Si1 N5 . 1.728(5)
Si1 N2 . 1.736(7)
Si1 O7 1_565 1.768(7)
Si1 N7 1_565 1.768(7)
Si2 O5 1_554 1.850(11)
Si2 N5 1_554 1.850(11)
Si2 N4 . 1.860(5)
Si2 O2 5_565 1.929(6)
Si2 N2 5_565 1.929(6)
Si2 N2 . 1.929(6)
Si3 O3 1_545 1.723(5)
Si3 N3 1_545 1.723(5)
Si3 N1 . 1.741(6)
Si3 O7 1_554 1.751(7)
Si3 N7 1_554 1.751(7)
Si3 O2 1_545 1.752(6)
Si3 N2 1_545 1.752(6)
Si4 N9 . 1.716(10)
Si4 N1 . 1.726(11)
Si4 N7 . 1.734(7)
Si4 O7 6_665 1.734(7)
Si4 N7 6_665 1.734(7)
Si5 O8 1_556 1.673(16)
Si5 N8 1_556 1.673(16)
Si5 N9 . 1.701(10)
Si5 O9 3_665 1.701(10)
Si5 N9 3_665 1.701(10)
Si5 O9 2_655 1.701(10)
Si5 N9 2_655 1.701(10)
Si6 O10 1_554 1.711(16)
Si6 N10 1_554 1.711(16)
Si6 O3 3_665 1.836(11)
Si6 N3 3_665 1.836(11)
Si6 O3 1_545 1.836(11)
Si6 N3 1_545 1.836(11)
Si6 O3 2_755 1.836(11)
Si6 N3 2_755 1.836(11)
Si7 O3 1_545 1.856(11)
Si7 N3 1_545 1.856(11)
Si7 O3 3_665 1.856(11)
Si7 N3 3_665 1.856(11)
N1 Al3 6_665 1.741(6)
N1 Si3 6_665 1.741(6)
N2 Al3 1_565 1.752(6)
N2 Si3 1_565 1.752(6)
N2 La1 1_565 2.698(6)
N2 Eu1 1_565 2.698(6)
N3 Al3 5 1.723(5)
N3 Si3 5 1.723(5)
N3 Al3 1_565 1.723(5)
N3 Si3 1_565 1.723(5)
N3 Al6 1_565 1.836(11)
N3 Si6 1_565 1.836(11)
N3 Al7 1_565 1.856(11)
N3 Si7 1_565 1.856(11)
N3 Eu2 1_565 2.377(11)
N3 La2 1_565 2.377(11)
N3 La3 1_565 2.921(10)
N3 Eu3 1_565 2.921(10)
N4 Al2 2_665 1.861(5)
N4 Si2 2_665 1.861(5)
N4 Al2 3_565 1.861(5)
N4 Si2 3_565 1.861(5)
N4 Li1 1_554 2.46(4)
N5 Al1 5_565 1.728(5)
N5 Si1 5_565 1.728(5)
N5 Al2 1_556 1.850(11)
N5 Si2 1_556 1.850(11)
N6 Al1 4 1.669(4)
N6 Si1 4 1.669(4)
N6 La1 1_566 2.549(9)
N6 Eu1 1_566 2.549(9)
N6 Eu1 1_565 3.102(9)
N7 Al3 1_556 1.751(7)
N7 Si3 1_556 1.751(7)
N7 Al1 1_545 1.768(6)
N7 Si1 1_545 1.768(6)
N7 La1 1_556 2.998(7)
N7 Eu1 1_556 2.998(7)
N8 Al5 1_554 1.673(16)
N8 Si5 1_554 1.673(16)
N8 Eu1 2_655 2.589(5)
N8 La1 2_655 2.589(5)
N8 La1 3_665 2.589(5)
N8 Eu1 3_665 2.589(5)
N9 Eu1 2_655 2.694(6)
N9 La1 2_655 2.694(6)
