#------------------------------------------------------------------------------
#$Date: 2019-10-28 09:27:44 +0200 (Mon, 28 Oct 2019) $
#$Revision: 219813 $
#$URL: file:///home/coder/svn-repositories/cod/cif/4/51/46/4514628.cif $
#------------------------------------------------------------------------------
#
# This file is available in the Crystallography Open Database (COD),
# http://www.crystallography.net/
#
# All data on this site have been placed in the public domain by the
# contributors.
#
data_4514628
loop_
_publ_author_name
'Monsigny, Louis'
'Thu\'ery, Pierre'
'Berthet, Jean-Claude'
'Cantat, Thibault'
_publ_section_title
;
 Breaking C--O Bonds with Uranium: Uranyl Complexes as Selective Catalysts
 in the Hydrosilylation of Aldehydes
;
_journal_issue                   10
_journal_name_full               'ACS Catalysis'
_journal_page_first              9025
_journal_paper_doi               10.1021/acscatal.9b01408
_journal_volume                  9
_journal_year                    2019
_chemical_formula_sum            'C9 H6 F6 O9 S2 U'
_chemical_formula_weight         674.29
_space_group_crystal_system      triclinic
_space_group_IT_number           2
_space_group_name_Hall           '-P 1'
_space_group_name_H-M_alt        'P -1'
_symmetry_space_group_name_Hall  '-P 1'
_symmetry_space_group_name_H-M   'P -1'
_atom_sites_solution_hydrogens   geom
_atom_sites_solution_primary     dual
_audit_creation_method           SHELXL-2014
_cell_angle_alpha                75.998(5)
_cell_angle_beta                 71.713(4)
_cell_angle_gamma                79.448(5)
_cell_formula_units_Z            2
_cell_length_a                   8.7768(7)
_cell_length_b                   9.4553(6)
_cell_length_c                   11.5011(10)
_cell_measurement_reflns_used    38780
_cell_measurement_temperature    150(2)
_cell_measurement_theta_max      25.68
_cell_measurement_theta_min      2.46
_cell_volume                     873.34(12)
_computing_cell_refinement       'HKL2000 (Otwinowski & Minor, 1997)'
_computing_data_collection       'COLLECT (Nonius, 1998)'
_computing_data_reduction        'HKL2000 (Otwinowski & Minor, 1997)'
_computing_molecular_graphics    'SHELXTL (Sheldrick, 2008)'
_computing_publication_material
'SHELXTL (Sheldrick, 2008); PLATON (Spek, 2003)'
_computing_structure_refinement  'SHELXL (Sheldrick, 2015)'
_computing_structure_solution    'SHELXT (Sheldrick, 2015)'
_diffrn_ambient_temperature      150(2)
_diffrn_measured_fraction_theta_full 0.999
_diffrn_measured_fraction_theta_max 0.999
_diffrn_measurement_device_type
'Nonius Kappa-CCD area-detector diffractometer'
_diffrn_measurement_method
'1 \f and 12 \w scans with 2\% steps (637 frames)'
_diffrn_radiation_monochromator  graphite
_diffrn_radiation_source         'fine-focus sealed tube'
_diffrn_radiation_type           MoK\a
_diffrn_radiation_wavelength     0.71073
_diffrn_reflns_av_R_equivalents  0.0408
_diffrn_reflns_av_unetI/netI     0.0776
_diffrn_reflns_Laue_measured_fraction_full 0.999
_diffrn_reflns_Laue_measured_fraction_max 0.999
_diffrn_reflns_limit_h_max       10
_diffrn_reflns_limit_h_min       -9
_diffrn_reflns_limit_k_max       11
_diffrn_reflns_limit_k_min       -11
_diffrn_reflns_limit_l_max       14
_diffrn_reflns_limit_l_min       -9
_diffrn_reflns_number            38780
_diffrn_reflns_point_group_measured_fraction_full 0.999
_diffrn_reflns_point_group_measured_fraction_max 0.999
_diffrn_reflns_theta_full        25.242
_diffrn_reflns_theta_max         25.680
_diffrn_reflns_theta_min         2.461
_diffrn_standards_decay_%        0
_diffrn_standards_interval_time  0
_diffrn_standards_number         0
_exptl_absorpt_coefficient_mu    9.635
_exptl_absorpt_correction_T_max  0.286
_exptl_absorpt_correction_T_min  0.211
_exptl_absorpt_correction_type   multi-scan
_exptl_absorpt_process_details   'SCALEPACK (Otwinowski & Minor, 1997)'
_exptl_crystal_colour            'translucent light yellow'
_exptl_crystal_density_diffrn    2.564
_exptl_crystal_description       irregular
_exptl_crystal_F_000             620
_exptl_crystal_size_max          0.15
_exptl_crystal_size_mid          0.13
_exptl_crystal_size_min          0.13
_refine_diff_density_max         0.933
_refine_diff_density_min         -1.222
_refine_diff_density_rms         0.157
_refine_ls_extinction_method     none
_refine_ls_goodness_of_fit_ref   1.053
_refine_ls_hydrogen_treatment    constr
_refine_ls_matrix_type           full
_refine_ls_number_parameters     245
_refine_ls_number_reflns         3310
_refine_ls_number_restraints     0
_refine_ls_restrained_S_all      1.053
_refine_ls_R_factor_all          0.0353
_refine_ls_R_factor_gt           0.0303
_refine_ls_shift/su_max          0.001
_refine_ls_shift/su_mean         0.000
_refine_ls_structure_factor_coef Fsqd
_refine_ls_weighting_details
'w=1/[\s^2^(Fo^2^)+(0.0231P)^2^+0.4087P] where P=(Fo^2^+2Fc^2^)/3'
_refine_ls_weighting_scheme      calc
_refine_ls_wR_factor_gt          0.0689
_refine_ls_wR_factor_ref         0.0706
_reflns_Friedel_coverage         0.000
_reflns_number_gt                3034
_reflns_number_total             3310
_reflns_threshold_expression     'I > 2\s(I)'
_cod_data_source_file            cs9b01408_si_002.cif
_cod_data_source_block           26
_cod_database_code               4514628
_shelx_space_group_comment
;
The symmetry employed for this shelxl refinement is uniquely defined
by the following loop, which should always be used as a source of
symmetry information in preference to the above space-group names.
They are only intended as comments.
;
_shelxl_version_number           2014-3
_shelx_res_file
;
TITL lm2 in P-1
CELL  0.71073   8.7768   9.4553  11.5011   75.998   71.713   79.448
ZERR    2.000   0.0007   0.0006   0.0010    0.005    0.004    0.005
LATT   1
SFAC C H F O S U
UNIT 18 12 12 18 4 2
L.S. 10
ACTA
SHEL 10 .82
FMAP 2
PLAN 10
TEMP -123
BOND $H
OMIT     0   1   0
WGHT    0.023100    0.408700
BASF   0.16159
FVAR      10.83782
U1    6    0.702059    0.207174    0.041334    11.00000    0.02229    0.02529 =
         0.02683   -0.00109   -0.00313   -0.00092
S1    5    1.120657    0.151665   -0.169027    11.00000    0.02292    0.02936 =
         0.03052    0.00150   -0.00342   -0.00100
S2    5    0.690195    0.579823   -0.171655    11.00000    0.02640    0.02595 =
         0.03159   -0.00083    0.00191   -0.00204
O1    4    0.810382    0.244267    0.131697    11.00000    0.03486    0.04246 =
         0.02743   -0.00398   -0.00685   -0.01087
O2    4    0.590940    0.166894   -0.046340    11.00000    0.02553    0.03690 =
         0.03292   -0.00179   -0.01179    0.00065
O3    4    0.524916    0.072680    0.220122    11.00000    0.02891    0.02872 =
         0.03172    0.00255   -0.00128   -0.00181
O4    4    0.945838    0.182244   -0.126738    11.00000    0.02138    0.03723 =
         0.03014   -0.00337    0.00047    0.00137
O5    4    1.183001    0.045936   -0.073208    11.00000    0.02581    0.02658 =
         0.03364    0.00103   -0.00336    0.00284
O6    4    1.181716    0.124394   -0.291620    11.00000    0.03415    0.06329 =
         0.02590   -0.00376   -0.00613    0.00796
O7    4    0.739798    0.442283   -0.097493    11.00000    0.03884    0.02291 =
         0.03902    0.00855   -0.00127    0.00074
O8    4    0.515194    0.620817   -0.131738    11.00000    0.03125    0.02740 =
         0.03737   -0.00479    0.00915   -0.00393
O9    4    0.786938    0.693835   -0.193796    11.00000    0.04140    0.03171 =
         0.04879   -0.00591   -0.00705   -0.00701
F1    3    1.350771    0.303373   -0.197414    11.00000    0.03879    0.06829 =
         0.12535    0.01631   -0.02954   -0.02465
F2    3    1.148616    0.427322   -0.255928    11.00000    0.07567    0.03980 =
         0.10406    0.03248   -0.04463   -0.01673
F3    3    1.130981    0.359919   -0.061573    11.00000    0.09396    0.06416 =
         0.07454   -0.02470   -0.02850   -0.01806
F4    3    0.875191    0.493139   -0.371947    11.00000    0.03570    0.07330 =
         0.04782   -0.02966    0.00996   -0.00435
F5    3    0.678893    0.653592   -0.400307    11.00000    0.06288    0.08266 =
         0.04323   -0.00411   -0.01939    0.00035
F6    3    0.636531    0.430562   -0.314355    11.00000    0.06213    0.07805 =
         0.06632   -0.03575    0.00363   -0.03022
C1    1    0.394967    0.024046    0.237445    11.00000    0.03316    0.02648 =
         0.03303   -0.00897   -0.00761    0.00281
AFIX  43
H1    2    0.347117    0.046766    0.170636    11.00000   -1.20000
AFIX   0
C2    1    0.314188   -0.064319    0.352929    11.00000    0.02761    0.02351 =
         0.03236   -0.00854    0.00210   -0.00399
C3    1    0.387154   -0.118862    0.450057    11.00000    0.02988    0.05032 =
         0.03868   -0.01314   -0.00646   -0.00285
AFIX  43
H3    2    0.493808   -0.100433    0.440090    11.00000   -1.20000
AFIX   0
C4    1    0.302009   -0.198718    0.558852    11.00000    0.04458    0.05150 =
         0.03401    0.00648   -0.00988   -0.01418
AFIX  43
H4    2    0.350030   -0.235092    0.625336    11.00000   -1.20000
AFIX   0
C5    1    0.145857   -0.228274    0.574814    11.00000    0.04325    0.04113 =
         0.03478    0.00115    0.00458   -0.00735
AFIX  43
H5    2    0.088208   -0.283449    0.651680    11.00000   -1.20000
AFIX   0
C6    1    0.075774   -0.177097    0.478648    11.00000    0.03296    0.03512 =
         0.05431   -0.01647   -0.00098   -0.01013
AFIX  43
H6    2   -0.030489   -0.196874    0.488980    11.00000   -1.20000
AFIX   0
C7    1    0.160477   -0.096677    0.366735    11.00000    0.03701    0.03165 =
         0.04037   -0.01057   -0.00961   -0.00965
AFIX  43
H7    2    0.113489   -0.063665    0.299455    11.00000   -1.20000
AFIX   0
C8    1    1.192126    0.323050   -0.170936    11.00000    0.03849    0.02945 =
         0.07162    0.01826   -0.02174   -0.01171
C9    1    0.721487    0.535567   -0.324480    11.00000    0.03222    0.04909 =
         0.04086   -0.00563   -0.00331   -0.00780

HKLF 5

REM  lm2 in P-1
REM R1 =  0.0303 for    3034 Fo > 4sig(Fo)  and  0.0353 for all    3310 data
REM    245 parameters refined using      0 restraints

END

WGHT      0.0236      0.3612

REM Highest difference peak  0.933,  deepest hole -1.222,  1-sigma level  0.157
Q1    1   1.0206  0.2563 -0.0392  11.00000  0.05    0.93
Q2    1   0.5788  0.3146 -0.0440  11.00000  0.05    0.86
Q3    1   0.4343  0.0652 -0.0350  11.00000  0.05    0.68
Q4    1   1.1574  0.5255 -0.0154  11.00000  0.05    0.65
Q5    1   0.7054  0.7593 -0.0361  11.00000  0.05    0.65
Q6    1   0.8424  0.3328  0.0301  11.00000  0.05    0.61
Q7    1   0.4717  0.7726 -0.1188  11.00000  0.05    0.60
Q8    1   1.2547  0.0684 -0.1114  11.00000  0.05    0.59
Q9    1   1.0995  0.0145 -0.0058  11.00000  0.05    0.58
Q10   1   0.8974  0.2176 -0.0590  11.00000  0.05    0.57
;
_shelx_res_checksum              57940
_shelx_hkl_file
;
   1   0   0    4274   80863   1
   2   0   0 3478229   49412   1
   3   0   0  470769    8098   1
  -4   0  -3  109024   14242  -2
   4   0   0  109024   14242   1
   5   0   0 1564079   22094   1
   6   0   0  241525   10167   1
   7   0   0  548836   22312   1
   8   0   0  249720    8028   1
   9   0   0   48684    4071   1
  10   0   0  295401   15335   1
  -9   1   0  132761    5855   1
  -8   1   0  369701   29948   1
  -7   1   0   50222    3996   1
   6  -1   4  485162   10484  -2
  -6   1   0  485162   10484   1
  -5   1   0   94187    3604   1
  -4   1   0 1007151   15317   1
  -3   1   0  301568    5855   1
   2  -1   1 1151065   15397  -2
  -2   1   0 1151065   15397   1
  -1   1   0 1209477   20340   1
   1   1   0 1056321   17617   1
  -2  -1  -2  720188   13411  -2
   2   1   0  720188   13411   1
   3   1   0  331974    6725   1
   4   1   0 1135220   38730   1
   5   1   0  156883    6714   1
   6   1   0  489188   20255   1
   7   1   0  224060    6154   1
   8   1   0  140161    4943   1
  -9  -1  -7  324023   10071  -2
   9   1   0  324023   10071   1
  10   1   0    1422    8426   1
  -9   2   0  205013   19147   1
   8  -2   5   58561    3950  -2
  -8   2   0   58561    3950   1
  -7   2   0  712667   45179   1
  -6   2   0  103635    3604   1
  -5   2   0  349135   12027   1
   4  -2   2 1200259   31411  -2
  -4   2   0 1200259   31411   1
  -3   2   0  259916    9772   1
  -2   2   0 2409865   53209   1
  -1   2   0 1573061   20909   1
   0  -2  -1 1367455   50678  -2
   0   2   0 1367455   50678   1
   1   2   0 2007445   82603   1
   2   2   0   22264    1317   1
   3   2   0 1189181   45732   1
   4   2   0  196106   23816   1
   5   2   0  542598   29592   1
   6   2   0  380018   18396   1
  -7  -2  -6   17406    3039  -2
   7   2   0   17406    3039   1
   8   2   0  416865   10630   1
   9   2   0   28769    3916   1
  10   2   0  149128   10095   1
  -9   3   0   56897   12422   1
  -8   3   0  287846   12897   1
  -7   3   0   44388    3284   1
   6  -3   3  356307   24567  -2
  -6   3   0  356307   24567   1
  -5   3   0  491503   19583   1
  -4   3   0  385822   25477   1
  -3   3   0 1198169   42409   1
   2  -3   0  261482   35882  -2
  -2   3   0  261482   35882   1
  -1   3   0 1116754   33904   1
   0   3   0 1545108   76313   1
   1   3   0 1848796  125922   1
   2   3   0  406107   24449   1
   3   3   0   13846    1678   1
   4   3   0  513190   21086   1
  -5  -3  -5  883717   40352  -2
   5   3   0  883717   40352   1
   6   3   0  613089   42924   1
   7   3   0 1015164   34260   1
   8   3   0   16542    5895   1
  -9  -3  -8  350361   12270  -2
   9   3   0  350361   12270   1
  10   3   0   86037    7785   1
  -9   4   0  218073   20216   1
   8  -4   4   47645    3538  -2
  -8   4   0   47645    3538   1
  -7   4   0  221677   26506   1
  -6   4   0   92286   14084   1
  -5   4   0   12749    1415   1
   4  -4   1  933746   89091  -2
  -4   4   0  933746   89091   1
  -3   4   0    9169    1385   1
  -2   4   0 1309734   82247   1
  -1   4   0 1344459   49926   1
   0   4   0   31714    2136   1
   1   4   0 1857075  173040   1
   2   4   0    9293    1678   1
  -3  -4  -4 1063552   77302  -2
   3   4   0 1063552   77302   1
   4   4   0  201362   26229   1
   5   4   0  110155    7635   1
   6   4   0   92994    6804   1
  -7  -4  -7   60385    4943  -2
   7   4   0   60385    4943   1
   8   4   0  270859   40629   1
   9   4   0   76200   17328   1
  -8   5   0  163510   26308   1
  -7   5   0  226551   20018   1
   6  -5   2  164240   13372  -2
  -6   5   0  164240   13372   1
  -5   5   0  620447   68915   1
  -4   5   0   34076   10919   1
  -3   5   0 1018430   40748   1
  -2   5   0  655691   48620   1
  -1   5   0  577095   40866   1
   0   5   0 1285894  123944   1
  -1  -5  -3   68052    4154  -2
   1   5   0   68052    4154   1
   2   5   0  376201   42686   1
   3   5   0  630887   75561   1
   4   5   0  172589   21086   1
  -5  -5  -6 1097709   98705  -2
   5   5   0 1097709   98705   1
   6   5   0   20270    2797   1
   7   5   0  375224   29275   1
   8   5   0  240371   10542   1
  -9  -5  -9   32244    7608  -2
   9   5   0   32244    7608   1
  -7   6   0   76497   21877   1
  -6   6   0  209310   44823   1
  -5   6   0   12618    8822   1
  -4   6   0  865601  126753   1
  -3   6   0  221989   24488   1
  -2   6   0  255881   39521   1
   1  -6  -2  687165   75759  -2
  -1   6   0  687165   75759   1
   0   6   0    2991    2097   1
   1   6   0 1361353  183681   1
   2   6   0   76219    8387   1
  -3  -6  -5  578423   71408  -2
   3   6   0  578423   71408   1
   4   6   0  457977   66344   1
   5   6   0     -70    2471   1
   6   6   0  739666   84977   1
  -7  -6  -8  153866   12303  -2
   7   6   0  153866   12303   1
   8   6   0  120551   15389   1
   9   6   0  116791   16893   1
  -7   7   0  197157   37583   1
  -6   7   0    -720    4193   1
  -5   7   0  177523   24449   1
  -4   7   0  392602  106063   1
   3  -7  -1  160143    5539  -2
  -3   7   0  160143    5539   1
  -2   7   0  447150   51192   1
  -1   7   0   15394    2888   1
   0   7   0  353048   50559   1
  -1  -7  -4  134320   34022  -2
   1   7   0  134320   34022   1
   2   7   0   65122   14202   1
   3   7   0  248661   36673   1
   4   7   0    4985   10286   1
  -5  -7  -7  541886   81931  -2
   5   7   0  541886   81931   1
   6   7   0  158272   15706   1
   7   7   0   77540   22985   1
   8   7   0  216208   39165   1
  -6   8   0  250342   14242   1
   5  -8   0   74137    6330  -2
  -5   8   0   74137    6330   1
  -4   8   0   59816    3956   1
  -3   8   0  418238   11077   1
  -2   8   0   26435    6448   1
   1  -8  -3  820378  106221  -2
  -1   8   0  820378  106221   1
   0   8   0  337636   46642   1
   1   8   0  337324   65592   1
   2   8   0  417120   73939   1
  -3  -8  -6   50462   14163  -2
   3   8   0   50462   14163   1
   4   8   0  421752   56374   1
   5   8   0  197117   10899   1
   6   8   0  178198   33745   1
   7   8   0  145852   22787   1
  -5   9   0   32598    6330   1
  -4   9   0  200178   11077   1
   3  -9  -2   43754    4747  -2
  -3   9   0   43754    4747   1
  -2   9   0  275086   89566   1
  -1   9   0   80070   12303   1
   0   9   0  123188   18594   1
  -1  -9  -5  288601   46840  -2
   1   9   0  288601   46840   1
   2   9   0   70275   11750   1
   3   9   0  189454   44190   1
   4   9   0   48660   21086   1
   5   9   0   80571   22787   1
   6   9   0  169888   44902   1
  -3  10   0  231352   11868   1
  -2  10   0   65118   28603   1
   1 -10  -4  105300   54080  -2
  -1  10   0  105300   54080   1
   0  10   0  138354   11710   1
   1  10   0    7564    9059   1
   2  10   0  173315   45851   1
   3  10   0   61318   13965   1
   4  10   0   89856   23381   1
   5  10   0   79314   30660   1
   0  11   0   34314   30976   1
   1  11   0  170010   56691   1
   2  11   0    6915   10533   1
   3  11   0   64282   20572   1
  -4 -10   1   22787   12308   1
  -3 -10   1  236436   69627   1
  -2 -10   1   75433   18158   1
  -1 -10   1    5888    3652   1
   0 -10   1  194665   31886   1
  -1  10   5  106976   49570  -2
   1 -10   1  106976   49570   1
   2 -10   1  224773   44269   1
   3 -10   1  243616   11868   1
  -6  -9   1  120889   19156   1
  -5  -9   1   21434   10563   1
  -4  -9   1   67447   10879   1
  -3  -9   1  191758   46919   1
  -2  -9   1     633    3219   1
   1   9   6  221212   36119  -2
  -1  -9   1  221212   36119   1
   0  -9   1   19266    2797   1
   1  -9   1  107525   27890   1
   2  -9   1  141094   48502   1
  -3   9   3    4826    3165  -2
   3  -9   1    4826    3165   1
   4  -9   1  201049   11077   1
  -7  -8   1  213131   36594   1
  -6  -8   1   79275   32519   1
  -5  -8   1  125096   12936   1
  -4  -8   1  327440  107962   1
   3   8   7   33602   17446  -2
  -3  -8   1   33602   17446   1
  -2  -8   1  418984  100999   1
  -1  -8   1  230248   54317   1
   0  -8   1  365103   58550   1
  -1   8   4  448569   69113  -2
   1  -8   1  448569   69113   1
   2  -8   1   28161    4906   1
   3  -8   1  361590   87707   1
   4  -8   1  141153    6330   1
  -5   8   1  139096    9495  -2
   5  -8   1  139096    9495   1
   6  -8   1  141660   38137   1
  -8  -7   1  233808   22708   1
  -7  -7   1    2107    4784   1
  -6  -7   1  181791   41776   1
   5   7   8  393545   66067  -2
  -5  -7   1  393545   66067   1
  -4  -7   1   46024    6644   1
  -3  -7   1  467500   69825   1
  -2  -7   1   34911    5578   1
   1   7   5  365748   61715  -2
  -1  -7   1  365748   61715   1
   0  -7   1  395775   52260   1
   1  -7   1   59835   10207   1
   2  -7   1  873686  120067   1
  -3   7   2  145250   18079  -2
   3  -7   1  145250   18079   1
   4  -7   1  390977   53051   1
   5  -7   1   96807   11829   1
   6  -7   1   14944    4477   1
   7  -7   1  192472   38928   1
  -8  -6   1  118402   13213   1
   7   6   9  156682    7203  -2
  -7  -6   1  156682    7203   1
  -6  -6   1  123024    8387   1
  -5  -6   1    2464    3165   1
  -4  -6   1  119583   18989   1
   3   6   6  316877   30185  -2
  -3  -6   1  316877   30185   1
  -2  -6   1  220963   44467   1
  -1  -6   1  259044   42370   1
   0  -6   1  259815   38691   1
  -1   6   3  613314   63218  -2
   1  -6   1  613314   63218   1
   2  -6   1  117693   15231   1
   3  -6   1  140438   19187   1
   4  -6   1  452615   37820   1
   5  -6   1   60746    8189   1
   6  -6   1  189037   34735   1
   7  -6   1    5855    6013   1
   9   5  10   31443    8624  -2
  -9  -5   1   31443    8624   1
  -8  -5   1  229600   16972   1
  -7  -5   1  346820   36594   1
  -6  -5   1   32638    3521   1
   5   5   7  700366  101434  -2
  -5  -5   1  700366  101434   1
  -4  -5   1   64865   10563   1
  -3  -5   1  490040   47908   1
  -2  -5   1  674171   88735   1
   1   5   4  150821    7081  -2
  -1  -5   1  150821    7081   1
   0  -5   1 2076838  226209   1
   1  -5   1   71047    2295   1
   2  -5   1  481125   45891   1
   3  -5   1  341367   14163   1
   4  -5   1   16006    2809   1
   5  -5   1  870714   71764   1
  -6   5  -1   34863    4470  -2
   6  -5   1   34863    4470   1
   7  -5   1  331165   33904   1
   8  -5   1   89921    7714   1
  -9  -4   1  150025   29156   1
  -8  -4   1  160781    7912   1
   7   4   8  280527    8746  -2
  -7  -4   1  280527    8746   1
  -6  -4   1  154042   22866   1
  -5  -4   1   13390    2471   1
  -4  -4   1  405609   46959   1
   3   4   5  783658   80823  -2
  -3  -4   1  783658   80823   1
  -2  -4   1  523528   51864   1
  -1  -4   1 1335938  130512   1
   0  -4   1   97747   10523   1
   1  -4   1 1209755   80546   1
   2  -4   1  816731   36475   1
   3  -4   1  502739   32598   1
  -4   4   0  846424   83276  -2
   4  -4   1  846424   83276   1
   5  -4   1   33721    3244   1
   6  -4   1  319995   45653   1
   7  -4   1  209514   31293   1
  -8   4  -3  191802    9811  -2
   8  -4   1  191802    9811   1
   9  -4   1  256733   53130   1
   9   3   9  138903   24370  -2
  -9  -3   1  138903   24370   1
  -8  -3   1    9578    2633   1
  -7  -3   1  737199   52616   1
  -6  -3   1   39587    3219   1
   5   3   6  489249   35367  -2
  -5  -3   1  489249   35367   1
  -4  -3   1  379114   43359   1
  -3  -3   1  234420   18435   1
  -2  -3   1 2186056  178380   1
  -1  -3   1  542922   46682   1
   0  -3   1 1344390   80625   1
   1  -3   1  528107   28167   1
  -2   3   1  477746   25003  -2
   2  -3   1  477746   25003   1
   3  -3   1  768822   30937   1
   4  -3   1  157034    8822   1
   5  -3   1  347815   23934   1
  -6   3  -2  131685   13451  -2
   6  -3   1  131685   13451   1
   7  -3   1   77365   13965   1
   8  -3   1  264370   26466   1
   9  -3   1   14810    3726   1
  -9  -2   1   63948    4943   1
  -8  -2   1  402792   19899   1
   7   2   7   76880    4945  -2
  -7  -2   1   76880    4945   1
  -6  -2   1  558439   34774   1
  -5  -2   1  415916   29077   1
  -4  -2   1  450463   29710   1
  -3  -2   1  892051   43794   1
  -2  -2   1    3402    1119   1
  -1  -2   1 1999993  135852   1
   0   2   2 2696974  232737  -2
   0  -2   1 2696974  232737   1
   1  -2   1 1674534   64524   1
   2  -2   1 2444242   77381   1
   3  -2   1   20127    2097   1
  -4   2  -1 1072140   40154  -2
   4  -2   1 1072140   40154   1
   5  -2   1  685698   35644   1
   6  -2   1  227498    7873   1
   7  -2   1  636137   21126   1
  -8   2  -4    8255    2471  -2
   8  -2   1    8255    2471   1
   9  -2   1  217517   18831   1
   9   1   8  252303   17011  -2
  -9  -1   1  252303   17011   1
  -8  -1   1   17214    3357   1
  -7  -1   1  357088    8658   1
  -6  -1   1   82711    3917   1
  -5  -1   1  112705   19860   1
  -4  -1   1 1383377   61478   1
  -3  -1   1   28287    1899   1
   2   1   3 1880196   64366  -2
  -2  -1   1 1880196   64366   1
  -1  -1   1   20358    1938   1
   0  -1   1  131329    2831   1
   1  -1   1  856692   12926   1
  -2   1   0  390144   18475  -2
   2  -1   1  390144   18475   1
   3  -1   1 1140872   30066   1
   4  -1   1  129254    2797   1
   5  -1   1  456808   16062   1
  -6   1  -3  408652   33627  -2
   6  -1   1  408652   33627   1
   7  -1   1    3007    2035   1
   8  -1   1  563810   18396   1
   9  -1   1  102725    9969   1
  10  -1   1  127717   10392   1
  -9   0   1   24760    3950   1
  -8   0   1  246682    8551   1
  -7   0   1  260790    7209   1
  -6   0   1  161420    9692   1
  -5   0   1  497578    8899   1
   4   0   4  643496   16141  -2
  -4   0   1  643496   16141   1
  -3   0   1  505160   13807   1
  -2   0   1 2768049  106735   1
  -1   0   1  349607    5855   1
   1   0   1    3326   28207   1
   2   0   1  259473    4312   1
   3   0   1  329820    5595   1
  -4   0  -2  166817   10721  -2
   4   0   1  166817   10721   1
   5   0   1 1252796   18633   1
   6   0   1    4938    1820   1
   7   0   1  540870   43042   1
   8   0   1  194730    6438   1
   9   0   1   54505    5103   1
  10   0   1  191115   16497   1
  -9   1   1  231146    8171   1
  -8   1   1   69126    3950   1
  -7   1   1  157604    4943   1
   6  -1   5  685746   12308  -2
  -6   1   1  685746   12308   1
  -5   1   1   12689    2035   1
  -4   1   1 2520209   34377   1
  -3   1   1  787178   12505   1
   2  -1   2 1525045   18924  -2
  -2   1   1 1525045   18924   1
  -1   1   1 1109942   13953   1
   0   1   1   10681   19108   1
   1   1   1 4054512   56101   1
  -2  -1  -1  935396   20928  -2
   2   1   1  935396   20928   1
   3   1   1 1354050   35170   1
   4   1   1  298087    5855   1
   5   1   1  190316    4731   1
   6   1   1 1023048   16196   1
   7   1   1  249884   10800   1
   8   1   1  297016    8150   1
  -9  -1  -6  208595    7675  -2
   9   1   1  208595    7675   1
  10   1   1    6574    6069   1
  -9   2   1  113837   12976   1
   8  -2   6   89346    5855  -2
  -8   2   1   89346    5855   1
  -7   2   1  482194   24884   1
  -6   2   1    1068    1678   1
  -5   2   1  155474    4168   1
   4  -2   3  295917    5855  -2
  -4   2   1  295917    5855   1
  -3   2   1  516447   19780   1
  -2   2   1  751039   10899   1
  -1   2   1  664358   20097   1
   0  -2   0 1022705   73623  -2
   0   2   1 1022705   73623   1
   1   2   1   44705    1678   1
   2   2   1  596441   21205   1
   3   2   1  981283   21838   1
   4   2   1   64559    6211   1
   5   2   1 1019579   19424   1
   6   2   1   47597    3039   1
  -7  -2  -5  153741    5855  -2
   7   2   1  153741    5855   1
   8   2   1  175045    6416   1
   9   2   1    7639    3039   1
  10   2   1  142080   10243   1
  -9   3   1  103048    7626   1
  -8   3   1  271298   41025   1
  -7   3   1     701    2967   1
   6  -3   4  570273   29750  -2
  -6   3   1  570273   29750   1
  -5   3   1  311253    6646   1
  -4   3   1   78012    4273   1
  -3   3   1 2110605   82603   1
   2  -3   1  131276   37227  -2
  -2   3   1  131276   37227   1
  -1   3   1 3898287  162398   1
   0   3   1   40602    1119   1
   1   3   1  261123   22866   1
   2   3   1  377940    7773   1
   3   3   1  304765    7675   1
   4   3   1 1458258   37227   1
  -5  -3  -4  768955   12579  -2
   5   3   1  768955   12579   1
   6   3   1  585587   18989   1
   7   3   1  458351   10899   1
   8   3   1    1662    3917   1
  -9  -3  -7  254841   11512  -2
   9   3   1  254841   11512   1
  10   3   1   65981   11512   1
   8  -4   5   63235    7754  -2
  -8   4   1   63235    7754   1
  -7   4   1  195587   21561   1
  -6   4   1   33984    9732   1
  -5   4   1  136893   12066   1
   4  -4   2  702741   79913  -2
  -4   4   1  702741   79913   1
  -3   4   1  216661   17446   1
  -2   4   1 1209729   60212   1
  -1   4   1  386693    8855   1
   0   4   1  201015    8150   1
   1   4   1 2041139  135852   1
   2   4   1  871538   56572   1
  -3  -4  -3 1877852  153338  -2
   3   4   1 1877852  153338   1
   4   4   1    7738    1899   1
   5   4   1  300349   13688   1
   6   4   1  616598   50282   1
  -7  -4  -6  136271   11868  -2
   7   4   1  136271   11868   1
   8   4   1  695084   44387   1
   9   4   1    5374    3604   1
  10   4   1  109480    9495   1
  -8   5   1  192383   35684   1
  -7   5   1  170920   21956   1
   6  -5   3  267814   37741  -2
  -6   5   1  267814   37741   1
  -5   5   1  418556   65829   1
  -4   5   1    7707    3996   1
  -3   5   1 1029820   97399   1
  -2   5   1  787896   13451   1
  -1   5   1  573029   34814   1
   0   5   1  810854   63851   1
  -1  -5  -2    4974    1938  -2
   1   5   1    4974    1938   1
   2   5   1  221917   23381   1
   3   5   1  154080   17288   1
   4   5   1  269834   34299   1
  -5  -5  -5  393910   16893  -2
   5   5   1  393910   16893   1
   6   5   1   66388   12106   1
   7   5   1  170390   12106   1
   8   5   1   29746    8268   1
  -9  -5  -8  132274    7626  -2
   9   5   1  132274    7626   1
  -7   6   1  110569   31688   1
  -6   6   1  314081   43794   1
  -5   6   1  108340   17763   1
  -4   6   1  882073  126476   1
  -3   6   1  117733    3956   1
  -2   6   1  595788   11868   1
   1  -6  -1  592573   56889  -2
  -1   6   1  592573   56889   1
   0   6   1  152242   20967   1
   1   6   1 1179985  114292   1
   2   6   1  232828   29710   1
  -3  -6  -4  561562   61913  -2
   3   6   1  561562   61913   1
   4   6   1  818233   92454   1
   5   6   1   19554    3357   1
   6   6   1  627979   52497   1
  -7  -6  -7   53017    5511  -2
   7   6   1   53017    5511   1
   8   6   1   98709    8171   1
   9   6   1  116523   13288   1
  -7   7   1   69911   10167   1
  -6   7   1    2718    3812   1
  -5   7   1  195251   41737   1
  -4   7   1   92019    4747   1
   3  -7   0  381130    9495  -2
  -3   7   1  381130    9495   1
  -2   7   1  203185    5539   1
  -1   7   1   61390   20137   1
   0   7   1  269859   41499   1
  -1  -7  -3   84390   17605  -2
   1   7   1   84390   17605   1
   2   7   1  429122   62665   1
   3   7   1  139216   34260   1
   4   7   1   70732   16893   1
  -5  -7  -6  169107   28642  -2
   5   7   1  169107   28642   1
   6   7   1   24571    5420   1
   7   7   1  213777   34418   1
   8   7   1  130705   20849   1
  -6   8   1  206983   11868   1
   5  -8   1   34181    3956  -2
  -5   8   1   34181    3956   1
  -4   8   1  107527    5539   1
  -3   8   1  313560    9495   1
  -2   8   1    5776    2374   1
   1  -8  -2  540175   75087  -2
  -1   8   1  540175   75087   1
   0   8   1   59251    9732   1
   1   8   1  164237   39838   1
   2   8   1  411840   70339   1
  -3  -8  -5   59137    7873  -2
   3   8   1   59137    7873   1
   4   8   1  433522   60014   1
   5   8   1     275    4310   1
   6   8   1  213496   37464   1
   7   8   1  123708   12620   1
   8   8   1    3627    8551   1
  -5   9   1  170349   11077   1
  -4   9   1  157611    8703   1
   3  -9  -1   72238    3956  -2
  -3   9   1   72238    3956   1
  -2   9   1  297182    9495   1
  -1   9   1   26544    5459   1
   0   9   1  223379   30858   1
  -1  -9  -4  166278   22391  -2
   1   9   1  166278   22391   1
   2   9   1  119776   16299   1
   3   9   1  260115   49095   1
   4   9   1   18469    4784   1
   5   9   1  292512   34497   1
   6   9   1  122838   16774   1
   7   9   1   81584   16673   1
  -3  10   1  189655   11077   1
  -2  10   1    4510    4747   1
   1 -10  -3  139834   55227  -2
  -1  10   1  139834   55227   1
   0  10   1   63433   13134   1
   1  10   1     158    2123   1
   2  10   1  220480   38532   1
   3  10   1    6297    3219   1
   4  10   1  263088   61122   1
   5  10   1   53388   14287   1
  -6 -10  -8   35771   14717  -2
   6  10   1   35771   14717   1
  -1  11   1  104073   25635   1
   0  11   1   74102   27020   1
   1  11   1  141768   47473   1
   2  11   1   -8954    8954   1
   3  11   1  100696   24053   1
  -4 -10   2    -677   10455   1
  -3 -10   2  194939   84304   1
  -2 -10   2  101776   25082   1
  -1 -10   2    7315    4445   1
   0 -10   2  231501   35130   1
  -1  10   6   49174   12897  -2
   1 -10   2   49174   12897   1
   2 -10   2  149630   34655   1
  -5  -9   2    8749   11148   1
  -4  -9   2  130550   27693   1
  -3  -9   2  173173   42963   1
  -2  -9   2  112487   27930   1
   1   9   7  346903   81298  -2
  -1  -9   2  346903   81298   1
   0  -9   2    -554    1899   1
   1  -9   2  194694   35170   1
   2  -9   2  106410   10365   1
  -3   9   4   90816   22945  -2
   3  -9   2   90816   22945   1
   4  -9   2  252399   13451   1
  -6  -8   2   14558    5585   1
  -5  -8   2  109469   27376   1
  -4  -8   2  115360   39521   1
   3   8   8   23480    6211  -2
  -3  -8   2   23480    6211   1
  -2  -8   2  220949   61992   1
  -1  -8   2   53140   14440   1
   0  -8   2  238661   50282   1
  -1   8   5  162184   24963  -2
   1  -8   2  162184   24963   1
   2  -8   2   60565   16022   1
   3  -8   2  274912   61280   1
   4  -8   2   34418    4747   1
  -5   8   2  189565   38176  -2
   5  -8   2  189565   38176   1
   6  -8   2   41481   12383   1
  -7  -7   2   18715    8676   1
  -6  -7   2  343447   79953   1
   5   7   9  298973   53012  -2
  -5  -7   2  298973   53012   1
  -4  -7   2  225223   49689   1
  -3  -7   2  522580   86480   1
  -2  -7   2   34069    8229   1
   1   7   6  657431  110296  -2
  -1  -7   2  657431  110296   1
   0  -7   2 1040734  147008   1
   1  -7   2  461603   76986   1
   2  -7   2 1003939  146415   1
  -3   7   3  113331   12818  -2
   3  -7   2  113331   12818   1
   4  -7   2  270106   59777   1
   5  -7   2  127139   22312   1
   6  -7   2   41920    5727   1
   7  -7   2  272392   26783   1
  -8  -6   2    8534   11552   1
   7   6  10  254052   44823  -2
  -7  -6   2  254052   44823   1
  -6  -6   2   37267    4246   1
  -5  -6   2  123161   10128   1
  -4  -6   2  446458   66344   1
   3   6   7   31160    5539  -2
  -3  -6   2   31160    5539   1
  -2  -6   2  634638  118960   1
  -1  -6   2    7313    1415   1
   0  -6   2  348438   49293   1
  -1   6   4  454671   54594  -2
   1  -6   2  454671   54594   1
   2  -6   2   53216    9139   1
   3  -6   2  605173   78528   1
   4  -6   2  104647    5974   1
   5  -6   2  497825   27890   1
   6  -6   2  150864   17328   1
   7  -6   2    -332    4363   1
  -8  -5   2  161103   10455   1
  -7  -5   2  226146   20493   1
  -6  -5   2   54976    4866   1
   5   5   8  797386  128969  -2
  -5  -5   2  797386  128969   1
  -4  -5   2   13035    5618   1
  -3  -5   2  544565   69548   1
  -2  -5   2  511357   75838   1
   1   5   5  265197    9753  -2
  -1  -5   2  265197    9753   1
   0  -5   2 1890048  205242   1
   1  -5   2   22287    2018   1
   2  -5   2  656315   62862   1
   3  -5   2  327915    7018   1
   4  -5   2   19675    3956   1
   5  -5   2  572584   53209   1
  -6   5   0   42140    8189  -2
   6  -5   2   42140    8189   1
   7  -5   2  220583   19306   1
   8  -5   2  130150   12817   1
  -9  -4   2  269777   25517   1
  -8  -4   2   82748    5855   1
   7   4   9  193501    8335  -2
  -7  -4   2  193501    8335   1
  -6  -4   2  654970   71843   1
  -5  -4   2   53704    3604   1
  -4  -4   2  546334   70616   1
   3   4   6  148476   16695  -2
  -3  -4   2  148476   16695   1
  -2  -4   2  268224   21007   1
  -1  -4   2 1003370  100762   1
   0  -4   2   16196    5341   1
   1  -4   2 2426084  206983   1
   2  -4   2  215658   12224   1
   3  -4   2  861643   77539   1
  -4   4   1  925176   82049  -2
   4  -4   2  925176   82049   1
   5  -4   2    3554    1147   1
   6  -4   2  832702   80190   1
   7  -4   2  257733   33548   1
  -8   4  -2  274727   36198  -2
   8  -4   2  274727   36198   1
   9  -4   2  217414   38295   1
   9   3  10  113365   22550  -2
  -9  -3   2  113365   22550   1
  -8  -3   2   93704   13807   1
  -7  -3   2  487877   45139   1
  -6  -3   2    1952    2123   1
   5   3   7  306349   15033  -2
  -5  -3   2  306349   15033   1
  -4  -3   2  496806   54436   1
  -3  -3   2  304275   23539   1
  -2  -3   2 1893736  204530   1
  -1  -3   2    5855    2769   1
   0  -3   2 1043911   71368   1
   1  -3   2  464987   19385   1
  -2   3   2  341017   28721  -2
   2  -3   2  341017   28721   1
   3  -3   2 1123187   35091   1
   4  -3   2   42407    3798   1
   5  -3   2  456520   30145   1
  -6   3  -1   37220    2888  -2
   6  -3   2   37220    2888   1
   7  -3   2   46449    6607   1
   8  -3   2  177799   23776   1
   9  -3   2   17006    3950   1
  -9  -2   2   98464    8028   1
  -8  -2   2  274937   16695   1
   7   2   8   55350    3950  -2
  -7  -2   2   55350    3950   1
  -6  -2   2  526252   17367   1
  -5  -2   2  413876   29592   1
  -4  -2   2  669035   63970   1
  -3  -2   2  951933   66383   1
  -2  -2   2  278046   20849   1
  -1  -2   2 1880230  139690   1
   0   2   3 1251918   53130  -2
   0  -2   2 1251918   53130   1
   1  -2   2  636067   25873   1
   2  -2   2  799640   18040   1
   3  -2   2    2589     989   1
  -4   2   0 1181328   15073  -2
   4  -2   2 1181328   15073   1
   5  -2   2  536887   24884   1
   6  -2   2  397135   12106   1
   7  -2   2  357723   34972   1
  -8   2  -3   30212    3039  -2
   8  -2   2   30212    3039   1
   9  -2   2  240127   24053   1
   9   1   9  297376   12699  -2
  -9  -1   2  297376   12699   1
  -8  -1   2   26110    3219   1
  -7  -1   2  245577    6644   1
  -6  -1   2   32066    4352   1
  -5  -1   2  372062   10070   1
  -4  -1   2 1213627   62111   1
  -3  -1   2  200278   18277   1
  -2  -1   2 2130237  133360   1
  -1  -1   2  527446   34972   1
   0  -1   2  972641   18791   1
   1  -1   2 3721279   67056   1
  -2   1   1  629269   10899  -2
   2  -1   2  629269   10899   1
   3  -1   2  908128   31372   1
   4  -1   2   69238    6567   1
   5  -1   2  190245    8308   1
  -6   1  -2  622291   11709  -2
   6  -1   2  622291   11709   1
   7  -1   2   46208    6172   1
   8  -1   2  651203   43398   1
   9  -1   2   20169    3996   1
  10  -1   2  147003   11394   1
  -9   0   2    5019    3798   1
  -8   0   2  280281    8744   1
  -7   0   2  203195    6078   1
  -6   0   2  211147   11868   1
  -5   0   2  160228    4476   1
   4   0   5  113547   40550  -2
  -4   0   2  113547   40550   1
  -3   0   2 1081950   18435   1
  -2   0   2  545688   28603   1
  -1   0   2 1760313   51271   1
   0   0   2  627550    9495  -2
   0   0   2  627550    9495   1
   1   0   2  875877   20334   1
   2   0   2  599230   11377   1
   3   0   2  755342   13134   1
  -4   0  -1  681640    9683  -2
   4   0   2  681640    9683   1
   5   0   2 1545287   50638   1
   6   0   2  261381    5293   1
   7   0   2  583985   26545   1
   8   0   2   81458    4168   1
   9   0   2  170713   12739   1
  10   0   2  121575   10177   1
  -9   1   2  309773   12503   1
  -8   1   2   72123    5064   1
  -7   1   2  202862   19701   1
   6  -1   6  611356   11148  -2
  -6   1   2  611356   11148   1
  -5   1   2   14466    1899   1
  -4   1   2 1620024   23773   1
  -3   1   2  851805   16418   1
   2  -1   3  789115   11459  -2
  -2   1   2  789115   11459   1
  -1   1   2 2552815   29258   1
   0   1   2   26795    1226   1
   1   1   2 6163963   97752   1
  -2  -1   0  432906   16418  -2
   2   1   2  432906   16418   1
   3   1   2  567746   21877   1
   4   1   2  255243    5539   1
   5   1   2   41090    1899   1
   6   1   2 1208895   18022   1
   7   1   2  118839    4629   1
   8   1   2  297981    8098   1
  -9  -1  -5  215714    6977  -2
   9   1   2  215714    6977   1
  10   1   2   13311    6050   1
  -9   2   2   52073    7018   1
   8  -2   7  181124    7018  -2
  -8   2   2  181124    7018   1
  -7   2   2  224705    8268   1
  -6   2   2   49267    4470   1
  -5   2   2  850770   16101   1
   4  -2   4  330811    9732  -2
  -4   2   2  330811    9732   1
  -3   2   2 2164083   64919   1
  -2   2   2  918461   11941   1
  -1   2   2  176197    3458   1
   0  -2   1 2938254   41096  -2
   0   2   2 2938254   41096   1
   1   2   2  543297   11275   1
   2   2   2 2014700   29235   1
   3   2   2  360277   21679   1
   4   2   2  128066    7240   1
   5   2   2  881605   21046   1
   6   2   2   41741    3039   1
  -7  -2  -4 1048646   18998  -2
   7   2   2 1048646   18998   1
   8   2   2  373720    9117   1
   9   2   2  113099    5855   1
  10   2   2  169444   11039   1
  -8   3   2  174541   13213   1
  -7   3   2    6602    2471   1
   6  -3   5  842696   16497  -2
  -6   3   2  842696   16497   1
  -5   3   2   87272    3039   1
  -4   3   2  422097   22352   1
  -3   3   2 1073161   40471   1
   2  -3   2  184313   18317  -2
  -2   3   2  184313   18317   1
  -1   3   2 2516092   77777   1
   0   3   2  783647   32005   1
   1   3   2   71947    2651   1
   2   3   2  302040    9811   1
   3   3   2   64488    3521   1
   4   3   2  680898   37148   1
  -5  -3  -3   99255    3355  -2
   5   3   2   99255    3355   1
   6   3   2  519492   16655   1
   7   3   2   70533    3604   1
   8   3   2    6646    2797   1
  -9  -3  -6  195618    7537  -2
   9   3   2  195618    7537   1
  10   3   2   15729    7451   1
   8  -4   6   79242   17723  -2
  -8   4   2   79242   17723   1
  -7   4   2  260626   25556   1
  -6   4   2   41163    5618   1
  -5   4   2  572789   37069   1
   4  -4   3  708094   47434  -2
  -4   4   2  708094   47434   1
  -3   4   2  201863   13530   1
  -2   4   2 1127369   69509   1
  -1   4   2  266199   25477   1
   0   4   2  831485   46049   1
   1   4   2 1346945   56216   1
   2   4   2  805555   43913   1
  -3  -4  -2  814719   24726  -2
   3   4   2  814719   24726   1
   4   4   2  150736    4168   1
   5   4   2  558674   25596   1
   6   4   2 1433820   63337   1
  -7  -4  -5  138677    5293  -2
   7   4   2  138677    5293   1
   8   4   2  578684   38335   1
   9   4   2    9416    4476   1
  10   4   2  114300   11235   1
  -8   5   2  187595    9665   1
  -7   5   2   13937    2223   1
   6  -5   4  176438   30185  -2
  -6   5   2  176438   30185   1
  -5   5   2  182028   34141   1
  -4   5   2    6220    2274   1
  -3   5   2  775292   71605   1
  -2   5   2   52931   13490   1
  -1   5   2  326322   35921   1
   0   5   2  300613   21759   1
  -1  -5  -1   22624    3600  -2
   1   5   2   22624    3600   1
   2   5   2  883174   60410   1
   3   5   2   73207    7279   1
   4   5   2 1250621  132806   1
  -5  -5  -4  151220   14202  -2
   5   5   2  151220   14202   1
   6   5   2  147101    9099   1
   7   5   2  192451    6977   1
   8   5   2    5222    3604   1
  -9  -5  -7  228247   12303  -2
   9   5   2  228247   12303   1
  10   5   2   28978    8899   1
  -7   6   2  134912   30145   1
  -6   6   2  399930  103729   1
  -5   6   2  126084   16339   1
  -4   6   2  896060   99258   1
  -3   6   2   35763    2374   1
  -2   6   2  543567   57205   1
   1  -6   0  443778   47473  -2
  -1   6   2  443778   47473   1
   0   6   2   52828    4431   1
   1   6   2  759531   79874   1
   2   6   2   36777    4193   1
  -3  -6  -3  731669   67847  -2
   3   6   2  731669   67847   1
   4   6   2  421103   37069   1
   5   6   2  128433    8347   1
   6   6   2  565958   53249   1
  -7  -6  -6   29920   11433  -2
   7   6   2   29920   11433   1
   8   6   2  102701   10998   1
   9   6   2   98958   10238   1
  -6   7   2   55491   23460   1
  -5   7   2  297219   35724   1
  -4   7   2    2690    2374   1
   3  -7   1  661855   14242  -2
  -3   7   2  661855   14242   1
  -2   7   2  267274    7121   1
  -1   7   2  129458   18554   1
   0   7   2  492339   72159   1
  -1  -7  -2   24028    3402  -2
   1   7   2   24028    3402   1
   2   7   2  727875   61478   1
   3   7   2  109799   11394   1
   4   7   2   59146    4731   1
  -5  -7  -5  478576   40985  -2
   5   7   2  478576   40985   1
   6   7   2     998    3604   1
   7   7   2  471973   33548   1
   8   7   2   29177    5855   1
   9   7   2   64928   11190   1
   5  -8   2   30383    5539  -2
  -5   8   2   30383    5539   1
  -4   8   2   95579    4747   1
  -3   8   2  308496   10286   1
  -2   8   2   82208    3956   1
   1  -8  -1  346897   83988  -2
  -1   8   2  346897   83988   1
   0   8   2    4083    1317   1
   1   8   2  161224   33073   1
   2   8   2  269835   38611   1
  -3  -8  -4  242690   21086  -2
   3   8   2  242690   21086   1
   4   8   2  430499   61755   1
   5   8   2   -2696    3604   1
   6   8   2  215735   16853   1
   7   8   2   91933    6977   1
   8   8   2   20972    8744   1
  -4   9   2   98902    5539   1
   3  -9   0   44387    3956  -2
  -3   9   2   44387    3956   1
  -2   9   2  262210   10286   1
  -1   9   2   25952    3956   1
   0   9   2  476575   76827   1
  -1  -9  -3  239217   50084  -2
   1   9   2  239217   50084   1
   2   9   2  237156   43161   1
   3   9   2  399692   59500   1
   4   9   2   37167    5855   1
   5   9   2  336636   70300   1
   6   9   2  124915   17130   1
   7   9   2  118844   18791   1
  -3  10   2  102463    7912   1
  -2  10   2   15350    3956   1
   1 -10  -2  177629    7912  -2
  -1  10   2  177629    7912   1
   0  10   2   43423    6804   1
   1  10   2   95388   18910   1
   2  10   2  200074   37306   1
   3  10   2   27199    3604   1
   4  10   2  159192   37464   1
   5  10   2   62624   12976   1
  -6 -10  -7   88896   13699  -2
   6  10   2   88896   13699   1
  -1  11   2   39798    5539   1
   0  11   2   43691   23301   1
   1  11   2  110232   36752   1
   2  11   2   23462   12620   1
   3  11   2  119219   12877   1
  -4 -11  -6   33763   10365  -2
   4  11   2   33763   10365   1
  -2 -10   3   33374   11947   1
  -1 -10   3   10978   10444   1
   0 -10   3  228086   51508   1
  -1  10   7     530    6293  -2
   1 -10   3     530    6293   1
   2 -10   3  144863   59737   1
  -5  -9   3    -592   11787   1
  -4  -9   3  190081   40392   1
  -3  -9   3   69911   21244   1
  -2  -9   3  249530   69548   1
   1   9   8  302187   63614  -2
  -1  -9   3  302187   63614   1
   0  -9   3     919    3355   1
   1  -9   3  371788   74335   1
   2  -9   3   77344   19543   1
  -3   9   5  259580   87667  -2
   3  -9   3  259580   87667   1
   4  -9   3  184750   12660   1
  -6  -8   3   13539   10955   1
  -5  -8   3  113472   24290   1
  -4  -8   3   40500   14400   1
   3   8   9  139812   14914  -2
  -3  -8   3  139812   14914   1
  -2  -8   3  198752   42528   1
  -1  -8   3   55808   16813   1
   0  -8   3  282403   71645   1
  -1   8   6   68904   18198  -2
   1  -8   3   68904   18198   1
   2  -8   3  176288   25042   1
   3  -8   3  261982   36119   1
   4  -8   3   18440    4954   1
  -5   8   3  208649   53645  -2
   5  -8   3  208649   53645   1
  -7  -7   3   17407   11754   1
  -6  -7   3  213059   42647   1
  -5  -7   3   71524    4954   1
  -4  -7   3   96968   19464   1
  -3  -7   3  293347   58392   1
  -2  -7   3   31207    5341   1
   1   7   7  604052   88340  -2
  -1  -7   3  604052   88340   1
   0  -7   3  465310   71526   1
   1  -7   3  544129   86718   1
   2  -7   3  402522   58511   1
  -3   7   4   62456    4731  -2
   3  -7   3   62456    4731   1
   4  -7   3  150247   24251   1
   5  -7   3  161424   18000   1
   6  -7   3  105328   19978   1
   7  -7   3  133351   24409   1
  -7  -6   3  320792   54594   1
  -6  -6   3   42573    4954   1
  -5  -6   3  224041   32480   1
  -4  -6   3  651470  108793   1
   3   6   8   47197   10602  -2
  -3  -6   3   47197   10602   1
  -2  -6   3  913084  171853   1
  -1  -6   3    3414    1899   1
   0  -6   3  296752   35921   1
  -1   6   5  744448   90595  -2
   1  -6   3  744448   90595   1
   2  -6   3   17714    1899   1
   3  -6   3  920178  103333   1
   4  -6   3   26993    5143   1
   5  -6   3  412143   28009   1
   6  -6   3  193363   32005   1
   7  -6   3   21475    8098   1
  -8  -5   3  161920   25438   1
  -7  -5   3   58163   13886   1
  -6  -5   3  209728   18040   1
   5   5   9  105124    6844  -2
  -5  -5   3  105124    6844   1
  -4  -5   3   11523    3039   1
  -3  -5   3  429100   76155   1
  -2  -5   3  149860   30422   1
   1   5   6  791737   50559  -2
  -1  -5   3  791737   50559   1
   0  -5   3  320414   33192   1
   1  -5   3  170788   20334   1
   2  -5   3  484677   51231   1
   3  -5   3   96307    7279   1
   4  -5   3   98863    5539   1
   5  -5   3  217003   17209   1
  -6   5   1  191493   28721  -2
   6  -5   3  191493   28721   1
   7  -5   3  190387   22510   1
   8  -5   3    6182   12976   1
  -8  -4   3   25186    5978   1
   7   4  10  167585    7437  -2
  -7  -4   3  167585    7437   1
  -6  -4   3  289999   49056   1
  -5  -4   3    6279    5697   1
  -4  -4   3  554053   88102   1
   3   4   7  225491   31767  -2
  -3  -4   3  225491   31767   1
  -2  -4   3 1089602  146494   1
  -1  -4   3 1061833  114173   1
   0  -4   3   81195    3039   1
   1  -4   3 1490644  109979   1
   2  -4   3  135897    5895   1
   3  -4   3  138564    6409   1
  -4   4   2  531340   48897  -2
   4  -4   3  531340   48897   1
   5  -4   3   18694    3244   1
   6  -4   3  961674   67095   1
   7  -4   3   42812    3604   1
  -8   4  -1  331846   39403  -2
   8  -4   3  331846   39403   1
   9  -4   3  102668   14828   1
  -8  -3   3  131724    7002   1
  -7  -3   3  114957    5267   1
  -6  -3   3  188963   24370   1
   5   3   8  306783   30581  -2
  -5  -3   3  306783   30581   1
  -4  -3   3   14368    2471   1
  -3  -3   3  703050   89408   1
  -2  -3   3  587600   60489   1
  -1  -3   3  606555   35763   1
   0  -3   3 2156815  177510   1
   1  -3   3  470005   28721   1
  -2   3   3 2413077  137435  -2
   2  -3   3 2413077  137435   1
   3  -3   3  345061   15666   1
   4  -3   3  747802   44387   1
   5  -3   3  634274   37820   1
  -6   3   0   85918    4372  -2
   6  -3   3   85918    4372   1
   7  -3   3  480441   14005   1
   8  -3   3  246178   16378   1
   9  -3   3   89892   13095   1
  -9  -2   3   39237    7203   1
  -8  -2   3  242470   10721   1
   7   2   9   19006    5064  -2
  -7  -2   3   19006    5064   1
  -6  -2   3 1117717   57522   1
  -5  -2   3   49716    7596   1
  -4  -2   3  363106   56691   1
  -3  -2   3 1044702   93324   1
  -2  -2   3   76540    6963   1
  -1  -2   3 3015782  201167   1
   0  -2   3  333913   60963   1
   1  -2   3  225037    8624   1
   2  -2   3   22047    1119   1
   3  -2   3   71038    6172   1
  -4   2   1  919874   31293  -2
   4  -2   3  919874   31293   1
   5  -2   3   85643    5262   1
   6  -2   3  970162   39244   1
   7  -2   3   89023    5697   1
  -8   2  -2   80829   15112  -2
   8  -2   3   80829   15112   1
   9  -2   3  174234   13372   1
  10  -2   3   15273   11433   1
   9   1  10  167401   10683  -2
  -9  -1   3  167401   10683   1
  -8  -1   3  147443    6916   1
  -7  -1   3  434709   10024   1
  -6  -1   3    2514    2471   1
  -5  -1   3  751521   36119   1
  -4  -1   3  918841   39838   1
  -3  -1   3  409019   31055   1
  -2  -1   3 3411405  300742   1
  -1  -1   3   12180    1317   1
   0  -1   3 1351142   29394   1
   1  -1   3 1648034   52220   1
  -2   1   2  787025   11709  -2
   2  -1   3  787025   11709   1
   3  -1   3 1202829   59974   1
   4  -1   3    1978    1119   1
   5  -1   3  648560   34537   1
  -6   1  -1 1036985   43359  -2
   6  -1   3 1036985   43359   1
   7  -1   3  159634    5736   1
   8  -1   3  535302   47631   1
   9  -1   3    5512    2831   1
  10  -1   3  102854   17446   1
  -9   0   3   22651   10800   1
  -8   0   3  283439   10721   1
  -7   0   3   43186    3798   1
  -6   0   3  288857    7833   1
  -5   0   3  155782    4476   1
   4   0   6  301078   41579  -2
  -4   0   3  301078   41579   1
  -3   0   3 1800297   79874   1
  -2   0   3  168163   13292   1
  -1   0   3 1045670   32242   1
   0   0   3  206901    6963  -2
   0   0   3  206901    6963   1
   1   0   3  150169    6251   1
   2   0   3 1400986   22787   1
   3   0   3    2872     708   1
  -4   0   0  573037   23341  -2
   4   0   3  573037   23341   1
   5   0   3  288553    5697   1
   6   0   3  174019    6567   1
   7   0   3  715484   45614   1
   8   0   3    1055    4866   1
   9   0   3  381847   11590   1
  10   0   3   40400   11498   1
  -9   1   3  154911    8855   1
  -8   1   3   66650    4943   1
  -7   1   3  233399    6844   1
   6  -1   7  509909   15033  -2
  -6   1   3  509909   15033   1
  -5   1   3  392380    8336   1
  -4   1   3  556750   10071   1
  -3   1   3   86283    2471   1
   2  -1   4 1236132   17487  -2
  -2   1   3 1236132   17487   1
  -1   1   3 2084794   27907   1
   0   1   3  560744    8551   1
   1   1   3 2878117   41656   1
  -2  -1   1  163387  205282  -2
   2   1   3  163387  205282   1
   3   1   3 1389513   31214   1
   4   1   3 1040908   23262   1
   5   1   3  186211    4372   1
   6   1   3 1169434   37979   1
   7   1   3    7817    4866   1
   8   1   3  165125    6078   1
  -9  -1  -4  109195    5595  -2
   9   1   3  109195    5595   1
  10   1   3   24934   12343   1
   8  -2   8  200729    7209  -2
  -8   2   3  200729    7209   1
  -7   2   3  111350   11156   1
  -6   2   3   81844    5736   1
  -5   2   3  846820   14818   1
   4  -2   5  269668   16062  -2
  -4   2   3  269668   16062   1
  -3   2   3 1595624   19855   1
  -2   2   3  797599   19424   1
  -1   2   3  968225   12575   1
   0  -2   2  288771   93403  -2
   0   2   3  288771   93403   1
   1   2   3   91447    2633   1
   2   2   3 1530379   25912   1
   3   2   3  302633   19424   1
   4   2   3  717607   11590   1
   5   2   3  916946   13687   1
   6   2   3    8192    1701   1
  -7  -2  -3 1462500   34774  -2
   7   2   3 1462500   34774   1
   8   2   3  194335    6714   1
   9   2   3  118573    5511   1
  10   2   3  127996    8918   1
  -8   3   3   96530   15152   1
  -7   3   3  102024    4589   1
   6  -3   6  463525   34893  -2
  -6   3   3  463525   34893   1
  -5   3   3   -1503    1938   1
  -4   3   3  487765   16180   1
  -3   3   3  659217   30778   1
   2  -3   3 1026960   74968  -2
  -2   3   3 1026960   74968   1
  -1   3   3  793819   23183   1
   0   3   3   69974    2035   1
   1   3   3  169728   13095   1
   2   3   3  938740   14818   1
   3   3   3  973974   16441   1
   4   3   3 1184042   18814   1
  -5  -3  -2  171743    4372  -2
   5   3   3  171743    4372   1
   6   3   3  506858   10070   1
   7   3   3   85034    5736   1
   8   3   3   82007    7398   1
  -9  -3  -5  166927    9257  -2
   9   3   3  166927    9257   1
  10   3   3    6841    5618   1
   8  -4   7   93226   12106  -2
  -8   4   3   93226   12106   1
  -7   4   3  249181   20532   1
  -6   4   3   21135    4431   1
  -5   4   3  952550   22233   1
   4  -4   4  377696   43398  -2
  -4   4   3  377696   43398   1
  -3   4   3  146730   10642   1
  -2   4   3  897822   41420   1
  -1   4   3   68674    4673   1
   0   4   3 1867056   64919   1
   1   4   3  141019    3219   1
   2   4   3  275109   20374   1
  -3  -4  -1  588356   13292  -2
   3   4   3  588356   13292   1
   4   4   3   42796    2471   1
   5   4   3  942741   19385   1
   6   4   3  617946   29908   1
  -7  -4  -4  470964   24567  -2
   7   4   3  470964   24567   1
   8   4   3  157116    7018   1
   9   4   3    6951    3355   1
  10   4   3  129505   10392   1
  -7   5   3   14537    2809   1
   6  -5   5  280676   39284  -2
  -6   5   3  280676   39284   1
  -5   5   3   28961    3007   1
  -4   5   3  246442   35724   1
  -3   5   3  605988   51429   1
  -2   5   3   44011   32598   1
  -1   5   3 1715020  104797   1
   0   5   3  157983    3950   1
  -1  -5   0  267241    7596  -2
   1   5   3  267241    7596   1
   2   5   3 1753954  102898   1
   3   5   3     580    1415   1
   4   5   3 1643744   78014   1
  -5  -5  -3  218193    8347  -2
   5   5   3  218193    8347   1
   6   5   3  210151   15943   1
   7   5   3  287521    8658   1
   8   5   3   28386    6448   1
  -9  -5  -6  212115   20334  -2
   9   5   3  212115   20334   1
  10   5   3   15350    6154   1
  -7   6   3  206568   32559   1
  -6   6   3  131869   30145   1
  -5   6   3  106252   10009   1
  -4   6   3  306795   48106   1
  -3   6   3   12049    2374   1
  -2   6   3  816658   53289   1
   1  -6   1  253053   14954  -2
  -1   6   3  253053   14954   1
   0   6   3  326783   30264   1
   1   6   3  319368   21284   1
   2   6   3     673    1678   1
  -3  -6  -2 1079472   71605  -2
   3   6   3 1079472   71605   1
   4   6   3   78513    4168   1
   5   6   3  407173   26664   1
   6   6   3  302229   28167   1
  -7  -6  -5   31350    3956  -2
   7   6   3   31350    3956   1
   8   6   3  207315   20572   1
   9   6   3   25240    5074   1
  -6   7   3  116989   49926   1
  -5   7   3  486001   98467   1
  -4   7   3   60133    3956   1
   3  -7   2  637643   14242  -2
  -3   7   3  637643   14242   1
  -2   7   3  269018   60924   1
  -1   7   3  218063   34695   1
   0   7   3  542594   75482   1
  -1  -7  -1   66895    6448  -2
   1   7   3   66895    6448   1
   2   7   3  705786   77460   1
   3   7   3  173680   19741   1
   4   7   3  240243   15903   1
  -5  -7  -4  651756   69390  -2
   5   7   3  651756   69390   1
   6   7   3   24796    4071   1
   7   7   3  402627   21600   1
   8   7   3   10586    5293   1
   9   7   3   45346    8899   1
   5  -8   3   31253    5539  -2
  -5   8   3   31253    5539   1
  -4   8   3  167976    7121   1
  -3   8   3   60054    3956   1
  -2   8   3  229306   73781   1
   1  -8   0  342526   96331  -2
  -1   8   3  342526   96331   1
   0   8   3   58590    6884   1
   1   8   3  182072   32361   1
   2   8   3   41005   15112   1
  -3  -8  -3  508966   63772  -2
   3   8   3  508966   63772   1
   4   8   3  152971   15468   1
   5   8   3   34224    6844   1
   6   8   3  157229    8658   1
   7   8   3   50871    6644   1
   8   8   3  180585   13612   1
  -4   9   3   23104    3956   1
   3  -9   1   20413    3165  -2
  -3   9   3   20413    3165   1
  -2   9   3  228741    9495   1
  -1   9   3    4462    8426   1
   0   9   3  346360   61755   1
  -1  -9  -2  133661   21640  -2
   1   9   3  133661   21640   1
   2   9   3   97200   18040   1
   3   9   3  384036   51390   1
   4   9   3   13965    3916   1
   5   9   3  224160    9779   1
   6   9   3    3917    3916   1
   7   9   3   56209    9455   1
  -3  10   3  104204    8703   1
  -2  10   3   33706    4747   1
   1 -10  -1  223045   11077  -2
  -1  10   3  223045   11077   1
   0  10   3   13982   10563   1
   1  10   3  214386   41895   1
   2  10   3  220332   49333   1
   3  10   3   75080   16339   1
   4  10   3  278338   55029   1
   5  10   3    6516    7200   1
  -6 -10  -6  134488   14954  -2
   6  10   3  134488   14954   1
  -1  11   3    5934    4747   1
   0  11   3   77381   11868   1
   1  11   3   62329   14796   1
   2  11   3    6528    6714   1
   3  11   3  184866   17842   1
  -4 -11  -5   13607    9219  -2
   4  11   3   13607    9219   1
  -4  -9   4  214558   47354   1
  -3  -9   4   18440    9779   1
  -2  -9   4  200205   59341   1
   1   9   9  178726   40154  -2
  -1  -9   4  178726   40154   1
   0  -9   4     560    3355   1
   1  -9   4  267922   28365   1
   2  -9   4   48590    7209   1
  -3   9   6  151617   57561  -2
   3  -9   4  151617   57561   1
  -5  -8   4  134495   30620   1
  -4  -8   4   18013    7200   1
  -3  -8   4  182025   29196   1
  -2  -8   4  294064   59856   1
  -1  -8   4  119575   27020   1
   0  -8   4  366381   65157   1
  -1   8   7   37587    9851  -2
   1  -8   4   37587    9851   1
   2  -8   4  123691   32717   1
   3  -8   4  120054   30304   1
   4  -8   4   67120   14717   1
  -5   8   4  204819   25477  -2
   5  -8   4  204819   25477   1
  -6  -7   4  154544   43003   1
  -5  -7   4   15587    5855   1
  -4  -7   4   85123   10919   1
  -3  -7   4  184357   35249   1
  -2  -7   4    3244    3956   1
   1   7   8  617935  122085  -2
  -1  -7   4  617935  122085   1
   0  -7   4    4520    2035   1
   1  -7   4  260699   47631   1
   2  -7   4   75550   12264   1
  -3   7   5   41895    3357  -2
   3  -7   4   41895    3357   1
   4  -7   4  283121   53289   1
   5  -7   4   21208    4906   1
   6  -7   4  271612   54080   1
  -7  -6   4  197803   35644   1
  -6  -6   4   62864   13213   1
  -5  -6   4  191538   30462   1
  -4  -6   4  389359   67649   1
   3   6   9  126120   24211  -2
  -3  -6   4  126120   24211   1
  -2  -6   4  643301   88893   1
  -1  -6   4   35550    7200   1
   0  -6   4  234651   34814   1
  -1   6   6  616066   90792  -2
   1  -6   4  616066   90792   1
   2  -6   4  192685   34022   1
   3  -6   4  698480   97557   1
   4  -6   4    7015    2471   1
   5  -6   4  163603   18989   1
   6  -6   4  172840   30106   1
   7  -6   4   41361   10339   1
  -7  -5   4   12203    5784   1
  -6  -5   4  240200   28444   1
   5   5  10  110738   10444  -2
  -5  -5   4  110738   10444   1
  -4  -5   4  154989   17328   1
  -3  -5   4  475780   83038   1
  -2  -5   4    9226    2633   1
   1   5   7 1001830  108001  -2
  -1  -5   4 1001830  108001   1
   0  -5   4   97147    9495   1
   1  -5   4  468736   41104   1
   2  -5   4  675554   82010   1
   3  -5   4   19111    2471   1
   4  -5   4  566013   59777   1
   5  -5   4  143871   19741   1
  -6   5   2  297711   32836  -2
   6  -5   4  297711   32836   1
   7  -5   4  311228   44981   1
   8  -5   4   10040    8098   1
  -8  -4   4    6862   10207   1
   7   4  11  114013   22787  -2
  -7  -4   4  114013   22787   1
  -6  -4   4  296505   43557   1
  -5  -4   4   79356    8862   1
  -4  -4   4  554529   74810   1
   3   4   8  113911   16022  -2
  -3  -4   4  113911   16022   1
  -2  -4   4  632689   90278   1
  -1  -4   4  620827   74098   1
   0  -4   4  189595   30264   1
   1  -4   4  252384   20255   1
   2  -4   4   15875    1899   1
   3  -4   4  145706   12699   1
  -4   4   3  318508   38018  -2
   4  -4   4  318508   38018   1
   5  -4   4   87718    6369   1
   6  -4   4  426841   28523   1
   7  -4   4    9297    2797   1
  -8   4   0  173920   23222  -2
   8  -4   4  173920   23222   1
   9  -4   4   74257   11216   1
  -8  -3   4  270908   14561   1
  -7  -3   4   24975    3402   1
  -6  -3   4  149586    7398   1
   5   3   9  769531   60766  -2
  -5  -3   4  769531   60766   1
  -4  -3   4   19059    2571   1
  -3  -3   4 1014812  129760   1
  -2  -3   4  319415   42370   1
  -1  -3   4  415518   34102   1
   0  -3   4 1766786  125883   1
   1  -3   4  396884   33192   1
  -2   3   4 2104227  131896  -2
   2  -3   4 2104227  131896   1
   3  -3   4  443200   15864   1
   4  -3   4  476891   32559   1
   5  -3   4  540892   25912   1
  -6   3   1  244178    9534  -2
   6  -3   4  244178    9534   1
   7  -3   4  560173   45574   1
   8  -3   4  321889   31728   1
   9  -3   4  109572    8098   1
  -8  -2   4  103469    9732   1
   7   2  10   11247    4906  -2
  -7  -2   4   11247    4906   1
  -6  -2   4  410146   53803   1
  -5  -2   4    5750    3679   1
  -4  -2   4  391249   50994   1
  -3  -2   4  306024   44190   1
  -2  -2   4  233531   30066   1
  -1  -2   4  983842   61834   1
   0  -2   4  339431   89170   1
   1  -2   4  619705   24528   1
   2  -2   4  290383   12739   1
   3  -2   4  417394   22827   1
  -4   2   2 1020465   46484  -2
   4  -2   4 1020465   46484   1
   5  -2   4  143820    7833   1
   6  -2   4  628631   55662   1
   7  -2   4   14744    2797   1
  -8   2  -1   68978   18119  -2
   8  -2   4   68978   18119   1
   9  -2   4  154820    9117   1
  10  -2   4   11507   15983   1
  -8  -1   4   43535    5119   1
  -7  -1   4  313836   23499   1
  -6  -1   4  197360    9969   1
  -5  -1   4  864768   85570   1
  -4  -1   4  521146   46721   1
  -3  -1   4  566747   50242   1
  -2  -1   4  948755   57957   1
  -1  -1   4   61037    3758   1
   0  -1   4 1155638   21363   1
   1  -1   4  576816    9099   1
  -2   1   3  411825   11196  -2
   2  -1   4  411825   11196   1
   3  -1   4  931467   29077   1
   4  -1   4   19900    1678   1
   5  -1   4 1075819   70537   1
  -6   1   0  504225   25992  -2
   6  -1   4  504225   25992   1
   7  -1   4  208529   17209   1
   8  -1   4  100743    6765   1
   9  -1   4   10620    4673   1
  10  -1   4  101333   15191   1
  -8   0   4  236830    9495   1
  -7   0   4   51486    3798   1
  -6   0   4  228636   17684   1
  -5   0   4   75411    3244   1
  -4   0   4  386957   40115   1
  -3   0   4 1396540   70300   1
  -2   0   4   40227    2035   1
  -1   0   4 1749335   44585   1
   0   0   4   15620    1119  -2
   0   0   4   15620    1119   1
   1   0   4  407327    7273   1
   2   0   4  479628   10009   1
   3   0   4  141454    8347   1
  -4   0   1 1016328   29077  -2
   4   0   4 1016328   29077   1
   5   0   4   35331    5618   1
   6   0   4  363685    7773   1
   7   0   4  691461   48067   1
   8   0   4   34436    3442   1
   9   0   4  466660   37504   1
  10   0   4    8506   10207   1
  -8   1   4    7156    4372   1
  -7   1   4  223515    7209   1
   6  -1   8  132989    4731  -2
  -6   1   4  132989    4731   1
  -5   1   4  214495    8941   1
  -4   1   4  372076   23657   1
  -3   1   4    9858    1678   1
   2  -1   5 1445326   19808  -2
  -2   1   4 1445326   19808   1
  -1   1   4  761559   12308   1
   0   1   4   27980    2057   1
   1   1   4  339791    6714   1
   2   1   4  386164  185778   1
   3   1   4 1379039   40748   1
   4   1   4  361329   13925   1
   5   1   4  496533   49135   1
   6   1   4  387920   34299   1
   7   1   4   49285    5341   1
   8   1   4  231272   15429   1
  -9  -1  -3   65861    5974  -2
   9   1   4   65861    5974   1
  10   1   4  114916    8171   1
   8  -2   9  169728   16932  -2
  -8   2   4  169728   16932   1
  -7   2   4   76226    4168   1
  -6   2   4  140721    6078   1
  -5   2   4 1300352   20278   1
   4  -2   6  233519    6154  -2
  -4   2   4  233519    6154   1
  -3   2   4 1762305   23773   1
  -2   2   4  281447    5697   1
  -1   2   4  470098   18712   1
   0   2   4 1814390   25736   1
   1   2   4   94283    2888   1
   2   2   4 2427194   35671   1
   3   2   4  257375    9772   1
   4   2   4  603596   12739   1
   5   2   4 1011713   15767   1
   6   2   4   43666    2633   1
  -7  -2  -2 1046590   17415  -2
   7   2   4 1046590   17415   1
   8   2   4   10523    2633   1
   9   2   4   97316    8308   1
  10   2   4  106684    7018   1
  -8   3   4   42005    7121   1
  -7   3   4  189120   15073   1
   6  -3   7  252947   34022  -2
  -6   3   4  252947   34022   1
  -5   3   4   51806    5420   1
  -4   3   4  600176   23301   1
  -3   3   4  184887    4168   1
   2  -3   4 1229517   78687  -2
  -2   3   4 1229517   78687   1
  -1   3   4  445270    7532   1
   0   3   4  658872   12270   1
   1   3   4  545624   12778   1
   2   3   4  174940   46286   1
   3   3   4 1072510   34655   1
   4   3   4 1024004   16784   1
  -5  -3  -1  277762    7596  -2
   5   3   4  277762    7596   1
   6   3   4  559417   11117   1
   7   3   4   57259    3355   1
   8   3   4  276447   12106   1
  -9  -3  -4  190165   11868  -2
   9   3   4  190165   11868   1
  10   3   4   39362    5293   1
  -7   4   4  215633   31530   1
  -6   4   4    5407    2123   1
  -5   4   4  730324   37227   1
   4  -4   5  200627   14954  -2
  -4   4   4  200627   14954   1
  -3   4   4  163366    9653   1
  -2   4   4  613668   28523   1
  -1   4   4   11166    9257   1
   0   4   4 1026605   35170   1
   1   4   4  184711    5420   1
   2   4   4  231254    5035   1
  -3  -4   0  578890   12157  -2
   3   4   4  578890   12157   1
   4   4   4   88164    8743   1
   5   4   4  724710   12877   1
   6   4   4   51621    3039   1
  -7  -4  -3  341476   18910  -2
   7   4   4  341476   18910   1
   8   4   4  143004   13925   1
   9   4   4    1187    2797   1
  10   4   4  196607   17446   1
  -7   5   4   21965    7209   1
   6  -5   6  375143   47513  -2
  -6   5   4  375143   47513   1
  -5   5   4  109849   23143   1
  -4   5   4  842726   46445   1
  -3   5   4  450045   28840   1
  -2   5   4   49658   19662   1
  -1   5   4  373785   12066   1
   0   5   4  318678   13807   1
  -1  -5   1  538270   16141  -2
   1   5   4  538270   16141   1
   2   5   4  996826   37306   1
   3   5   4  202966    5293   1
   4   5   4  580829   18317   1
  -5  -5  -2   57231    3039  -2
   5   5   4   57231    3039   1
   6   5   4  364081    8551   1
   7   5   4  445595   11216   1
   8   5   4   64779   11433   1
  -9  -5  -5  194615    9219  -2
   9   5   4  194615    9219   1
  10   5   4    9289    6583   1
  -6   6   4   14399    3902   1
  -5   6   4  138354   25833   1
  -4   6   4  196045   28800   1
  -3   6   4   16661    5024   1
  -2   6   4  410548   54673   1
   1  -6   2  133706    9455  -2
  -1   6   4  133706    9455   1
   0   6   4  257525   19029   1
   1   6   4  301773   10681   1
   2   6   4   74932    3039   1
  -3  -6  -1  832324   55939  -2
   3   6   4  832324   55939   1
   4   6   4    4340    1899   1
   5   6   4  420418   25556   1
   6   6   4  120665   17961   1
  -7  -6  -4   43066   12936  -2
   7   6   4   43066   12936   1
   8   6   4  167747   29473   1
   9   6   4    3076    4168   1
  -6   7   4  127692   44823   1
  -5   7   4  282782    9495   1
  -4   7   4   35367    3956   1
   3  -7   3  264461    7013  -2
  -3   7   4  264461    7013   1
  -2   7   4   35690   15627   1
  -1   7   4  266131   42409   1
   0   7   4  263074   32123   1
  -1  -7   0  134596    9732  -2
   1   7   4  134596    9732   1
   2   7   4  549938   58669   1
   3   7   4  115949   10761   1
   4   7   4  478099   22668   1
  -5  -7  -3  498498   28444  -2
   5   7   4  498498   28444   1
   6   7   4   71405    5293   1
   7   7   4  115931   12580   1
   8   7   4    7501    3950   1
   9   7   4   65287   12270   1
   5  -8   4   48739    7912  -2
  -5   8   4   48739    7912   1
  -4   8   4  330017   11868   1
  -3   8   4   -1029    2374   1
  -2   8   4  415504   90239   1
   1  -8   1  164429   17367  -2
  -1   8   4  164429   17367   1
   0   8   4   63394    7042   1
   1   8   4  487618   61596   1
   2   8   4   17902    6646   1
  -3  -8  -2  897640   83236  -2
   3   8   4  897640   83236   1
   4   8   4   94113   12699   1
   5   8   4   60678    9969   1
   6   8   4  227186   14717   1
   7   8   4    7240    3916   1
   8   8   4  228742   14483   1
  -4   9   4   -1582    3165   1
   3  -9   2   90436    7912  -2
  -3   9   4   90436    7912   1
  -2   9   4   84144   40550   1
  -1   9   4   37232   11789   1
   0   9   4  180541   38374   1
  -1  -9  -1   30464    7635  -2
   1   9   4   30464    7635   1
   2   9   4  156802   25438   1
   3   9   4  106295   18910   1
   4   9   4   63171    5262   1
   5   9   4  225345   11433   1
   6   9   4    6008    4787   1
   7   9   4   80090    9099   1
  -8  -9  -6   33532   11216  -2
   8   9   4   33532   11216   1
  -3  10   4   79597    7121   1
  -2  10   4   14163    5539   1
   1 -10   0  224854   40985  -2
  -1  10   4  224854   40985   1
   0  10   4   21476   13688   1
   1  10   4  266421   48502   1
   2  10   4  161891   43042   1
   3  10   4   40267    7121   1
   4  10   4  244378   23697   1
   5  10   4    5618    4476   1
  -6 -10  -5  167201   26466  -2
   6  10   4  167201   26466   1
   0  11   4  152094   54357   1
   1  11   4   72340   10615   1
   2  11   4   99358   10643   1
   3  11   4  203232   50163   1
  -4 -11  -4    7192    8098  -2
   4  11   4    7192    8098   1
   5  11   4  105354   16756   1
  -2  -9   5  104278   30739   1
  -1  -9   5   66941   24409   1
   0  -9   5   40451   10325   1
   1  -9   5  171915   57363   1
   2  -9   5    4873    6820   1
  -4  -8   5    7243   13213   1
  -3  -8   5  302555   77302   1
  -2  -8   5  110893   30066   1
  -1  -8   5  203825   47236   1
   0  -8   5  359094   38216   1
  -1   8   8   13354    3798  -2
   1  -8   5   13354    3798   1
   2  -8   5  336970   60330   1
   3  -8   5   62448   14519   1
   4  -8   5  115360   11868   1
  -5   8   5  153567   19147  -2
   5  -8   5  153567   19147   1
  -5  -7   5   28350   17802   1
  -4  -7   5  166439   31253   1
  -3  -7   5   46513   13095   1
  -2  -7   5  115859   28167   1
   1   7   9  376010   62823  -2
  -1  -7   5  376010   62823   1
   0  -7   5   27045    5301   1
   1  -7   5  307952   49768   1
   2  -7   5   75399   10523   1
  -3   7   6  134305   16695  -2
   3  -7   5  134305   16695   1
   4  -7   5  262828   53882   1
   5  -7   5   12073    3219   1
   6  -7   5  307441   35328   1
  -6  -6   5   23052   11023   1
  -5  -6   5  259527   29473   1
  -4  -6   5   76596   16418   1
   3   6  10  218643   42251  -2
  -3  -6   5  218643   42251   1
  -2  -6   5  506850   99456   1
  -1  -6   5   34112    8506   1
   0  -6   5  556050   99179   1
  -1   6   7  427884   70221  -2
   1  -6   5  427884   70221   1
   2  -6   5  307457   40115   1
   3  -6   5  378611   35249   1
   4  -6   5   12954    5420   1
   5  -6   5  161983   17169   1
   6  -6   5  101264   24172   1
   7  -6   5  114407   18871   1
  -7  -5   5    3577    6129   1
  -6  -5   5  204931   11793   1
   5   5  11  114472    7426  -2
  -5  -5   5  114472    7426   1
  -4  -5   5  232766   22945   1
  -3  -5   5  724907  131065   1
  -2  -5   5   98473   18752   1
   1   5   8 1061983  124459  -2
  -1  -5   5 1061983  124459   1
   0  -5   5   26737    3600   1
   1  -5   5  168583   24963   1
   2  -5   5  594945   70221   1
   3  -5   5   20649    2809   1
   4  -5   5  694098   69073   1
   5  -5   5   46304    2633   1
  -6   5   3  255919   42528  -2
   6  -5   5  255919   42528   1
   7  -5   5  289152   44229   1
   8  -5   5   15019    9462   1
   7   4  12  138617   12224  -2
  -7  -4   5  138617   12224   1
  -6  -4   5   95542   24528   1
  -5  -4   5  286331   48185   1
  -4  -4   5  258847   40392   1
   3   4   9   25626    3039  -2
  -3  -4   5   25626    3039   1
  -2  -4   5  640376   99179   1
  -1  -4   5  234171   33112   1
   0  -4   5  309759   33271   1
   1  -4   5  335284   20572   1
   2  -4   5   36228    2730   1
   3  -4   5  674747   64643   1
  -4   4   4  129561   11750  -2
   4  -4   5  129561   11750   1
   5  -4   5  303944   17446   1
   6  -4   5  206339   12580   1
   7  -4   5   65650   10286   1
  -8   4   1  158202   18712  -2
   8  -4   5  158202   18712   1
  -7  -3   5   58999   20532   1
  -6  -3   5  126907    6710   1
   5   3  10  734874   75997  -2
  -5  -3   5  734874   75997   1
  -4  -3   5    9495    3357   1
  -3  -3   5  654194   81535   1
  -2  -3   5  215021   25873   1
  -1  -3   5  382641   18119   1
   0  -3   5  721530   49372   1
   1  -3   5   61769    5895   1
  -2   3   5  944589  102265  -2
   2  -3   5  944589  102265   1
   3  -3   5   14043    1317   1
   4  -3   5  182129   15310   1
   5  -3   5  568322   36673   1
  -6   3   2  200284   19345  -2
   6  -3   5  200284   19345   1
   7  -3   5  771285   60212   1
   8  -3   5   14491    3798   1
   9  -3   5  106230   13630   1
  -8  -2   5   39713    6821   1
   7   2  11  273480   50796  -2
  -7  -2   5  273480   50796   1
  -6  -2   5  116084   22550   1
  -5  -2   5  200886   25121   1
  -4  -2   5  629116   78647   1
  -3  -2   5  381558   39798   1
  -2  -2   5  792443   79359   1
  -1  -2   5 1074639   79359   1
   0  -2   5  333048   21719   1
   1  -2   5  871407   56770   1
   2  -2   5  793479   37979   1
   3  -2   5  828221   51271   1
  -4   2   3  688262   27890  -2
   4  -2   5  688262   27890   1
   5  -2   5  503367   24488   1
   6  -2   5  516906   46168   1
   7  -2   5   24206    3165   1
  -8   2   0  231264   14994  -2
   8  -2   5  231264   14994   1
   9  -2   5  165423   13134   1
  -8  -1   5   14614    6545   1
  -7  -1   5  187389   25359   1
  -6  -1   5    9732    3604   1
  -5  -1   5  894460   70102   1
  -4  -1   5   47471    3604   1
  -3  -1   5  697733   52972   1
  -2  -1   5  539950   32559   1
  -1  -1   5  117935    3357   1
   0  -1   5 1012096   41776   1
   1  -1   5   83910    7200   1
  -2   1   4  960636   14755  -2
   2  -1   5  960636   14755   1
   3  -1   5  317577   12541   1
   4  -1   5  259663   17288   1
   5  -1   5  940708   29196   1
  -6   1   1  164095   22629  -2
   6  -1   5  164095   22629   1
   7  -1   5  599867   29236   1
   8  -1   5  107302    5267   1
   9  -1   5   49826    8466   1
  10  -1   5  105803   14193   1
  -8   0   5  158181   23381   1
  -7   0   5   85594   12027   1
  -6   0   5  749688   40313   1
  -5   0   5  133563   10286   1
  -4   0   5  979951   76669   1
  -3   0   5  947566   51429   1
  -2   0   5   51901    2471   1
  -1   0   5 2269518   56612   1
   0   0   5  248481    4866  -2
   0   0   5  248481    4866   1
   1   0   5 1322146   43319   1
   2   0   5  685913   17525   1
   3   0   5  211499   19780   1
  -4   0   2 1006962   39600  -2
   4   0   5 1006962   39600   1
   5   0   5  213058    7319   1
   6   0   5  602186   36871   1
   7   0   5  760459   43754   1
   8   0   5  110657    5662   1
   9   0   5  114082   11117   1
  10   0   5    6053    9315   1
  -8   1   5   27946    6488   1
  -7   1   5  509460   31134   1
  -6   1   5    6251    3323   1
  -5   1   5  355628   12145   1
  -4   1   5  111208    7794   1
  -3   1   5   39571    4352   1
   2  -1   6 1196625   17057  -2
  -2   1   5 1196625   17057   1
  -1   1   5    8936    1622   1
   0   1   5  781624   12157   1
   1   1   5   23150    1317   1
   2   1   5 1159633  166908   1
   3   1   5 2134661   71289   1
   4   1   5    2026    1622   1
   5   1   5 1125988   48541   1
   6   1   5  352213   13095   1
   7   1   5   31936    2035   1
   8   1   5  543815   24093   1
  -9  -1  -2   65462    7833  -2
   9   1   5   65462    7833   1
  10   1   5  222077   17051   1
   8  -2  10  188734   23618  -2
  -8   2   5  188734   23618   1
  -7   2   5  121145    6416   1
  -6   2   5  295981    9315   1
  -5   2   5  853983   34655   1
   4  -2   7  166172    9851  -2
  -4   2   5  166172    9851   1
  -3   2   5  458148   25082   1
  -2   2   5  306310    6644   1
  -1   2   5   71761    2888   1
   0   2   5 1848591   24879   1
   1   2   5   25388    3363   1
   2   2   5 1559319   25341   1
   3   2   5  114989    5222   1
   4   2   5  928461   15661   1
   5   2   5  462664   13649   1
   6   2   5   55308    3355   1
  -7  -2  -1  327924    8028  -2
   7   2   5  327924    8028   1
   8   2   5    7548    2633   1
   9   2   5   99820    7477   1
  10   2   5   67902    7754   1
  -7   3   5  150456    6369   1
   6  -3   8  275245    8918  -2
  -6   3   5  275245    8918   1
  -5   3   5   84059   10048   1
  -4   3   5 1406265   22094   1
  -3   3   5     702    2035   1
   2  -3   5 1679706   47948  -2
  -2   3   5 1679706   47948   1
  -1   3   5  352794    6132   1
   0   3   5  713044   19978   1
   1   3   5 1287089   20141   1
   2   3   5   45053    4352   1
   3   3   5 1912865   40471   1
   4   3   5  738830   13807   1
  -5  -3   0  379414    8624  -2
   5   3   5  379414    8624   1
   6   3   5  685567   13288   1
   7   3   5   10956    2238   1
   8   3   5  551055   12716   1
  -9  -3  -3   90716    7200  -2
   9   3   5   90716    7200   1
  10   3   5   39467    5035   1
  -7   4   5  136884   11712   1
  -6   4   5  107491   16339   1
  -5   4   5  272890   21165   1
   4  -4   6    6847    2123  -2
  -4   4   5    6847    2123   1
  -3   4   5  165853    8506   1
  -2   4   5  321483    6494   1
  -1   4   5  130657    4866   1
   0   4   5  712983   17486   1
   1   4   5   66282    2471   1
   2   4   5  478462    9495   1
  -3  -4   1  529576   10643  -2
   3   4   5  529576   10643   1
   4   4   5  267124    6644   1
   5   4   5  442137    8744   1
   6   4   5   39487    4352   1
  -7  -4  -2  171311    5855  -2
   7   4   5  171311    5855   1
   8   4   5   34339    3604   1
   9   4   5   55378    4943   1
  10   4   5  123010    9117   1
  -7   5   5   20078    8171   1
   6  -5   7  330065   56889  -2
  -6   5   5  330065   56889   1
  -5   5   5   15542    2274   1
  -4   5   5  530391   37306   1
  -3   5   5  240969   17249   1
  -2   5   5   31338    7991   1
  -1   5   5  527900   15033   1
   0   5   5    9821    3363   1
  -1  -5   2 1228720   20690  -2
   1   5   5 1228720   20690   1
   2   5   5  516293   10455   1
   3   5   5  197342    5293   1
   4   5   5  936727   16497   1
  -5  -5  -1   97276   15864  -2
   5   5   5   97276   15864   1
   6   5   5  473529   14796   1
   7   5   5  315985   13174   1
   8   5   5   54276   10563   1
  -9  -5  -4  172446   13016  -2
   9   5   5  172446   13016   1
  10   5   5    2934    6438   1
  -6   6   5    -609    6029   1
  -5   6   5  188811   56374   1
  -4   6   5  167262   41737   1
  -3   6   5  243212   36238   1
  -2   6   5  361157   22312   1
   1  -6   3  164728    7572  -2
  -1   6   5  164728    7572   1
   0   6   5  460774   30937   1
   1   6   5  259279    6804   1
   2   6   5  283147   16853   1
  -3  -6   0 1279131   59025  -2
   3   6   5 1279131   59025   1
   4   6   5   69106    4168   1
   5   6   5  566285   24053   1
   6   6   5   45069    3798   1
  -7  -6  -3  188696    6644  -2
   7   6   5  188696    6644   1
   8   6   5  250754   10339   1
   9   6   5   38733    6488   1
  10   6   5  151896   12868   1
  -5   7   5   66146    6330   1
  -4   7   5   47631    3956   1
   3  -7   4  143931   23539  -2
  -3   7   5  143931   23539   1
  -2   7   5   12867    2690   1
  -1   7   5  690996  108951   1
   0   7   5  234291   20374   1
  -1  -7   1  382847    9495  -2
   1   7   5  382847    9495   1
   2   7   5  207075   14717   1
   3   7   5   37802    4629   1
   4   7   5  354773   14519   1
  -5  -7  -2  139910   30778  -2
   5   7   5  139910   30778   1
   6   7   5  144211    6416   1
   7   7   5  101472    7414   1
   8   7   5    9927    4168   1
   9   7   5  117587   12868   1
   5  -8   5  100247   11077  -2
  -5   8   5  100247   11077   1
  -4   8   5  270359   11868   1
  -3   8   5    4748    5064   1
  -2   8   5  338726   60172   1
   1  -8   2  258813   95025  -2
  -1   8   5  258813   95025   1
   0   8   5  174788   33469   1
   1   8   5  621053   65434   1
   2   8   5   18572    4075   1
  -3  -8  -1  440861   33864  -2
   3   8   5  440861   33864   1
   4   8   5  144820   15903   1
   5   8   5   81306   16774   1
   6   8   5  257848   16576   1
   7   8   5    2262    4731   1
   8   8   5  179189   15983   1
  -4   9   5    3165    5539   1
   3  -9   3  207616   10286  -2
  -3   9   5  207616   10286   1
  -2   9   5   36165    4704   1
  -1   9   5  172389   36752   1
   0   9   5  190988   42488   1
  -1  -9   0   76516   17367  -2
   1   9   5   76516   17367   1
   2   9   5  254130   27851   1
   3   9   5   27546    5182   1
   4   9   5  257674   27416   1
   5   9   5  169603   18435   1
   6   9   5    7433    4731   1
   7   9   5   97392    8703   1
  -8  -9  -5   40092    8899  -2
   8   9   5   40092    8899   1
  -2  10   5   11394    4634   1
   1 -10   1  144458   51548  -2
  -1  10   5  144458   51548   1
   0  10   5   -1185    6607   1
   1  10   5  170050   30106   1
   2  10   5   60318   26387   1
   3  10   5   42564    9297   1
   4  10   5  139536   15508   1
   5  10   5    4075    7794   1
  -6 -10  -4  129484   12832  -2
   6  10   5  129484   12832   1
   0  11   5  195105   22194   1
   1  11   5   30617   14994   1
   2  11   5  169968   36277   1
   3  11   5  132724   18000   1
  -4 -11  -3   11118    8551  -2
   4  11   5   11118    8551   1
  -3  -8   6  264770   55860   1
  -2  -8   6   44948    9462   1
  -1  -8   6  163406   20413   1
   0  -8   6  164059    8744   1
  -1   8   9   20150    5697  -2
   1  -8   6   20150    5697   1
   2  -8   6  189774   26783   1
   3  -8   6   34985   14954   1
   4  -8   6   46286   10286   1
  -4  -7   6  175591   51904   1
  -3  -7   6   26063   13965   1
  -2  -7   6  234059   53882   1
   1   7  10  292759   50875  -2
  -1  -7   6  292759   50875   1
   0  -7   6  110192   25240   1
   1  -7   6  215861   31293   1
   2  -7   6   32844   10405   1
  -3   7   7  157121   28405  -2
   3  -7   6  157121   28405   1
   4  -7   6  151839   25398   1
   5  -7   6   78238   19424   1
  -5  -6   6  216298   39126   1
  -4  -6   6    2944    5119   1
   3   6  11  100782   18356  -2
  -3  -6   6  100782   18356   1
  -2  -6   6  183049   31372   1
  -1  -6   6    9811    2797   1
   0  -6   6  377444   76353   1
  -1   6   8   25485    3798  -2
   1  -6   6   25485    3798   1
   2  -6   6  136821   21244   1
   3  -6   6  102310   16853   1
   4  -6   6   30995    3357   1
   5  -6   6  293039   15745   1
   6  -6   6    3034    4877   1
   7  -6   6  185301   26308   1
  -6  -5   6  252809   34655   1
   5   5  12  131075   22668  -2
  -5  -5   6  131075   22668   1
  -4  -5   6  278928   57917   1
  -3  -5   6  507691  128494   1
  -2  -5   6  131942   29433   1
   1   5   9  792483  104006  -2
  -1  -5   6  792483  104006   1
   0  -5   6   25208    6488   1
   1  -5   6  201699   26348   1
   2  -5   6  210436   28326   1
   3  -5   6  112238   14638   1
   4  -5   6  664784   66027   1
   5  -5   6   10838    3798   1
  -6   5   4  275586   47354  -2
   6  -5   6  275586   47354   1
   7  -5   6  182733   41737   1
   8  -5   6   54156   11908   1
  -6  -4   6    8261    6963   1
  -5  -4   6  258152   54950   1
  -4  -4   6   76356    9613   1
   3   4  10  102376   13767  -2
  -3  -4   6  102376   13767   1
  -2  -4   6  569270  111601   1
  -1  -4   6    9101    2238   1
   0  -4   6  749176   83118   1
   1  -4   6   50696    3798   1
   2  -4   6  176203   21600   1
   3  -4   6  680709   63258   1
  -4   4   5    6488    1899  -2
   4  -4   6    6488    1899   1
   5  -4   6  520841   32915   1
   6  -4   6   80735    4193   1
   7  -4   6   62685   18673   1
  -8   4   2  198149   30264  -2
   8  -4   6  198149   30264   1
  -7  -3   6   22471    9495   1
  -6  -3   6   71487   11710   1
   5   3  11  376693   30027  -2
  -5  -3   6  376693   30027   1
  -4  -3   6  129551   16141   1
  -3  -3   6  417308   58352   1
  -2  -3   6   18333    4510   1
  -1  -3   6  285100   18238   1
   0  -3   6  434559   29987   1
   1  -3   6  308435   19266   1
   2  -3   6  573291   76550   1
   3  -3   6    9064    1678   1
   4  -3   6  329635   20493   1
   5  -3   6  412493   20137   1
  -6   3   3  177051    9930  -2
   6  -3   6  177051    9930   1
   7  -3   6  375915   28998   1
   8  -3   6   -1216    2748   1
   9  -3   6   92026   26348   1
   7   2  12  272733   18989  -2
  -7  -2   6  272733   18989   1
  -6  -2   6  103905    7952   1
  -5  -2   6  115897   17090   1
  -4  -2   6  869721   96806   1
  -3  -2   6   29803    5934   1
  -2  -2   6  515293   66660   1
  -1  -2   6  252819   15983   1
   0  -2   6  213406   11750   1
   1  -2   6  951134   41143   1
   2  -2   6  135560   10484   1
   3  -2   6 1141474   50796   1
  -4   2   4  461397   23064  -2
   4  -2   6  461397   23064   1
   5  -2   6  441194   35961   1
   6  -2   6  421344   26466   1
   7  -2   6   26536    2471   1
  -8   2   1  296094   11787  -2
   8  -2   6  296094   11787   1
   9  -2   6   81907    6416   1
  -7  -1   6  113330   14796   1
  -6  -1   6   96403    9851   1
  -5  -1   6  440762   32400   1
  -4  -1   6    -624    2471   1
  -3  -1   6  438607   36396   1
  -2  -1   6  553554   47434   1
  -1  -1   6  107688    4510   1
   0  -1   6  732408   29196   1
   1  -1   6  128937    3604   1
  -2   1   5  820671   12868  -2
   2  -1   6  820671   12868   1
   3  -1   6  382510   12818   1
   4  -1   6  324815   20374   1
   5  -1   6  739560   41302   1
  -6   1   2  130566    9653  -2
   6  -1   6  130566    9653   1
   7  -1   6  318526   22194   1
   8  -1   6   83507   11275   1
   9  -1   6   64602    7240   1
  10  -1   6  132791   16327   1
  -7   0   6   36439    5585   1
  -6   0   6  349165   31372   1
  -5   0   6  124873   13372   1
  -4   0   6  811762   80190   1
  -3   0   6  262657   23222   1
  -2   0   6  285157   27218   1
  -1   0   6  464091   26506   1
   0   0   6   38476    1899  -2
   0   0   6   38476    1899   1
   1   0   6  718187   15943   1
   2   0   6  573370   14440   1
   3   0   6   79040    2797   1
  -4   0   3 1001487   23024  -2
   4   0   6 1001487   23024   1
   5   0   6    1859    3442   1
   6   0   6  472490   46247   1
   7   0   6  104455   19939   1
   8   0   6   93257   19424   1
   9   0   6   53203    5293   1
  10   0   6    4890   11908   1
  -7   1   6  201426   28128   1
  -6   1   6    9534    3357   1
  -5   1   6  308221   14400   1
  -4   1   6  324317   27614   1
  -3   1   6  535947   23222   1
   2  -1   7  978499   26743  -2
  -2   1   6  978499   26743   1
  -1   1   6  112352    3219   1
   0   1   6 1182956   16534   1
   1   1   6  262760    9613   1
   2   1   6  690810   31214   1
   3   1   6 1159653   39877   1
   4   1   6   40546    3204   1
   5   1   6  657252   52774   1
   6   1   6   92640    4668   1
   7   1   6   76656    5064   1
   8   1   6  389367   14756   1
  -9  -1  -1   65033    5855  -2
   9   1   6   65033    5855   1
  10   1   6  238894   19573   1
  -7   2   6    4328    3858   1
  -6   2   6  287465   13253   1
  -5   2   6   38403    3219   1
   4  -2   8  214947    6725  -2
  -4   2   6  214947    6725   1
  -3   2   6   34810    3039   1
  -2   2   6    9974    3481   1
  -1   2   6  499060    8899   1
   0   2   6  444333   12106   1
   1   2   6  554411   10630   1
   2   2   6  134467    6528   1
   3   2   6   22932    3916   1
   4   2   6 1165606   55939   1
   5   2   6  246073   15864   1
   6   2   6  463737   19780   1
  -7  -2   0   68274    4708  -2
   7   2   6   68274    4708   1
   8   2   6   30967    2633   1
   9   2   6  134006    5267   1
  10   2   6   51268    8783   1
  -7   3   6  160333    9908   1
   6  -3   9  144978   10761  -2
  -6   3   6  144978   10761   1
  -5   3   6   53127    3652   1
  -4   3   6 1126926   49609   1
  -3   3   6    1068    2035   1
  -2   3   6  959076   22115   1
  -1   3   6  162689    9376   1
   0   3   6   86003    8308   1
   1   3   6  687862   13392   1
   2   3   6   26713    7952   1
   3   3   6 1209925   30660   1
   4   3   6  227066   12303   1
  -5  -3   1  743418   45416  -2
   5   3   6  743418   45416   1
   6   3   6  389966    8489   1
   7   3   6   11498    3086   1
   8   3   6  339503    9568   1
  -9  -3  -2   72807    5119  -2
   9   3   6   72807    5119   1
  10   3   6   65621    8664   1
  -7   4   6   18110    7304   1
  -6   4   6  177853   11314   1
  -5   4   6  184549    8229   1
   4  -4   7   22473    2748  -2
  -4   4   6   22473    2748   1
  -3   4   6 1017834   18565   1
  -2   4   6   91054    3025   1
  -1   4   6  509883   16101   1
   0   4   6  504576   10365   1
   1   4   6  221375    7714   1
   2   4   6 1154728   19565   1
  -3  -4   2  136836    6725  -2
   3   4   6  136836    6725   1
   4   4   6  675539   34220   1
   5   4   6  446630   27693   1
   6   4   6   83332    4168   1
  -7  -4  -1  353710    9683  -2
   7   4   6  353710    9683   1
   8   4   6   23965    5815   1
   9   4   6  212739    7757   1
  10   4   6   80913    8189   1
   6  -5   8  234528   43913  -2
  -6   5   6  234528   43913   1
  -5   5   6   11823    3640   1
  -4   5   6  237395    8783   1
  -3   5   6   57107    2974   1
  -2   5   6   36152    3284   1
  -1   5   6  497735   23262   1
   0   5   6   27592    2035   1
  -1  -5   3 1234109   32994  -2
   1   5   6 1234109   32994   1
   2   5   6    1786    1899   1
   3   5   6  104740    5341   1
   4   5   6  275989    6644   1
  -5  -5   0  240493   49768  -2
   5   5   6  240493   49768   1
   6   5   6  260432    7209   1
   7   5   6    3560    2633   1
   8   5   6   63010    3950   1
  -9  -5  -3  115005   20928  -2
   9   5   6  115005   20928   1
  10   5   6    3627    7209   1
  -6   6   6   13514    7754   1
  -5   6   6  225589   67095   1
  -4   6   6   81261    8229   1
  -3   6   6  420980   32005   1
  -2   6   6  227495    7319   1
   1  -6   4  126381    6668  -2
  -1   6   6  126381    6668   1
   0   6   6  426035   40906   1
   1   6   6  355250   17090   1
   2   6   6  691701   21561   1
  -3  -6   1 1048974   17996  -2
   3   6   6 1048974   17996   1
   4   6   6   23017    8150   1
   5   6   6  439376   10643   1
   6   6   6   59073   13253   1
  -7  -6  -2  151827    6644  -2
   7   6   6  151827    6644   1
   8   6   6  215691   10800   1
   9   6   6    9248    8189   1
  -5   7   6   25952    7121   1
  -4   7   6   31898    2358   1
   3  -7   5  186664   37148  -2
  -3   7   6  186664   37148   1
  -2   7   6   35417    2354   1
  -1   7   6  342534   73346   1
   0   7   6    2980    1415   1
  -1  -7   2  449886   45456  -2
   1   7   6  449886   45456   1
   2   7   6  128386    6369   1
   3   7   6  109586    4372   1
   4   7   6  455895   37425   1
  -5  -7  -1   22713   18673  -2
   5   7   6   22713   18673   1
   6   7   6  271310   17288   1
   7   7   6   79949   11591   1
   8   7   6   15619    3798   1
   9   7   6  193149   13853   1
  -4   8   6  171694   11077   1
  -3   8   6    9498    3858   1
  -2   8   6  100427   37860   1
   1  -8   3   61447    5934  -2
  -1   8   6   61447    5934   1
   0   8   6  144098   18119   1
   1   8   6  359750   30145   1
   2   8   6   63235    4476   1
  -3  -8   0  179854   12383  -2
   3   8   6  179854   12383   1
   4   8   6   17772    6172   1
   5   8   6  113398    7437   1
   6   8   6  147230   15389   1
   7   8   6   22276    8703   1
   8   8   6   68025    9075   1
   3  -9   4  205771   58590  -2
  -3   9   6  205771   58590   1
  -2   9   6    2748    6765   1
  -1   9   6  203817   47157   1
   0   9   6  167091   22589   1
  -1  -9   1   83411   13292  -2
   1   9   6   83411   13292   1
   2   9   6  433416   23855   1
   3   9   6    3481    3219   1
   4   9   6  263044   14638   1
   5   9   6   83907   35367   1
   6   9   6   21086    4168   1
   7   9   6  107469    7273   1
  -8  -9  -4   21229   10024  -2
   8   9   6   21229   10024   1
  -2  10   6  113080   29750   1
   1 -10   2   48033   31332  -2
  -1  10   6   48033   31332   1
   0  10   6   44886   16932   1
   1  10   6  118605   19543   1
   2  10   6   28921    9811   1
   3  10   6  101136   16378   1
   4  10   6   88502    5697   1
   5  10   6   59033    6963   1
  -6 -10  -3  121294   18871  -2
   6  10   6  121294   18871   1
   1  11   6   10893   11908   1
   2  11   6  204275   35091   1
   3  11   6   70855    9032   1
  -4 -11  -2   24075    7983  -2
   4  11   6   24075    7983   1
  -1  -8   7   67087   24528   1
   0  -8   7   57887   20018   1
  -1   8  10   66513   10484  -2
   1  -8   7   66513   10484   1
   2  -8   7  148443   24567   1
  -3  -7   7   14928    9219   1
  -2  -7   7  291462   58313   1
   1   7  11  193953   30462  -2
  -1  -7   7  193953   30462   1
   0  -7   7   93162    5727   1
   1  -7   7  296737   37266   1
   2  -7   7    9698    5024   1
  -3   7   8  196764   35724  -2
   3  -7   7  196764   35724   1
   4  -7   7   68123   11552   1
   5  -7   7   64058   13756   1
  -4  -6   7   13332    9315   1
   3   6  12  206973   16774  -2
  -3  -6   7  206973   16774   1
  -2  -6   7   46250   11829   1
  -1  -6   7  125115   28642   1
   0  -6   7  240639   62704   1
  -1   6   9   54196    5511  -2
   1  -6   7   54196    5511   1
   2  -6   7  303553   42172   1
   3  -6   7  114937   25200   1
   4  -6   7  149275   26941   1
   5  -6   7  342915   32717   1
   6  -6   7    7164    9613   1
   5   5  13  153133   15112  -2
  -5  -5   7  153133   15112   1
  -4  -5   7  287848   58946   1
  -3  -5   7  110605   30818   1
  -2  -5   7  105211   13490   1
   1   5  10  208310   27653  -2
  -1  -5   7  208310   27653   1
   0  -5   7  123427   27495   1
   1  -5   7  281115   60330   1
   2  -5   7  300449   45693   1
   3  -5   7  187965   16418   1
   4  -5   7  309045   43913   1
   5  -5   7    2201    2809   1
  -6   5   5  235536   43319  -2
   6  -5   7  235536   43319   1
   7  -5   7   47048   10899   1
  -6  -4   7     280    9665   1
  -5  -4   7  306659   12871   1
  -4  -4   7  191800   46880   1
   3   4  11  266522   28049  -2
  -3  -4   7  266522   28049   1
  -2  -4   7  743817  110138   1
  -1  -4   7   40219    8426   1
   0  -4   7  838309  129799   1
   1  -4   7  138762   12224   1
   2  -4   7  169089    8783   1
   3  -4   7  602451   50678   1
  -4   4   6    5188    1899  -2
   4  -4   7    5188    1899   1
   5  -4   7  615604   82089   1
   6  -4   7   99625   17525   1
   7  -4   7   75414   13846   1
  -8   4   3  222909   18633  -2
   8  -4   7  222909   18633   1
  -6  -3   7  198513   21363   1
   5   3  12   49583    5228  -2
  -5  -3   7   49583    5228   1
  -4  -3   7  247600   38651   1
  -3  -3   7  230663   38335   1
  -2  -3   7    -593    2238   1
  -1  -3   7  300760   33310   1
   0  -3   7  199691   24053   1
   1  -3   7  184891   10246   1
   2  -3   7  182084   18594   1
   3  -3   7   27261    2238   1
   4  -3   7  404871   30937   1
   5  -3   7   36661    2238   1
  -6   3   4  254402   22629  -2
   6  -3   7  254402   22629   1
   7  -3   7   59872    8466   1
   8  -3   7   10925    3355   1
   9  -3   7  122646   14258   1
  -6  -2   7   88933    7912   1
  -5  -2   7   70650    8031   1
  -4  -2   7  747811   84265   1
  -3  -2   7   31061    3916   1
  -2  -2   7  592074   55662   1
  -1  -2   7   92445    5618   1
   0  -2   7   40489    3877   1
   1  -2   7  868358   53566   1
   2  -2   7   10054    1678   1
   3  -2   7 1139866   66739   1
  -4   2   5  215014    6172  -2
   4  -2   7  215014    6172   1
   5  -2   7  177776   11038   1
   6  -2   7  392896   23420   1
   7  -2   7   11309    2471   1
  -8   2   2  299628   14361  -2
   8  -2   7  299628   14361   1
   9  -2   7   24252   10663   1
  -7  -1   7   54357    9495   1
  -6  -1   7  182013   35249   1
  -5  -1   7  210928   21640   1
  -4  -1   7   11762    2471   1
  -3  -1   7  593442   76471   1
  -2  -1   7  240309   26229   1
  -1  -1   7  281347   18356   1
   0  -1   7  291794    9495   1
   1  -1   7  228018    8506   1
  -2   1   6 1188010   40471  -2
   2  -1   7 1188010   40471   1
   3  -1   7  190595    9336   1
   4  -1   7  665101   19899   1
   5  -1   7  520118   38335   1
  -6   1   3  262245    9099  -2
   6  -1   7  262245    9099   1
   7  -1   7  375006   13411   1
   8  -1   7   30739    3357   1
   9  -1   7  161808   14400   1
  -7   0   7   58758    9075   1
  -6   0   7  342451   29433   1
  -5   0   7    8664    2797   1
  -4   0   7  438251   40946   1
  -3   0   7   51172    2797   1
  -2   0   7  133684    4193   1
  -1   0   7  472399   34062   1
   0   0   7   53906    3521  -2
   0   0   7   53906    3521   1
   1   0   7  918965   15033   1
   2   0   7    9905    1899   1
   3   0   7  342606   14756   1
   4   0   7  582226   10024   1
   5   0   7   25046    2035   1
   6   0   7  498743   31847   1
   7   0   7   15469    5182   1
   8   0   7  135995   16853   1
   9   0   7   58291    5855   1
  10   0   7    3460   12383   1
  -7   1   7  170111   12278   1
  -6   1   7   55070    5019   1
  -5   1   7  463837   23222   1
  -4   1   7  297917   28088   1
  -3   1   7  430219   18356   1
   2  -1   8  850280   59539  -2
  -2   1   7  850280   59539   1
  -1   1   7   62608    3046   1
   0   1   7  613977   10024   1
   1   1   7  408473   15350   1
   2   1   7  785412   13699   1
   3   1   7  728487   23420   1
   4   1   7  262066    6132   1
   5   1   7  504752   49926   1
   6   1   7   55433    3363   1
   7   1   7  220861   18594   1
   8   1   7  348059    9908   1
  -9  -1   0  126974   23657  -2
   9   1   7  126974   23657   1
  10   1   7  127533   17090   1
  -6   2   7  446034   15558   1
  -5   2   7    8717    3219   1
   4  -2   9  328060    8244  -2
  -4   2   7  328060    8244   1
  -3   2   7  230026    8901   1
  -2   2   7   65623    3357   1
  -1   2   7  886029   15587   1
   0   2   7  100089   15824   1
   1   2   7  951453   21521   1
   2   2   7  435147    8658   1
   3   2   7  131485   14202   1
   4   2   7 1006464   35526   1
   5   2   7   85343    3798   1
   6   2   7  353053   17367   1
  -7  -2   1  179049   18712  -2
   7   2   7  179049   18712   1
   8   2   7   20386    4391   1
   9   2   7  230289   10782   1
  10   2   7    2613   19543   1
   6  -3  10  130212   27218  -2
  -6   3   7  130212   27218   1
  -5   3   7  201687    7532   1
  -4   3   7  238789    7626   1
  -3   3   7   34108    3219   1
  -2   3   7  116243    7833   1
  -1   3   7   82773    3219   1
   0   3   7  278556    6154   1
   1   3   7 1000253   16756   1
   2   3   7  182866    5293   1
   3   3   7  889788   19820   1
   4   3   7   20862    3204   1
  -5  -3   2  421237   30027  -2
   5   3   7  421237   30027   1
   6   3   7  298929    7307   1
   7   3   7   17161    2123   1
   8   3   7  137877    5662   1
  -9  -3  -1   45730    5301  -2
   9   3   7   45730    5301   1
  10   3   7   72943   10643   1
  -6   4   7  139430   13533   1
  -5   4   7  196702    7077   1
   4  -4   8   12112    6053  -2
  -4   4   7   12112    6053   1
  -3   4   7  687403   26031   1
  -2   4   7   35566    2252   1
  -1   4   7  518184    9941   1
   0   4   7  351717   16378   1
   1   4   7  136800    3996   1
   2   4   7 1222527   19486   1
  -3  -4   3  122302    7161  -2
   3   4   7  122302    7161   1
   4   4   7  605707   37662   1
   5   4   7  358071   15785   1
   6   4   7   17283    2633   1
  -7  -4   0  293441    8746  -2
   7   4   7  293441    8746   1
   8   4   7   28987    4352   1
   9   4   7  216478   17407   1
  10   4   7   44141    9462   1
   6  -5   9   96786   19780  -2
  -6   5   7   96786   19780   1
  -5   5   7   34674   11947   1
  -4   5   7  114398    5662   1
  -3   5   7    2117    2571   1
  -2   5   7  314891    7912   1
  -1   5   7  272750    9732   1
   0   5   7  173778   12145   1
  -1  -5   4  631052   14137  -2
   1   5   7  631052   14137   1
   2   5   7    4431    1899   1
   3   5   7  504673   11216   1
   4   5   7  151683    5895   1
  -5  -5   1  353931   17842  -2
   5   5   7  353931   17842   1
   6   5   7  143021    6053   1
   7   5   7   20304    2748   1
   8   5   7  170613   14242   1
  -9  -5  -2   92968    7794  -2
   9   5   7   92968    7794   1
  10   5   7   86023   11709   1
  -5   6   7  274790   18989   1
  -4   6   7   -1946    2303   1
  -3   6   7  302110    9099   1
  -2   6   7   80308    4035   1
   1  -6   5   71676    8189  -2
  -1   6   7   71676    8189   1
   0   6   7  446278   34339   1
   1   6   7  119286    4372   1
   2   6   7  704806   22827   1
  -3  -6   2  143996    5420  -2
   3   6   7  143996    5420   1
   4   6   7   18190    2471   1
   5   6   7   79610    4537   1
   6   6   7   39181   18910   1
  -7  -6  -1  145301   11512  -2
   7   6   7  145301   11512   1
   8   6   7   74610    5697   1
   9   6   7   34247    8308   1
  -4   7   7  119682   11146   1
   3  -7   6  125121    4580  -2
  -3   7   7  125121    4580   1
  -2   7   7  139211    4565   1
  -1   7   7  397345    9704   1
   0   7   7   10998    2035   1
  -1  -7   3  505811   39126  -2
   1   7   7  505811   39126   1
   2   7   7  278837   16339   1
   3   7   7  112031    5293   1
   4   7   7  653333   22787   1
  -5  -7   0   54823   30027  -2
   5   7   7   54823   30027   1
   6   7   7  295374   17486   1
   7   7   7   32640    3916   1
   8   7   7   52807    9534   1
   9   7   7  188977   16196   1
  -4   8   7   44396   17328   1
  -3   8   7    8867   14440   1
  -2   8   7  145569    5776   1
   1  -8   4   10036    5618  -2
  -1   8   7   10036    5618   1
   0   8   7  386985   44585   1
   1   8   7   63159    3798   1
   2   8   7   92382    5267   1
  -3  -8   1  162374    7081  -2
   3   8   7  162374    7081   1
   4   8   7    9031    7121   1
   5   8   7  205124    8489   1
   6   8   7   63778   14558   1
   7   8   7   81020   23697   1
   8   8   7   76045   11709   1
  -2   9   7    3007   16378   1
  -1   9   7  151823   55781   1
   0   9   7  188403   21561   1
  -1  -9   2  132623   18356  -2
   1   9   7  132623   18356   1
   2   9   7  312959   13569   1
   3   9   7    2699    2471   1
   4   9   7   96663   11908   1
   5   9   7   53918   13649   1
   6   9   7   42370    5855   1
   7   9   7  169203   13392   1
   1 -10   3   33000   16101  -2
  -1  10   7   33000   16101   1
   0  10   7   76834    8202   1
   1  10   7   83423   41183   1
   2  10   7    9529    7912   1
   3  10   7  116736   20057   1
   4  10   7   17427    5895   1
   5  10   7   93370    7414   1
  -6 -10  -2   82567   12157  -2
   6  10   7   82567   12157   1
   2  11   7   66490   19662   1
   3  11   7   18778    9200   1
   1   7  12   66014    9511  -2
  -1  -7   8   66014    9511   1
   0  -7   8   41223   10484   1
   1  -7   8  129582   18475   1
   2  -7   8    1752    5697   1
  -3   7   9  191329   32598  -2
   3  -7   8  191329   32598   1
   3   6  13  268487   58432  -2
  -3  -6   8  268487   58432   1
  -2  -6   8   61957    7002   1
  -1  -6   8  191019   36713   1
   0  -6   8  200676   43754   1
  -1   6  10  112143    7018  -2
   1  -6   8  112143    7018   1
   2  -6   8  233708   42053   1
   3  -6   8   64014   19187   1
   4  -6   8  176660   22550   1
   5  -6   8  209225   21007   1
  -4  -5   8  184927   35011   1
  -3  -5   8    -429    5121   1
  -2  -5   8   56865    7873   1
   1   5  11   94883   20216  -2
  -1  -5   8   94883   20216   1
   0  -5   8    4396    2471   1
   1  -5   8  349081   56453   1
   2  -5   8    4141    3219   1
   3  -5   8  173316   25161   1
   4  -5   8  146727   11314   1
   5  -5   8   39375    8426   1
  -6   5   6  255430   36554  -2
   6  -5   8  255430   36554   1
   7  -5   8    4918    8551   1
  -5  -4   8  171190   27890   1
  -4  -4   8  202312   11323   1
   3   4  12  209568   32677  -2
  -3  -4   8  209568   32677   1
  -2  -4   8  333743   58629   1
  -1  -4   8   79839   16220   1
   0  -4   8  307141   43438   1
   1  -4   8   57167   11038   1
   2  -4   8  145535   13134   1
   3  -4   8  277753   24330   1
  -4   4   7   59294    7596  -2
   4  -4   8   59294    7596   1
   5  -4   8  422542   44664   1
   6  -4   8   31435    4154   1
   7  -4   8   84445   18040   1
   5   3  13   -1726    7172  -2
  -5  -3   8   -1726    7172   1
  -4  -3   8  296501   41697   1
  -3  -3   8  122522   20137   1
  -2  -3   8   34620    4510   1
  -1  -3   8  521064   55662   1
   0  -3   8    9346    6330   1
   1  -3   8  908388   71012   1
   2  -3   8  140804   20453   1
   3  -3   8  226890   21007   1
   4  -3   8  605362   50519   1
   5  -3   8    9879    2769   1
  -6   3   5  493553   21877  -2
   6  -3   8  493553   21877   1
   7  -3   8   69213    8822   1
   8  -3   8   41929   11459   1
  -6  -2   8   39640    8703   1
  -5  -2   8  149437   17407   1
  -4  -2   8  109245   17486   1
  -3  -2   8   78286    7991   1
  -2  -2   8  160982   11591   1
  -1  -2   8   45806    6290   1
   0  -2   8  219685   12936   1
   1  -2   8  251954    6078   1
   2  -2   8  314958   20334   1
   3  -2   8  293405   19662   1
  -4   2   6   62439    5618  -2
   4  -2   8   62439    5618   1
   5  -2   8  158387   20255   1
   6  -2   8  156947    7952   1
   7  -2   8   31936    3357   1
  -8   2   3  142236    8952  -2
   8  -2   8  142236    8952   1
   9  -2   8   -1020   10339   1
  -6  -1   8  241243   17407   1
  -5  -1   8  135694    8703   1
  -4  -1   8   51243    6963   1
  -3  -1   8  760478   47038   1
  -2  -1   8   45177    4943   1
  -1  -1   8  528979   23618   1
   0  -1   8  301044   10207   1
   1  -1   8   31887    2238   1
  -2   1   7 1454683   53091  -2
   2  -1   8 1454683   53091   1
   3  -1   8  265828    9969   1
   4  -1   8  807282   30660   1
   5  -1   8  351685   16576   1
  -6   1   4  124670    5293  -2
   6  -1   8  124670    5293   1
   7  -1   8  204122   28405   1
   8  -1   8   11122    3798   1
   9  -1   8  214967   20841   1
  -6   0   8  111867   10891   1
  -5   0   8   80636    5254   1
  -4   0   8  214048    7710   1
  -3   0   8    2105    3521   1
  -2   0   8  347459   10246   1
  -1   0   8  330953    9653   1
   0   0   8  415925    9462  -2
   0   0   8  415925    9462   1
   1   0   8  926149   24884   1
   2   0   8  160514   14756   1
   3   0   8  595266   18673   1
   4   0   8  360167   26545   1
   5   0   8  112212    4470   1
   6   0   8  393867   24093   1
   7   0   8   27611    4075   1
   8   0   8  225862   26783   1
   9   0   8   66157    7912   1
  -6   1   8   61525    8918   1
  -5   1   8  403081   24013   1
  -4   1   8   34220    7596   1
  -3   1   8  338198   27653   1
   2  -1   9  235920   11829  -2
  -2   1   8  235920   11829   1
  -1   1   8   22999    4114   1
   0   1   8  614490   11148   1
   1   1   8  102539    7675   1
   2   1   8 1012848   15879   1
   3   1   8  186046    5035   1
   4   1   8   94668    6330   1
   5   1   8  355567   48027   1
   6   1   8    4826    2238   1
   7   1   8  194741   12936   1
   8   1   8   53774    3798   1
  -9  -1   1  103700    7537  -2
   9   1   8  103700    7537   1
  10   1   8   73534   20176   1
  -6   2   8  233329   15706   1
  -5   2   8    1681    3002   1
   4  -2  10  211211    9257  -2
  -4   2   8  211211    9257   1
  -3   2   8  330202    9692   1
  -2   2   8  194893   14479   1
  -1   2   8  523970   14282   1
   0   2   8   67726    3039   1
   1   2   8  724816   13649   1
   2   2   8  264841    5855   1
   3   2   8  227938   18158   1
   4   2   8  729571   32756   1
   5   2   8   30191    2633   1
   6   2   8  398665   41974   1
  -7  -2   2   64730   11156  -2
   7   2   8   64730   11156   1
   8   2   8   30400    3604   1
   9   2   8  288933   13095   1
  10   2   8    4391   10071   1
   6  -3  11    8276    7172  -2
  -6   3   8    8276    7172   1
  -5   3   8  195947    7852   1
  -4   3   8   59940    5064   1
  -3   3   8  124924    7081   1
  -2   3   8  224586    7532   1
  -1   3   8    4623    1899   1
   0   3   8  473071    9779   1
   1   3   8  424259    9219   1
   2   3   8  171174    5293   1
   3   3   8  270011    6714   1
   4   3   8    3877    2238   1
  -5  -3   3  428605   26901  -2
   5   3   8  428605   26901   1
   6   3   8   42776    3039   1
   7   3   8  242560   14717   1
   8   3   8   65322   10128   1
  -9  -3   0   83096    7307  -2
   9   3   8   83096    7307   1
  10   3   8  168065   15675   1
  -5   4   8   93276   11077   1
  -4   4   8   83673    4954   1
  -3   4   8  400754   15943   1
  -2   4   8    8045    2182   1
  -1   4   8  479535   11148   1
   0   4   8  335370    7754   1
   1   4   8  309423    8150   1
   2   4   8  799806   14546   1
  -3  -4   4   57192    3355  -2
   3   4   8   57192    3355   1
   4   4   8  258377    7307   1
   5   4   8  138504    4943   1
   6   4   8  139753   13095   1
  -7  -4   1  322443   10392  -2
   7   4   8  322443   10392   1
   8   4   8    4051    2633   1
   9   4   8  139152    7002   1
  10   4   8   23972   10542   1
  -5   5   8   91448   17644   1
  -4   5   8   90312   10246   1
  -3   5   8     153    3600   1
  -2   5   8  649687   15447   1
  -1   5   8  112249    4071   1
   0   5   8  403077   14242   1
  -1  -5   5  423919   16260  -2
   1   5   8  423919   16260   1
   2   5   8   34718    2797   1
   3   5   8  553705   21402   1
   4   5   8  186299    6916   1
  -5  -5   2  536420   19029  -2
   5   5   8  536420   19029   1
   6   5   8  265801    7900   1
   7   5   8   44581    6804   1
   8   5   8  189236    7626   1
  -9  -5  -1   73387    6271  -2
   9   5   8   73387    6271   1
  -4   6   8   -3481    7319   1
  -3   6   8  141956   25873   1
  -2   6   8   61459    3776   1
   1  -6   6   98297    5459  -2
  -1   6   8   98297    5459   1
   0   6   8  350400   11473   1
   1   6   8   41628    3917   1
   2   6   8  540942   16220   1
  -3  -6   3   15289    4510  -2
   3   6   8   15289    4510   1
   4   6   8  132401    5855   1
   5   6   8  195620    9732   1
   6   6   8    8983    3604   1
  -7  -6   0  240406   10721  -2
   7   6   8  240406   10721   1
   8   6   8    7833    3950   1
   9   6   8   43990    5990   1
  -4   7   8  180646   15222   1
   3  -7   7   82781   21877  -2
  -3   7   8   82781   21877   1
  -2   7   8  179423   57086   1
  -1   7   8  170674   45812   1
   0   7   8     445    2176   1
  -1  -7   4  414208   53447  -2
   1   7   8  414208   53447   1
   2   7   8  162636   22035   1
   3   7   8  194067    7209   1
   4   7   8  226037    9117   1
  -5  -7   1   39918   21363  -2
   5   7   8   39918   21363   1
   6   7   8  186228    7900   1
   7   7   8   19894    7556   1
   8   7   8  139050   12422   1
   9   7   8  116864   11850   1
  -3   8   8   51952    8360   1
  -2   8   8  158209   29077   1
   1  -8   5   27500    8031  -2
  -1   8   8   27500    8031   1
   0   8   8  331147   34735   1
   1   8   8   24240    2748   1
   2   8   8  165011   20255   1
  -3  -8   2  136590   13016  -2
   3   8   8  136590   13016   1
   4   8   8   10171    3039   1
   5   8   8  193534    8171   1
   6   8   8   25124    5618   1
   7   8   8   92943    5855   1
   8   8   8   65057    9574   1
  -2   9   8    3948    6947   1
  -1   9   8  132457   29275   1
   0   9   8   30700   11354   1
  -1  -9   3  159823   28998  -2
   1   9   8  159823   28998   1
   2   9   8  109920    5990   1
   3   9   8   15600    7952   1
   4   9   8   63630   11433   1
   5   9   8   22087    5697   1
   6   9   8   87215    8743   1
   7   9   8   76374    9336   1
   0  10   8   73118   11314   1
   1  10   8   75440   30937   1
   2  10   8   23814    5815   1
   3  10   8  243262   14202   1
   4  10   8    -172    8324   1
   5  10   8   97359   18396   1
  -6 -10  -1   57362   10462  -2
   6  10   8   57362   10462   1
  -1  -6   9  190736   15666   1
   0  -6   9   83567    8489   1
  -1   6  11   56168    9218  -2
   1  -6   9   56168    9218   1
   2  -6   9  205483   11216   1
   3  -6   9   13604    7757   1
   4  -6   9  181817   32361   1
  -3  -5   9   -7209    7209   1
  -2  -5   9  114907    8244   1
  -1  -5   9   90239    6820   1
   0  -5   9   72682   14994   1
   1  -5   9  325375   56730   1
   2  -5   9    3774    3355   1
   3  -5   9  195041   31095   1
   4  -5   9  100701    7358   1
   5  -5   9   74615   10064   1
  -6   5   7  238724   31926  -2
   6  -5   9  238724   31926   1
  -4  -4   9   32777    7532   1
  -3  -4   9  189796   11433   1
  -2  -4   9   54367   10246   1
  -1  -4   9   66034    5697   1
   0  -4   9  125662   12106   1
   1  -4   9   42353    4476   1
   2  -4   9  313381   42093   1
   3  -4   9  123064   17842   1
   4  -4   9  143662   28523   1
   5  -4   9  154887   23104   1
   6  -4   9   -3604    3604   1
   7  -4   9  116316   17328   1
  -4  -3   9  173600   34022   1
  -3  -3   9  213863   14835   1
  -2  -3   9  105224   12224   1
  -1  -3   9  459106   51864   1
   0  -3   9    2295    3039   1
   1  -3   9  439138   52181   1
   2  -3   9  354998   30501   1
   3  -3   9   82077   13174   1
   4  -3   9  397394   45732   1
   5  -3   9     407    2136   1
  -6   3   6  249730   17882  -2
   6  -3   9  249730   17882   1
   7  -3   9   45351   10800   1
   8  -3   9   17715    8110   1
  -5  -2   9  184750   16616   1
  -4  -2   9   26309    5511   1
  -3  -2   9  142397   17684   1
  -2  -2   9  167941   10286   1
  -1  -2   9    3191    2532   1
   0  -2   9  381603   29236   1
   1  -2   9  130969    5578   1
   2  -2   9  409984   24686   1
   3  -2   9  213338   17288   1
  -4   2   7  109202    4731  -2
   4  -2   9  109202    4731   1
   5  -2   9  268481   36515   1
   6  -2   9   40758   12818   1
   7  -2   9  142090   15706   1
  -8   2   4  104376   14756  -2
   8  -2   9  104376   14756   1
  -5  -1   9  123826   15033   1
  -4  -1   9   40793    4784   1
  -3  -1   9  329064   18396   1
  -2  -1   9   17515    3039   1
  -1  -1   9  153737    5035   1
   0  -1   9  132570    8308   1
   1  -1   9   16568    3640   1
  -2   1   8  554505   30818  -2
   2  -1   9  554505   30818   1
   3  -1   9    1424    1899   1
   4  -1   9  374820   18712   1
   5  -1   9   34910    2471   1
   6  -1   9   53907    9139   1
   7  -1   9   94527    5035   1
   8  -1   9   -4563    5262   1
   9  -1   9  108516   16972   1
  -5   0   9  112907   11868   1
  -4   0   9  162485   23301   1
  -3   0   9    7358    2797   1
  -2   0   9  649107   24013   1
  -1   0   9  169060    9139   1
   0   0   9  502767   11980  -2
   0   0   9  502767   11980   1
   1   0   9  220257    6644   1
   2   0   9   19896    2797   1
   3   0   9  628851   17842   1
   4   0   9  365107   11377   1
   5   0   9  324725   11987   1
   6   0   9  315385   13649   1
   7   0   9   36824    3363   1
   8   0   9  168311   31095   1
   9   0   9   62849   17723   1
  -5   1   9  155347   12587   1
  -4   1   9    1413    3798   1
  -3   1   9  205829    7532   1
   2  -1  10  103716    5511  -2
  -2   1   9  103716    5511   1
  -1   1   9  148286   10919   1
   0   1   9  257198   19266   1
   1   1   9   20967    3039   1
   2   1   9  791041   21600   1
   3   1   9    4629    2238   1
   4   1   9  190726    7794   1
   5   1   9  157009   16655   1
   6   1   9    4747    2633   1
   7   1   9  232431   27178   1
   8   1   9      40    3357   1
  -9  -1   2  147567   12066  -2
   9   1   9  147567   12066   1
  -5   2   9   19199    8339   1
   4  -2  11  280784    9268  -2
  -4   2   9  280784    9268   1
  -3   2   9  124101    6839   1
  -2   2   9  181731   12145   1
  -1   2   9  273909    7983   1
   0   2   9   74852    9851   1
   1   2   9  770804   13853   1
   2   2   9  264412   15033   1
   3   2   9  500936   20769   1
   4   2   9  283698    7596   1
   5   2   9   22748    4826   1
   6   2   9  177247   20611   1
  -7  -2   3   74831    6567  -2
   7   2   9   74831    6567   1
   8   2   9   77604   10919   1
   9   2   9  144970    7773   1
  -5   3   9  194728   14450   1
  -4   3   9     880    3601   1
  -3   3   9  102456   11117   1
  -2   3   9  286359   44546   1
  -1   3   9   96328    9495   1
   0   3   9  517042   20967   1
   1   3   9    4747    5341   1
   2   3   9  247398    6977   1
   3   3   9  303433    7833   1
   4   3   9   25306    2797   1
  -5  -3   4  643830   40669  -2
   5   3   9  643830   40669   1
   6   3   9    7437    3560   1
   7   3   9  277029   20532   1
   8   3   9   96004    9851   1
  -9  -3   1   48163    8901  -2
   9   3   9   48163    8901   1
  -5   4   9   47304    8854   1
  -4   4   9   73706    6187   1
  -3   4   9  179551    7739   1
  -2   4   9     623   11908   1
  -1   4   9  293892    9218   1
   0   4   9  116493    7714   1
   1   4   9  237287    5595   1
   2   4   9  425869   10024   1
  -3  -4   5   64578    3604  -2
   3   4   9   64578    3604   1
   4   4   9  141471    5511   1
   5   4   9   14523    3039   1
   6   4   9  102599    5103   1
  -7  -4   2  235994    8244  -2
   7   4   9  235994    8244   1
   8   4   9   34161    4071   1
   9   4   9   92301   24370   1
  -4   5   9  145411   15033   1
  -3   5   9   26680    4606   1
  -2   5   9  465670   59302   1
  -1   5   9   13109    3007   1
   0   5   9  322507   10484   1
  -1  -5   6  469609   11148  -2
   1   5   9  469609   11148   1
   2   5   9   15449    5182   1
   3   5   9  671507   15196   1
   4   5   9   11742    3355   1
  -5  -5   3  182930    8308  -2
   5   5   9  182930    8308   1
   6   5   9  103058    8268   1
   7   5   9    2888    2797   1
   8   5   9  182456    8624   1
  -9  -5   0    5812    4649  -2
   9   5   9    5812    4649   1
  -4   6   9   44664    8822   1
  -3   6   9   42126   12383   1
  -2   6   9    3615    2354   1
   1  -6   7  232351   35486  -2
  -1   6   9  232351   35486   1
   0   6   9  236976   17763   1
   1   6   9  102110   11156   1
   2   6   9  264707   16022   1
  -3  -6   4   30121   11394  -2
   3   6   9   30121   11394   1
   4   6   9  150109    7018   1
   5   6   9  104230    5990   1
   6   6   9   31954    3798   1
  -7  -6   1  115386    6438  -2
   7   6   9  115386    6438   1
   8   6   9    1938    3357   1
   9   6   9   83538   37939   1
   3  -7   8   41755   11394  -2
  -3   7   9   41755   11394   1
  -2   7   9  164706    8432   1
  -1   7   9   82056   15389   1
   0   7   9   20882    5182   1
  -1  -7   5  255678   28761  -2
   1   7   9  255678   28761   1
   2   7   9   36667    3798   1
   3   7   9  186584    6078   1
   4   7   9   72241    5267   1
  -5  -7   2   65907   21917  -2
   5   7   9   65907   21917   1
   6   7   9  109686    7319   1
   7   7   9    7064    3798   1
   8   7   9  125105   12462   1
  -2   8   9  100804    9914   1
   1  -8   6   66368    4706  -2
  -1   8   9   66368    4706   1
   0   8   9  144015   11117   1
   1   8   9    3218    2123   1
   2   8   9  135576   15666   1
  -3  -8   3  117991    6844  -2
   3   8   9  117991    6844   1
   4   8   9  132643   16536   1
   5   8   9  118668    6844   1
   6   8   9   10919    3916   1
   7   8   9  105188    8171   1
   8   8   9   67491   12660   1
  -1   9   9  128821   18633   1
   0   9   9    3569    6929   1
  -1  -9   4  146256   18198  -2
   1   9   9  146256   18198   1
   2   9   9   18069    3355   1
   3   9   9   16979    7121   1
   4   9   9   70393   23420   1
   5   9   9    2724    9574   1
   6   9   9  136183   13458   1
   7   9   9   15521    8419   1
   1  10   9   68141    8360   1
   2  10   9   21613    6218   1
   3  10   9  179738   19860   1
   4  10   9   -5310    7420   1
   5  10   9   57481   22787   1
  -1  -5  10   58636   10070   1
   0  -5  10  165790   29789   1
   1  -5  10  137910   36436   1
   2  -5  10   12048    6078   1
   3  -5  10  237834   43359   1
   4  -5  10   72158   10630   1
  -2  -4  10    6755    8506   1
  -1  -4  10   36277    5035   1
   0  -4  10  102844   18198   1
   1  -4  10    6245    3604   1
   2  -4  10  372968   58590   1
   3  -4  10   17235    3458   1
   4  -4  10  135551    8016   1
   5  -4  10   86919   17051   1
   6  -4  10    6531    7209   1
  -3  -3  10  104788   18791   1
  -2  -3  10  114621   18673   1
  -1  -3  10  211807   16972   1
   0  -3  10   38620    5103   1
   1  -3  10  291367   48225   1
   2  -3  10  105643   33785   1
   3  -3  10  148137   22115   1
   4  -3  10  171326   25715   1
   5  -3  10   19050    6607   1
  -6   3   7  164152   19583  -2
   6  -3  10  164152   19583   1
   7  -3  10   24457   12541   1
  -4  -2  10     277   10246   1
  -3  -2  10  104820   10563   1
  -2  -2  10  191854    8028   1
  -1  -2  10   33029    9574   1
   0  -2  10  496224   53209   1
   1  -2  10    4132    2471   1
   2  -2  10  314528   35407   1
   3  -2  10  207375   26545   1
  -4   2   8   82326    5595  -2
   4  -2  10   82326    5595   1
   5  -2  10  338482   31491   1
   6  -2  10    6537    3604   1
   7  -2  10  180387   13846   1
  -8   2   5   67641   12138  -2
   8  -2  10   67641   12138   1
  -4  -1  10   95710    9941   1
  -3  -1  10   61792   12185   1
  -2  -1  10   98485    6765   1
  -1  -1  10  184329    6977   1
   0  -1  10   46282    4372   1
   1  -1  10  318689   28167   1
  -2   1   9  315108   12660  -2
   2  -1  10  315108   12660   1
   3  -1  10  265954   15271   1
   4  -1  10  213472    6438   1
   5  -1  10    6207    2471   1
   6  -1  10   68049   10523   1
   7  -1  10  134743    9613   1
   8  -1  10   35404    8098   1
  -4   0  10  130366   26189   1
  -3   0  10   11692    3604   1
  -2   0  10  326545   11382   1
  -1   0  10   24002    3798   1
   0   0  10  424777   19978  -2
   0   0  10  424777   19978   1
   1   0  10  227383    7952   1
   2   0  10    9881    2797   1
   3   0  10  484854   19860   1
   4   0  10  119445   14202   1
   5   0  10  254659   24093   1
   6   0  10  131295    5511   1
   7   0  10   32554    3219   1
   8   0  10  141232    7833   1
   9   0  10   -7241   10891   1
  -4   1  10   65170    9834   1
  -3   1  10  141967    8727   1
   2  -1  11   35354    3604  -2
  -2   1  10   35354    3604   1
  -1   1  10  401865   11123   1
   0   1  10  421870   14479   1
   1   1  10  225770    6977   1
   2   1  10  472795   10586   1
   3   1  10    2334    2238   1
   4   1  10  191355   11235   1
   5   1  10  207192   14084   1
   6   1  10   47246    8070   1
   7   1  10  236046   11038   1
   8   1  10    -647    3039   1
  -9  -1   3  184946   16525  -2
   9   1  10  184946   16525   1
   4  -2  12  226577   18252  -2
  -4   2  10  226577   18252   1
  -3   2  10   18277    7240   1
  -2   2  10  200300   21046   1
  -1   2  10  192558    7626   1
   0   2  10   62927   11235   1
   1   2  10  495951   11590   1
   2   2  10   41117    3039   1
   3   2  10  357782    8899   1
   4   2  10   35493    4787   1
   5   2  10   40403    6963   1
   6   2  10  104671    4731   1
  -7  -2   4    8102    2809  -2
   7   2  10    8102    2809   1
   8   2  10  186081   15824   1
   9   2  10   37352    9268   1
  -4   3  10    5552    9570   1
  -3   3  10  283610   11984   1
  -2   3  10  209047    9075   1
  -1   3  10  113058    5697   1
   0   3  10  408103   11941   1
   1   3  10    6818    7002   1
   2   3  10  402826   14123   1
   3   3  10  334111    8551   1
   4   3  10   87908    4673   1
  -5  -3   5  406126   11947  -2
   5   3  10  406126   11947   1
   6   3  10    2287    3039   1
   7   3  10  157338   10919   1
   8   3  10   79370    7209   1
  -9  -3   2   39870   11084  -2
   9   3  10   39870   11084   1
  -4   4  10  117123   12099   1
  -3   4  10   25396    6528   1
  -2   4  10   30060   13609   1
  -1   4  10  166220    7018   1
   0   4  10   -2633    2633   1
   1   4  10  337853   15785   1
   2   4  10   24787    2797   1
  -3  -4   6  108948    5119  -2
   3   4  10  108948    5119   1
   4   4  10  133248    5267   1
   5   4  10     580    4035   1
   6   4  10  365969   11702   1
  -7  -4   3   79735   15904  -2
   7   4  10   79735   15904   1
   8   4  10  154183    7983   1
   9   4  10   82530   11604   1
  -3   5  10    7589    7852   1
  -2   5  10  339439   15943   1
  -1   5  10   -3537    3858   1
   0   5  10  256066   17486   1
  -1  -5   7  200737    6844  -2
   1   5  10  200737    6844   1
   2   5  10   38131    3219   1
   3   5  10  296526   10024   1
   4   5  10    5359    3039   1
  -5  -5   4  152253    7002  -2
   5   5  10  152253    7002   1
   6   5  10   46804    6884   1
   7   5  10   40651    4168   1
   8   5  10  163709    9075   1
  -9  -5   1   -2579    9217  -2
   9   5  10   -2579    9217   1
  -3   6  10  123567   14994   1
  -2   6  10    2052    3131   1
   1  -6   8  376647   51587  -2
  -1   6  10  376647   51587   1
   0   6  10   75818   14242   1
   1   6  10  119883    5267   1
   2   6  10  157610    9376   1
  -3  -6   5   57914    7081  -2
   3   6  10   57914    7081   1
   4   6  10  273078    9219   1
   5   6  10   40150    5736   1
   6   6  10  179487    8624   1
  -7  -6   2  161993    7757  -2
   7   6  10  161993    7757   1
   8   6  10    9564    8466   1
  -2   7  10   83277   10999   1
  -1   7  10   48343    5024   1
   0   7  10   78692    5267   1
  -1  -7   6  196896   20334  -2
   1   7  10  196896   20334   1
   2   7  10   10414    2238   1
   3   7  10   97333    6106   1
   4   7  10   23315    3604   1
   5   7  10   47504   13372   1
   6   7  10  166900   19899   1
   7   7  10   -3979    8150   1
   8   7  10  131061   28049   1
   1  -8   7   98377   17525  -2
  -1   8  10   98377   17525   1
   0   8  10  119426   12818   1
   1   8  10    1543    2238   1
   2   8  10  159104   16576   1
   3   8  10   84788   10325   1
   4   8  10   97823   17209   1
   5   8  10  155443    8244   1
   6   8  10     514    3357   1
   7   8  10  149625   13801   1
   0   9  10   24455    6369   1
   1   9  10  114858   47948   1
   2   9  10    7979    6821   1
   3   9  10   61140   18633   1
   4   9  10   82494    9242   1
   5   9  10    2908   16180   1
   6   9  10  115050   11897   1
   0  -4  11   73311   10071   1
   1  -4  11  105016   15073   1
   2  -4  11  208963   37227   1
   3  -4  11   -4352    6583   1
   4  -4  11  105378   11590   1
  -2  -3  11  116653   24211   1
  -1  -3  11   85638   15468   1
   0  -3  11   32081    5855   1
   1  -3  11  163613    8746   1
   2  -3  11   17516    6251   1
   3  -3  11  196306   31688   1
   4  -3  11   26605    6330   1
   5  -3  11   38388    9217   1
  -6   3   8   62331   17011  -2
   6  -3  11   62331   17011   1
  -2  -2  11  148882   10339   1
  -1  -2  11   76715   19306   1
   0  -2  11  314368   25082   1
   1  -2  11    1759    3604   1
   2  -2  11  216079   24528   1
   3  -2  11  158637   23539   1
  -4   2   9  141193   17763  -2
   4  -2  11  141193   17763   1
   5  -2  11  191150   19187   1
   6  -2  11     870    4352   1
   7  -2  11  125001   11590   1
  -3  -1  11   17558    6438   1
  -2  -1  11   55660    5855   1
  -1  -1  11  202531   20334   1
   0  -1  11   -1205    3355   1
   1  -1  11  305857   32677   1
  -2   1  10   69596    5895  -2
   2  -1  11   69596    5895   1
   3  -1  11  129199   21244   1
   4  -1  11   95709   11473   1
   5  -1  11    -158    2238   1
   6  -1  11  127942    7200   1
   7  -1  11   47659    9779   1
  -3   0  11   30797    8746   1
  -2   0  11  205115    9075   1
  -1   0  11   14382    3604   1
   0   0  11  254511    9806  -2
   0   0  11  254511    9806   1
   1   0  11  102402   12027   1
   2   0  11    8347    2797   1
   3   0  11  293760   25715   1
   4   0  11   28925    4589   1
   5   0  11  188782    9613   1
   6   0  11   22494    3950   1
   7   0  11   33379    4372   1
   8   0  11  119676   11850   1
  -3   1  11  127061   27534   1
   2  -1  12    3082    6725  -2
  -2   1  11    3082    6725   1
  -1   1  11  326017   10238   1
   0   1  11   88711    5585   1
   1   1  11  181554    7209   1
   2   1  11  150803    5855   1
   3   1  11    4629    2238   1
   4   1  11  286570   17249   1
   5   1  11   54750    4537   1
   6   1  11  133066    6583   1
   7   1  11  151350   16418   1
   8   1  11    7517    7273   1
  -3   2  11   -1003    8028   1
  -2   2  11  127621    7346   1
  -1   2  11   46661    7121   1
   0   2  11  191007   37543   1
   1   2  11  119967    5511   1
   2   2  11   62422    4168   1
   3   2  11  188466    6714   1
   4   2  11   25699   11552   1
   5   2  11   96076    6172   1
   6   2  11  197121   10602   1
  -7  -2   5   56168    5511  -2
   7   2  11   56168    5511   1
   8   2  11  164975   26427   1
  -3   3  11  153959   12931   1
  -2   3  11  112041   11789   1
  -1   3  11  135852    7991   1
   0   3  11  149837    7532   1
   1   3  11   14244    6528   1
   2   3  11  227704    6844   1
   3   3  11  152369    6078   1
   4   3  11  208524    6844   1
  -5  -3   6  156201    6710  -2
   5   3  11  156201    6710   1
   6   3  11   21500    4193   1
   7   3  11   77737    6488   1
   8   3  11   39030   10285   1
  -3   4  11   -4035   19464   1
  -2   4  11  169514   16180   1
  -1   4  11  219766   19978   1
   0   4  11   66026    5585   1
   1   4  11  302863   21205   1
   2   4  11    6869    3039   1
  -3  -4   7  118333   13134  -2
   3   4  11  118333   13134   1
   4   4  11  207662    7018   1
   5   4  11    1517    3219   1
   6   4  11  263416   15231   1
  -7  -4   4   26789    4673  -2
   7   4  11   26789    4673   1
   8   4  11  176359   19033   1
  -2   5  11   81144   12316   1
  -1   5  11   11897   17961   1
   0   5  11  186544   33904   1
  -1  -5   8   31179    2748  -2
   1   5  11   31179    2748   1
   2   5  11  118434    9099   1
   3   5  11   88906    5511   1
   4   5  11   17388    3916   1
  -5  -5   5  111713    8901  -2
   5   5  11  111713    8901   1
   6   5  11   16342    3604   1
   7   5  11  104358    8336   1
   8   5  11   95327   10859   1
  -2   6  11   -3569    7451   1
   1  -6   9  271502   12079  -2
  -1   6  11  271502   12079   1
   0   6  11   17552   10998   1
   1   6  11  125114    8822   1
   2   6  11  114654   13372   1
  -3  -6   6   25726    9613  -2
   3   6  11   25726    9613   1
   4   6  11  234902   12106   1
   5   6  11    8807    3604   1
   6   6  11  104180    7307   1
   7   6  11  128935   24172   1
   8   6  11   -5776    7608   1
  -1   7  11   10089   13490   1
   0   7  11  120797    7676   1
  -1  -7   7  103643   15943  -2
   1   7  11  103643   15943   1
   2   7  11   32507    4372   1
   3   7  11  109748    6438   1
   4   7  11   -3039    3039   1
   5   7  11  164068    7596   1
   6   7  11   39246    7477   1
   7   7  11   19147    7121   1
   0   8  11   58315   27534   1
   1   8  11   -4364    9297   1
   2   8  11   77622   11552   1
   3   8  11   28504    7517   1
   4   8  11   36432    5539   1
   5   8  11   28506    8347   1
   6   8  11   16493   11829   1
   3   9  11   59170   11306   1
   4   9  11  112868   13332   1
   1  -3  12   95383   22866   1
   2  -3  12   16770    5855   1
   3  -3  12  186920   17961   1
   4  -3  12   13519    7596   1
  -1  -2  12   60552    9732   1
   0  -2  12  183442   15033   1
   1  -2  12    7348    6416   1
   2  -2  12  161910   24370   1
   3  -2  12   83897   16141   1
  -4   2  10  140565    9975  -2
   4  -2  12  140565    9975   1
   5  -2  12   83764    9217   1
  -1  -1  12  134041   10167   1
   0  -1  12   27600    5035   1
   1  -1  12  359293   14717   1
  -2   1  11   11545    7200  -2
   2  -1  12   11545    7200   1
   3  -1  12  107502    6369   1
   4  -1  12   96043   11314   1
   5  -1  12   10044    5293   1
   6  -1  12  195150   11850   1
  -2   0  12   69643    8746   1
  -1   0  12   28160    6078   1
   0   0  12  185949   12294  -2
   0   0  12  185949   12294   1
   1   0  12   20574    5119   1
   2   0  12   64648    4476   1
   3   0  12   68737    4943   1
   4   0  12   35224    3916   1
   5   0  12   83003    6804   1
   6   0  12    3204    4476   1
   7   0  12   53785    9075   1
   2  -1  13    5732    7414  -2
  -2   1  12    5732    7414   1
  -1   1  12  281543   13212   1
   0   1  12   33932    5662   1
   1   1  12  172133   19385   1
   2   1  12  161963   15666   1
   3   1  12    6053    3357   1
   4   1  12  243006   23657   1
   5   1  12   13973    4787   1
   6   1  12  118972    7833   1
   7   1  12   87216   10533   1
  -2   2  12  134278   13174   1
  -1   2  12    1184    5121   1
   0   2  12  232827   30897   1
   1   2  12  163105    9059   1
   2   2  12   80124   13451   1
   3   2  12  142761    9930   1
   4   2  12    7768    3039   1
   5   2  12  122551    6409   1
   6   2  12  113615    7556   1
  -7  -2   6   85684   10586  -2
   7   2  12   85684   10586   1
   8   2  12  118695   11987   1
  -2   3  12    8304   11023   1
  -1   3  12   81855    8189   1
   0   3  12  118883    7852   1
   1   3  12    9607    2748   1
   2   3  12  190080    7537   1
   3   3  12    8862    2928   1
   4   3  12  125602    5697   1
  -5  -3   7   45535    4708  -2
   5   3  12   45535    4708   1
   6   3  12    8568    5420   1
   7   3  12  109012   10663   1
   8   3  12    1133    7773   1
  -1   4  12  187274   14154   1
   0   4  12   22424    5228   1
   1   4  12  144583    8098   1
   2   4  12    1705    4391   1
  -3  -4   8  103354    5496  -2
   3   4  12  103354    5496   1
   4   4  12  121606   15666   1
   5   4  12   44128    7358   1
   6   4  12  140067    8658   1
  -7  -4   5   24528    7200  -2
   7   4  12   24528    7200   1
   8   4  12   79448   13751   1
  -1   5  12   10128    9376   1
   0   5  12   94824   17249   1
   1   5  12   20820    5119   1
   2   5  12  122841    5855   1
   3   5  12   33565    3950   1
   4   5  12   60775    5380   1
  -5  -5   6  142390    8822  -2
   5   5  12  142390    8822   1
   6   5  12   -1306    5035   1
   7   5  12  125500   11023   1
   0   6  12     641   15468   1
   1   6  12   77983    6583   1
   2   6  12   64208    4310   1
  -3  -6   7   58995    5267  -2
   3   6  12   58995    5267   1
   4   6  12   98687    8229   1
   5   6  12    -146    3355   1
   6   6  12   65591    8899   1
   7   6  12   52789    7018   1
  -1  -7   8   55738   17961  -2
   1   7  12   55738   17961   1
   2   7  12   47172   21640   1
   3   7  12  109363   15073   1
   4   7  12   -8361   18000   1
   5   7  12  224378   23104   1
   6   7  12   23087   12739   1
   3   8  12   20866   15310   1
   4   8  12   63775    9826   1
   1  -1  13  181941   33073   1
  -2   1  12   -1084    6271  -2
   2  -1  13   -1084    6271   1
   3  -1  13   87596    7307   1
   4  -1  13   93984   17763   1
   0   0  13  134217   11631  -2
   0   0  13  134217   11631   1
   1   0  13     204    6644   1
   2   0  13  192076   12357   1
   3   0  13   24238    5162   1
   4   0  13   89850   15033   1
   5   0  13   95104    9462   1
   0   1  13    9189    7983   1
   1   1  13   75553   10586   1
   2   1  13   48360    5222   1
   3   1  13    7923    3798   1
   4   1  13   82601    5267   1
   5   1  13   -4021    6078   1
   6   1  13   73340    7900   1
   0   2  13  235254   16497   1
   1   2  13   71712    9665   1
   2   2  13   57528    4731   1
   3   2  13  122761    7209   1
   4   2  13    4035    4985   1
   5   2  13  199700   11170   1
   6   2  13   28990   14361   1
   0   3  13   18818    8466   1
   1   3  13   33420   14400   1
   2   3  13   85766   12145   1
   3   3  13   12517    4168   1
   4   3  13  113353    8347   1
  -5  -3   8    6862    5019  -2
   5   3  13    6862    5019   1
   6   3  13   54411    7710   1
   0   4  13   62934   18594   1
   1   4  13   69765   10148   1
   2   4  13   -6013    9495   1
   3   4  13  123274   11868   1
   4   4  13   54730    6804   1
   5   4  13   87542   10782   1
   6   4  13   88781    9345   1
   1   5  13   36940    8890   1
   2   5  13  108257   18040   1
   3   5  13    4301    5361   1
   4   5  13   59772    7018   1
  -5  -5   7  193053   25121  -2
   5   5  13  193053   25121   1
   6   5  13    -936    6251   1
   2   6  13   27870    9782   1
  -3  -6   8   95374   11146  -2
   3   6  13   95374   11146   1
   4   6  13   46508    8981   1
   5   6  13    3259    9416   1
   3   3  14   16710    8551   1
   4   3  14  102666   19622   1
;
_shelx_hkl_checksum              77844
loop_
_space_group_symop_operation_xyz
'x, y, z'
'-x, -y, -z'
loop_
_atom_site_label
_atom_site_type_symbol
_atom_site_fract_x
_atom_site_fract_y
_atom_site_fract_z
_atom_site_U_iso_or_equiv
_atom_site_adp_type
_atom_site_occupancy
_atom_site_site_symmetry_order
_atom_site_calc_flag
_atom_site_refinement_flags_posn
_atom_site_refinement_flags_adp
U1 U 0.70206(2) 0.20717(3) 0.04133(2) 0.02669(9) Uani 1 1 d . .
S1 S 1.12066(17) 0.1517(2) -0.16903(14) 0.0302(4) Uani 1 1 d . .
S2 S 0.69020(18) 0.5798(2) -0.17166(14) 0.0314(4) Uani 1 1 d . .
O1 O 0.8104(5) 0.2443(6) 0.1317(4) 0.0351(11) Uani 1 1 d . .
O2 O 0.5909(5) 0.1669(6) -0.0463(4) 0.0324(11) Uani 1 1 d . .
O3 O 0.5249(5) 0.0727(6) 0.2201(4) 0.0333(11) Uani 1 1 d . .
O4 O 0.9458(5) 0.1822(5) -0.1267(4) 0.0327(11) Uani 1 1 d . .
O5 O 1.1830(5) 0.0459(5) -0.0732(4) 0.0319(11) Uani 1 1 d . .
O6 O 1.1817(5) 0.1244(6) -0.2916(4) 0.0444(14) Uani 1 1 d . .
O7 O 0.7398(5) 0.4423(6) -0.0975(4) 0.0391(11) Uani 1 1 d . .
O8 O 0.5152(5) 0.6208(5) -0.1317(4) 0.0367(11) Uani 1 1 d . .
O9 O 0.7869(5) 0.6938(6) -0.1938(5) 0.0420(13) Uani 1 1 d . .
F1 F 1.3508(5) 0.3034(7) -0.1974(6) 0.0799(17) Uani 1 1 d . .
F2 F 1.1486(6) 0.4273(6) -0.2559(5) 0.0756(16) Uani 1 1 d . .
F3 F 1.1310(6) 0.3599(6) -0.0616(5) 0.0733(16) Uani 1 1 d . .
F4 F 0.8752(4) 0.4931(6) -0.3719(4) 0.0545(13) Uani 1 1 d . .
F5 F 0.6789(6) 0.6536(7) -0.4003(4) 0.0646(14) Uani 1 1 d . .
F6 F 0.6365(6) 0.4306(6) -0.3144(4) 0.0672(16) Uani 1 1 d . .
C1 C 0.3950(7) 0.0240(8) 0.2374(6) 0.0316(15) Uani 1 1 d . .
H1 H 0.3471 0.0468 0.1706 0.038 Uiso 1 1 calc R U
C2 C 0.3142(7) -0.0643(8) 0.3529(6) 0.0297(15) Uani 1 1 d . .
C3 C 0.3872(8) -0.1189(9) 0.4501(6) 0.0399(18) Uani 1 1 d . .
H3 H 0.4938 -0.1004 0.4401 0.048 Uiso 1 1 calc R U
C4 C 0.3020(8) -0.1987(10) 0.5589(6) 0.0452(19) Uani 1 1 d . .
H4 H 0.3500 -0.2351 0.6253 0.054 Uiso 1 1 calc R U
C5 C 0.1459(8) -0.2283(9) 0.5748(7) 0.0447(19) Uani 1 1 d . .
H5 H 0.0882 -0.2834 0.6517 0.054 Uiso 1 1 calc R U
C6 C 0.0758(8) -0.1771(9) 0.4786(7) 0.0413(18) Uani 1 1 d . .
H6 H -0.0305 -0.1969 0.4890 0.050 Uiso 1 1 calc R U
C7 C 0.1605(8) -0.0967(8) 0.3667(6) 0.0353(16) Uani 1 1 d . .
H7 H 0.1135 -0.0637 0.2995 0.042 Uiso 1 1 calc R U
C8 C 1.1921(9) 0.3230(9) -0.1709(8) 0.049(2) Uani 1 1 d . .
C9 C 0.7215(8) 0.5356(10) -0.3245(7) 0.0426(19) Uani 1 1 d . .
loop_
_atom_site_aniso_label
_atom_site_aniso_U_11
_atom_site_aniso_U_22
_atom_site_aniso_U_33
_atom_site_aniso_U_23
_atom_site_aniso_U_13
_atom_site_aniso_U_12
U1 0.02229(12) 0.02529(17) 0.02683(13) -0.00109(12) -0.00313(9) -0.00092(10)
S1 0.0229(7) 0.0294(11) 0.0305(8) 0.0015(8) -0.0034(6) -0.0010(7)
S2 0.0264(7) 0.0259(10) 0.0316(8) -0.0008(7) 0.0019(6) -0.0020(7)
O1 0.035(2) 0.042(3) 0.027(2) -0.004(2) -0.0069(19) -0.011(2)
O2 0.026(2) 0.037(3) 0.033(2) -0.002(2) -0.0118(19) 0.001(2)
O3 0.029(2) 0.029(3) 0.032(2) 0.003(2) -0.0013(18) -0.002(2)
O4 0.0214(19) 0.037(3) 0.030(2) -0.003(2) 0.0005(18) 0.001(2)
O5 0.026(2) 0.027(3) 0.034(2) 0.001(2) -0.0034(18) 0.003(2)
O6 0.034(2) 0.063(4) 0.026(2) -0.004(3) -0.0061(19) 0.008(3)
O7 0.039(2) 0.023(3) 0.039(2) 0.009(2) -0.001(2) 0.001(2)
O8 0.031(2) 0.027(3) 0.037(2) -0.005(2) 0.0092(19) -0.004(2)
O9 0.041(3) 0.032(3) 0.049(3) -0.006(3) -0.007(2) -0.007(2)
F1 0.039(2) 0.068(4) 0.125(5) 0.016(4) -0.030(3) -0.025(3)
F2 0.076(3) 0.040(4) 0.104(4) 0.032(3) -0.045(3) -0.017(3)
F3 0.094(4) 0.064(4) 0.075(3) -0.025(3) -0.028(3) -0.018(3)
F4 0.036(2) 0.073(4) 0.048(2) -0.030(3) 0.0100(19) -0.004(2)
F5 0.063(3) 0.083(4) 0.043(2) -0.004(3) -0.019(2) 0.000(3)
F6 0.062(3) 0.078(5) 0.066(3) -0.036(3) 0.004(2) -0.030(3)
C1 0.033(3) 0.026(4) 0.033(3) -0.009(3) -0.008(3) 0.003(3)
C2 0.028(3) 0.024(4) 0.032(3) -0.009(3) 0.002(3) -0.004(3)
C3 0.030(3) 0.050(5) 0.039(4) -0.013(4) -0.006(3) -0.003(3)
C4 0.045(4) 0.052(6) 0.034(4) 0.006(4) -0.010(3) -0.014(4)
C5 0.043(4) 0.041(5) 0.035(4) 0.001(4) 0.005(3) -0.007(4)
C6 0.033(3) 0.035(5) 0.054(4) -0.016(4) -0.001(3) -0.010(3)
C7 0.037(3) 0.032(5) 0.040(4) -0.011(4) -0.010(3) -0.010(3)
C8 0.038(4) 0.029(5) 0.072(5) 0.018(4) -0.022(4) -0.012(4)
C9 0.032(3) 0.049(6) 0.041(4) -0.006(4) -0.003(3) -0.008(4)
loop_
_atom_type_symbol
_atom_type_description
_atom_type_scat_dispersion_real
_atom_type_scat_dispersion_imag
_atom_type_scat_source
C C 0.0033 0.0016 'International Tables Vol C Tables 4.2.6.8 and 6.1.1.4'
H H 0.0000 0.0000 'International Tables Vol C Tables 4.2.6.8 and 6.1.1.4'
F F 0.0171 0.0103 'International Tables Vol C Tables 4.2.6.8 and 6.1.1.4'
O O 0.0106 0.0060 'International Tables Vol C Tables 4.2.6.8 and 6.1.1.4'
S S 0.1246 0.1234 'International Tables Vol C Tables 4.2.6.8 and 6.1.1.4'
U U -9.6767 9.6646 'International Tables Vol C Tables 4.2.6.8 and 6.1.1.4'
loop_
_geom_angle_atom_site_label_1
_geom_angle_atom_site_label_2
_geom_angle_atom_site_label_3
_geom_angle
_geom_angle_site_symmetry_1
_geom_angle_site_symmetry_3
O1 U1 O2 178.6(2) . .
O1 U1 O3 92.03(18) . .
O2 U1 O3 86.62(18) . .
O1 U1 O8 87.48(18) . 2_665
O2 U1 O8 92.36(17) . 2_665
O3 U1 O8 72.13(16) . 2_665
O1 U1 O5 89.8(2) . 2_755
O2 U1 O5 89.54(19) . 2_755
O3 U1 O5 71.33(15) . 2_755
O8 U1 O5 143.22(15) 2_665 2_755
O1 U1 O4 90.86(16) . .
O2 U1 O4 90.06(16) . .
O3 U1 O4 143.49(16) . .
O8 U1 O4 144.37(16) 2_665 .
O5 U1 O4 72.30(15) 2_755 .
O1 U1 O7 91.4(2) . .
O2 U1 O7 89.9(2) . .
O3 U1 O7 145.36(15) . .
O8 U1 O7 73.60(15) 2_665 .
O5 U1 O7 143.16(14) 2_755 .
O4 U1 O7 70.87(15) . .
O6 S1 O4 114.5(3) . .
O6 S1 O5 116.1(3) . .
O4 S1 O5 111.2(3) . .
O6 S1 C8 106.9(4) . .
O4 S1 C8 103.7(3) . .
O5 S1 C8 102.9(3) . .
O9 S2 O7 115.1(3) . .
O9 S2 O8 115.8(3) . .
O7 S2 O8 112.1(3) . .
O9 S2 C9 105.7(3) . .
O7 S2 C9 103.8(3) . .
O8 S2 C9 102.5(3) . .
C1 O3 U1 133.2(4) . .
S1 O4 U1 149.5(3) . .
S1 O5 U1 137.5(3) . 2_755
S2 O7 U1 155.5(3) . .
S2 O8 U1 146.6(3) . 2_665
O3 C1 C2 123.4(6) . .
O3 C1 H1 118.3 . .
C2 C1 H1 118.3 . .
C7 C2 C3 120.2(7) . .
C7 C2 C1 118.2(6) . .
C3 C2 C1 121.7(6) . .
C4 C3 C2 118.7(6) . .
C4 C3 H3 120.6 . .
C2 C3 H3 120.6 . .
C3 C4 C5 121.5(7) . .
C3 C4 H4 119.3 . .
C5 C4 H4 119.3 . .
C6 C5 C4 119.7(7) . .
C6 C5 H5 120.2 . .
C4 C5 H5 120.2 . .
C5 C6 C7 119.9(6) . .
C5 C6 H6 120.1 . .
C7 C6 H6 120.1 . .
C6 C7 C2 120.0(6) . .
C6 C7 H7 120.0 . .
C2 C7 H7 120.0 . .
F2 C8 F3 109.5(7) . .
F2 C8 F1 109.5(7) . .
F3 C8 F1 109.3(7) . .
F2 C8 S1 109.5(6) . .
F3 C8 S1 110.1(6) . .
F1 C8 S1 108.9(6) . .
F6 C9 F4 109.2(6) . .
F6 C9 F5 109.8(6) . .
F4 C9 F5 108.3(6) . .
F6 C9 S2 110.6(5) . .
F4 C9 S2 109.7(5) . .
F5 C9 S2 109.2(6) . .
loop_
_geom_bond_atom_site_label_1
_geom_bond_atom_site_label_2
_geom_bond_distance
_geom_bond_site_symmetry_2
U1 O1 1.739(4) .
U1 O2 1.747(4) .
U1 O3 2.391(4) .
U1 O8 2.408(4) 2_665
U1 O5 2.409(5) 2_755
U1 O4 2.410(4) .
U1 O7 2.413(5) .
S1 O6 1.412(4) .
S1 O4 1.453(4) .
S1 O5 1.469(5) .
S1 C8 1.835(9) .
S2 O9 1.419(5) .
S2 O7 1.448(5) .
S2 O8 1.465(4) .
S2 C9 1.831(7) .
O3 C1 1.248(8) .
O5 U1 2.409(5) 2_755
O8 U1 2.408(4) 2_665
F1 C8 1.316(8) .
F2 C8 1.305(9) .
F3 C8 1.308(9) .
F4 C9 1.313(7) .
F5 C9 1.314(10) .
F6 C9 1.310(9) .
C1 C2 1.433(9) .
C1 H1 0.9500 .
C2 C7 1.390(9) .
C2 C3 1.405(9) .
C3 C4 1.363(10) .
C3 H3 0.9500 .
C4 C5 1.396(10) .
C4 H4 0.9500 .
C5 C6 1.376(10) .
C5 H5 0.9500 .
C6 C7 1.386(10) .
C6 H6 0.9500 .
C7 H7 0.9500 .
