#------------------------------------------------------------------------------
#$Date: 2019-11-10 19:13:32 +0200 (Sun, 10 Nov 2019) $
#$Revision: 226013 $
#$URL: file:///home/coder/svn-repositories/cod/cif/4/51/59/4515937.cif $
#------------------------------------------------------------------------------
#
# This file is available in the Crystallography Open Database (COD),
# http://www.crystallography.net/
#
# All data on this site have been placed in the public domain by the
# contributors.
#
data_4515937
loop_
_publ_author_name
'Fard, Mahmood A.'
'Behnia, Ava'
'Puddephatt, Richard J.'
_publ_section_title
;
 Supramolecular Polymer and Sheet and a Double Cubane Structure in
 Platinum(IV) Iodide Chemistry: Solution of a Longstanding Puzzle.
;
_journal_issue                   8
_journal_name_full               'ACS omega'
_journal_page_first              10267
_journal_page_last               10272
_journal_paper_doi               10.1021/acsomega.8b01367
_journal_volume                  3
_journal_year                    2018
_chemical_formula_sum            'C10 H30 I6 Pt4'
_chemical_formula_weight         1692.10
_space_group_crystal_system      triclinic
_space_group_IT_number           2
_space_group_name_Hall           '-P 1'
_space_group_name_H-M_alt        'P -1'
_atom_sites_solution_hydrogens   geom
_atom_sites_solution_primary     dual
_atom_sites_solution_secondary   difmap
_audit_creation_method           SHELXL-2016/6
_cell_angle_alpha                92.018(17)
_cell_angle_beta                 113.755(14)
_cell_angle_gamma                106.974(19)
_cell_formula_units_Z            1
_cell_length_a                   8.361(3)
_cell_length_b                   8.630(4)
_cell_length_c                   10.095(4)
_cell_measurement_reflns_used    6778
_cell_measurement_temperature    163
_cell_measurement_theta_max      35.01
_cell_measurement_theta_min      2.51
_cell_volume                     627.9(5)
_computing_cell_refinement       SAINT
_computing_data_collection       Apex2
_computing_data_reduction        SAINT
_computing_molecular_graphics    Mercury
_computing_publication_material  cif2tables.py
_computing_structure_refinement  SHELXL
_computing_structure_solution    SHELXT
_diffrn_ambient_temperature      163
_diffrn_detector                 'CCD plate'
_diffrn_detector_type            'Bruker Apex2'
_diffrn_measured_fraction_theta_full 0.998
_diffrn_measured_fraction_theta_max 0.989
_diffrn_measurement_device       '\k-geometry diffractometer'
_diffrn_measurement_device_type  'Bruker Kappa Axis Apex2'
_diffrn_measurement_method       'phi and omega scans'
_diffrn_radiation_type           MoK\a
_diffrn_radiation_wavelength     0.71073
_diffrn_reflns_av_R_equivalents  0.0349
_diffrn_reflns_av_unetI/netI     0.0425
_diffrn_reflns_Laue_measured_fraction_full 0.998
_diffrn_reflns_Laue_measured_fraction_max 0.989
_diffrn_reflns_limit_h_max       13
_diffrn_reflns_limit_h_min       -13
_diffrn_reflns_limit_k_max       13
_diffrn_reflns_limit_k_min       -13
_diffrn_reflns_limit_l_max       16
_diffrn_reflns_limit_l_min       -16
_diffrn_reflns_number            19504
_diffrn_reflns_point_group_measured_fraction_full 0.998
_diffrn_reflns_point_group_measured_fraction_max 0.989
_diffrn_reflns_theta_full        25.242
_diffrn_reflns_theta_max         35.146
_diffrn_reflns_theta_min         3.086
_diffrn_source                   'sealed tube'
_exptl_absorpt_coefficient_mu    29.581
_exptl_absorpt_correction_T_max  0.7469
_exptl_absorpt_correction_T_min  0.3911
_exptl_absorpt_correction_type   multi-scan
_exptl_absorpt_process_details   SADABS
_exptl_crystal_colour            orange
_exptl_crystal_density_diffrn    4.476
_exptl_crystal_description       blcok
_exptl_crystal_F_000             720
_exptl_crystal_size_max          0.172
_exptl_crystal_size_mid          0.131
_exptl_crystal_size_min          0.062
_refine_diff_density_max         2.812
_refine_diff_density_min         -2.988
_refine_diff_density_rms         0.418
_refine_ls_extinction_coef       0.00053(6)
_refine_ls_extinction_expression Fc^*^=kFc[1+0.001xFc^2^\l^3^/sin(2\q)]^-1/4^
_refine_ls_extinction_method     'SHELXL-2016/6 (Sheldrick 2016)'
_refine_ls_goodness_of_fit_ref   1.098
_refine_ls_hydrogen_treatment    constr
_refine_ls_matrix_type           full
_refine_ls_number_parameters     97
_refine_ls_number_reflns         5529
_refine_ls_number_restraints     0
_refine_ls_restrained_S_all      1.098
_refine_ls_R_factor_all          0.0462
_refine_ls_R_factor_gt           0.0333
_refine_ls_shift/su_max          0.002
_refine_ls_shift/su_mean         0.000
_refine_ls_structure_factor_coef Fsqd
_refine_ls_weighting_details
'w=1/[\s^2^(Fo^2^)+(0.0189P)^2^+3.2612P] where P=(Fo^2^+2Fc^2^)/3'
_refine_ls_weighting_scheme      calc
_refine_ls_wR_factor_gt          0.0637
_refine_ls_wR_factor_ref         0.0668
_reflns_Friedel_coverage         0.000
_reflns_number_gt                4434
_reflns_number_total             5529
_reflns_threshold_expression     'I > 2\s(I)'
_cod_data_source_file            ao8b01367_si_002.cif
_cod_data_source_block           complex_8
_cod_original_cell_volume        627.8(4)
_cod_database_code               4515937
_shelx_shelxl_version_number     2016/6
_shelx_space_group_comment
;
The symmetry employed for this shelxl refinement is uniquely defined
by the following loop, which should always be used as a source of
symmetry information in preference to the above space-group names.
They are only intended as comments.
;
_shelx_estimated_absorpt_t_min   0.080
_shelx_estimated_absorpt_t_max   0.261
_shelx_res_file
;
TITL b18150 in P-1
    b18150.res
    created by SHELXL-2016/6 at 14:45:49 on 16-Oct-2017
CELL 0.71073 8.36097    8.62962   10.09467   92.0176  113.7548  106.9740
ZERR     1   0.00263    0.00416    0.00380    0.0174    0.0137    0.0185
LATT 1
SFAC C   H I Pt
UNIT 10 30 6  4
SIZE 0.062 0.131 0.172
TEMP -110
ACTA
L.S. 12
FMAP  2
PLAN 20
BOND $H
HTAB
CONF
WGHT    0.018900    3.261200
EXTI    0.000534
FVAR       0.05938
PT1   4    0.496559    0.250650    0.762657    11.00000    0.01254    0.01052 =
         0.01107    0.00263    0.00469    0.00326
PT2   4    0.232066    0.363618    0.366582    11.00000    0.00967    0.00944 =
         0.01077    0.00161    0.00340    0.00228
I1    3    0.291794    0.098238    0.466496    11.00000    0.01573    0.00861 =
         0.01328    0.00161    0.00469    0.00262
I2    3    0.430051    0.534505    0.659311    11.00000    0.01186    0.01060 =
         0.01195    0.00164    0.00515    0.00366
I3    3    0.174374    0.633442    0.273049    11.00000    0.01283    0.01299 =
         0.01673    0.00501    0.00593    0.00577
C1    1    0.547333    0.037326    0.829693    11.00000    0.03064    0.01796 =
         0.02536    0.01294    0.02163    0.01507
AFIX 137
H1A   2    0.664204    0.036799    0.829322    11.00000   -1.50000
H1B   2    0.445742   -0.059138    0.762076    11.00000   -1.50000
H1C   2    0.555939    0.033962    0.929217    11.00000   -1.50000
AFIX   0
C2    1    0.640582    0.359784    0.981681    11.00000    0.01990    0.01832 =
         0.00795    0.00082    0.00344    0.00294
AFIX 137
H2A   2    0.611943    0.459671    0.995886    11.00000   -1.50000
H2B   2    0.774025    0.388506    1.011240    11.00000   -1.50000
H2C   2    0.604069    0.282921    1.041772    11.00000   -1.50000
AFIX   0
C3    1    0.260821    0.179551    0.799507    11.00000    0.01414    0.00995 =
         0.02135    0.00174    0.00823    0.00585
AFIX 137
H3A   2    0.285156    0.127521    0.887052    11.00000   -1.50000
H3B   2    0.158251    0.101068    0.714216    11.00000   -1.50000
H3C   2    0.227650    0.276465    0.814669    11.00000   -1.50000
AFIX   0
C4    1   -0.018178    0.295417    0.381588    11.00000    0.01144    0.01545 =
         0.02724    0.00213    0.00944    0.00332
AFIX 137
H4A   2   -0.072130    0.175131    0.362100    11.00000   -1.50000
H4B   2   -0.103395    0.340951    0.309184    11.00000   -1.50000
H4C   2    0.002581    0.337897    0.480579    11.00000   -1.50000
AFIX   0
C5    1    0.095242    0.232505    0.154784    11.00000    0.01596    0.01771 =
         0.01313   -0.00139   -0.00024    0.00354
AFIX 137
H5A   2    0.169673    0.171119    0.138914    11.00000   -1.50000
H5B   2    0.076324    0.308722    0.084782    11.00000   -1.50000
H5C   2   -0.025211    0.155445    0.140133    11.00000   -1.50000
AFIX   0
HKLF 4




REM  b18150 in P-1
REM R1 =  0.0333 for    4434 Fo > 4sig(Fo)  and  0.0462 for all    5529 data
REM     97 parameters refined using      0 restraints

END

WGHT      0.0192      3.2186

REM No hydrogen bonds found for HTAB generation

REM Highest difference peak  2.812,  deepest hole -2.988,  1-sigma level  0.418
Q1    1   0.0000  0.0000  0.5000  10.50000  0.05    2.81
Q2    1   0.7204  0.1017  1.0998  11.00000  0.05    2.11
Q3    1   1.0000  0.5000  1.0000  10.50000  0.05    2.04
Q4    1   0.9536  0.5369  1.0471  11.00000  0.05    2.02
Q5    1   0.3555  0.3077  1.0539  11.00000  0.05    1.85
Q6    1   0.5353 -0.0552  0.7780  11.00000  0.05    1.76
Q7    1   0.3571  0.1473  0.4728  11.00000  0.05    1.76
Q8    1   0.2455  0.5097  0.3695  11.00000  0.05    1.72
Q9    1   0.0996  0.4153  0.6873  11.00000  0.05    1.70
Q10   1   0.5257  0.4609  0.6827  11.00000  0.05    1.69
Q11   1   0.0146  0.2040  0.0672  11.00000  0.05    1.68
Q12   1   0.2026  0.2306  0.3576  11.00000  0.05    1.68
Q13   1  -0.1057  0.2424  0.4069  11.00000  0.05    1.67
Q14   1   0.4745  0.1183  0.7674  11.00000  0.05    1.66
Q15   1   0.4420 -0.0626  0.8535  11.00000  0.05    1.62
Q16   1   0.3576  0.3477  0.3605  11.00000  0.05    1.61
Q17   1   0.1563  0.5162  0.2800  11.00000  0.05    1.61
Q18   1   0.5425  0.1775  0.4495  11.00000  0.05    1.60
Q19   1   0.5404  0.3377  1.0298  11.00000  0.05    1.59
Q20   1   0.1233  0.4102  0.3381  11.00000  0.05    1.56
;
_shelx_res_checksum              92230
_shelx_hkl_file
;
  -2   0   0   12.69    0.48
  -2   0   0   12.10    0.51
  -2   0   0   12.63    0.47
  -2   0   0   12.77    0.71
  -2   0   0   13.22    0.48
  -2   0   0   12.31    0.44
   2   0   0   11.38    0.68
   2   0   0   12.83    0.69
   2   0   0   12.60    0.50
   2   0   0   11.29    0.73
  -3   0   0  137.26    3.93
  -3   0   0  140.54    3.93
  -3   0   0  134.76    3.98
  -3   0   0  140.45    3.93
  -3   0   0  134.12    3.88
   3   0   0  133.05    4.32
   3   0   0  132.62    4.39
   3   0   0  127.28    4.50
   3   0   0  135.60    3.98
  -4   0   0  162.07    4.62
  -4   0   0  159.15    4.68
  -4   0   0  155.78    4.59
  -4   0   0  156.27    4.60
  -4   0   0  157.22    4.56
   4   0   0  152.93    5.12
   4   0   0  156.20    5.25
  -5   0   0    1.81    0.28
  -5   0   0    1.69    0.31
  -5   0   0    1.77    0.32
  -5   0   0    2.01    0.33
  -5   0   0    2.91    0.37
   5   0   0    3.29    0.79
   5   0   0    2.44    0.65
  -6   0   0    1.60    0.35
  -6   0   0    1.20    0.28
  -6   0   0    1.52    0.34
  -6   0   0    0.66    0.30
   6   0   0    1.28    0.60
   6   0   0    0.94    0.57
  -7   0   0    5.00    0.61
  -7   0   0    5.90    0.67
  -7   0   0    4.83    0.62
  -7   0   0    5.41    0.60
   7   0   0    5.36    1.12
   7   0   0    4.43    1.04
  -8   0   0    3.21    0.58
  -8   0   0    2.03    0.47
  -8   0   0    2.59    0.56
   8   0   0    2.62    0.96
  -9   0   0    2.55    0.60
  -9   0   0    2.67    0.60
  -9   0   0    2.53    0.54
   9   0   0    2.30    1.04
 -10   0   0    4.79    0.83
 -10   0   0    3.56    0.68
 -10   0   0    2.82    0.66
  10   0   0    5.13    1.64
 -11   0   0   12.08    1.29
 -11   0   0    9.77    1.19
  11   0   0    7.55    1.96
  11  -1   0    4.49    1.66
 -11   1   0    5.77    0.89
 -11   1   0    6.80    0.91
  10  -1   0   24.01    3.13
 -10   1   0   17.30    1.19
 -10   1   0   19.11    1.24
 -10   1   0   20.47    1.26
   9  -1   0    0.22    0.68
  -9   1   0    1.22    0.43
  -9   1   0    2.06    0.55
  -9   1   0    0.98    0.45
   8  -1   0    9.08    1.46
   8  -1   0    7.09    1.42
  -8   1   0    8.66    0.81
  -8   1   0    7.82    0.64
  -8   1   0    7.58    0.73
  -8   1   0    7.70    0.74
   7  -1   0    7.47    1.32
   7  -1   0    7.14    1.29
  -7   1   0    6.78    0.55
  -7   1   0    6.19    0.62
  -7   1   0    8.30    0.74
  -7   1   0    7.11    0.58
   6  -1   0    9.74    1.36
   6  -1   0   11.21    1.44
  -6   1   0    6.83    0.50
  -6   1   0    7.53    0.51
  -6   1   0    7.72    0.53
  -6   1   0    7.07    0.52
   5  -1   0    8.44    1.13
   5  -1   0    8.20    1.10
  -5   1   0    5.90    0.41
  -5   1   0    5.86    0.39
  -5   1   0    6.30    0.43
  -5   1   0    6.27    0.44
   4  -1   0    9.16    0.48
   4  -1   0   10.43    0.83
   4  -1   0    9.10    0.79
  -4   1   0    8.88    0.43
  -4   1   0    9.56    0.45
  -4   1   0   10.10    0.64
  -4   1   0    9.18    0.47
   3  -1   0    0.13    0.28
   3  -1   0    0.11    0.11
   3  -1   0    0.15    0.27
  -3   1   0    0.21    0.13
  -3   1   0    0.16    0.14
  -3   1   0   -0.10    0.09
  -3   1   0   -0.04    0.14
   2  -1   0    3.08    0.46
   2  -1   0    3.09    0.45
   2  -1   0    4.77    0.51
  -2   1   0    2.73    0.21
  -2   1   0    5.75    0.61
  -2   1   0    3.20    0.19
  -2   1   0    2.90    0.15
  -2   1   0    2.66    0.24
   1  -1   0   22.47    0.73
  -1  -1   0   24.63    0.86
  -1  -1   0   26.33    0.92
  -1  -1   0   24.41    0.86
  -1  -1   0   25.41    0.84
  -1  -1   0   24.60    0.89
   1   1   0   26.83    1.00
   1   1   0   25.17    0.90
   1   1   0   25.42    1.04
   1   1   0   25.51    0.99
  -2  -1   0    5.26    0.47
  -2  -1   0    5.72    0.31
  -2  -1   0    5.18    0.32
  -2  -1   0    4.81    0.32
  -2  -1   0    5.10    0.36
  -2  -1   0    4.66    0.36
   2   1   0    5.78    0.37
   2   1   0    4.61    0.42
   2   1   0    6.33    0.80
   2   1   0    5.30    0.49
  -3  -1   0  215.14    6.25
  -3  -1   0  215.93    6.30
  -3  -1   0  216.97    6.36
  -3  -1   0  220.89    6.41
  -3  -1   0  222.44    6.31
   3   1   0  221.38    6.35
   3   1   0  215.92    6.62
   3   1   0  223.67    6.82
  -4  -1   0   11.39    0.64
  -4  -1   0   10.34    0.59
  -4  -1   0   10.13    0.64
  -4  -1   0   11.15    0.60
  -4  -1   0   10.79    0.57
   4   1   0   11.68    0.96
   4   1   0   10.75    0.83
   4   1   0    9.82    0.61
  -5  -1   0  204.59    6.03
  -5  -1   0  200.09    5.97
  -5  -1   0  199.21    5.92
  -5  -1   0  198.47    6.07
  -5  -1   0  205.89    5.99
   5   1   0  193.82    6.77
   5   1   0  203.12    5.98
   5   1   0  200.14    6.53
  -6  -1   0   11.62    0.75
  -6  -1   0   11.67    0.75
  -6  -1   0   11.47    0.81
  -6  -1   0   13.11    0.75
  -6  -1   0   11.58    0.77
   6   1   0   15.24    1.78
   6   1   0   11.66    1.11
  -7  -1   0   23.33    1.25
  -7  -1   0   24.61    1.22
  -7  -1   0   24.38    1.19
  -7  -1   0   23.96    1.30
  -7  -1   0   22.96    1.19
   7   1   0   24.36    1.95
  -8  -1   0   12.70    0.96
  -8  -1   0   14.40    0.99
  -8  -1   0   14.40    0.97
   8   1   0   19.07    2.40
  -9  -1   0   22.59    1.38
  -9  -1   0   24.89    1.41
  -9  -1   0   25.79    1.47
   9   1   0   24.63    2.37
 -10  -1   0    0.27    0.48
 -10  -1   0    0.69    0.55
 -10  -1   0    0.83    0.50
  10   1   0    1.03    1.04
 -11  -1   0   -0.63    0.61
 -11  -1   0    0.15    0.62
 -11  -1   0   -0.50    0.47
  11   1   0    0.67    1.06
  12  -2   0    3.57    1.75
 -12   2   0    1.81    0.63
  11  -2   0   10.33    2.28
 -11   2   0    8.92    1.03
 -11   2   0    8.30    1.00
  10  -2   0   54.33    3.81
 -10   2   0   56.37    2.26
 -10   2   0   58.89    2.27
 -10   2   0   51.10    2.24
   9  -2   0    0.22    0.81
   9  -2   0    0.44    0.68
  -9   2   0    0.71    0.36
  -9   2   0    0.48    0.38
  -9   2   0    1.26    0.42
   8  -2   0    0.14    0.61
   8  -2   0    0.25    0.71
  -8   2   0    0.46    0.30
  -8   2   0    0.69    0.34
  -8   2   0   -0.06    0.26
  -8   2   0    0.33    0.27
   7  -2   0  232.23    7.94
   7  -2   0  224.17    8.00
  -7   2   0  228.84    6.73
  -7   2   0  218.04    6.69
  -7   2   0  229.35    6.73
  -7   2   0  229.93    6.69
   6  -2   0  177.07    6.10
   6  -2   0  170.43    6.10
  -6   2   0  162.07    5.06
  -6   2   0  170.13    5.03
  -6   2   0  176.30    5.11
   5  -2   0    0.09    0.35
   5  -2   0    0.50    0.44
  -5   2   0    0.20    0.23
  -5   2   0    0.20    0.21
  -5   2   0    0.54    0.16
  -5   2   0    0.41    0.20
   4  -2   0   42.16    1.89
   4  -2   0   42.94    1.43
   4  -2   0   41.14    1.93
  -4   2   0   42.12    1.42
  -4   2   0   43.99    1.46
  -4   2   0   42.73    1.56
  -4   2   0   43.11    1.36
   3  -2   0  157.95    4.97
   3  -2   0  151.54    4.83
   3  -2   0  149.75    4.61
  -3   2   0  160.23    4.48
  -3   2   0  158.38    4.59
  -3   2   0  154.19    4.49
  -3   2   0  156.68    4.41
  -3   2   0  154.70    4.52
   2  -2   0   42.92    1.63
   2  -2   0   43.94    1.51
   2  -2   0   42.31    1.41
  -2   2   0   42.46    1.39
  -2   2   0   41.73    1.39
  -2   2   0   42.94    1.59
  -2   2   0   43.50    1.41
  -2   2   0   44.56    1.41
   1  -2   0   25.90    0.94
   1  -2   0   24.63    0.94
   1  -2   0   23.65    0.93
  -1   2   0   24.64    0.92
  -1   2   0   24.27    0.91
  -1   2   0   24.37    0.93
  -1   2   0   24.12    0.93
   0  -2   0   17.84    0.80
   0  -2   0   17.72    0.79
   0  -2   0   17.50    0.87
   0   2   0   17.51    0.76
   0   2   0   18.09    0.73
  -1  -2   0    6.33    0.47
  -1  -2   0    5.67    0.43
  -1  -2   0    6.37    0.40
  -1  -2   0    6.04    0.43
  -1  -2   0    5.52    0.43
   1   2   0    6.04    0.51
   1   2   0    6.83    0.52
   1   2   0    5.36    0.46
  -2  -2   0    8.11    0.53
  -2  -2   0    7.09    0.44
  -2  -2   0    7.26    0.55
  -2  -2   0    7.52    0.48
  -2  -2   0    7.46    0.47
   2   2   0    6.54    0.49
   2   2   0    7.39    0.62
   2   2   0    7.21    0.65
  -3  -2   0    5.80    0.43
  -3  -2   0    6.12    0.51
  -3  -2   0    6.12    0.46
  -3  -2   0    6.03    0.59
  -3  -2   0    4.97    0.55
   3   2   0    7.00    0.90
   3   2   0    8.83    0.77
  -4  -2   0   51.97    1.99
  -4  -2   0   52.84    2.05
  -4  -2   0   56.06    1.96
  -4  -2   0   53.51    1.95
  -4  -2   0   54.94    1.89
   4   2   0   55.53    2.00
   4   2   0   51.03    2.41
  -5  -2   0  104.79    3.39
  -5  -2   0  103.43    3.31
  -5  -2   0  100.06    3.36
  -5  -2   0   99.30    3.46
  -5  -2   0  101.33    3.43
   5   2   0   98.46    4.06
   5   2   0  104.78    3.39
  -6  -2   0    1.50    0.39
  -6  -2   0    1.99    0.48
  -6  -2   0    1.34    0.42
  -6  -2   0    2.33    0.48
  -6  -2   0    1.50    0.42
   6   2   0    1.84    0.71
  -7  -2   0    2.30    0.52
  -7  -2   0    2.72    0.54
  -7  -2   0    1.61    0.49
  -7  -2   0    3.04    0.60
   7   2   0    2.23    0.91
  -8  -2   0  135.73    4.63
  -8  -2   0  133.92    4.63
  -8  -2   0  134.73    4.56
  -8  -2   0  136.36    4.73
   8   2   0  130.75    5.88
  -9  -2   0   51.71    2.39
  -9  -2   0   51.81    2.34
  -9  -2   0   51.38    2.36
   9   2   0   50.08    3.48
 -10  -2   0    3.13    0.85
 -10  -2   0    1.99    0.79
 -10  -2   0    3.42    0.83
  10   2   0    2.04    1.21
  12  -3   0   -0.49    1.28
 -12   3   0    0.71    0.59
 -12   3   0    1.14    0.59
  11  -3   0   -0.75    1.00
 -11   3   0    0.63    0.48
 -11   3   0    0.67    0.47
  10  -3   0    0.56    0.84
 -10   3   0    0.70    0.42
 -10   3   0    0.40    0.43
 -10   3   0    0.27    0.40
   9  -3   0    1.19    0.95
   9  -3   0    0.75    0.77
  -9   3   0    1.49    0.45
  -9   3   0    1.24    0.42
  -9   3   0    1.08    0.44
   8  -3   0    8.98    1.57
   8  -3   0    6.14    1.35
  -8   3   0    5.32    0.60
  -8   3   0    6.44    0.70
  -8   3   0    6.32    0.72
  -8   3   0    6.44    0.70
   7  -3   0   75.68    3.62
   7  -3   0   73.61    3.57
  -7   3   0   78.18    2.62
  -7   3   0   80.73    2.54
  -7   3   0   74.77    2.58
   6  -3   0    4.18    0.90
   6  -3   0    3.34    0.86
  -6   3   0    3.85    0.40
  -6   3   0    2.73    0.40
  -6   3   0    4.35    0.52
   5  -3   0   46.06    2.19
   5  -3   0   46.52    2.29
  -5   3   0   50.72    1.81
  -5   3   0   48.07    1.58
  -5   3   0   48.35    1.66
  -5   3   0   48.34    1.70
  -5   3   0   45.25    1.66
   4  -3   0  121.54    3.76
   4  -3   0  119.12    4.06
   4  -3   0  112.62    4.17
  -4   3   0  121.71    3.71
  -4   3   0  120.06    3.54
  -4   3   0  125.33    3.67
  -4   3   0  118.42    3.65
  -4   3   0  118.72    3.67
   3  -3   0  225.06    6.77
   3  -3   0  225.24    6.96
   3  -3   0  229.50    6.49
   3  -3   0  227.25    6.58
  -3   3   0  225.96    6.59
  -3   3   0  229.17    6.55
  -3   3   0  222.04    6.56
   2  -3   0   90.14    2.80
   2  -3   0   90.15    2.78
   2  -3   0   87.89    2.80
   2  -3   0   91.20    2.97
   2  -3   0   88.51    2.78
  -2   3   0   86.47    2.75
  -2   3   0   87.66    2.81
  -2   3   0   92.06    2.85
   1  -3   0   92.26    2.90
   1  -3   0   98.08    3.07
   1  -3   0   91.56    3.05
  -1   3   0   95.12    3.02
  -1   3   0   95.81    3.05
  -1   3   0   97.45    3.01
   0  -3   0   31.76    1.35
   0  -3   0   31.22    1.35
   0  -3   0   33.45    1.35
   0   3   0   36.38    1.36
   0   3   0   31.51    1.29
   0   3   0   31.24    1.24
  -1  -3   0    2.35    0.44
  -1  -3   0    3.70    0.37
  -1  -3   0    3.20    0.47
  -1  -3   0    4.32    0.54
  -1  -3   0    4.04    0.54
   1   3   0    4.41    0.56
   1   3   0    3.97    0.55
  -2  -3   0   48.31    1.79
  -2  -3   0   48.24    1.83
  -2  -3   0   48.23    1.82
  -2  -3   0   49.69    1.85
  -2  -3   0   50.42    1.82
   2   3   0   47.40    2.01
   2   3   0   48.46    1.85
  -3  -3   0   13.45    0.85
  -3  -3   0   13.64    0.91
  -3  -3   0   13.47    0.82
  -3  -3   0   13.94    0.81
  -3  -3   0   14.71    0.81
   3   3   0   14.41    0.86
   3   3   0   12.56    1.00
  -4  -3   0    7.89    0.85
  -4  -3   0    7.29    0.76
  -4  -3   0    8.77    0.87
  -4  -3   0    6.69    0.79
  -4  -3   0    6.62    0.78
   4   3   0    7.86    1.17
   4   3   0   10.19    1.02
  -5  -3   0    1.81    0.47
  -5  -3   0    2.42    0.52
  -5  -3   0    1.62    0.47
  -5  -3   0    1.97    0.54
  -5  -3   0    2.75    0.52
   5   3   0    1.88    0.53
   5   3   0    2.49    0.76
  -6  -3   0    1.29    0.46
  -6  -3   0    1.56    0.50
  -6  -3   0    0.98    0.45
  -6  -3   0    2.15    0.52
   6   3   0    2.40    0.91
  -7  -3   0    4.04    0.73
  -7  -3   0    3.73    0.80
  -7  -3   0    2.32    0.59
  -7  -3   0    3.85    0.79
   7   3   0    5.03    1.29
  -8  -3   0    9.55    1.21
  -8  -3   0    7.58    1.04
  -8  -3   0    8.58    1.08
  -8  -3   0    8.96    1.22
   8   3   0    7.16    1.64
  -9  -3   0    0.49    0.52
  -9  -3   0    0.86    0.60
  -9  -3   0    0.43    0.48
   9   3   0    0.08    0.79
 -10  -3   0    6.19    1.26
 -10  -3   0    4.50    1.24
 -10  -3   0    5.64    1.15
  10   3   0    6.56    1.86
  12  -4   0    2.37    1.75
 -12   4   0    3.52    0.79
 -12   4   0    1.83    0.61
  11  -4   0    3.15    1.50
 -11   4   0    3.18    0.69
 -11   4   0    4.23    0.70
  10  -4   0   25.12    3.01
  10  -4   0   28.22    2.68
 -10   4   0   24.22    1.40
 -10   4   0   24.87    1.37
   9  -4   0   13.71    2.08
   9  -4   0   14.79    2.21
  -9   4   0   13.41    0.96
  -9   4   0   14.65    0.99
  -9   4   0   14.20    0.95
   8  -4   0   12.14    1.82
   8  -4   0   12.15    1.79
  -8   4   0    8.95    0.68
  -8   4   0   10.80    0.78
  -8   4   0    9.18    0.74
   7  -4   0    9.62    1.57
   7  -4   0    8.73    1.32
  -7   4   0    6.76    0.55
  -7   4   0    7.74    0.63
  -7   4   0    6.50    0.67
   6  -4   0    4.80    0.95
   6  -4   0    5.30    1.03
  -6   4   0    5.13    0.61
  -6   4   0    4.54    0.54
   5  -4   0    9.61    0.51
   5  -4   0   11.21    1.35
   5  -4   0   10.31    1.14
   5  -4   0   10.15    0.69
  -5   4   0    8.52    0.63
  -5   4   0    8.24    0.60
  -5   4   0   10.53    0.67
  -5   4   0    8.86    0.63
   4  -4   0    0.98    0.28
   4  -4   0    0.77    0.26
   4  -4   0    0.72    0.34
   4  -4   0    0.29    0.34
  -4   4   0    0.58    0.27
  -4   4   0    0.99    0.24
  -4   4   0    0.81    0.30
  -4   4   0    0.81    0.25
  -4   4   0    0.80    0.30
   3  -4   0   18.53    0.87
   3  -4   0   17.04    0.84
   3  -4   0   16.40    1.03
   3  -4   0   17.83    0.86
   3  -4   0   17.28    0.90
  -3   4   0   18.25    0.85
  -3   4   0   19.04    0.92
  -3   4   0   16.91    0.89
   2  -4   0  292.01    8.41
   2  -4   0  293.73    8.64
   2  -4   0  292.64    8.64
   2  -4   0  294.66    8.61
   2  -4   0  298.76    8.65
  -2   4   0  283.97    8.57
  -2   4   0  298.09    8.60
  -2   4   0  299.75    8.65
   1  -4   0   42.72    1.44
   1  -4   0   42.40    1.74
   1  -4   0   40.38    1.71
  -1   4   0   41.79    1.67
  -1   4   0   41.19    1.62
   0  -4   0   18.08    1.03
   0  -4   0   18.57    1.06
   0  -4   0   18.34    1.03
   0   4   0   18.55    1.01
   0   4   0   18.91    0.94
   0   4   0   17.95    0.96
  -1  -4   0  206.33    6.55
  -1  -4   0  216.43    6.12
  -1  -4   0  208.80    6.53
  -1  -4   0  215.27    6.55
   1   4   0  218.22    6.51
   1   4   0  209.98    6.53
  -2  -4   0  479.29   14.06
  -2  -4   0  469.95   14.06
  -2  -4   0  485.78   14.04
  -2  -4   0  511.11   13.86
  -2  -4   0  481.91   14.03
   2   4   0  484.92   14.25
   2   4   0  478.50   14.02
  -3  -4   0    9.31    0.99
  -3  -4   0    7.20    0.90
  -3  -4   0    7.45    0.83
  -3  -4   0    8.04    0.93
  -3  -4   0    8.04    0.91
   3   4   0    8.40    1.12
   3   4   0    7.71    0.90
  -4  -4   0    0.43    0.38
  -4  -4   0    1.33    0.43
  -4  -4   0    0.35    0.35
  -4  -4   0    1.14    0.47
   4   4   0    0.94    0.57
   4   4   0    0.72    0.43
  -5  -4   0   79.24    3.05
  -5  -4   0   78.54    3.18
  -5  -4   0   78.70    2.96
  -5  -4   0   73.98    2.99
   5   4   0   80.68    3.63
  -6  -4   0   25.03    1.53
  -6  -4   0   27.37    1.56
  -6  -4   0   23.91    1.57
  -6  -4   0   25.56    1.48
   6   4   0   26.78    2.06
  -7  -4   0    0.65    0.47
  -7  -4   0   -0.21    0.38
  -7  -4   0   -0.05    0.44
  -7  -4   0    0.33    0.47
   7   4   0    0.54    0.69
  -8  -4   0    1.96    0.83
  -8  -4   0    1.42    0.57
  -8  -4   0    2.03    0.75
   8   4   0    0.92    0.95
  -9  -4   0    2.02    0.87
  -9  -4   0    3.32    0.97
   9   4   0    0.36    1.06
  12  -5   0    6.53    2.12
 -12   5   0    6.67    0.91
 -12   5   0    5.25    0.88
  11  -5   0    2.58    1.48
 -11   5   0    2.36    0.60
 -11   5   0    2.40    0.65
  10  -5   0   69.38    4.24
  10  -5   0   67.65    4.21
 -10   5   0   69.34    2.73
 -10   5   0   68.21    2.67
   9  -5   0    0.55    0.83
   9  -5   0    0.87    0.94
  -9   5   0    0.52    0.39
  -9   5   0    0.80    0.48
   8  -5   0   20.96    1.91
   8  -5   0   23.00    2.05
  -8   5   0   23.17    1.26
  -8   5   0   23.17    1.23
   7  -5   0    0.99    0.73
   7  -5   0    0.09    0.54
  -7   5   0    1.70    0.45
  -7   5   0    1.64    0.44
   6  -5   0    1.44    0.72
   6  -5   0    0.92    0.51
  -6   5   0    1.35    0.35
  -6   5   0    0.87    0.35
  -6   5   0    0.59    0.34
   5  -5   0   15.24    1.26
   5  -5   0   18.68    0.97
   5  -5   0   16.88    1.16
   5  -5   0   16.44    0.82
  -5   5   0   16.88    0.98
  -5   5   0   18.48    0.95
  -5   5   0   16.19    0.96
  -5   5   0   16.39    0.88
   4  -5   0    6.45    0.65
   4  -5   0    6.85    0.76
   4  -5   0    6.50    0.66
   4  -5   0    7.99    0.73
   4  -5   0    8.09    1.01
  -4   5   0    6.96    0.66
  -4   5   0    7.79    0.81
  -4   5   0    6.00    0.70
   3  -5   0   10.90    0.82
   3  -5   0   10.88    0.66
   3  -5   0   10.30    0.72
   3  -5   0   10.12    0.75
   3  -5   0   11.74    0.77
  -3   5   0   10.52    0.78
  -3   5   0   10.30    0.75
  -3   5   0   10.04    0.71
   2  -5   0    7.24    0.83
   2  -5   0    5.83    0.52
   2  -5   0    5.66    0.75
  -2   5   0    3.43    0.56
  -2   5   0    5.30    0.66
  -2   5   0    6.45    0.77
   1  -5   0    0.61    0.21
   1  -5   0    0.51    0.36
   1  -5   0    0.90    0.40
  -1   5   0    0.53    0.30
  -1   5   0    0.30    0.33
   0  -5   0    1.11    0.43
   0  -5   0    2.07    0.55
   0  -5   0    2.14    0.55
   0   5   0    1.50    0.39
   0   5   0    1.44    0.47
   0   5   0    2.53    0.50
  -1  -5   0   53.27    2.20
  -1  -5   0   54.44    2.22
  -1  -5   0   49.51    2.17
   1   5   0   50.52    2.12
   1   5   0   50.15    2.11
  -2  -5   0   24.36    1.41
  -2  -5   0   23.94    1.38
  -2  -5   0   24.80    1.39
  -2  -5   0   25.49    1.12
   2   5   0   24.33    1.44
   2   5   0   24.02    1.34
  -3  -5   0   35.18    1.79
  -3  -5   0   34.91    1.90
  -3  -5   0   34.42    1.80
  -3  -5   0   36.62    1.79
   3   5   0   36.14    1.99
   3   5   0   36.63    1.76
  -4  -5   0    5.34    0.86
  -4  -5   0    3.23    0.70
  -4  -5   0    6.10    0.96
  -4  -5   0    4.57    0.88
   4   5   0    5.95    1.13
   4   5   0    6.97    1.00
  -5  -5   0   92.69    3.52
  -5  -5   0   92.28    3.59
  -5  -5   0   87.62    3.57
  -5  -5   0   90.36    3.73
   5   5   0   89.24    4.06
  -6  -5   0    2.59    0.73
  -6  -5   0    3.20    0.87
  -6  -5   0    3.98    0.92
   6   5   0    2.58    1.00
  -7  -5   0   52.60    2.70
  -7  -5   0   50.48    2.67
  -7  -5   0   59.90    2.99
   7   5   0   56.41    3.43
  -8  -5   0    0.14    0.60
  -8  -5   0    0.41    0.68
   8   5   0    0.28    0.86
  -9  -5   0    2.52    1.07
   9   5   0    2.06    1.33
  12  -6   0    6.09    2.96
 -12   6   0    5.32    0.99
 -12   6   0    2.57    0.74
  11  -6   0    0.32    1.12
 -11   6   0    0.10    0.53
 -11   6   0   -0.13    0.54
  10  -6   0    1.41    1.03
  10  -6   0    4.37    1.53
 -10   6   0    1.95    0.62
 -10   6   0    1.67    0.54
   9  -6   0   52.45    3.18
   9  -6   0   46.64    3.22
  -9   6   0   47.08    2.14
  -9   6   0   50.70    2.14
   8  -6   0   47.25    2.99
   8  -6   0   49.41    2.84
  -8   6   0   47.52    2.09
  -8   6   0   47.05    2.04
   7  -6   0   14.97    1.84
   7  -6   0   12.63    1.49
  -7   6   0   15.26    1.04
  -7   6   0   15.25    1.03
  -7   6   0   13.75    0.92
   6  -6   0   14.12    1.18
   6  -6   0   14.13    1.35
   6  -6   0   15.18    0.98
  -6   6   0   15.15    0.93
  -6   6   0   14.64    1.02
  -6   6   0   15.96    1.05
   5  -6   0  337.44    9.99
   5  -6   0  336.68   10.40
   5  -6   0  326.55    9.70
   5  -6   0  334.11    9.81
  -5   6   0  326.25    9.91
  -5   6   0  326.83    9.79
  -5   6   0  336.51    9.96
   4  -6   0   71.19    2.63
   4  -6   0   74.13    2.70
   4  -6   0   73.26    2.56
   4  -6   0   76.40    2.92
   4  -6   0   71.64    2.68
  -4   6   0   76.61    2.79
  -4   6   0   70.40    2.67
  -4   6   0   70.89    2.73
   3  -6   0    2.78    0.39
   3  -6   0    3.79    0.66
   3  -6   0    3.10    0.65
   3  -6   0    2.48    0.54
   3  -6   0    2.80    0.54
  -3   6   0    2.13    0.53
  -3   6   0    3.23    0.65
  -3   6   0    3.56    0.64
   2  -6   0   71.16    2.85
   2  -6   0   72.33    2.88
   2  -6   0   74.78    2.46
  -2   6   0   74.96    2.75
  -2   6   0   71.68    2.79
   1  -6   0   67.63    2.73
   1  -6   0   65.44    2.69
  -1   6   0   65.92    2.54
  -1   6   0   64.67    2.60
   0  -6   0   16.05    1.15
   0  -6   0   16.53    1.15
   0  -6   0   14.64    1.14
   0   6   0   15.07    1.07
  -1  -6   0   13.82    1.11
  -1  -6   0   14.34    1.13
  -1  -6   0   17.28    1.19
   1   6   0   15.68    1.10
   1   6   0   16.54    1.11
  -2  -6   0    8.44    1.09
  -2  -6   0    6.42    1.04
  -2  -6   0    8.29    1.09
   2   6   0    8.57    1.15
   2   6   0   10.34    1.15
  -3  -6   0    3.00    0.75
  -3  -6   0    3.10    0.72
  -3  -6   0    4.08    0.87
  -3  -6   0    3.32    0.79
   3   6   0    3.76    0.78
   3   6   0    2.97    0.81
  -4  -6   0    0.78    0.51
  -4  -6   0    0.85    0.60
  -4  -6   0    1.19    0.57
   4   6   0    1.53    0.58
   4   6   0    0.83    0.64
  -5  -6   0    2.81    0.81
  -5  -6   0    1.05    0.68
   5   6   0    1.74    0.89
  -6  -6   0   37.41    2.23
  -6  -6   0   35.73    2.20
   6   6   0   33.96    2.56
  -7  -6   0   23.73    1.86
  -7  -6   0   22.13    1.80
   7   6   0   22.05    2.67
  -8  -6   0    1.38    0.84
  -8  -6   0    1.53    0.87
   8   6   0    1.83    1.16
 -12   7   0   -0.01    0.61
 -11   7   0   -0.28    0.52
 -11   7   0    0.28    0.56
  10  -7   0   -0.36    0.84
 -10   7   0    1.20    0.58
 -10   7   0    1.00    0.56
   9  -7   0    0.19    0.90
   9  -7   0    0.14    0.87
  -9   7   0    0.33    0.47
  -9   7   0    0.07    0.47
   8  -7   0   -0.06    0.54
   8  -7   0    0.48    0.83
  -8   7   0    0.19    0.40
  -8   7   0    0.06    0.37
   7  -7   0    3.99    0.68
   7  -7   0    4.05    0.89
   7  -7   0    3.49    0.97
  -7   7   0    3.51    0.70
  -7   7   0    3.25    0.68
   6  -7   0   28.59    1.44
   6  -7   0   27.82    1.55
   6  -7   0   28.24    1.88
  -6   7   0   27.28    1.53
  -6   7   0   25.12    1.50
   5  -7   0   79.54    2.94
   5  -7   0   81.16    2.94
   5  -7   0   79.05    2.85
   5  -7   0   78.59    3.27
  -5   7   0   79.00    3.06
  -5   7   0   82.53    3.15
   4  -7   0    7.51    0.95
   4  -7   0    9.09    1.04
   4  -7   0    8.87    0.63
   4  -7   0    8.63    1.00
   4  -7   0    8.55    0.95
  -4   7   0    7.99    0.95
  -4   7   0    9.23    1.06
   3  -7   0   10.47    1.23
   3  -7   0   10.18    0.77
   3  -7   0    7.87    1.06
   3  -7   0    6.08    0.91
  -3   7   0    8.40    1.07
  -3   7   0    8.76    1.01
   2  -7   0  166.61    5.67
   2  -7   0  166.41    5.69
   2  -7   0  168.37    4.95
  -2   7   0  165.31    5.57
  -2   7   0  162.54    5.46
   1  -7   0   36.08    1.95
   1  -7   0   36.85    1.97
  -1   7   0   37.98    1.88
  -1   7   0   37.67    1.85
   0  -7   0   84.83    3.35
   0  -7   0   78.15    3.27
   0   7   0   81.45    3.21
  -1  -7   0    8.91    1.20
  -1  -7   0   11.68    1.37
   1   7   0    9.33    0.92
   1   7   0   10.92    1.25
  -2  -7   0   10.24    1.33
  -2  -7   0    8.55    1.22
   2   7   0    8.10    1.12
   2   7   0    8.42    1.18
  -3  -7   0    9.69    1.35
  -3  -7   0    9.43    1.32
   3   7   0   11.09    1.50
   3   7   0    9.44    1.20
  -4  -7   0   12.92    1.67
  -4  -7   0   12.27    1.57
   4   7   0   13.69    1.49
   4   7   0   14.12    1.86
  -5  -7   0    2.94    0.92
  -5  -7   0    2.30    0.91
   5   7   0    3.53    1.14
  -6  -7   0    1.10    0.81
  -6  -7   0    1.63    0.88
   6   7   0    1.74    1.07
  -7  -7   0    1.00    0.92
  -7  -7   0   -0.05    0.77
   7   7   0    1.84    1.28
 -11   8   0   26.76    1.71
 -11   8   0   28.63    1.80
  10  -8   0    3.51    1.53
 -10   8   0    4.14    0.87
 -10   8   0    4.49    0.90
   9  -8   0   12.14    1.92
  -9   8   0   16.73    1.38
  -9   8   0   17.22    1.31
   8  -8   0   25.43    2.14
  -8   8   0   25.12    1.61
  -8   8   0   25.60    1.62
   7  -8   0   18.39    1.65
  -7   8   0   16.32    1.29
  -7   8   0   16.09    1.30
   6  -8   0   17.20    1.24
   6  -8   0   17.44    1.47
  -6   8   0   18.11    1.34
  -6   8   0   16.12    1.25
   5  -8   0    8.94    1.05
   5  -8   0   11.13    1.25
   5  -8   0    8.55    0.97
  -5   8   0    9.90    1.19
  -5   8   0   10.24    1.15
   4  -8   0    5.88    0.98
   4  -8   0    6.75    0.94
   4  -8   0    9.26    1.02
  -4   8   0    4.51    0.86
  -4   8   0    5.10    0.85
   3  -8   0    1.78    0.49
   3  -8   0    2.17    0.71
   3  -8   0    1.97    0.71
   3  -8   0    1.76    0.67
  -3   8   0    1.58    0.64
  -3   8   0    1.65    0.58
   2  -8   0    5.19    1.00
   2  -8   0    5.86    1.05
  -2   8   0    4.00    0.82
   1  -8   0   30.64    1.89
   1  -8   0   34.79    1.98
  -1   8   0   31.74    1.83
   0  -8   0  122.21    4.62
   0  -8   0  128.62    4.66
   0   8   0  113.95    4.43
  -1  -8   0    0.12    0.49
  -1  -8   0    0.41    0.52
   1   8   0    0.46    0.50
  -2  -8   0    0.63    0.59
  -2  -8   0    0.38    0.61
   2   8   0    1.25    0.61
   2   8   0    1.04    0.69
  -3  -8   0  124.74    4.87
  -3  -8   0  123.69    4.86
   3   8   0  117.89    4.64
   3   8   0  129.97    5.00
  -4  -8   0   77.43    3.61
  -4  -8   0   78.09    3.59
   4   8   0   76.62    3.77
  -5  -8   0   -0.33    0.64
  -5  -8   0   -0.21    0.63
   5   8   0   -0.03    0.74
  -6  -8   0    5.75    1.38
  -6  -8   0    3.67    1.18
  -7  -8   0   25.24    2.57
 -11   9   0    1.86    0.79
 -11   9   0    2.22    0.83
 -10   9   0    8.52    1.22
 -10   9   0   12.37    1.42
   9  -9   0   14.96    2.10
  -9   9   0   24.25    1.71
  -9   9   0   19.70    1.53
   8  -9   0   57.22    3.22
  -8   9   0   54.94    2.63
  -8   9   0   51.81    2.61
   7  -9   0    3.06    1.01
  -7   9   0    2.73    0.89
  -7   9   0    2.70    0.78
   6  -9   0    7.12    1.15
  -6   9   0    7.88    1.11
  -6   9   0    8.24    1.25
   5  -9   0    2.28    0.73
  -5   9   0    2.28    0.76
  -5   9   0    1.44    0.63
   4  -9   0    1.09    0.68
   4  -9   0    2.08    0.78
  -4   9   0    1.92    0.76
   3  -9   0    7.63    1.19
   3  -9   0    4.25    0.93
   3  -9   0    2.95    0.84
  -3   9   0    4.29    0.96
   2  -9   0    2.05    0.81
   2  -9   0    2.01    0.78
  -2   9   0    3.30    0.86
   1  -9   0    3.59    0.88
   1  -9   0    4.14    0.97
  -1   9   0    3.99    0.89
   0  -9   0    1.50    0.74
   0  -9   0    0.57    0.56
   0   9   0    2.19    0.81
  -1  -9   0    1.06    0.69
  -1  -9   0    0.68    0.74
   1   9   0    0.84    0.62
  -2  -9   0    2.50    0.88
  -2  -9   0    3.35    0.99
   2   9   0    3.22    0.89
  -3  -9   0   23.41    1.93
  -3  -9   0   26.88    1.98
   3   9   0   26.63    1.84
  -4  -9   0    0.15    0.73
  -4  -9   0    0.59    0.78
  -5  -9   0   12.58    1.88
  -5  -9   0   11.14    1.82
  -6  -9   0    9.03    1.71
 -11  10   0    2.88    0.97
 -10  10   0    1.62    0.89
 -10  10   0    4.32    1.02
  -9  10   0    5.18    1.06
  -9  10   0    6.35    1.21
  -8  10   0   -0.38    0.60
  -8  10   0    0.76    0.69
  -7  10   0   83.80    3.72
  -6  10   0    8.36    1.33
  -5  10   0   12.96    1.57
   4 -10   0   40.04    2.40
  -4  10   0   39.85    2.30
   3 -10   0  155.36    5.85
   3 -10   0  159.94    5.99
  -3  10   0  157.27    5.74
   2 -10   0   14.47    1.78
   2 -10   0   13.35    1.75
  -2  10   0   15.37    1.72
   1 -10   0    5.98    1.23
   1 -10   0    7.06    1.27
  -1  10   0    6.62    1.22
   0 -10   0   41.07    2.42
   0 -10   0   32.58    2.20
   0  10   0   31.65    2.09
  -1 -10   0   17.64    2.01
  -1 -10   0   15.34    1.85
   1  10   0   18.68    1.90
  -2 -10   0    6.47    1.38
  -2 -10   0    7.90    1.47
   2  10   0    5.98    1.22
  -3 -10   0    7.26    1.55
  -3 -10   0    4.28    1.25
   3  10   0    3.63    1.37
  -4 -10   0    2.76    1.02
  -4 -10   0    1.41    0.99
  -5 -10   0    0.68    0.90
 -10  11   0    1.35    0.87
  -9  11   0    0.25    0.82
  -8  11   0    1.43    0.85
  -7  11   0    0.09    0.78
  -6  11   0    2.42    0.97
  -5  11   0    0.77    0.74
   4 -11   0   35.12    2.38
  -4  11   0   39.39    2.36
   3 -11   0   16.22    1.98
  -3  11   0   17.12    1.83
   2 -11   0   13.48    1.79
  -2  11   0   21.57    1.71
   1 -11   0   -0.26    0.71
  -1  11   0    1.17    0.84
   0 -11   0   61.36    3.27
   0 -11   0   63.53    3.32
   0  11   0   60.71    3.14
  -1 -11   0   -0.35    0.84
  -1 -11   0   -0.28    0.71
   1  11   0    0.79    0.82
  -2 -11   0   10.20    1.70
  -2 -11   0   15.88    2.00
   2  11   0   19.84    2.01
  -3 -11   0   -0.79    0.92
  -3 -11   0    1.27    0.99
  -9  12   0   13.20    1.83
  -8  12   0    5.86    1.31
  -7  12   0   18.33    2.08
  -6  12   0   10.22    1.63
  -5  12   0    5.43    1.15
  -4  12   0    5.87    1.21
   3 -12   0    4.13    1.28
  -3  12   0    7.18    1.31
   2 -12   0    3.06    1.05
  -2  12   0    3.89    1.12
   1 -12   0    1.12    0.85
  -1  12   0    0.08    0.72
   0 -12   0    0.86    0.95
   0  12   0    1.21    0.85
  -1 -12   0   19.14    2.32
   1  12   0   25.28    1.99
  -2 -12   0   15.86    2.16
  -2 -12   0   17.75    2.28
   2  12   0   19.64    2.72
  -8  13   0    2.34    1.03
  -7  13   0   31.02    2.46
  -6  13   0   12.69    1.88
  -5  13   0    3.68    1.13
  -4  13   0    0.12    0.83
   3 -13   0    1.69    1.08
  -3  13   0    0.05    0.66
   2 -13   0    0.63    0.92
  -2  13   0    2.38    0.99
   1 -13   0   -0.61    0.60
  -1  13   0    1.29    0.93
   0 -13   0    0.94    0.95
   0  13   0    0.51    0.91
   0  13  -1    6.04    1.31
   0 -13   1    7.27    1.55
  -1  13  -1   15.09    1.91
   1 -13   1    8.69    1.50
  -2  13  -1    5.50    1.30
   2 -13   1    6.73    1.46
  -3  13  -1    8.94    1.55
  -4  13  -1   51.18    2.95
  -5  13  -1   16.30    2.01
  -6  13  -1    4.71    1.30
  -7  13  -1    3.59    1.34
   2  12  -1   16.24    1.97
  -2 -12   1   12.39    1.86
   1  12  -1    0.58    0.89
  -1 -12   1    1.76    1.00
   0  12  -1    1.66    1.01
   0 -12   1    3.43    1.13
  -1  12  -1    0.35    0.84
   1 -12   1    0.93    0.92
  -2  12  -1    1.74    0.86
   2 -12   1    1.40    0.83
  -3  12  -1    2.41    0.92
   3 -12   1    0.64    0.99
  -4  12  -1    1.24    0.86
  -5  12  -1    1.31    0.80
  -6  12  -1   -0.14    0.80
  -7  12  -1   -0.04    0.91
  -8  12  -1    1.50    0.97
  -9  12  -1   14.42    1.86
  -4 -11   1    1.80    1.35
  -4 -11   1   -0.44    0.84
   3  11  -1   38.34    2.58
  -3 -11   1   48.77    3.02
  -3 -11   1   45.71    2.94
   2  11  -1   61.18    3.34
  -2 -11   1   80.62    3.84
  -2 -11   1   75.39    3.79
   1  11  -1    0.82    0.72
  -1 -11   1   -0.64    0.62
  -1 -11   1    0.84    0.92
   0  11  -1    0.40    0.69
   0 -11   1    1.57    0.95
  -1  11  -1   62.11    3.11
   1 -11   1   58.51    3.15
  -2  11  -1   20.01    1.99
   2 -11   1   15.71    1.83
   2 -11   1   19.74    2.07
  -3  11  -1    6.70    1.25
   3 -11   1    6.15    1.29
  -4  11  -1    0.08    0.67
  -5  11  -1    5.34    1.09
  -6  11  -1    5.28    1.18
  -7  11  -1    7.64    1.40
  -8  11  -1    6.50    1.30
  -9  11  -1    7.99    1.38
 -10  11  -1    9.86    1.42
  -5 -10   1    2.24    1.18
  -5 -10   1    2.63    1.06
  -4 -10   1    2.84    1.10
  -4 -10   1    0.89    0.88
   3  10  -1    4.94    1.13
  -3 -10   1    3.77    1.08
  -3 -10   1    3.84    1.15
   2  10  -1    6.06    1.17
  -2 -10   1    6.68    1.33
  -2 -10   1    4.69    1.16
   1  10  -1    1.56    0.79
  -1 -10   1    2.68    0.99
  -1 -10   1    1.60    0.87
   0  10  -1    3.75    0.96
   0 -10   1    3.27    0.98
   0 -10   1    1.97    0.85
  -1  10  -1   31.07    2.01
   1 -10   1   31.72    2.11
   1 -10   1   33.31    2.16
  -2  10  -1   16.07    1.72
   2 -10   1   14.65    1.80
  -3  10  -1   75.80    3.40
   3 -10   1   74.99    3.51
   3 -10   1   75.32    3.59
  -4  10  -1    6.70    1.15
   4 -10   1    4.89    1.36
   4 -10   1    4.88    1.06
  -5  10  -1   11.44    1.52
  -6  10  -1   45.73    2.39
  -6  10  -1   42.65    2.44
  -7  10  -1   15.57    1.79
  -7  10  -1   12.39    1.46
  -8  10  -1    8.35    1.25
  -8  10  -1    4.16    0.98
  -9  10  -1    0.73    0.72
  -9  10  -1    0.18    0.65
 -10  10  -1   -0.21    0.70
 -10  10  -1    0.43    0.74
  -6  -9   1   15.00    2.07
  -6  -9   1   10.80    1.81
  -5  -9   1   27.60    2.18
  -5  -9   1   29.78    2.29
   4   9  -1   -0.06    0.63
  -4  -9   1    0.03    0.75
  -4  -9   1    0.60    0.81
   3   9  -1    0.44    0.58
  -3  -9   1    0.02    0.66
  -3  -9   1    0.64    0.77
   2   9  -1    2.93    0.85
  -2  -9   1    4.14    1.06
  -2  -9   1    3.24    0.88
   1   9  -1    6.55    1.13
  -1  -9   1    6.36    1.13
  -1  -9   1    9.22    1.40
   0   9  -1   14.75    1.57
   0  -9   1   12.62    1.57
   0  -9   1   14.43    1.66
  -1   9  -1   12.95    1.45
   1  -9   1   10.43    1.45
   1  -9   1    9.86    1.34
  -2   9  -1   28.98    1.80
   2  -9   1   30.47    1.96
   2  -9   1   31.56    1.97
  -3   9  -1   39.46    2.14
   3  -9   1   38.90    2.23
   3  -9   1   39.56    2.35
  -4   9  -1    7.88    1.20
  -4   9  -1    7.11    1.04
   4  -9   1    7.60    1.15
   4  -9   1    9.60    1.28
  -5   9  -1   35.83    1.98
  -5   9  -1   34.95    2.03
   5  -9   1   35.16    2.00
  -6   9  -1  157.39    5.63
  -6   9  -1  154.85    5.48
  -7   9  -1    8.80    1.17
  -7   9  -1   11.06    1.42
  -8   9  -1    7.15    1.10
  -8   9  -1   10.62    1.30
  -9   9  -1   20.91    1.61
  -9   9  -1   21.30    1.55
 -10   9  -1   32.70    2.03
 -10   9  -1   27.17    1.77
 -11   9  -1    1.35    0.74
  -7  -8   1    0.18    0.89
  -7  -8   1    0.04    0.78
  -6  -8   1   38.50    2.52
  -6  -8   1   31.39    2.36
  -5  -8   1    2.20    0.94
  -5  -8   1    3.14    1.06
   4   8  -1   65.89    3.00
  -4  -8   1   60.36    3.11
  -4  -8   1   66.32    3.23
   3   8  -1    3.46    0.89
  -3  -8   1    3.65    0.93
  -3  -8   1    2.87    0.89
   2   8  -1   32.66    1.92
  -2  -8   1   34.46    2.05
  -2  -8   1   29.59    1.93
   1   8  -1   14.52    1.53
  -1  -8   1   16.07    1.67
  -1  -8   1   15.24    1.62
   0   8  -1   46.48    2.28
   0  -8   1   46.49    2.37
   0  -8   1   46.19    2.36
  -1   8  -1   -0.11    0.37
   1  -8   1    0.10    0.46
   1  -8   1   -0.13    0.46
  -2   8  -1    2.90    0.71
   2  -8   1    1.53    0.68
   2  -8   1    2.84    0.78
  -3   8  -1    2.59    0.63
  -3   8  -1    1.71    0.63
   3  -8   1    2.39    0.73
   3  -8   1    2.56    0.75
   3  -8   1    1.95    0.72
  -4   8  -1    6.39    0.92
  -4   8  -1    5.37    0.95
   4  -8   1    5.32    0.88
   4  -8   1    5.61    0.92
  -5   8  -1    3.00    0.75
  -5   8  -1    3.98    0.84
   5  -8   1    2.79    0.74
   5  -8   1    2.42    0.66
  -6   8  -1    7.73    1.02
  -6   8  -1    7.68    1.04
   6  -8   1    8.65    1.04
   6  -8   1   10.09    1.34
  -7   8  -1    0.45    0.51
  -7   8  -1    0.27    0.62
   7  -8   1    0.25    0.71
  -8   8  -1    0.96    0.60
  -8   8  -1    0.59    0.55
  -9   8  -1    6.28    1.00
  -9   8  -1    5.44    0.90
 -10   8  -1   -0.44    0.52
 -10   8  -1   -0.23    0.58
 -11   8  -1   32.79    1.93
   8   7  -1    1.66    1.11
  -8  -7   1    1.07    0.93
   7   7  -1    2.32    1.18
  -7  -7   1    2.83    1.08
  -7  -7   1    4.33    1.18
   6   7  -1    1.65    0.96
  -6  -7   1    2.17    0.94
  -6  -7   1    2.23    0.88
   5   7  -1   19.42    1.81
  -5  -7   1   17.79    1.97
  -5  -7   1   20.35    2.09
   4   7  -1   49.10    2.41
   4   7  -1   51.34    2.69
  -4  -7   1   50.95    2.65
  -4  -7   1   46.73    2.53
   3   7  -1    3.56    0.81
   3   7  -1    4.56    0.94
  -3  -7   1    3.16    0.88
  -3  -7   1    4.32    1.00
   2   7  -1    8.25    1.13
   2   7  -1    7.38    1.04
  -2  -7   1    6.15    1.03
  -2  -7   1    6.13    1.04
   1   7  -1  262.23    8.37
   1   7  -1  265.27    8.12
  -1  -7   1  270.50    8.48
  -1  -7   1  262.65    8.44
   0   7  -1  127.72    4.50
   0  -7   1  129.65    4.60
   0  -7   1  125.71    4.59
  -1   7  -1   15.23    1.14
  -1   7  -1   19.58    1.20
   1  -7   1   15.29    1.21
   1  -7   1   19.06    1.35
  -2   7  -1   13.82    1.03
  -2   7  -1   14.76    1.08
   2  -7   1   12.92    1.34
   2  -7   1   15.22    1.44
  -3   7  -1  178.32    5.96
  -3   7  -1  177.77    5.85
   3  -7   1  176.82    6.12
   3  -7   1  184.55    5.99
   3  -7   1  192.76    6.07
  -4   7  -1    8.98    1.08
  -4   7  -1    9.81    1.00
   4  -7   1    6.64    0.84
   4  -7   1    8.71    1.01
   4  -7   1    8.75    1.00
  -5   7  -1    5.09    0.76
  -5   7  -1    6.26    0.93
   5  -7   1    5.48    0.81
   5  -7   1    5.05    0.92
  -6   7  -1    6.52    0.92
  -6   7  -1    6.03    0.83
   6  -7   1    5.03    0.81
   6  -7   1    6.07    1.15
  -7   7  -1    5.31    0.79
  -7   7  -1    6.66    0.91
   7  -7   1    3.83    1.01
   7  -7   1    5.92    0.90
  -8   7  -1    4.44    0.75
  -8   7  -1    3.84    0.73
   8  -7   1    4.84    1.25
  -9   7  -1    7.64    0.96
  -9   7  -1    5.40    0.86
 -10   7  -1    6.48    0.95
 -10   7  -1    6.71    1.11
 -11   7  -1   16.12    1.31
   9   6  -1    4.55    1.54
  -9  -6   1    8.07    1.56
   8   6  -1   -0.22    0.81
  -8  -6   1    0.37    0.73
  -8  -6   1   -0.17    0.67
   7   6  -1   12.27    2.02
  -7  -6   1   11.81    1.64
  -7  -6   1   12.74    1.71
   6   6  -1    3.49    1.12
  -6  -6   1    1.98    0.83
  -6  -6   1    3.09    0.89
   5   6  -1    0.10    0.54
   5   6  -1    0.71    0.59
  -5  -6   1    0.31    0.56
  -5  -6   1    0.53    0.60
   4   6  -1    2.87    0.83
   4   6  -1    4.18    0.86
  -4  -6   1    3.34    0.83
  -4  -6   1    2.40    0.75
   3   6  -1    9.96    1.14
   3   6  -1   10.44    1.28
  -3  -6   1   10.66    1.32
  -3  -6   1    6.50    0.94
  -3  -6   1    8.54    1.15
  -3  -6   1   10.89    1.26
   2   6  -1   14.36    1.38
   2   6  -1   11.64    0.98
  -2  -6   1   12.70    1.28
  -2  -6   1    9.81    1.17
  -2  -6   1   14.27    1.44
  -2  -6   1   12.39    1.31
   1   6  -1   23.20    1.35
   1   6  -1   24.90    1.26
  -1  -6   1   22.60    1.41
  -1  -6   1   23.14    1.42
  -1  -6   1   25.17    1.45
   0   6  -1    6.87    0.82
   0   6  -1    5.95    0.84
   0  -6   1    6.29    0.91
   0  -6   1    5.77    0.85
   0  -6   1    8.55    1.07
  -1   6  -1    7.22    0.90
  -1   6  -1    6.80    0.81
   1  -6   1    8.81    1.04
   1  -6   1    7.10    0.97
  -2   6  -1   48.25    2.04
  -2   6  -1   43.49    1.88
  -2   6  -1   44.51    1.94
   2  -6   1   40.76    1.95
   2  -6   1   48.36    2.06
   2  -6   1   43.53    2.17
  -3   6  -1   50.67    2.05
  -3   6  -1   46.42    2.04
  -3   6  -1   50.02    2.10
   3  -6   1   49.03    2.08
   3  -6   1   52.99    2.05
   3  -6   1   49.23    2.16
   3  -6   1   52.78    2.09
  -4   6  -1  107.33    3.63
  -4   6  -1  106.75    3.58
  -4   6  -1  106.41    3.71
   4  -6   1  106.87    3.52
   4  -6   1  104.16    3.43
   4  -6   1  108.82    3.72
   4  -6   1  104.40    3.85
  -5   6  -1   79.99    2.89
  -5   6  -1   78.68    2.73
  -5   6  -1   77.42    2.84
   5  -6   1   74.77    3.23
   5  -6   1   76.14    2.88
   5  -6   1   77.81    2.92
  -6   6  -1   34.02    1.63
  -6   6  -1   35.47    1.64
  -6   6  -1   35.38    1.52
   6  -6   1   37.08    1.75
   6  -6   1   33.43    2.11
   6  -6   1   35.42    1.92
  -7   6  -1    0.01    0.38
  -7   6  -1    1.08    0.45
  -7   6  -1    0.72    0.34
   7  -6   1    0.87    0.58
   7  -6   1    0.36    0.74
  -8   6  -1   60.12    2.40
  -8   6  -1   61.24    2.47
  -8   6  -1   61.10    2.37
   8  -6   1   56.69    3.15
   8  -6   1   57.65    3.37
  -9   6  -1    2.89    0.61
  -9   6  -1    3.70    0.69
   9  -6   1    3.53    1.16
 -10   6  -1    3.10    0.64
  10  -6   1    3.68    1.47
 -11   6  -1   -0.92    0.47
 -11   6  -1    0.03    0.55
  11  -6   1   -0.53    1.35
   9   5  -1    2.66    1.31
  -9  -5   1    2.88    1.05
  -9  -5   1    3.59    1.09
   8   5  -1   44.68    3.14
  -8  -5   1   41.84    2.42
  -8  -5   1   43.86    2.46
   7   5  -1  130.94    5.62
  -7  -5   1  128.24    4.83
  -7  -5   1  123.77    4.82
   6   5  -1    0.93    0.73
  -6  -5   1    1.36    0.66
  -6  -5   1    2.80    0.74
  -6  -5   1    1.64    0.68
   5   5  -1    0.03    0.41
   5   5  -1    0.11    0.60
  -5  -5   1    0.30    0.44
  -5  -5   1    0.03    0.36
  -5  -5   1    0.50    0.41
  -5  -5   1   -0.44    0.31
   4   5  -1   94.57    3.82
   4   5  -1   93.66    3.48
  -4  -5   1   94.70    3.58
  -4  -5   1   95.68    3.51
  -4  -5   1   90.69    3.66
  -4  -5   1   94.11    3.55
   3   5  -1   50.79    2.26
   3   5  -1   58.49    2.50
  -3  -5   1   55.05    2.33
  -3  -5   1   53.80    2.44
  -3  -5   1   56.51    2.36
  -3  -5   1   54.17    2.35
   2   5  -1    0.57    0.37
   2   5  -1    0.88    0.41
  -2  -5   1    0.59    0.40
  -2  -5   1    0.40    0.34
  -2  -5   1    0.53    0.41
  -2  -5   1    0.88    0.40
   1   5  -1    4.86    0.73
   1   5  -1    4.62    0.62
  -1  -5   1    6.04    0.84
  -1  -5   1    5.17    0.76
  -1  -5   1    4.96    0.77
   0   5  -1    3.55    0.57
   0   5  -1    2.34    0.52
   0   5  -1    2.40    0.39
   0  -5   1    1.20    0.44
   0  -5   1    3.34    0.64
   0  -5   1    2.01    0.54
  -1   5  -1   14.03    0.85
  -1   5  -1   12.70    0.84
  -1   5  -1   11.73    0.88
   1  -5   1   13.37    0.95
   1  -5   1   12.50    0.92
  -2   5  -1   29.85    1.39
  -2   5  -1   28.95    1.37
  -2   5  -1   29.78    1.33
   2  -5   1   28.83    1.24
   2  -5   1   30.01    1.40
   2  -5   1   29.10    1.51
   2  -5   1   29.83    1.40
  -3   5  -1   27.85    1.25
  -3   5  -1   28.58    1.33
  -3   5  -1   26.50    1.25
   3  -5   1   26.20    1.33
   3  -5   1   29.35    1.42
   3  -5   1   28.89    1.12
   3  -5   1   29.81    1.28
   3  -5   1   27.66    1.24
  -4   5  -1   78.73    2.71
  -4   5  -1   77.35    2.56
  -4   5  -1   73.47    2.62
   4  -5   1   73.56    2.45
   4  -5   1   76.70    2.73
   4  -5   1   74.95    3.00
   4  -5   1   77.61    2.75
  -5   5  -1   39.20    1.60
  -5   5  -1   35.43    1.54
  -5   5  -1   37.85    1.46
   5  -5   1   35.32    2.00
   5  -5   1   38.15    1.85
   5  -5   1   37.39    1.67
  -6   5  -1    1.94    0.42
  -6   5  -1    3.25    0.52
   6  -5   1    3.39    0.81
   6  -5   1    2.40    0.55
   6  -5   1    2.18    0.79
  -7   5  -1   93.51    3.16
  -7   5  -1   90.27    3.12
   7  -5   1   93.81    4.05
   7  -5   1   88.81    4.14
  -8   5  -1  140.92    4.44
  -8   5  -1  138.18    4.50
   8  -5   1  133.38    5.81
   8  -5   1  138.15    5.75
  -9   5  -1    0.05    0.34
  -9   5  -1   -0.16    0.36
   9  -5   1   -0.45    0.63
 -10   5  -1    0.92    0.50
 -10   5  -1    0.92    0.49
  10  -5   1    0.81    1.13
 -11   5  -1   35.42    1.84
  11  -5   1   38.57    3.48
  10   4  -1    0.77    1.14
 -10  -4   1    0.12    0.67
   9   4  -1    1.75    1.09
  -9  -4   1    0.88    0.71
  -9  -4   1    1.63    0.77
   8   4  -1   20.84    2.61
  -8  -4   1   20.53    1.49
  -8  -4   1   19.63    1.45
  -8  -4   1   16.82    1.37
   7   4  -1   14.05    2.01
  -7  -4   1   13.90    1.49
  -7  -4   1   14.49    1.31
  -7  -4   1   16.55    1.61
  -7  -4   1   13.57    1.13
   6   4  -1   15.36    1.90
  -6  -4   1   12.84    1.32
  -6  -4   1   13.30    1.07
  -6  -4   1   15.00    1.44
  -6  -4   1   12.98    1.31
   5   4  -1   10.20    1.39
   5   4  -1    9.36    1.09
  -5  -4   1    9.56    1.03
  -5  -4   1   10.83    1.13
  -5  -4   1    8.35    0.98
  -5  -4   1   10.29    1.14
   4   4  -1  162.05    5.64
   4   4  -1  160.85    5.26
  -4  -4   1  168.34    5.24
  -4  -4   1  160.02    5.27
  -4  -4   1  159.63    5.41
  -4  -4   1  162.45    5.26
   3   4  -1    8.80    0.83
   3   4  -1   10.98    1.04
  -3  -4   1   10.14    1.00
  -3  -4   1    8.39    0.91
  -3  -4   1    9.28    0.76
  -3  -4   1    8.21    0.85
  -3  -4   1    8.70    0.72
   2   4  -1  205.94    6.36
   2   4  -1  199.24    6.28
  -2  -4   1  203.05    6.32
  -2  -4   1  200.92    6.30
  -2  -4   1  211.93    6.32
  -2  -4   1  206.01    6.46
   1   4  -1    5.52    0.62
   1   4  -1    3.64    0.58
  -1  -4   1    5.01    0.66
  -1  -4   1    5.71    0.73
  -1  -4   1    4.16    0.64
   0   4  -1   32.35    1.16
   0   4  -1   32.38    1.35
   0   4  -1   30.96    1.36
   0  -4   1   31.95    1.45
   0  -4   1   31.74    1.42
   0  -4   1   31.35    1.44
  -1   4  -1   81.04    2.61
  -1   4  -1   78.12    2.65
  -1   4  -1   75.65    2.69
   1  -4   1   73.36    2.69
   1  -4   1   79.36    2.73
  -2   4  -1   44.60    1.62
  -2   4  -1   45.53    1.70
  -2   4  -1   44.11    1.62
  -2   4  -1   42.68    1.63
   2  -4   1   44.32    1.69
   2  -4   1   43.10    1.75
   2  -4   1   43.57    1.65
   2  -4   1   45.15    1.67
   2  -4   1   42.98    1.41
  -3   4  -1    0.33    0.27
  -3   4  -1    0.66    0.27
  -3   4  -1    1.06    0.31
  -3   4  -1    0.46    0.21
  -3   4  -1    0.44    0.25
   3  -4   1    0.48    0.21
   3  -4   1    0.75    0.23
   3  -4   1    0.56    0.29
   3  -4   1    0.53    0.27
   3  -4   1    1.01    0.37
  -4   4  -1    0.47    0.23
  -4   4  -1    0.37    0.25
  -4   4  -1    0.58    0.26
  -4   4  -1    0.30    0.20
   4  -4   1    0.01    0.36
   4  -4   1    0.51    0.36
   4  -4   1    0.29    0.25
  -5   4  -1    5.98    0.50
  -5   4  -1    6.68    0.52
  -5   4  -1    6.99    0.55
   5  -4   1    8.05    0.83
   5  -4   1    9.05    1.12
   5  -4   1    6.65    1.05
  -6   4  -1    6.69    0.55
  -6   4  -1    6.55    0.62
  -6   4  -1    7.11    0.47
   6  -4   1    7.92    1.19
   6  -4   1    8.31    1.28
  -7   4  -1    4.92    0.60
  -7   4  -1    3.46    0.51
  -7   4  -1    3.68    0.43
   7  -4   1    4.12    1.10
   7  -4   1    2.35    0.82
  -8   4  -1    6.21    0.62
  -8   4  -1    6.78    0.73
  -8   4  -1    5.71    0.66
   8  -4   1    7.28    1.51
   8  -4   1    4.91    1.29
  -9   4  -1    1.30    0.39
  -9   4  -1    1.61    0.46
  -9   4  -1    1.43    0.50
  -9   4  -1    0.69    0.40
   9  -4   1    1.50    0.94
 -10   4  -1    0.46    0.40
 -10   4  -1    0.49    0.41
  10  -4   1    1.51    1.18
 -11   4  -1    8.98    0.94
 -11   4  -1    8.24    0.94
  11  -4   1    7.83    2.21
  10   3  -1   13.68    2.39
 -10  -3   1   15.53    1.71
 -10  -3   1   13.84    1.67
   9   3  -1    5.24    1.51
  -9  -3   1    3.28    0.82
  -9  -3   1    3.67    0.91
  -9  -3   1    3.87    0.81
   8   3  -1    2.45    1.02
  -8  -3   1    1.60    0.61
  -8  -3   1    3.16    0.76
  -8  -3   1    1.36    0.59
   7   3  -1    2.96    0.96
  -7  -3   1    2.01    0.56
  -7  -3   1    1.74    0.55
  -7  -3   1    2.12    0.63
  -7  -3   1    2.68    0.62
   6   3  -1    3.53    0.91
  -6  -3   1    3.54    0.69
  -6  -3   1    3.80    0.68
  -6  -3   1    3.34    0.61
  -6  -3   1    3.71    0.71
   5   3  -1    4.34    0.94
   5   3  -1    5.59    0.79
  -5  -3   1    5.66    0.76
  -5  -3   1    4.70    0.65
  -5  -3   1    3.05    0.55
  -5  -3   1    3.27    0.59
   4   3  -1    5.90    0.76
   4   3  -1    4.95    0.86
   4   3  -1    5.67    0.73
  -4  -3   1    4.90    0.66
  -4  -3   1    4.17    0.60
  -4  -3   1    5.74    0.66
  -4  -3   1    6.82    0.77
  -4  -3   1    4.51    0.63
   3   3  -1  100.99    3.31
   3   3  -1  102.09    3.38
   3   3  -1  101.45    3.62
  -3  -3   1   99.78    3.36
  -3  -3   1  105.40    3.51
  -3  -3   1  101.19    3.39
  -3  -3   1  105.06    3.40
  -3  -3   1  103.01    3.34
  -3  -3   1  108.98    3.70
   2   3  -1  108.63    3.50
   2   3  -1  115.27    3.63
   2   3  -1  109.03    3.32
  -2  -3   1  108.67    3.49
  -2  -3   1  110.47    3.63
  -2  -3   1  109.69    3.52
  -2  -3   1  110.66    3.50
  -2  -3   1  104.15    3.63
   1   3  -1    2.71    0.43
   1   3  -1    2.46    0.37
  -1  -3   1    2.31    0.43
  -1  -3   1    2.04    0.39
  -1  -3   1    2.06    0.39
   0   3  -1   80.99    2.50
   0   3  -1   83.63    2.72
   0   3  -1   89.07    2.72
   0  -3   1   80.67    2.80
   0  -3   1   94.69    2.56
   0  -3   1   84.64    2.80
   0  -3   1   77.70    2.80
  -1   3  -1  971.65   26.88
  -1   3  -1 1000.00   26.77
  -1   3  -1  929.08   26.88
  -1   3  -1  960.40   26.79
   1  -3   1  965.24   26.78
   1  -3   1  934.26   26.90
   1  -3   1  986.39   26.93
  -2   3  -1  101.15    3.04
  -2   3  -1   98.49    3.11
  -2   3  -1  101.74    3.18
  -2   3  -1  102.57    3.04
  -2   3  -1  101.88    3.15
  -2   3  -1  107.25    3.29
   2  -3   1  100.40    3.06
   2  -3   1   98.97    3.29
   2  -3   1  100.74    3.22
   2  -3   1  102.43    3.15
   2  -3   1  101.73    3.11
  -3   3  -1   23.81    0.94
  -3   3  -1   23.67    1.04
  -3   3  -1   24.65    0.89
  -3   3  -1   24.29    0.97
   3  -3   1   22.45    1.24
   3  -3   1   23.36    1.06
   3  -3   1   26.33    1.21
   3  -3   1   22.96    1.14
  -4   3  -1   95.05    2.94
  -4   3  -1  103.09    3.24
  -4   3  -1   99.19    2.86
  -4   3  -1   99.09    3.03
  -4   3  -1   99.08    3.01
   4  -3   1  101.13    3.57
   4  -3   1   97.94    3.29
   4  -3   1   96.29    3.52
   4  -3   1   95.15    3.62
  -5   3  -1  156.00    4.50
  -5   3  -1  150.21    4.54
  -5   3  -1  154.20    4.50
  -5   3  -1  153.78    4.38
   5  -3   1  147.98    5.36
   5  -3   1  150.23    5.32
  -6   3  -1    0.65    0.24
  -6   3  -1    0.59    0.26
  -6   3  -1    0.48    0.17
   6  -3   1    0.23    0.49
   6  -3   1    0.27    0.48
  -7   3  -1    0.19    0.21
  -7   3  -1    0.03    0.26
  -7   3  -1    0.21    0.23
   7  -3   1    0.70    0.64
   7  -3   1   -0.21    0.52
  -8   3  -1    6.74    0.71
  -8   3  -1    6.84    0.57
  -8   3  -1    6.90    0.70
  -8   3  -1    7.00    0.71
   8  -3   1    7.35    1.49
   8  -3   1    5.25    1.24
  -9   3  -1    4.10    0.61
  -9   3  -1    4.13    0.56
  -9   3  -1    3.79    0.59
  -9   3  -1    2.50    0.50
   9  -3   1    2.83    1.21
 -10   3  -1    1.85    0.49
 -10   3  -1    2.65    0.56
  10  -3   1    3.14    1.49
 -11   3  -1    3.95    0.68
 -11   3  -1    2.91    0.62
  11  -3   1    2.61    1.48
  11   2  -1   33.34    3.19
 -11  -2   1   34.76    2.13
  10   2  -1   12.51    2.30
 -10  -2   1   10.43    1.30
 -10  -2   1   11.00    1.34
 -10  -2   1   10.21    1.34
   9   2  -1   29.92    2.52
  -9  -2   1   26.80    1.60
  -9  -2   1   27.31    1.59
  -9  -2   1   28.01    1.64
   8   2  -1    2.92    1.05
  -8  -2   1    3.00    0.67
  -8  -2   1    2.56    0.61
  -8  -2   1    3.48    0.71
  -8  -2   1    2.76    0.61
   7   2  -1   16.60    1.58
   7   2  -1   16.96    1.40
  -7  -2   1   17.18    1.09
  -7  -2   1   16.52    1.16
  -7  -2   1   18.25    1.10
  -7  -2   1   17.28    1.05
   6   2  -1    6.29    1.14
   6   2  -1    7.07    1.08
  -6  -2   1    4.24    0.63
  -6  -2   1    6.30    0.76
  -6  -2   1    5.54    0.70
  -6  -2   1    6.17    0.93
  -6  -2   1    7.23    0.82
   5   2  -1   13.20    0.82
   5   2  -1   12.89    1.12
   5   2  -1   10.62    0.90
  -5  -2   1   12.66    0.83
  -5  -2   1   11.31    0.74
  -5  -2   1   11.79    0.76
  -5  -2   1   12.79    0.87
  -5  -2   1   13.66    0.81
   4   2  -1    3.34    0.69
   4   2  -1    3.45    0.53
   4   2  -1    2.87    0.57
  -4  -2   1    2.90    0.46
  -4  -2   1    2.54    0.40
  -4  -2   1    2.58    0.44
  -4  -2   1    2.58    0.43
  -4  -2   1    2.96    0.46
   3   2  -1    5.11    0.62
   3   2  -1    4.78    0.55
   3   2  -1    5.07    0.72
  -3  -2   1    3.74    0.47
  -3  -2   1    3.65    0.47
  -3  -2   1    3.86    0.47
  -3  -2   1    5.58    0.53
  -3  -2   1    4.18    0.48
  -3  -2   1    4.28    0.70
   2   2  -1    4.55    0.45
   2   2  -1    6.39    0.59
   2   2  -1    3.95    0.36
  -2  -2   1    4.76    0.50
  -2  -2   1    5.21    0.44
  -2  -2   1    4.98    0.52
  -2  -2   1    4.28    0.39
  -2  -2   1    3.87    0.36
  -2  -2   1    5.38    0.60
   1   2  -1   18.42    0.65
   1   2  -1   18.21    0.77
   1   2  -1   18.77    0.77
  -1  -2   1   17.87    0.76
  -1  -2   1   18.31    0.78
  -1  -2   1   18.30    0.83
  -1  -2   1   17.97    0.78
   0   2  -1   39.35    1.43
   0   2  -1   39.13    1.27
   0   2  -1   37.98    1.39
   0   2  -1   38.00    1.14
   0   2  -1   38.94    1.29
   0  -2   1   38.77    1.38
   0  -2   1   37.78    1.36
  -1   2  -1   74.74    2.26
  -1   2  -1   76.17    2.39
  -1   2  -1   75.68    2.22
  -1   2  -1   77.50    2.31
  -1   2  -1   75.78    2.33
  -1   2  -1   77.09    2.36
  -1   2  -1   77.23    2.23
   1  -2   1   77.14    2.39
   1  -2   1   74.06    2.27
   1  -2   1   77.19    2.41
  -2   2  -1    4.27    0.36
  -2   2  -1    4.25    0.30
  -2   2  -1    4.15    0.27
  -2   2  -1    4.95    0.58
   2  -2   1    5.70    0.64
   2  -2   1    5.67    0.59
   2  -2   1    5.18    0.49
   2  -2   1    4.73    0.52
  -3   2  -1    4.47    0.49
  -3   2  -1    3.72    0.28
   3  -2   1    4.87    0.69
   3  -2   1    5.14    0.70
   3  -2   1    3.92    0.49
   3  -2   1    4.07    0.65
  -4   2  -1  138.16    4.31
  -4   2  -1  140.50    4.02
   4  -2   1  131.75    4.67
   4  -2   1  139.59    4.73
   4  -2   1  135.93    4.77
  -5   2  -1    9.68    0.52
  -5   2  -1    9.56    0.43
  -5   2  -1    8.32    0.45
   5  -2   1   12.77    1.42
   5  -2   1   11.69    1.06
   5  -2   1   11.14    1.08
  -6   2  -1  167.81    4.98
  -6   2  -1  172.14    5.07
  -6   2  -1  162.81    5.00
  -6   2  -1  183.39    5.09
   6  -2   1  171.92    6.26
   6  -2   1  169.56    6.13
  -7   2  -1   14.04    0.76
  -7   2  -1   15.15    0.73
  -7   2  -1   13.84    0.76
  -7   2  -1   13.53    0.76
   7  -2   1   16.85    2.00
   7  -2   1   16.83    1.96
  -8   2  -1   28.15    1.22
  -8   2  -1   27.16    1.21
  -8   2  -1   26.88    1.20
  -8   2  -1   27.55    1.24
   8  -2   1   26.00    2.25
  -9   2  -1   11.39    0.82
  -9   2  -1   11.03    0.80
  -9   2  -1   12.35    0.85
   9  -2   1   13.53    2.30
 -10   2  -1   24.53    1.36
 -10   2  -1   27.98    1.40
  10  -2   1   28.09    3.45
 -11   2  -1    0.03    0.45
 -11   2  -1   -0.42    0.44
  11  -2   1    0.69    1.20
  11   1  -1    0.37    0.98
 -11  -1   1    1.23    0.58
 -11  -1   1    1.45    0.72
 -11  -1   1    1.27    0.67
  10   1  -1    8.96    1.88
 -10  -1   1   10.54    1.22
 -10  -1   1    8.14    1.05
 -10  -1   1    9.10    1.17
   9   1  -1   61.37    3.69
  -9  -1   1   61.31    2.53
  -9  -1   1   63.56    2.54
  -9  -1   1   56.86    2.48
   8   1  -1    0.30    0.52
   8   1  -1   -0.34    0.58
  -8  -1   1    0.22    0.30
  -8  -1   1    0.32    0.33
  -8  -1   1    0.33    0.38
   7   1  -1    0.33    0.52
   7   1  -1   -0.43    0.41
  -7  -1   1    0.60    0.33
  -7  -1   1    0.15    0.29
  -7  -1   1    0.38    0.28
  -7  -1   1    0.00    0.24
   6   1  -1  265.11    8.63
   6   1  -1  268.32    8.92
   6   1  -1  282.17    8.08
  -6  -1   1  271.74    8.03
  -6  -1   1  269.17    7.99
  -6  -1   1  271.36    8.15
  -6  -1   1  271.27    8.03
  -6  -1   1  268.17    8.03
   5   1  -1  228.36    7.50
   5   1  -1  233.31    6.80
   5   1  -1  228.69    7.28
  -5  -1   1  232.94    6.83
  -5  -1   1  231.92    6.92
  -5  -1   1  232.00    6.79
  -5  -1   1  227.22    6.80
  -5  -1   1  228.25    6.76
   4   1  -1    0.71    0.26
   4   1  -1    0.90    0.40
   4   1  -1    1.17    0.44
  -4  -1   1    0.90    0.26
  -4  -1   1    0.75    0.24
  -4  -1   1    0.44    0.21
  -4  -1   1    1.02    0.26
  -4  -1   1    1.13    0.28
   3   1  -1   33.76    1.57
   3   1  -1   38.43    1.40
   3   1  -1   38.52    1.32
   3   1  -1   36.73    1.52
  -3  -1   1   37.41    1.33
  -3  -1   1   37.51    1.39
  -3  -1   1   36.77    1.29
  -3  -1   1   37.49    1.74
  -3  -1   1   38.37    1.31
  -3  -1   1   37.92    1.32
   2   1  -1  243.09    7.37
   2   1  -1  254.07    7.34
   2   1  -1  254.22    7.25
   2   1  -1  253.50    7.18
  -2  -1   1  250.70    7.17
  -2  -1   1  252.07    7.24
  -2  -1   1  252.11    7.16
  -2  -1   1  248.47    7.17
  -2  -1   1  256.85    7.19
  -2  -1   1  261.64    7.43
   1   1  -1   66.14    2.01
   1   1  -1   64.89    1.96
   1   1  -1   66.68    2.04
  -1  -1   1   64.75    2.01
  -1  -1   1   64.24    1.96
  -1  -1   1   65.16    1.97
  -1  -1   1   66.38    2.01
  -1  -1   1   64.00    1.96
  -1   1  -1   21.92    0.79
  -1   1  -1   20.79    0.83
   1  -1   1   19.86    0.83
   1  -1   1   20.59    0.85
   1  -1   1   20.49    0.78
  -2   1  -1    6.09    0.43
  -2   1  -1    5.40    0.50
   2  -1   1    6.08    0.44
   2  -1   1    5.97    0.54
   2  -1   1    6.62    0.55
   2  -1   1    5.57    0.56
  -3   1  -1    8.22    0.36
  -3   1  -1    8.81    0.57
   3  -1   1    8.19    0.69
   3  -1   1    8.95    0.73
   3  -1   1    8.07    0.75
  -4   1  -1   13.42    0.56
   4  -1   1   12.33    0.97
   4  -1   1   13.93    1.04
   4  -1   1   13.27    1.10
  -5   1  -1   36.71    1.31
  -5   1  -1   39.73    1.29
  -5   1  -1   39.80    1.32
  -5   1  -1   38.01    1.26
   5  -1   1   37.17    2.07
   5  -1   1   36.52    2.14
   5  -1   1   35.51    1.94
  -6   1  -1   76.69    2.44
  -6   1  -1   74.05    2.40
  -6   1  -1   78.92    2.44
  -6   1  -1   75.35    2.43
   6  -1   1   77.70    3.54
   6  -1   1   70.98    3.28
  -7   1  -1    5.01    0.53
  -7   1  -1    5.70    0.59
  -7   1  -1    6.89    0.62
  -7   1  -1    7.06    0.65
   7  -1   1    4.46    1.11
  -8   1  -1    2.36    0.43
  -8   1  -1    2.90    0.51
  -8   1  -1    2.82    0.52
  -8   1  -1    2.76    0.48
   8  -1   1    1.92    1.01
  -9   1  -1  101.99    3.54
  -9   1  -1  106.25    3.56
  -9   1  -1  105.12    3.56
   9  -1   1  105.84    5.38
 -10   1  -1   45.98    2.04
 -10   1  -1   48.02    2.06
  10  -1   1   47.21    3.67
 -11   1  -1    2.21    0.61
 -11   1  -1    2.15    0.65
  11  -1   1    1.65    1.38
  11   0  -1    0.88    1.10
 -11   0   1    0.54    0.48
 -11   0   1    1.92    0.65
 -11   0   1    0.75    0.58
  10   0  -1    0.64    0.84
 -10   0   1    1.73    0.54
 -10   0   1    0.98    0.48
 -10   0   1    0.60    0.47
   9   0  -1    0.86    0.72
   9   0  -1    0.23    0.63
  -9   0   1    0.87    0.48
  -9   0   1    0.57    0.38
  -9   0   1    1.18    0.48
   8   0  -1    0.12    0.52
   8   0  -1    0.25    0.59
  -8   0   1    0.36    0.31
  -8   0   1   -0.01    0.31
  -8   0   1    0.08    0.33
   7   0  -1    7.47    1.31
   7   0  -1   11.41    1.54
  -7   0   1    7.22    0.61
  -7   0   1    7.13    0.71
  -7   0   1    9.06    0.84
  -7   0   1    9.65    0.86
   6   0  -1   69.26    3.03
   6   0  -1   73.47    2.41
   6   0  -1   71.72    3.21
  -6   0   1   73.46    2.45
  -6   0   1   72.13    2.44
  -6   0   1   71.26    2.42
  -6   0   1   72.33    2.44
   5   0  -1    9.56    0.61
   5   0  -1    9.36    0.89
   5   0  -1   13.44    1.40
   5   0  -1    9.39    0.55
  -5   0   1    9.36    0.55
  -5   0   1    8.14    0.53
  -5   0   1    8.36    0.53
  -5   0   1    8.74    0.54
  -5   0   1    9.01    0.60
   4   0  -1   50.06    2.09
   4   0  -1   54.74    1.76
   4   0  -1   46.57    2.08
   4   0  -1   50.63    1.66
  -4   0   1   50.80    1.69
  -4   0   1   49.71    1.66
  -4   0   1   49.44    1.74
  -4   0   1   49.20    1.66
  -4   0   1   48.35    1.67
   3   0  -1  122.53    3.61
   3   0  -1  118.94    4.00
   3   0  -1  121.53    4.02
   3   0  -1  123.29    3.69
  -3   0   1  125.10    3.64
  -3   0   1  124.18    3.62
  -3   0   1  121.54    3.64
  -3   0   1  132.98    4.28
  -3   0   1  121.18    3.70
  -3   0   1  124.70    3.63
   2   0  -1  311.15    8.91
   2   0  -1  304.40    8.85
   2   0  -1  301.94    8.65
   2   0  -1  309.90    8.60
  -2   0   1  302.27    8.59
  -2   0   1  314.11    8.61
  -2   0   1  298.68    8.65
  -2   0   1  317.78    8.61
  -2   0   1  304.98    8.61
  -1   0  -1   71.98    2.19
  -1   0  -1   72.00    2.28
   1   0   1   70.03    2.34
   1   0   1   69.11    2.33
  -2   0  -1    0.76    0.12
  -2   0  -1    0.63    0.22
  -2   0  -1    0.53    0.12
  -2   0  -1    0.51    0.11
  -2   0  -1    0.38    0.25
   2   0   1    0.83    0.35
   2   0   1    0.56    0.29
  -3   0  -1   75.34    2.56
  -3   0  -1   74.91    2.27
  -3   0  -1   72.27    2.19
  -3   0  -1   72.39    2.20
   3   0   1   73.49    2.90
   3   0   1   75.43    2.71
   3   0   1   74.42    2.83
  -4   0  -1   11.75    0.50
  -4   0  -1   12.19    0.55
  -4   0  -1   12.98    0.61
  -4   0  -1   11.69    0.55
  -4   0  -1   12.59    0.58
   4   0   1   11.47    0.93
   4   0   1   10.16    1.01
   4   0   1   12.78    1.05
  -5   0  -1    0.97    0.24
  -5   0  -1    1.26    0.29
  -5   0  -1    0.91    0.26
  -5   0  -1    1.25    0.28
  -5   0  -1    1.36    0.24
   5   0   1    1.67    0.62
   5   0   1    2.13    0.82
  -6   0  -1   -0.02    0.21
  -6   0  -1    0.30    0.21
  -6   0  -1    0.40    0.22
  -6   0  -1    0.36    0.23
  -6   0  -1    0.14    0.25
   6   0   1    0.30    0.42
  -7   0  -1    3.74    0.54
  -7   0  -1    3.19    0.46
  -7   0  -1    3.78    0.56
  -7   0  -1    4.73    0.61
   7   0   1    2.31    0.89
  -8   0  -1    3.47    0.69
  -8   0  -1    4.28    0.64
  -8   0  -1    3.87    0.57
  -8   0  -1    5.71    0.69
   8   0   1    5.32    1.45
  -9   0  -1    6.46    0.88
  -9   0  -1    6.34    0.87
  -9   0  -1    4.15    0.67
   9   0   1    5.73    1.57
 -10   0  -1    0.08    0.37
 -10   0  -1    0.51    0.48
  10   0   1    0.44    0.91
 -11   0  -1    2.24    0.72
 -11   0  -1    2.79    0.69
  11   0   1    2.28    1.43
  12  -1  -1   46.01    4.02
 -12   1   1   50.24    2.43
  11  -1  -1    3.22    1.39
 -11   1   1    3.50    0.71
 -11   1   1    3.12    0.77
 -11   1   1    2.42    0.67
  10  -1  -1    0.82    0.93
  10  -1  -1    2.90    1.21
 -10   1   1    2.04    0.57
 -10   1   1    1.71    0.53
 -10   1   1    2.07    0.61
   9  -1  -1   40.64    2.65
   9  -1  -1   35.60    2.67
  -9   1   1   35.75    1.67
  -9   1   1   35.09    1.67
  -9   1   1   37.77    1.68
   8  -1  -1   22.87    1.94
   8  -1  -1   21.58    1.82
  -8   1   1   21.41    1.11
  -8   1   1   22.38    1.13
  -8   1   1   22.08    1.13
  -8   1   1   23.14    1.39
   7  -1  -1   10.13    1.48
   7  -1  -1    8.93    1.35
  -7   1   1    8.52    0.62
  -7   1   1    7.38    0.61
  -7   1   1    9.01    0.64
  -7   1   1    8.71    0.64
   6  -1  -1    7.79    0.49
   6  -1  -1    9.99    1.33
   6  -1  -1   10.48    1.37
  -6   1   1    7.37    0.55
  -6   1   1    7.23    0.54
  -6   1   1    7.75    0.55
  -6   1   1    7.80    0.52
   5  -1  -1    2.85    0.68
   5  -1  -1    2.88    0.36
   5  -1  -1    2.73    0.68
   5  -1  -1    1.98    0.31
  -5   1   1    2.05    0.30
  -5   1   1    2.40    0.38
  -5   1   1    1.99    0.32
  -5   1   1    2.18    0.34
   4  -1  -1   11.19    0.83
   4  -1  -1    9.73    0.84
   4  -1  -1    9.87    0.48
   4  -1  -1    9.95    0.54
  -4   1   1    9.72    0.52
  -4   1   1   10.69    0.50
  -4   1   1    9.39    0.52
   3  -1  -1    2.66    0.50
   3  -1  -1    2.34    0.28
   3  -1  -1    2.42    0.28
   3  -1  -1    1.60    0.46
  -3   1   1    1.78    0.22
  -3   1   1    2.31    0.28
  -3   1   1    2.51    0.30
  -3   1   1    2.69    0.79
   2  -1  -1   23.46    1.12
   2  -1  -1   22.71    0.81
   2  -1  -1   25.12    0.82
   2  -1  -1   23.32    1.00
  -2   1   1   23.75    0.81
  -2   1   1   25.91    0.85
  -2   1   1   23.87    0.84
  -1   1   1  362.31   10.15
  -1   1   1  363.98   10.14
   0  -1  -1   66.96    2.21
   0  -1  -1   73.70    2.22
   0  -1  -1   75.46    2.16
   0  -1  -1   73.61    2.22
   0   1   1   73.02    2.38
   0   1   1   77.83    2.32
  -1  -1  -1   10.31    0.42
  -1  -1  -1    9.21    0.45
  -1  -1  -1    9.49    0.44
  -1  -1  -1    9.08    0.39
   1   1   1    9.20    0.63
   1   1   1    9.84    0.66
  -2  -1  -1  254.33    7.18
  -2  -1  -1  250.01    7.51
  -2  -1  -1  249.66    7.16
  -2  -1  -1  253.32    7.18
  -2  -1  -1  251.07    7.10
   2   1   1  251.74    7.69
   2   1   1  261.24    7.77
  -3  -1  -1  625.15   17.55
  -3  -1  -1  630.06   17.43
  -3  -1  -1  611.06   17.51
  -3  -1  -1  624.28   17.62
  -3  -1  -1  633.05   17.52
   3   1   1  640.62   18.39
   3   1   1  626.24   18.24
  -4  -1  -1    7.71    0.50
  -4  -1  -1    7.25    0.54
  -4  -1  -1    8.10    0.55
  -4  -1  -1    8.84    0.52
   4   1   1   10.37    1.27
   4   1   1   14.27    1.75
  -5  -1  -1    0.40    0.23
  -5  -1  -1    0.15    0.22
  -5  -1  -1    0.14    0.21
  -5  -1  -1    0.05    0.22
  -5  -1  -1    0.18    0.18
   5   1   1    0.32    0.44
  -6  -1  -1   98.06    3.22
  -6  -1  -1   97.51    3.22
  -6  -1  -1   99.05    3.30
  -6  -1  -1   96.64    3.15
  -6  -1  -1   92.80    3.27
   6   1   1  101.57    4.34
  -7  -1  -1   34.91    1.61
  -7  -1  -1   34.90    1.55
  -7  -1  -1   33.89    1.47
  -7  -1  -1   35.39    1.60
  -7  -1  -1   31.91    1.50
   7   1   1   35.58    2.50
  -8  -1  -1    0.48    0.37
  -8  -1  -1    0.39    0.35
  -8  -1  -1    0.08    0.29
   8   1   1    0.05    0.64
  -9  -1  -1    2.72    0.68
  -9  -1  -1    0.89    0.51
  -9  -1  -1    1.15    0.45
   9   1   1    2.37    1.21
 -10  -1  -1    2.59    0.69
 -10  -1  -1    3.01    0.80
  10   1   1    0.45    1.02
  12  -2  -1   10.06    2.38
 -12   2   1   10.64    1.20
 -12   2   1   11.58    1.25
  11  -2  -1    4.68    1.66
 -11   2   1    6.15    0.89
 -11   2   1    8.04    1.00
 -11   2   1    7.63    1.00
  10  -2  -1    3.59    1.23
  10  -2  -1    2.50    1.21
 -10   2   1    3.44    0.64
 -10   2   1    4.03    0.70
 -10   2   1    3.39    0.64
   9  -2  -1  118.73    5.13
   9  -2  -1  109.44    5.23
  -9   2   1  111.64    3.75
  -9   2   1  107.80    3.72
  -9   2   1  109.38    3.76
   8  -2  -1    1.33    0.77
   8  -2  -1    0.78    0.63
  -8   2   1    0.45    0.32
  -8   2   1    0.68    0.35
  -8   2   1    0.52    0.33
  -8   2   1    0.68    0.33
   7  -2  -1   52.66    2.77
   7  -2  -1   50.64    2.72
  -7   2   1   51.64    1.92
  -7   2   1   50.96    1.86
  -7   2   1   50.31    1.90
  -7   2   1   52.69    1.94
   6  -2  -1    3.26    0.39
   6  -2  -1    2.33    0.76
   6  -2  -1    1.85    0.74
  -6   2   1    1.96    0.32
  -6   2   1    1.72    0.36
  -6   2   1    2.57    0.41
   5  -2  -1    9.65    0.58
   5  -2  -1    8.80    0.87
   5  -2  -1   10.31    0.51
   5  -2  -1   11.17    1.01
  -5   2   1    9.76    0.58
  -5   2   1    9.11    0.51
  -5   2   1    8.91    0.55
  -5   2   1    9.92    0.62
   4  -2  -1   28.98    1.47
   4  -2  -1   30.82    1.62
   4  -2  -1   29.60    1.05
  -4   2   1   28.40    1.09
  -4   2   1   29.92    1.13
  -4   2   1   29.98    1.05
  -4   2   1   28.59    1.11
   3  -2  -1   12.18    0.55
   3  -2  -1   12.44    0.88
   3  -2  -1   12.91    0.80
  -3   2   1   12.75    0.58
  -3   2   1   12.34    0.53
  -3   2   1   11.56    0.53
  -3   2   1   12.02    0.60
  -3   2   1   13.22    0.61
   2  -2  -1    7.79    0.34
   2  -2  -1    8.14    0.45
   2  -2  -1    8.73    0.46
  -2   2   1    8.28    0.44
  -2   2   1    8.19    0.46
  -2   2   1    8.95    0.48
   1  -2  -1    4.73    0.36
   1  -2  -1    4.24    0.35
  -1   2   1    4.18    0.34
  -1   2   1    4.12    0.34
   0  -2  -1    3.12    0.35
   0  -2  -1    5.12    0.53
   0  -2  -1    4.26    0.50
   0  -2  -1    3.56    0.46
   0   2   1    4.68    0.46
   0   2   1    4.43    0.46
   0   2   1    3.77    0.53
  -1  -2  -1    5.82    0.45
  -1  -2  -1    5.28    0.41
  -1  -2  -1    5.29    0.40
  -1  -2  -1    5.33    0.43
   1   2   1    5.57    0.54
   1   2   1    7.09    0.80
   1   2   1    5.84    0.43
  -2  -2  -1   39.18    1.36
  -2  -2  -1   38.71    1.77
  -2  -2  -1   38.12    1.43
  -2  -2  -1   38.44    1.42
  -2  -2  -1   38.40    1.42
   2   2   1   38.83    1.80
   2   2   1   37.75    1.77
   2   2   1   38.36    1.43
  -3  -2  -1   32.32    1.26
  -3  -2  -1   29.92    1.25
  -3  -2  -1   31.72    1.38
  -3  -2  -1   31.32    1.31
  -3  -2  -1   32.92    1.21
   3   2   1   32.08    1.78
   3   2   1   31.63    1.71
   3   2   1   30.81    1.27
  -4  -2  -1   23.21    1.09
  -4  -2  -1   24.00    1.18
  -4  -2  -1   22.81    1.07
  -4  -2  -1   23.83    1.15
  -4  -2  -1   23.43    1.03
   4   2   1   24.54    1.69
   4   2   1   22.90    1.56
   4   2   1   23.87    1.07
  -5  -2  -1    3.76    0.56
  -5  -2  -1    2.71    0.55
  -5  -2  -1    3.70    0.50
  -5  -2  -1    4.38    0.61
  -5  -2  -1    3.73    0.56
   5   2   1    4.19    0.99
  -6  -2  -1   91.88    3.16
  -6  -2  -1   89.20    3.22
  -6  -2  -1   88.26    3.15
  -6  -2  -1   90.67    3.09
  -6  -2  -1   92.18    3.26
   6   2   1   87.99    4.12
  -7  -2  -1    3.03    0.59
  -7  -2  -1    3.32    0.66
  -7  -2  -1    2.90    0.56
  -7  -2  -1    3.33    0.67
   7   2   1    4.19    1.26
  -8  -2  -1   63.60    2.63
  -8  -2  -1   65.60    2.59
  -8  -2  -1   64.34    2.66
   8   2   1   60.15    3.76
  -9  -2  -1    0.55    0.53
  -9  -2  -1    0.77    0.56
  -9  -2  -1    1.12    0.52
   9   2   1   -0.37    0.77
 -10  -2  -1    4.17    0.83
 -10  -2  -1    5.80    1.10
 -10  -2  -1    4.42    1.01
  10   2   1    3.74    1.53
  12  -3  -1    0.88    1.41
 -12   3   1    1.82    0.75
 -12   3   1    0.32    0.52
  11  -3  -1    5.24    1.66
 -11   3   1    3.88    0.73
 -11   3   1    4.08    0.74
 -11   3   1    4.22    0.78
  10  -3  -1    0.76    0.96
  10  -3  -1    0.93    0.92
 -10   3   1    0.13    0.41
 -10   3   1   -0.02    0.35
 -10   3   1    0.09    0.37
   9  -3  -1    1.19    0.88
   9  -3  -1    0.55    0.76
  -9   3   1    2.31    0.53
  -9   3   1    1.34    0.46
  -9   3   1    1.58    0.45
   8  -3  -1   66.55    3.50
   8  -3  -1   65.19    3.46
  -8   3   1   64.69    2.43
  -8   3   1   66.75    2.36
  -8   3   1   65.84    2.42
  -8   3   1   67.22    2.44
   7  -3  -1   75.39    3.65
   7  -3  -1   81.43    3.66
  -7   3   1   81.56    2.66
  -7   3   1   78.67    2.73
  -7   3   1   80.72    2.72
   6  -3  -1   13.84    1.60
   6  -3  -1   14.80    1.27
   6  -3  -1   13.96    0.66
  -6   3   1   14.02    0.80
  -6   3   1   15.67    0.85
  -6   3   1   13.85    0.79
  -6   3   1   14.28    0.73
   5  -3  -1   22.26    1.41
   5  -3  -1   22.80    1.53
   5  -3  -1   21.62    0.89
  -5   3   1   22.46    0.92
  -5   3   1   23.33    0.98
  -5   3   1   21.77    1.00
  -5   3   1   21.17    0.99
   4  -3  -1  639.60   17.81
   4  -3  -1  642.42   18.63
   4  -3  -1  627.84   18.32
  -4   3   1  652.46   17.79
  -4   3   1  618.37   17.88
  -4   3   1  637.18   17.91
   3  -3  -1  130.58    4.59
   3  -3  -1  140.41    4.16
   3  -3  -1  136.77    4.41
   3  -3  -1  140.21    4.17
   3  -3  -1  137.49    4.03
  -3   3   1  144.04    4.16
  -3   3   1  138.88    4.03
  -3   3   1  141.47    4.22
  -3   3   1  136.47    4.20
   2  -3  -1    0.40    0.23
   2  -3  -1    0.48    0.24
  -2   3   1    0.81    0.28
  -2   3   1    0.47    0.22
  -2   3   1    0.34    0.22
   1  -3  -1  109.81    3.46
   1  -3  -1  100.50    3.56
   1  -3  -1  109.16    3.46
  -1   3   1  110.82    3.37
  -1   3   1  109.03    3.40
  -1   3   1  106.62    3.23
   0  -3  -1  124.70    4.09
   0  -3  -1  132.47    4.16
   0  -3  -1  130.50    4.13
   0  -3  -1  133.58    4.18
   0   3   1  132.71    4.08
   0   3   1  127.15    4.20
   0   3   1  134.80    4.04
  -1  -3  -1   16.42    0.89
  -1  -3  -1   17.44    0.88
  -1  -3  -1   16.38    0.91
  -1  -3  -1   15.63    0.87
   1   3   1   15.88    0.96
   1   3   1   16.90    0.88
   1   3   1   16.13    1.00
  -2  -3  -1    9.88    0.66
  -2  -3  -1   11.11    0.74
  -2  -3  -1   10.03    0.70
  -2  -3  -1   11.67    0.75
   2   3   1   10.13    0.88
   2   3   1   10.50    0.91
   2   3   1   11.08    0.72
  -3  -3  -1    8.79    0.89
  -3  -3  -1    8.33    0.86
  -3  -3  -1    7.30    0.59
  -3  -3  -1    7.14    0.79
   3   3   1    9.22    0.91
   3   3   1    9.43    1.32
   3   3   1    9.67    1.23
  -4  -3  -1    2.23    0.51
  -4  -3  -1    1.42    0.44
  -4  -3  -1    2.90    0.51
  -4  -3  -1    3.10    0.55
  -4  -3  -1    2.80    0.55
   4   3   1    2.82    0.81
   4   3   1    3.62    0.60
   4   3   1    2.95    0.80
  -5  -3  -1    2.54    0.60
  -5  -3  -1    3.31    0.62
  -5  -3  -1    2.06    0.52
  -5  -3  -1    3.07    0.54
  -5  -3  -1    1.84    0.45
   5   3   1    2.90    0.91
  -6  -3  -1    3.09    0.65
  -6  -3  -1    4.96    0.79
  -6  -3  -1    5.17    0.84
  -6  -3  -1    3.82    0.66
   6   3   1    2.53    0.95
  -7  -3  -1   28.36    1.65
  -7  -3  -1   26.58    1.60
  -7  -3  -1   29.19    1.63
  -7  -3  -1   28.25    1.54
   7   3   1   30.13    2.39
  -8  -3  -1   25.53    1.53
  -8  -3  -1   23.38    1.57
  -8  -3  -1   23.31    1.59
   8   3   1   24.49    2.36
  -9  -3  -1   -0.16    0.46
  -9  -3  -1    0.44    0.59
  -9  -3  -1   -0.23    0.55
   9   3   1   -0.10    0.86
 -10  -3  -1    7.10    1.34
 -10  -3  -1    5.57    1.11
  10   3   1    3.92    1.68
  12  -4  -1    2.02    1.49
 -12   4   1    2.19    0.68
 -12   4   1    1.69    0.64
  11  -4  -1   -0.39    0.95
 -11   4   1    0.51    0.50
 -11   4   1    0.76    0.50
 -11   4   1    0.26    0.47
  10  -4  -1    1.70    1.16
  10  -4  -1    0.22    0.84
 -10   4   1    0.49    0.41
 -10   4   1    0.66    0.49
 -10   4   1    0.43    0.42
   9  -4  -1    0.80    0.79
   9  -4  -1    1.72    0.97
  -9   4   1    0.71    0.43
  -9   4   1    1.17    0.44
  -9   4   1    1.08    0.44
   8  -4  -1    1.49    0.89
   8  -4  -1    2.10    0.87
  -8   4   1    1.94    0.42
  -8   4   1    2.54    0.54
  -8   4   1    1.15    0.38
   7  -4  -1   -0.18    0.55
   7  -4  -1    0.35    0.54
  -7   4   1    0.01    0.26
  -7   4   1    0.10    0.27
   6  -4  -1    0.50    0.24
   6  -4  -1    0.94    0.54
   6  -4  -1    0.63    0.58
  -6   4   1    0.93    0.32
  -6   4   1    0.96    0.30
  -6   4   1    0.83    0.31
   5  -4  -1   37.41    1.89
   5  -4  -1   38.36    1.41
   5  -4  -1   34.75    2.02
  -5   4   1   35.15    1.49
  -5   4   1   39.11    1.40
  -5   4   1   37.11    1.51
   4  -4  -1  120.07    3.72
   4  -4  -1  121.59    3.63
   4  -4  -1  121.20    4.10
   4  -4  -1  115.23    4.31
  -4   4   1  121.61    3.82
  -4   4   1  118.68    3.81
  -4   4   1  118.22    3.73
   3  -4  -1    5.82    0.63
   3  -4  -1    4.74    0.38
   3  -4  -1    6.90    0.76
   3  -4  -1    5.53    0.60
   3  -4  -1    4.09    0.69
  -3   4   1    5.24    0.58
  -3   4   1    4.36    0.56
  -3   4   1    4.51    0.51
   2  -4  -1   11.11    0.74
   2  -4  -1   12.03    0.78
  -2   4   1    9.65    0.68
  -2   4   1   12.12    0.74
   1  -4  -1  285.94    8.36
   1  -4  -1  276.68    8.32
   1  -4  -1  275.61    8.34
  -1   4   1  281.57    8.22
  -1   4   1  278.06    8.26
  -1   4   1  274.76    7.94
   0  -4  -1   79.88    2.82
   0  -4  -1   74.59    2.75
   0  -4  -1   74.52    2.73
   0   4   1   76.94    2.60
   0   4   1   73.30    2.77
   0   4   1   75.95    2.69
  -1  -4  -1  150.40    4.45
  -1  -4  -1  140.49    4.67
  -1  -4  -1  140.68    4.67
  -1  -4  -1  142.56    4.63
  -1  -4  -1  144.87    4.71
   1   4   1  146.51    4.76
   1   4   1  144.42    4.84
   1   4   1  145.92    4.64
  -2  -4  -1   18.31    1.08
  -2  -4  -1   20.30    1.16
  -2  -4  -1   17.55    1.08
  -2  -4  -1   19.90    1.13
   2   4   1   19.53    1.31
   2   4   1   19.31    1.09
   2   4   1   19.66    1.29
  -3  -4  -1   26.26    1.40
  -3  -4  -1   28.73    1.44
  -3  -4  -1   28.05    1.44
  -3  -4  -1   26.79    1.35
   3   4   1   27.86    1.74
   3   4   1   26.74    1.73
   3   4   1   26.72    1.36
  -4  -4  -1   10.51    0.96
  -4  -4  -1   12.41    1.29
  -4  -4  -1    9.82    1.13
  -4  -4  -1   11.69    1.15
   4   4   1   13.81    1.24
   4   4   1   10.81    1.52
  -5  -4  -1   21.46    1.32
  -5  -4  -1   20.58    1.39
  -5  -4  -1   19.88    1.22
  -5  -4  -1   17.87    1.26
   5   4   1   18.59    1.67
  -6  -4  -1    2.03    0.61
  -6  -4  -1    1.26    0.49
  -6  -4  -1    2.28    0.71
  -6  -4  -1    1.73    0.65
   6   4   1    1.48    0.90
  -7  -4  -1    0.82    0.65
  -7  -4  -1    1.55    0.58
  -7  -4  -1    0.45    0.49
  -7  -4  -1    0.19    0.55
   7   4   1   -0.15    0.66
  -8  -4  -1    0.43    0.58
  -8  -4  -1    0.67    0.53
  -8  -4  -1    0.13    0.61
   8   4   1    1.37    1.06
  -9  -4  -1    0.14    0.82
  -9  -4  -1   -0.60    0.60
  -9  -4  -1    1.44    0.88
   9   4   1    0.10    0.97
  12  -5  -1    1.46    1.43
 -12   5   1    0.86    0.61
 -12   5   1    0.40    0.54
  11  -5  -1   41.35    3.55
 -11   5   1   52.30    2.35
 -11   5   1   48.64    2.24
 -11   5   1   52.05    2.28
  10  -5  -1   61.66    3.92
  10  -5  -1   57.47    3.80
 -10   5   1   56.89    2.46
 -10   5   1   58.30    2.47
 -10   5   1   65.21    2.57
   9  -5  -1    1.91    0.95
   9  -5  -1    4.71    1.37
  -9   5   1    2.13    0.58
  -9   5   1    2.08    0.50
   8  -5  -1   16.76    1.66
   8  -5  -1   20.91    1.95
  -8   5   1   19.98    1.16
  -8   5   1   18.42    1.13
   7  -5  -1   47.87    2.62
   7  -5  -1   47.19    2.75
  -7   5   1   45.92    1.94
  -7   5   1   48.93    2.00
   6  -5  -1   23.57    1.74
   6  -5  -1   23.11    1.59
   6  -5  -1   26.26    1.12
  -6   5   1   24.63    1.26
  -6   5   1   25.47    1.20
  -6   5   1   23.36    1.24
  -6   5   1   24.66    1.12
   5  -5  -1   23.59    1.45
   5  -5  -1   25.19    1.09
   5  -5  -1   25.77    1.15
   5  -5  -1   22.59    1.59
  -5   5   1   23.33    1.23
  -5   5   1   25.94    1.19
  -5   5   1   24.03    1.23
   4  -5  -1   13.89    0.85
   4  -5  -1   14.48    1.12
   4  -5  -1   15.95    0.90
   4  -5  -1   14.12    1.00
   4  -5  -1   13.04    0.72
  -4   5   1   14.21    0.90
  -4   5   1   13.48    0.84
  -4   5   1   14.08    0.90
   3  -5  -1    3.19    0.46
   3  -5  -1    4.43    0.67
   3  -5  -1    2.86    0.57
   3  -5  -1    2.66    0.59
  -3   5   1    3.21    0.52
  -3   5   1    3.86    0.59
  -3   5   1    4.41    0.65
   2  -5  -1    8.18    0.91
   2  -5  -1    3.56    0.61
  -2   5   1    5.20    0.68
  -2   5   1    6.32    0.79
   1  -5  -1    0.44    0.37
   1  -5  -1    0.91    0.40
   1  -5  -1    0.70    0.39
  -1   5   1    0.46    0.33
  -1   5   1    0.03    0.28
  -1   5   1    1.71    0.32
   0  -5  -1   51.33    2.20
   0  -5  -1   49.92    2.14
   0  -5  -1   49.73    2.15
   0   5   1   50.91    1.94
   0   5   1   50.27    2.09
   0   5   1   50.70    2.15
  -1  -5  -1  178.60    5.29
  -1  -5  -1  177.71    5.69
  -1  -5  -1  181.17    5.73
  -1  -5  -1  174.07    5.69
   1   5   1  173.02    5.62
   1   5   1  174.58    5.81
   1   5   1  167.60    5.65
  -2  -5  -1    1.21    0.49
  -2  -5  -1    1.08    0.51
  -2  -5  -1    1.32    0.51
   2   5   1    2.62    0.59
   2   5   1    1.69    0.64
  -3  -5  -1    1.03    0.48
  -3  -5  -1    3.05    0.71
  -3  -5  -1    0.80    0.44
   3   5   1    0.10    0.37
   3   5   1    0.32    0.47
  -4  -5  -1  183.63    6.27
  -4  -5  -1  176.29    6.39
  -4  -5  -1  186.98    6.31
  -4  -5  -1  188.53    6.23
   4   5   1  202.12    6.69
   4   5   1  193.11    6.88
  -5  -5  -1  124.10    4.43
  -5  -5  -1  121.74    4.52
  -5  -5  -1  122.35    4.50
  -5  -5  -1  116.42    4.58
   5   5   1  116.67    5.10
  -6  -5  -1    1.84    0.75
  -6  -5  -1    0.27    0.51
  -6  -5  -1    0.69    0.57
  -6  -5  -1    0.94    0.58
   6   5   1    0.76    0.80
  -7  -5  -1    3.92    1.02
  -7  -5  -1    4.71    0.97
  -7  -5  -1    4.46    1.01
   7   5   1    4.73    1.41
  -8  -5  -1   36.67    2.28
  -8  -5  -1   34.98    2.28
   8   5   1   34.99    2.95
  -9  -5  -1    5.58    1.34
   9   5   1    3.39    1.53
  12  -6  -1    1.63    1.44
 -12   6   1    0.00    0.56
 -12   6   1    0.54    0.54
 -12   6   1    0.30    0.57
  11  -6  -1   39.70    3.32
 -11   6   1   40.15    2.04
 -11   6   1   41.39    2.10
  10  -6  -1    5.20    1.60
  10  -6  -1    5.20    1.46
 -10   6   1    5.77    0.89
 -10   6   1    3.89    0.76
   9  -6  -1   15.37    2.04
   9  -6  -1   19.09    2.50
  -9   6   1   19.60    1.26
  -9   6   1   20.03    1.27
   8  -6  -1   37.61    2.62
   8  -6  -1   35.47    2.36
  -8   6   1   34.67    1.72
  -8   6   1   35.53    1.75
   7  -6  -1  126.12    5.07
   7  -6  -1  117.91    4.71
  -7   6   1  115.83    4.13
  -7   6   1  120.18    4.11
   6  -6  -1   11.30    1.29
   6  -6  -1    8.94    1.33
   6  -6  -1    9.54    0.69
   6  -6  -1    9.58    0.74
  -6   6   1    6.57    0.97
  -6   6   1    8.84    0.94
  -6   6   1   10.22    1.02
   5  -6  -1   22.52    1.58
   5  -6  -1   24.52    1.23
   5  -6  -1   24.92    1.26
   5  -6  -1   22.37    1.42
   5  -6  -1   25.60    1.14
  -5   6   1   25.48    1.36
  -5   6   1   23.64    1.26
  -5   6   1   27.00    1.37
   4  -6  -1    7.03    0.59
   4  -6  -1    5.60    0.77
   4  -6  -1    7.80    0.88
   4  -6  -1    7.88    1.03
   4  -6  -1    8.08    0.91
  -4   6   1    6.52    0.82
  -4   6   1    7.38    0.80
  -4   6   1    5.23    0.74
   3  -6  -1    0.37    0.36
   3  -6  -1    0.14    0.35
   3  -6  -1    0.57    0.44
   3  -6  -1    0.43    0.42
  -3   6   1    1.13    0.43
  -3   6   1    0.80    0.37
   2  -6  -1   15.34    0.88
   2  -6  -1   14.78    1.10
   2  -6  -1   15.50    1.11
  -2   6   1   11.76    0.98
  -2   6   1   12.67    0.94
   1  -6  -1    6.21    0.86
   1  -6  -1    8.62    1.07
   1  -6  -1    5.56    0.89
  -1   6   1    5.37    0.81
  -1   6   1    7.11    0.83
   0  -6  -1    9.89    1.12
   0  -6  -1    9.45    1.15
   0  -6  -1   11.24    1.25
   0   6   1   10.13    1.11
  -1  -6  -1    2.11    0.63
  -1  -6  -1    1.43    0.52
  -1  -6  -1    2.04    0.65
   1   6   1    2.21    0.65
   1   6   1    1.98    0.61
  -2  -6  -1    0.92    0.50
  -2  -6  -1    0.55    0.44
  -2  -6  -1    0.28    0.41
   2   6   1    0.74    0.47
   2   6   1    0.71    0.54
  -3  -6  -1    5.90    1.03
  -3  -6  -1    7.48    1.16
  -3  -6  -1    7.99    1.18
   3   6   1    7.17    1.28
   3   6   1    9.22    1.16
  -4  -6  -1   28.50    1.77
  -4  -6  -1   26.32    1.73
  -4  -6  -1   25.05    2.12
  -4  -6  -1   26.98    1.77
   4   6   1   26.10    2.00
  -5  -6  -1    1.26    0.69
  -5  -6  -1    1.20    0.68
  -5  -6  -1    0.13    0.55
   5   6   1    1.06    0.75
  -6  -6  -1   10.86    1.60
  -6  -6  -1   13.15    1.72
   6   6   1   14.38    2.20
  -7  -6  -1   11.59    1.69
  -7  -6  -1   14.89    1.90
   7   6   1   11.39    2.17
  -8  -6  -1   21.57    2.39
   8   6   1   22.86    3.21
 -12   7   1    2.54    0.77
 -12   7   1    2.25    0.75
 -12   7   1    3.88    0.89
 -11   7   1    1.36    0.67
 -11   7   1    0.90    0.60
  10  -7  -1    3.53    1.44
  10  -7  -1    7.49    1.64
 -10   7   1    2.97    0.74
 -10   7   1    7.20    1.02
   9  -7  -1    5.03    1.20
   9  -7  -1    5.52    1.48
  -9   7   1    5.01    0.88
  -9   7   1    3.41    0.73
   8  -7  -1    5.79    1.11
   8  -7  -1    8.41    1.61
  -8   7   1    3.85    0.76
  -8   7   1    4.85    0.82
   7  -7  -1    0.82    0.64
   7  -7  -1   -0.24    0.59
  -7   7   1    0.48    0.46
  -7   7   1   -0.02    0.44
   6  -7  -1  138.79    4.56
   6  -7  -1  135.53    4.41
   6  -7  -1  141.74    5.27
   6  -7  -1  137.59    4.86
  -6   7   1  142.15    4.79
  -6   7   1  134.75    4.72
   5  -7  -1   23.08    1.36
   5  -7  -1   21.58    1.36
   5  -7  -1   23.05    1.19
   5  -7  -1   22.84    1.35
   5  -7  -1   23.43    1.57
  -5   7   1   25.71    1.47
  -5   7   1   25.08    1.44
   4  -7  -1   25.18    1.53
   4  -7  -1   28.61    1.40
   4  -7  -1   25.84    1.51
   4  -7  -1   25.97    1.34
   4  -7  -1   27.19    1.54
  -4   7   1   24.13    1.47
  -4   7   1   27.66    1.51
   3  -7  -1   69.81    3.04
   3  -7  -1   78.07    2.80
   3  -7  -1   74.00    3.07
  -3   7   1   70.37    2.93
  -3   7   1   75.94    2.92
   2  -7  -1  335.81   10.53
   2  -7  -1  353.47    9.88
   2  -7  -1  332.97   10.49
  -2   7   1  340.85   10.42
  -2   7   1  332.19   10.26
   1  -7  -1   24.89    1.58
   1  -7  -1   20.69    1.47
  -1   7   1   23.03    1.46
   0  -7  -1    3.48    0.84
   0  -7  -1    5.24    0.95
   0   7   1    4.58    0.86
  -1  -7  -1   59.66    2.74
  -1  -7  -1   60.65    2.77
   1   7   1   62.05    2.78
   1   7   1   64.53    2.72
  -2  -7  -1   30.12    1.84
  -2  -7  -1   30.39    1.81
   2   7   1   29.00    1.88
   2   7   1   31.63    1.77
  -3  -7  -1    6.15    1.08
  -3  -7  -1    6.19    1.13
   3   7   1    8.03    1.40
   3   7   1    8.04    1.18
  -4  -7  -1    5.89    1.15
  -4  -7  -1    3.80    0.95
   4   7   1    6.06    1.30
  -5  -7  -1    0.56    0.71
  -5  -7  -1    1.17    0.74
   5   7   1    3.30    1.15
  -6  -7  -1    1.26    0.81
  -6  -7  -1    1.36    0.85
   6   7   1    1.94    1.13
  -7  -7  -1    0.42    0.69
  -7  -7  -1   -0.05    0.70
   7   7   1    0.04    0.98
 -12   8   1    1.98    0.80
 -12   8   1    0.83    0.81
 -11   8   1   -0.26    0.55
 -11   8   1    0.62    0.59
  10  -8  -1    0.08    1.02
 -10   8   1    1.47    0.68
 -10   8   1    0.19    0.55
   9  -8  -1    1.66    1.09
  -9   8   1    1.21    0.64
  -9   8   1    1.95    0.69
   8  -8  -1    0.56    0.87
  -8   8   1   -0.13    0.42
  -8   8   1    0.81    0.60
   7  -8  -1    0.75    0.77
  -7   8   1    1.25    0.57
  -7   8   1    1.63    0.63
   6  -8  -1    1.06    0.73
   6  -8  -1   -0.12    0.59
  -6   8   1    0.55    0.54
  -6   8   1    1.19    0.58
   5  -8  -1    0.75    0.59
   5  -8  -1    1.11    0.56
   5  -8  -1    1.99    0.53
  -5   8   1    0.19    0.49
  -5   8   1    1.36    0.57
   4  -8  -1    0.88    0.55
   4  -8  -1    0.29    0.41
   4  -8  -1    0.35    0.47
   4  -8  -1   -0.06    0.42
  -4   8   1    0.67    0.49
  -4   8   1    0.24    0.44
   3  -8  -1   58.23    2.80
   3  -8  -1   59.27    2.84
   3  -8  -1   61.80    2.32
  -3   8   1   62.80    2.73
   2  -8  -1   39.54    2.21
   2  -8  -1   47.97    2.37
  -2   8   1   38.92    2.10
   1  -8  -1   29.62    1.85
   1  -8  -1   29.17    1.84
  -1   8   1   29.08    1.78
   0  -8  -1    0.40    0.63
   0  -8  -1    1.21    0.62
   0   8   1    1.53    0.68
  -1  -8  -1  129.33    4.84
  -1  -8  -1  127.44    4.82
   1   8   1  120.78    4.65
  -2  -8  -1    2.26    0.81
  -2  -8  -1    1.73    0.80
   2   8   1    2.75    0.88
   2   8   1    1.19    0.71
  -3  -8  -1   40.25    2.38
  -3  -8  -1   44.23    2.49
   3   8   1   43.27    2.34
   3   8   1   45.41    2.68
  -4  -8  -1    0.54    0.71
  -4  -8  -1    1.07    0.74
   4   8   1    0.75    0.84
  -5  -8  -1    2.69    0.96
  -5  -8  -1    1.74    0.88
   5   8   1    2.77    1.23
  -6  -8  -1    6.79    1.53
  -6  -8  -1    6.25    1.41
   6   8   1    5.67    1.70
 -11   9   1    1.61    0.81
 -11   9   1    3.46    0.92
  10  -9  -1    1.28    1.20
 -10   9   1    0.77    0.69
 -10   9   1    0.60    0.66
   9  -9  -1   86.15    4.32
  -9   9   1   84.94    3.58
  -9   9   1   77.12    3.47
   8  -9  -1   34.82    2.46
  -8   9   1   36.50    2.12
  -8   9   1   36.29    2.14
   7  -9  -1    7.86    1.35
  -7   9   1    8.18    1.14
  -7   9   1    8.50    1.21
   6  -9  -1   35.82    2.12
  -6   9   1   37.77    2.16
  -6   9   1   38.94    2.17
   5  -9  -1   25.39    1.75
  -5   9   1   25.68    1.73
   4  -9  -1   14.29    1.66
   4  -9  -1   12.67    1.36
  -4   9   1   11.35    1.40
   3  -9  -1   15.86    1.74
   3  -9  -1   14.57    1.77
  -3   9   1   16.58    1.66
   2  -9  -1   10.38    1.46
   2  -9  -1   10.37    1.47
  -2   9   1   10.68    1.34
   1  -9  -1    4.33    1.02
   1  -9  -1    4.76    0.99
  -1   9   1    4.74    1.02
   0  -9  -1    0.45    0.61
   0  -9  -1   -0.18    0.51
   0   9   1   -0.83    0.47
  -1  -9  -1   -0.49    0.50
  -1  -9  -1    0.30    0.61
   1   9   1    0.35    0.66
  -2  -9  -1   42.02    2.52
  -2  -9  -1   39.99    2.47
   2   9   1   43.63    2.38
  -3  -9  -1   37.05    2.36
  -3  -9  -1   30.83    2.22
  -4  -9  -1    4.06    1.19
  -4  -9  -1    3.84    1.20
  -5  -9  -1    2.18    1.07
  -5  -9  -1    1.35    0.94
 -11  10   1    4.56    1.07
 -10  10   1    5.30    1.14
  -9  10   1   39.19    2.33
  -8  10   1    0.57    0.70
  -7  10   1    8.69    1.42
  -6  10   1   60.32    3.00
   5 -10  -1   33.23    2.19
  -5  10   1   37.54    2.24
   4 -10  -1   11.18    1.52
  -4  10   1   10.37    1.40
   3 -10  -1    2.21    0.90
  -3  10   1    2.30    0.80
   2 -10  -1    1.49    0.87
   2 -10  -1    1.73    0.78
  -2  10   1    1.89    0.78
   1 -10  -1    3.70    1.06
   1 -10  -1    2.57    0.96
  -1  10   1    3.11    0.87
   0 -10  -1    1.81    0.81
   0 -10  -1    1.85    0.89
   0  10   1    2.31    0.81
  -1 -10  -1    1.18    0.87
  -1 -10  -1    0.52    0.73
   1  10   1    0.47    0.66
  -2 -10  -1    1.69    0.83
  -2 -10  -1    3.77    1.20
   2  10   1    1.99    0.89
  -3 -10  -1    0.72    0.86
  -3 -10  -1    0.98    0.89
  -4 -10  -1   -0.38    0.86
  -4 -10  -1    0.75    0.98
 -10  11   1    2.53    0.92
  -9  11   1    2.32    0.94
  -8  11   1    7.81    1.40
  -7  11   1    1.01    0.86
  -6  11   1    9.42    1.44
   5 -11  -1    4.89    1.11
  -5  11   1    5.69    1.18
   4 -11  -1   79.61    3.84
  -4  11   1   81.37    3.73
   3 -11  -1   -0.76    0.76
  -3  11   1    0.16    0.61
   2 -11  -1    1.67    0.82
  -2  11   1    3.29    1.01
   1 -11  -1   66.11    3.37
   1 -11  -1   58.38    3.24
  -1  11   1   67.28    3.24
   0 -11  -1   68.86    3.56
   0 -11  -1   69.54    3.56
   0  11   1   72.73    3.42
  -1 -11  -1    1.96    0.86
  -1 -11  -1    2.74    1.11
   1  11   1    2.98    1.04
  -2 -11  -1    4.91    1.33
  -2 -11  -1    5.03    1.32
  -3 -11  -1   12.37    1.87
  -3 -11  -1   18.83    2.40
  -9  12   1    1.39    0.95
  -8  12   1    0.25    0.85
  -7  12   1    0.33    0.86
  -6  12   1   -0.78    0.72
  -5  12   1    0.19    0.74
   4 -12  -1    0.79    0.92
  -4  12   1    0.04    0.66
   3 -12  -1    1.76    1.08
  -3  12   1    3.04    1.01
   2 -12  -1    1.09    0.83
  -2  12   1    0.54    0.72
   1 -12  -1   34.45    2.50
  -1  12   1   31.91    2.23
   0 -12  -1    2.23    1.13
   0 -12  -1    1.84    1.32
   0  12   1    0.60    0.77
  -1 -12  -1   11.33    1.85
  -1 -12  -1    9.88    1.79
   1  12   1   10.33    1.57
  -8  13   1    7.20    1.50
  -7  13   1   43.07    2.80
  -6  13   1    8.15    1.57
  -5  13   1    6.93    1.44
   4 -13  -1   16.33    2.18
  -4  13   1   12.68    1.77
   3 -13  -1    7.04    1.60
  -3  13   1    6.92    1.36
   2 -13  -1    2.57    1.21
  -2  13   1    2.74    1.01
   1 -13  -1    3.67    1.22
  -1  13   1    1.84    0.98
   0  13  -2   -0.47    0.87
   0 -13   2   -0.35    0.94
  -1  13  -2    0.72    0.91
   1 -13   2    0.94    0.98
  -2  13  -2    9.98    1.63
  -3  13  -2    4.17    1.15
  -4  13  -2   33.98    2.41
  -5  13  -2    1.89    0.94
  -6  13  -2    7.31    1.50
  -7  13  -2   17.42    2.11
   2  12  -2    1.26    0.91
  -2 -12   2   -0.18    0.83
   1  12  -2    1.16    0.81
  -1 -12   2    0.96    0.86
   0  12  -2    4.42    1.08
   0 -12   2    2.10    0.93
  -1  12  -2    4.32    1.15
   1 -12   2    5.02    1.25
  -2  12  -2    6.26    1.33
   2 -12   2    4.07    1.15
  -3  12  -2   10.95    1.60
  -4  12  -2   22.36    2.25
  -5  12  -2    6.75    1.32
  -6  12  -2   13.02    1.80
  -7  12  -2   69.70    3.56
  -8  12  -2    5.95    1.36
  -4 -11   2    0.68    0.95
  -4 -11   2    1.37    1.12
   3  11  -2   32.29    2.31
  -3 -11   2   35.73    2.58
  -3 -11   2   37.50    2.64
   2  11  -2    1.38    0.82
  -2 -11   2    3.30    1.20
  -2 -11   2    1.73    1.04
   1  11  -2   24.44    1.92
  -1 -11   2   27.03    2.10
   0  11  -2    3.49    1.01
   0 -11   2    3.43    1.03
  -1  11  -2   30.35    2.07
   1 -11   2   29.23    2.11
  -2  11  -2    0.39    0.63
   2 -11   2    0.92    0.92
   2 -11   2    0.66    0.85
  -3  11  -2    4.24    1.04
   3 -11   2    3.13    1.44
  -4  11  -2    1.55    0.79
  -5  11  -2    2.85    1.00
  -6  11  -2    1.85    0.90
  -7  11  -2    3.32    1.04
  -8  11  -2    0.56    0.84
  -8  11  -2    0.17    0.85
  -9  11  -2    1.39    0.84
  -9  11  -2    0.27    0.85
  -5 -10   2    1.92    1.10
  -5 -10   2    2.40    1.12
   4  10  -2    9.50    1.49
  -4 -10   2   10.35    1.76
  -4 -10   2    7.93    1.57
   3  10  -2   21.86    1.74
  -3 -10   2   19.68    2.21
  -3 -10   2   24.25    2.43
   2  10  -2    6.06    1.23
  -2 -10   2    7.47    1.41
  -2 -10   2    5.17    1.19
   1  10  -2    5.72    1.14
  -1 -10   2    6.84    1.36
  -1 -10   2    3.92    1.06
   0  10  -2  123.38    4.94
   0 -10   2  126.54    5.11
   0 -10   2  142.00    5.40
  -1  10  -2   66.85    3.10
   1 -10   2   65.82    3.20
  -2  10  -2    7.57    1.20
   2 -10   2    8.51    1.49
   2 -10   2    9.05    1.40
  -3  10  -2    3.59    0.90
   3 -10   2    2.95    1.04
   3 -10   2    3.71    0.99
  -4  10  -2   95.11    3.92
   4 -10   2   89.56    4.08
  -5  10  -2    3.92    0.98
  -5  10  -2    3.63    0.89
  -6  10  -2    7.26    1.14
  -6  10  -2    7.65    1.27
  -7  10  -2    3.87    1.00
  -7  10  -2    3.47    0.88
  -8  10  -2    4.92    1.10
  -8  10  -2    5.07    1.02
  -9  10  -2    1.47    0.82
  -9  10  -2    2.07    0.81
 -10  10  -2    3.35    1.00
  -6  -9   2    7.89    1.58
  -6  -9   2    7.67    1.51
  -5  -9   2    2.41    0.97
  -5  -9   2    1.62    0.96
   4   9  -2   -0.17    0.65
  -4  -9   2    0.84    0.83
  -4  -9   2    1.00    0.86
   3   9  -2    2.71    0.89
  -3  -9   2    1.97    0.81
  -3  -9   2    1.74    0.85
   2   9  -2    6.61    1.18
  -2  -9   2    5.32    1.11
  -2  -9   2    5.83    1.16
   1   9  -2    6.18    1.11
  -1  -9   2    6.79    1.24
  -1  -9   2    5.47    1.09
   0   9  -2    9.86    1.30
   0  -9   2    9.91    1.40
   0  -9   2    9.15    1.38
  -1   9  -2    6.17    1.07
   1  -9   2    5.45    1.04
   1  -9   2    6.02    1.11
  -2   9  -2    0.33    0.47
   2  -9   2    0.48    0.65
   2  -9   2   -0.32    0.70
  -3   9  -2   16.55    1.64
  -3   9  -2   14.94    1.24
   3  -9   2   12.45    1.57
   3  -9   2   16.04    1.66
  -4   9  -2   26.05    1.61
  -4   9  -2   22.63    1.63
   4  -9   2   23.83    1.79
  -5   9  -2   45.15    2.31
  -5   9  -2   44.48    2.21
   5  -9   2   39.60    2.30
  -6   9  -2   41.83    2.27
  -6   9  -2   41.93    2.19
  -7   9  -2   20.56    1.53
  -7   9  -2   21.45    1.61
  -8   9  -2    0.56    0.60
  -8   9  -2    0.24    0.57
  -9   9  -2   38.87    2.16
  -9   9  -2   34.62    1.97
 -10   9  -2    1.30    0.75
  -7  -8   2   32.32    2.40
  -7  -8   2   28.40    2.33
  -6  -8   2   96.30    4.41
  -6  -8   2   95.62    4.35
   5   8  -2    0.23    0.68
  -5  -8   2    0.61    0.76
  -5  -8   2    0.71    0.75
   4   8  -2    0.82    0.66
  -4  -8   2    0.90    0.68
  -4  -8   2    0.80    0.72
   3   8  -2   63.78    2.96
  -3  -8   2   62.55    3.08
  -3  -8   2   68.15    3.16
   2   8  -2   40.24    2.21
  -2  -8   2   42.02    2.31
  -2  -8   2   47.94    2.42
   1   8  -2    1.29    0.63
  -1  -8   2    0.95    0.64
  -1  -8   2    0.94    0.62
   0   8  -2    2.23    0.67
   0  -8   2    0.78    0.54
   0  -8   2    1.67    0.71
  -1   8  -2    1.88    0.70
  -1   8  -2    3.25    0.76
   1  -8   2    4.12    0.89
   1  -8   2    5.03    0.92
  -2   8  -2   10.22    1.21
  -2   8  -2   10.71    1.16
   2  -8   2   10.25    1.23
   2  -8   2    9.07    1.24
   2  -8   2   10.53    1.49
  -3   8  -2   20.60    1.37
  -3   8  -2   19.88    1.30
   3  -8   2   19.05    1.57
   3  -8   2   19.17    1.40
  -4   8  -2   15.27    1.22
  -4   8  -2   18.79    1.25
   4  -8   2   16.26    1.37
  -5   8  -2   34.58    1.79
  -5   8  -2   34.99    1.87
   5  -8   2   33.91    1.94
  -6   8  -2   29.62    1.72
  -6   8  -2   27.09    1.62
   6  -8   2   29.10    1.78
  -7   8  -2    6.43    1.05
  -7   8  -2    3.70    0.80
   7  -8   2    3.65    0.97
  -8   8  -2   47.67    2.27
  -8   8  -2   42.25    2.11
  -9   8  -2   70.66    2.92
  -9   8  -2   77.78    3.17
 -10   8  -2    0.48    0.56
 -11   8  -2    1.03    0.66
   8   7  -2    4.05    1.54
  -8  -7   2    2.05    0.98
  -8  -7   2    2.66    1.08
   7   7  -2   13.48    2.07
  -7  -7   2   12.20    1.81
  -7  -7   2   12.03    1.80
   6   7  -2   15.94    2.08
  -6  -7   2   11.23    1.63
  -6  -7   2   12.47    1.73
   5   7  -2    3.92    0.96
   5   7  -2    3.91    1.04
  -5  -7   2    2.43    0.89
  -5  -7   2    2.27    0.83
   4   7  -2    4.90    1.01
   4   7  -2    4.98    0.96
  -4  -7   2    4.30    0.97
  -4  -7   2    5.46    1.07
   3   7  -2  104.53    3.94
   3   7  -2   95.54    3.86
  -3  -7   2  107.19    4.15
  -3  -7   2  101.81    4.06
   2   7  -2    4.48    0.75
   2   7  -2    4.88    0.86
  -2  -7   2    3.71    0.84
  -2  -7   2    5.44    1.03
   1   7  -2  135.96    4.33
   1   7  -2  139.02    4.75
  -1  -7   2  129.49    4.76
  -1  -7   2  131.24    4.78
   0   7  -2    3.74    0.68
   0   7  -2    3.90    0.74
   0  -7   2    3.53    0.79
   0  -7   2    3.67    0.78
  -1   7  -2   33.61    1.65
  -1   7  -2   32.12    1.69
   1  -7   2   33.73    1.82
   1  -7   2   31.47    1.77
  -2   7  -2   48.37    2.15
  -2   7  -2   50.25    2.11
   2  -7   2   47.76    2.22
   2  -7   2   47.70    2.52
   2  -7   2   46.20    2.19
  -3   7  -2   35.07    1.76
  -3   7  -2   35.53    1.69
   3  -7   2   35.69    1.78
   3  -7   2   35.63    1.96
  -4   7  -2    2.19    0.52
  -4   7  -2    3.37    0.70
  -4   7  -2    2.18    0.49
   4  -7   2    3.44    0.73
  -5   7  -2    1.29    0.43
  -5   7  -2    1.82    0.49
  -5   7  -2    2.61    0.66
   5  -7   2    1.85    0.58
  -6   7  -2    1.58    0.46
  -6   7  -2    3.04    0.68
  -6   7  -2    2.76    0.62
   6  -7   2    1.55    0.58
  -7   7  -2    4.20    0.76
  -7   7  -2    4.51    0.75
   7  -7   2    3.32    0.79
  -8   7  -2    1.20    0.55
  -8   7  -2    1.56    0.55
  -9   7  -2    3.35    0.72
 -10   7  -2    0.13    0.47
 -11   7  -2   -0.03    0.52
 -11   7  -2    0.59    0.56
   9   6  -2   22.46    3.03
  -9  -6   2   20.23    2.29
   8   6  -2    2.62    1.22
  -8  -6   2    2.19    0.89
  -8  -6   2    1.82    0.96
   7   6  -2    0.39    0.78
  -7  -6   2    0.20    0.65
  -7  -6   2    1.22    0.74
   6   6  -2    1.98    0.90
  -6  -6   2    2.80    0.92
  -6  -6   2    0.95    0.70
   5   6  -2    2.82    0.93
   5   6  -2    3.22    0.79
  -5  -6   2    3.90    0.93
  -5  -6   2    2.12    0.77
   4   6  -2    7.46    1.13
   4   6  -2    6.63    1.03
  -4  -6   2    8.41    1.19
  -4  -6   2    8.69    1.21
   3   6  -2    8.59    1.11
   3   6  -2    9.50    1.19
  -3  -6   2    7.96    1.11
  -3  -6   2    6.39    0.99
  -3  -6   2    7.09    0.97
   2   6  -2   52.37    2.31
   2   6  -2   56.17    2.23
  -2  -6   2   50.64    2.38
  -2  -6   2   53.49    2.40
  -2  -6   2   53.05    2.47
   1   6  -2   66.71    2.67
   1   6  -2   68.89    2.39
   1   6  -2   64.64    2.59
  -1  -6   2   70.95    2.81
  -1  -6   2   68.13    2.84
  -1  -6   2   65.16    2.73
   0   6  -2    1.43    0.43
   0   6  -2    1.20    0.46
   0  -6   2    0.96    0.47
   0  -6   2    1.16    0.52
  -1   6  -2   45.62    2.04
  -1   6  -2   42.04    1.86
  -1   6  -2   48.02    1.98
   1  -6   2   43.67    2.03
   1  -6   2   44.32    2.03
  -2   6  -2  445.24   13.16
  -2   6  -2  460.19   13.28
  -2   6  -2  450.50   13.31
   2  -6   2  448.13   13.68
   2  -6   2  452.78   13.32
   2  -6   2  461.54   13.31
  -3   6  -2   54.50    2.24
  -3   6  -2   55.19    2.16
  -3   6  -2   54.87    2.21
   3  -6   2   55.00    2.16
   3  -6   2   58.72    2.18
   3  -6   2   57.64    2.44
  -4   6  -2   25.56    1.24
  -4   6  -2   24.80    1.25
  -4   6  -2   23.33    1.31
   4  -6   2   23.75    1.39
   4  -6   2   25.17    1.19
  -5   6  -2   50.99    2.08
  -5   6  -2   53.35    1.95
  -5   6  -2   48.03    2.00
   5  -6   2   49.53    2.23
   5  -6   2   51.65    2.23
  -6   6  -2  103.62    3.62
  -6   6  -2  105.28    3.63
  -6   6  -2  110.01    3.51
   6  -6   2  104.74    3.94
   6  -6   2  111.01    4.17
  -7   6  -2    0.05    0.29
  -7   6  -2    0.31    0.37
  -7   6  -2    0.19    0.35
   7  -6   2    0.31    0.62
  -8   6  -2    1.13    0.50
  -8   6  -2    0.63    0.44
  -8   6  -2    1.34    0.41
   8  -6   2    0.45    0.76
  -9   6  -2    5.03    0.72
   9  -6   2    6.17    1.47
 -10   6  -2    2.70    0.61
 -10   6  -2    3.17    0.65
  10  -6   2    3.46    1.66
 -11   6  -2    1.07    0.54
 -11   6  -2    0.90    0.60
 -10  -5   2   32.94    2.32
   9   5  -2   10.43    2.00
  -9  -5   2    9.81    1.57
  -9  -5   2   11.39    1.69
   8   5  -2   29.36    2.47
  -8  -5   2   30.78    2.00
  -8  -5   2   29.75    1.96
   7   5  -2    5.31    1.26
  -7  -5   2    4.92    0.96
  -7  -5   2    4.39    0.94
   6   5  -2   26.22    1.93
   6   5  -2   23.05    1.52
  -6  -5   2   23.93    1.59
  -6  -5   2   25.04    1.60
   5   5  -2    2.93    0.83
   5   5  -2    2.53    0.73
  -5  -5   2    2.04    0.60
  -5  -5   2    2.81    0.70
  -5  -5   2    3.13    0.72
  -5  -5   2    3.12    0.70
   4   5  -2   19.50    1.27
   4   5  -2   20.08    1.39
  -4  -5   2   20.71    1.42
  -4  -5   2   21.02    1.33
  -4  -5   2   21.46    1.34
  -4  -5   2   23.42    1.35
   3   5  -2    0.28    0.35
   3   5  -2    0.72    0.39
  -3  -5   2    0.80    0.43
  -3  -5   2    0.78    0.39
  -3  -5   2    0.73    0.39
  -3  -5   2    0.96    0.46
   2   5  -2    0.87    0.33
   2   5  -2    1.07    0.43
   2   5  -2    0.54    0.34
  -2  -5   2    0.29    0.27
  -2  -5   2    0.15    0.32
  -2  -5   2    0.64    0.39
  -2  -5   2    0.60    0.40
   1   5  -2    7.74    0.82
   1   5  -2    7.19    0.54
   1   5  -2    6.59    0.82
  -1  -5   2    4.56    0.65
  -1  -5   2    8.60    0.96
  -1  -5   2    7.16    0.89
   0   5  -2   20.29    1.07
   0   5  -2   20.74    1.11
   0  -5   2   20.41    1.17
   0  -5   2   21.97    1.21
  -1   5  -2   18.73    1.10
  -1   5  -2   19.44    0.81
  -1   5  -2   19.84    1.06
  -1   5  -2   20.54    1.01
   1  -5   2   17.15    1.09
   1  -5   2   19.13    1.13
  -2   5  -2   36.88    1.59
  -2   5  -2   38.68    1.52
  -2   5  -2   37.51    1.50
  -2   5  -2   39.92    1.63
   2  -5   2   37.01    1.30
   2  -5   2   38.67    1.61
   2  -5   2   38.31    1.61
   2  -5   2   36.85    1.78
  -3   5  -2    0.99    0.30
  -3   5  -2    1.58    0.42
  -3   5  -2    0.99    0.30
   3  -5   2    1.32    0.41
   3  -5   2    1.18    0.30
   3  -5   2    0.77    0.29
   3  -5   2    0.96    0.29
   3  -5   2    1.18    0.31
  -4   5  -2    0.80    0.34
  -4   5  -2    0.91    0.34
  -4   5  -2    1.25    0.35
  -4   5  -2    1.02    0.30
   4  -5   2    0.95    0.37
   4  -5   2    1.07    0.41
   4  -5   2    1.11    0.40
  -5   5  -2   63.54    2.28
  -5   5  -2   59.55    2.20
  -5   5  -2   63.14    2.11
   5  -5   2   62.78    2.70
   5  -5   2   64.04    2.53
  -6   5  -2    8.44    0.67
  -6   5  -2    7.59    0.74
   6  -5   2    7.85    1.19
   6  -5   2    8.10    1.00
  -7   5  -2   92.13    3.12
  -7   5  -2   92.23    3.15
   7  -5   2   98.43    4.26
  -8   5  -2   10.91    0.80
  -8   5  -2   12.20    0.82
   8  -5   2   12.04    1.86
  -9   5  -2   21.11    1.20
   9  -5   2   25.00    2.37
 -10   5  -2    4.99    0.74
 -10   5  -2    4.32    0.68
  10  -5   2    6.01    1.69
 -11   5  -2   22.15    1.40
 -11   5  -2   23.52    1.25
  11  -5   2   17.04    2.86
  10   4  -2    0.14    0.93
 -10  -4   2    0.78    0.72
 -10  -4   2    0.91    0.68
   9   4  -2    7.65    1.71
  -9  -4   2    9.07    1.33
  -9  -4   2    7.13    1.21
   8   4  -2   53.62    3.24
  -8  -4   2   48.07    2.46
  -8  -4   2   52.30    2.50
   7   4  -2    1.33    0.74
  -7  -4   2    1.33    0.60
  -7  -4   2    1.54    0.58
  -7  -4   2    0.95    0.56
   6   4  -2    0.68    0.45
   6   4  -2    0.11    0.44
  -6  -4   2    0.33    0.37
  -6  -4   2    1.24    0.53
  -6  -4   2    0.78    0.48
  -6  -4   2    0.31    0.37
   5   4  -2  230.69    7.12
   5   4  -2  236.25    7.67
   5   4  -2  223.18    7.18
  -5  -4   2  228.43    7.18
  -5  -4   2  231.33    7.16
  -5  -4   2  227.02    7.35
  -5  -4   2  227.31    7.20
   4   4  -2  209.46    6.40
   4   4  -2  212.42    6.88
   4   4  -2  209.42    6.57
  -4  -4   2  208.13    6.55
  -4  -4   2  213.75    6.59
  -4  -4   2  213.83    6.75
  -4  -4   2  209.03    6.61
   3   4  -2    4.62    0.52
   3   4  -2    5.14    0.71
   3   4  -2    5.37    0.77
  -3  -4   2    2.99    0.57
  -3  -4   2    4.50    0.68
  -3  -4   2    3.99    0.62
  -3  -4   2    4.16    0.63
   2   4  -2   16.33    0.89
   2   4  -2   14.87    0.90
   2   4  -2   15.53    0.63
  -2  -4   2   15.40    0.94
  -2  -4   2   15.47    0.93
  -2  -4   2   14.89    0.97
  -2  -4   2   16.33    0.96
   1   4  -2  223.30    6.87
   1   4  -2  236.59    6.70
   1   4  -2  231.11    6.86
  -1  -4   2  227.11    6.95
  -1  -4   2  229.66    6.98
  -1  -4   2  231.16    7.03
   0   4  -2   48.12    1.79
   0   4  -2   45.20    1.88
   0   4  -2   49.64    1.76
   0  -4   2   49.46    1.90
   0  -4   2   47.39    1.90
  -1   4  -2    0.31    0.18
  -1   4  -2    0.59    0.24
  -1   4  -2    0.54    0.22
  -1   4  -2    0.59    0.29
   1  -4   2    0.62    0.33
   1  -4   2    1.11    0.42
   1  -4   2    0.54    0.21
   1  -4   2    0.51    0.34
  -2   4  -2   10.66    0.68
  -2   4  -2   10.63    0.62
  -2   4  -2   11.89    0.70
  -2   4  -2   11.09    0.57
   2  -4   2   10.66    0.77
   2  -4   2   11.50    0.58
   2  -4   2   11.42    0.65
   2  -4   2   10.57    0.63
  -3   4  -2    3.45    0.46
  -3   4  -2    2.30    0.44
  -3   4  -2    2.51    0.33
  -3   4  -2    2.70    0.32
  -3   4  -2    3.81    0.51
   3  -4   2    2.06    0.47
   3  -4   2    2.63    0.51
   3  -4   2    3.35    0.53
  -4   4  -2    8.82    0.49
  -4   4  -2    9.19    0.58
  -4   4  -2    8.67    0.60
   4  -4   2    8.93    0.73
   4  -4   2    8.38    0.81
   4  -4   2    9.20    0.84
  -5   4  -2   18.06    0.85
  -5   4  -2   17.66    0.84
  -5   4  -2   17.29    0.79
  -5   4  -2   17.83    0.69
   5  -4   2   17.84    1.30
   5  -4   2   16.02    1.28
   5  -4   2   18.90    1.15
  -6   4  -2   23.61    0.90
  -6   4  -2   24.86    1.05
  -6   4  -2   23.49    1.05
   6  -4   2   24.98    1.78
  -7   4  -2   44.11    1.71
  -7   4  -2   48.89    1.73
  -7   4  -2   46.58    1.61
   7  -4   2   49.18    2.85
  -8   4  -2   10.38    1.07
  -8   4  -2    9.57    0.62
  -8   4  -2    8.17    0.67
   8  -4   2   10.51    1.82
  -9   4  -2    2.61    0.49
  -9   4  -2    2.40    0.50
  -9   4  -2    2.52    0.44
   9  -4   2    2.08    1.14
 -10   4  -2   61.37    2.18
 -10   4  -2   54.41    2.25
  10  -4   2   50.60    3.87
 -11   4  -2   34.63    1.60
 -11   4  -2   31.08    1.62
  11  -4   2   26.44    3.63
  11   3  -2    1.16    1.34
 -11  -3   2    3.06    0.99
  10   3  -2    0.12    0.94
 -10  -3   2    0.58    0.62
 -10  -3   2    0.56    0.64
   9   3  -2    0.95    0.86
  -9  -3   2    0.51    0.55
  -9  -3   2    0.72    0.54
  -9  -3   2    0.01    0.49
   8   3  -2    1.93    0.89
  -8  -3   2    2.04    0.64
  -8  -3   2    1.70    0.62
  -8  -3   2    1.44    0.54
   7   3  -2    3.18    0.94
   7   3  -2    3.16    0.84
  -7  -3   2    2.14    0.60
  -7  -3   2    2.82    0.67
  -7  -3   2    2.03    0.59
  -7  -3   2    3.26    0.72
   6   3  -2   12.90    1.34
   6   3  -2   13.12    1.63
   6   3  -2   13.05    1.23
  -6  -3   2   10.75    0.86
  -6  -3   2   10.26    0.85
  -6  -3   2   10.12    0.92
  -6  -3   2   11.96    1.16
   5   3  -2   53.07    2.22
   5   3  -2   54.01    2.14
   5   3  -2   56.76    2.56
  -5  -3   2   54.34    2.27
  -5  -3   2   52.78    2.13
  -5  -3   2   53.42    2.15
  -5  -3   2   52.70    2.09
   4   3  -2   13.19    0.85
   4   3  -2   13.27    0.84
   4   3  -2   15.20    1.06
  -4  -3   2   13.65    0.87
  -4  -3   2   12.99    0.83
  -4  -3   2   14.39    0.84
  -4  -3   2   13.34    0.85
  -4  -3   2   13.93    0.93
   3   3  -2   24.84    1.06
   3   3  -2   24.34    1.24
   3   3  -2   23.74    1.11
  -3  -3   2   23.09    1.10
  -3  -3   2   24.26    1.13
  -3  -3   2   24.28    1.20
  -3  -3   2   21.85    1.11
   2   3  -2   78.41    2.64
   2   3  -2   75.35    2.58
   2   3  -2   78.73    2.44
  -2  -3   2   75.67    2.60
  -2  -3   2   81.33    2.64
  -2  -3   2   77.08    2.62
  -2  -3   2   78.58    2.71
   1   3  -2  215.79    6.23
   1   3  -2  218.79    6.31
   1   3  -2  216.32    6.32
  -1  -3   2  211.20    6.38
  -1  -3   2  210.50    6.37
  -1  -3   2  220.05    6.43
   0   3  -2  105.23    3.26
   0   3  -2  107.94    3.06
   0   3  -2  105.14    3.22
   0   3  -2  105.07    3.41
   0  -3   2  104.24    3.38
   0  -3   2  109.58    3.37
   0  -3   2  106.31    3.40
  -1   3  -2  175.71    5.10
  -1   3  -2  176.75    5.30
  -1   3  -2  179.08    5.19
  -1   3  -2  172.75    5.23
  -1   3  -2  181.46    5.25
   1  -3   2  181.53    5.47
   1  -3   2  182.99    5.27
   1  -3   2  170.93    5.29
  -2   3  -2   58.01    2.03
  -2   3  -2   55.20    1.68
  -2   3  -2   56.44    1.84
  -2   3  -2   56.62    1.85
  -2   3  -2   56.10    1.71
   2  -3   2   55.18    2.04
   2  -3   2   55.02    2.04
   2  -3   2   57.15    1.70
   2  -3   2   55.49    1.99
  -3   3  -2    1.94    0.27
  -3   3  -2    2.55    0.44
  -3   3  -2    3.13    0.38
   3  -3   2    2.63    0.53
   3  -3   2    2.87    0.48
   3  -3   2    2.82    0.55
  -4   3  -2   85.95    2.57
  -4   3  -2   82.72    2.58
   4  -3   2   81.21    3.22
   4  -3   2   85.13    3.00
   4  -3   2   83.04    3.26
  -5   3  -2   10.73    0.56
  -5   3  -2   10.28    0.53
   5  -3   2   11.07    1.08
   5  -3   2   10.94    1.40
  -6   3  -2    1.20    0.19
  -6   3  -2    1.14    0.24
   6  -3   2    1.24    0.71
   6  -3   2    2.08    0.81
  -7   3  -2    0.01    0.17
  -7   3  -2   -0.21    0.23
  -7   3  -2    0.00    0.20
   7  -3   2   -0.18    0.55
  -8   3  -2    3.18    0.41
  -8   3  -2    2.59    0.45
  -8   3  -2    2.29    0.41
   8  -3   2    1.98    1.05
  -9   3  -2    4.09    0.55
  -9   3  -2    3.76    0.56
  -9   3  -2    3.80    0.54
   9  -3   2    4.44    1.45
 -10   3  -2    3.72    0.62
 -10   3  -2    2.07    0.52
  10  -3   2    2.44    1.37
 -11   3  -2    0.96    0.49
 -11   3  -2    1.38    0.54
  11  -3   2   -0.18    1.26
  11   2  -2   63.11    4.32
 -11  -2   2   69.78    3.15
 -11  -2   2   66.60    3.08
  10   2  -2    4.07    1.44
 -10  -2   2    3.73    0.84
 -10  -2   2    2.41    0.73
 -10  -2   2    4.68    0.94
   9   2  -2    0.76    0.81
  -9  -2   2    0.25    0.48
  -9  -2   2    0.14    0.42
  -9  -2   2    0.94    0.50
   8   2  -2   46.62    2.53
   8   2  -2   47.98    2.88
  -8  -2   2   43.92    2.16
  -8  -2   2   45.06    2.04
  -8  -2   2   47.07    2.10
  -8  -2   2   44.68    2.07
   7   2  -2   27.33    2.02
   7   2  -2   31.07    1.88
  -7  -2   2   34.32    1.57
  -7  -2   2   33.66    1.58
  -7  -2   2   31.28    1.55
  -7  -2   2   32.57    1.68
   6   2  -2    8.14    1.12
   6   2  -2    7.39    1.19
   6   2  -2    7.37    0.85
  -6  -2   2    5.63    0.70
  -6  -2   2    4.56    0.64
  -6  -2   2    6.17    0.75
  -6  -2   2    6.55    0.78
   5   2  -2    8.60    0.84
   5   2  -2    8.06    1.02
   5   2  -2    7.12    1.05
  -5  -2   2    5.29    0.64
  -5  -2   2    5.93    0.65
  -5  -2   2    6.30    0.72
  -5  -2   2    6.58    0.70
  -5  -2   2    7.88    0.77
   4   2  -2    2.63    0.45
   4   2  -2    2.38    0.60
   4   2  -2    2.37    0.50
  -4  -2   2    1.66    0.33
  -4  -2   2    1.59    0.36
  -4  -2   2    2.27    0.38
  -4  -2   2    1.87    0.39
  -4  -2   2    1.65    0.37
   3   2  -2    6.13    0.53
   3   2  -2    6.94    0.49
   3   2  -2    7.05    0.56
   3   2  -2    6.19    0.59
  -3  -2   2    7.68    0.50
  -3  -2   2    6.32    0.47
  -3  -2   2    7.42    0.51
  -3  -2   2    7.12    0.54
  -3  -2   2    5.88    0.46
   2   2  -2    9.59    0.63
   2   2  -2    9.73    0.59
   2   2  -2   11.07    0.64
   2   2  -2   10.09    0.56
  -2  -2   2    9.72    0.56
  -2  -2   2   10.05    0.57
  -2  -2   2   10.51    0.57
  -2  -2   2    9.87    0.61
   1   2  -2   16.72    0.70
   1   2  -2   18.37    1.04
   1   2  -2   17.00    0.72
   1   2  -2   16.67    0.70
  -1  -2   2   16.10    0.72
  -1  -2   2   17.45    0.77
  -1  -2   2   17.76    0.75
  -1  -2   2   16.89    0.76
   0   2  -2  207.38    6.08
   0   2  -2  209.27    5.92
   0   2  -2  208.64    5.95
   0   2  -2  210.24    6.01
   0  -2   2  210.79    6.23
   0  -2   2  209.28    6.05
   0  -2   2  207.83    6.03
   0  -2   2  209.54    6.01
  -1   2  -2   65.56    1.85
  -1   2  -2   66.44    1.94
  -1   2  -2   67.29    2.17
  -1   2  -2   63.66    1.87
  -1   2  -2   63.94    2.17
  -1   2  -2   64.79    2.02
   1  -2   2   65.14    1.92
   1  -2   2   64.29    2.25
   1  -2   2   65.18    2.19
   1  -2   2   63.92    1.95
   1  -2   2   62.99    2.14
  -2   2  -2    2.40    0.19
  -2   2  -2    2.46    0.40
  -2   2  -2    2.60    0.19
   2  -2   2    2.25    0.46
   2  -2   2    3.51    0.54
   2  -2   2    3.00    0.44
  -3   2  -2  179.92    5.44
   3  -2   2  174.91    5.78
   3  -2   2  183.87    5.51
   3  -2   2  174.64    5.75
   4  -2   2  479.80   14.43
   4  -2   2  479.44   14.36
  -5   2  -2    6.36    0.39
   5  -2   2   10.91    1.44
   5  -2   2    9.21    1.36
  -6   2  -2    3.25    0.32
  -6   2  -2    3.46    0.39
  -6   2  -2    2.69    0.29
  -6   2  -2    3.29    0.38
   6  -2   2    4.28    1.12
   6  -2   2    3.83    1.01
  -7   2  -2   85.31    2.67
  -7   2  -2   84.21    2.70
  -7   2  -2   86.37    2.70
  -7   2  -2   85.03    2.69
   7  -2   2   80.12    4.11
  -8   2  -2   36.16    1.43
  -8   2  -2   38.72    1.46
  -8   2  -2   35.63    1.45
   8  -2   2   31.64    2.64
  -9   2  -2    1.96    0.48
  -9   2  -2    0.68    0.35
  -9   2  -2    0.94    0.37
   9  -2   2    1.07    1.06
 -10   2  -2    0.87    0.50
 -10   2  -2    0.03    0.37
  10  -2   2   -0.02    0.98
 -11   2  -2    2.89    0.69
 -11   2  -2    2.51    0.57
  11  -2   2    2.22    1.58
  11   1  -2   11.02    2.08
 -11  -1   2   15.24    1.58
 -11  -1   2   18.08    1.43
 -11  -1   2   15.71    1.63
  10   1  -2    2.92    1.14
 -10  -1   2    6.40    0.99
 -10  -1   2    5.77    0.91
 -10  -1   2    6.07    0.93
   9   1  -2    2.60    1.04
   9   1  -2    2.90    1.06
  -9  -1   2    2.98    0.66
  -9  -1   2    3.38    0.65
  -9  -1   2    2.97    0.69
   8   1  -2  136.08    5.55
   8   1  -2  131.49    5.15
  -8  -1   2  127.00    4.41
  -8  -1   2  134.42    4.45
  -8  -1   2  132.91    4.43
   7   1  -2    1.23    0.61
   7   1  -2    0.56    0.57
  -7  -1   2    1.92    0.44
  -7  -1   2    1.42    0.44
  -7  -1   2    1.88    0.46
  -7  -1   2    1.79    0.43
   6   1  -2   82.34    3.50
   6   1  -2   81.21    2.82
   6   1  -2   81.52    3.32
  -6  -1   2   83.56    2.84
  -6  -1   2   82.74    2.84
  -6  -1   2   85.15    2.86
  -6  -1   2   83.72    2.86
  -6  -1   2   85.91    2.99
   5   1  -2    2.96    0.69
   5   1  -2    3.95    0.76
   5   1  -2    2.26    0.41
   5   1  -2    3.00    0.47
  -5  -1   2    2.00    0.38
  -5  -1   2    1.92    0.36
  -5  -1   2    2.24    0.37
  -5  -1   2    2.19    0.39
  -5  -1   2    2.35    0.42
   4   1  -2   32.79    1.38
   4   1  -2   34.48    1.31
   4   1  -2   36.57    1.68
   4   1  -2   35.32    1.63
  -4  -1   2   32.66    1.30
  -4  -1   2   33.70    1.39
  -4  -1   2   36.37    1.32
  -4  -1   2   34.61    1.31
  -4  -1   2   34.72    1.32
   3   1  -2   36.37    1.53
   3   1  -2   34.44    1.26
   3   1  -2   38.20    1.37
   3   1  -2   34.32    1.51
  -3  -1   2   34.70    1.26
  -3  -1   2   34.05    1.27
  -3  -1   2   33.94    1.26
  -3  -1   2   36.37    1.36
  -3  -1   2   35.45    1.27
   2   1  -2   18.65    0.75
   2   1  -2   19.24    0.80
   2   1  -2   19.39    0.91
  -2  -1   2   18.36    0.75
  -2  -1   2   19.43    0.76
  -2  -1   2   19.10    0.80
  -2  -1   2   17.81    0.74
   1   1  -2    0.53    0.14
   1   1  -2    0.63    0.15
   1   1  -2    0.73    0.15
  -1  -1   2    0.49    0.14
  -1  -1   2    0.92    0.18
  -1  -1   2    0.53    0.15
  -1  -1   2    0.61    0.16
   0   1  -2    0.55    0.15
   0   1  -2    0.13    0.09
   0   1  -2    0.32    0.09
   0   1  -2    0.35    0.18
   0   1  -2    0.39    0.11
   0   1  -2    0.24    0.11
   0  -1   2    0.23    0.10
   0  -1   2    0.59    0.29
   0  -1   2    0.10    0.16
  -1   1  -2   14.58    0.68
   1  -1   2   15.35    0.71
   1  -1   2   13.67    0.79
   1  -1   2   14.51    0.83
  -2   1  -2   17.05    0.84
   2  -1   2   16.57    1.02
   2  -1   2   18.00    0.87
   2  -1   2   18.83    1.06
  -3   1  -2   24.43    1.13
   3  -1   2   23.41    1.39
   3  -1   2   24.62    1.42
  -4   1  -2   31.55    1.02
  -4   1  -2   31.63    1.03
   4  -1   2   33.33    1.89
   4  -1   2   29.09    1.76
  -5   1  -2    7.15    0.40
  -5   1  -2    7.29    0.41
   5  -1   2    7.63    1.26
   5  -1   2    8.00    1.27
  -6   1  -2    1.81    0.32
  -6   1  -2    2.09    0.30
  -6   1  -2    1.66    0.30
  -6   1  -2    2.61    0.36
   6  -1   2    2.87    0.90
   6  -1   2    0.84    0.62
  -7   1  -2   66.58    2.21
  -7   1  -2   63.47    2.16
  -7   1  -2   66.61    2.21
  -7   1  -2   63.95    2.21
   7  -1   2   60.11    3.49
  -8   1  -2    1.48    0.37
  -8   1  -2    1.51    0.42
  -8   1  -2    2.57    0.48
  -8   1  -2    1.59    0.43
   8  -1   2    1.28    0.96
  -9   1  -2   55.29    2.16
  -9   1  -2   58.59    2.22
   9  -1   2   55.60    3.84
 -10   1  -2   -0.12    0.41
 -10   1  -2    0.19    0.34
  10  -1   2   -0.12    0.94
 -11   1  -2    4.53    0.86
 -11   1  -2    4.70    0.80
  11  -1   2    3.16    1.72
  12   0  -2    0.21    1.11
 -12   0   2    1.60    0.72
  11   0  -2    1.48    1.02
 -11   0   2    1.04    0.56
 -11   0   2    1.04    0.61
 -11   0   2    1.75    0.69
  10   0  -2    2.63    1.11
  10   0  -2    3.81    1.17
 -10   0   2    2.22    0.60
 -10   0   2    2.49    0.66
 -10   0   2    3.29    0.73
   9   0  -2   -0.09    0.64
   9   0  -2    0.63    0.70
  -9   0   2   -0.40    0.37
  -9   0   2    0.01    0.30
  -9   0   2    0.06    0.36
   8   0  -2    0.83    0.73
   8   0  -2    0.26    0.54
  -8   0   2    0.53    0.33
  -8   0   2    0.71    0.37
  -8   0   2    1.32    0.45
   7   0  -2   62.72    2.95
   7   0  -2   62.36    3.07
  -7   0   2   60.92    2.28
  -7   0   2   64.65    2.31
  -7   0   2   60.72    2.28
  -7   0   2   64.40    2.31
   6   0  -2   96.65    3.84
   6   0  -2   99.87    3.96
   6   0  -2   97.43    3.17
  -6   0   2  101.40    3.23
  -6   0   2   96.76    3.20
  -6   0   2  101.50    3.24
  -6   0   2   97.49    3.20
   5   0  -2   11.02    1.22
   5   0  -2    7.99    0.59
   5   0  -2    7.64    0.52
   5   0  -2   10.40    1.23
  -5   0   2    7.46    0.53
  -5   0   2    6.98    0.50
  -5   0   2    7.63    0.51
  -5   0   2    7.53    0.53
   4   0  -2   26.73    1.42
   4   0  -2   26.76    1.11
   4   0  -2   27.19    1.05
   4   0  -2   25.78    1.38
  -4   0   2   26.41    1.06
  -4   0   2   26.86    1.07
  -4   0   2   27.24    1.04
  -4   0   2   27.56    1.05
   3   0  -2  934.02   25.94
   3   0  -2  913.48   25.52
   3   0  -2  918.75   26.05
   3   0  -2  903.46   25.59
  -3   0   2  911.65   25.52
  -3   0   2  922.37   25.54
  -3   0   2  909.85   25.54
  -3   0   2  938.01   25.51
   2   0  -2  217.70    6.16
   2   0  -2  211.51    6.09
   2   0  -2  209.41    6.34
  -2   0   2  218.65    6.10
  -2   0   2  210.14    6.10
  -2   0   2  219.08    6.11
   1   0  -2    9.19    0.40
   1   0  -2   10.71    0.43
   1   0  -2    9.57    0.41
   1   0  -2    9.70    0.42
  -1   0   2    9.35    0.44
  -1   0   2   10.02    0.42
  -1   0   2   10.00    0.41
   0   0  -2  150.04    4.07
   0   0  -2  153.58    4.08
   0   0  -2  145.04    4.18
   0   0  -2  139.82    3.99
   0   0  -2  138.85    4.03
   0   0   2  140.82    4.02
   0   0   2  141.81    4.17
   0   0   2  137.62    4.41
  -1   0  -2  227.26    6.52
   1   0   2  221.74    6.80
   1   0   2  220.96    6.77
   1   0   2  228.37    6.54
  -2   0  -2   16.02    0.81
  -2   0  -2   15.04    0.52
  -2   0  -2   15.75    0.52
   2   0   2   17.19    1.06
   2   0   2   14.51    0.99
  -3   0  -2    4.50    0.30
  -3   0  -2    4.04    0.26
  -3   0  -2    4.46    0.26
   3   0   2    6.59    0.99
   3   0   2    7.65    1.06
  -4   0  -2    8.28    0.44
  -4   0  -2    8.31    0.47
  -4   0  -2    7.88    0.43
   4   0   2   11.52    1.46
   4   0   2    9.22    1.33
  -5   0  -2    3.55    0.43
  -5   0  -2    3.21    0.39
  -5   0  -2    3.06    0.37
  -5   0  -2    2.48    0.29
  -5   0  -2    3.50    0.43
   5   0   2    3.11    0.89
   5   0   2    3.11    0.88
  -6   0  -2    4.59    0.57
  -6   0  -2    4.53    0.54
  -6   0  -2    3.78    0.46
  -6   0  -2    4.15    0.43
  -6   0  -2    5.02    0.54
   6   0   2    5.38    1.22
   6   0   2    3.80    1.05
  -7   0  -2    5.86    0.65
  -7   0  -2    6.26    0.71
  -7   0  -2    5.12    0.65
  -7   0  -2    5.32    0.57
   7   0   2    4.79    1.27
  -8   0  -2   21.62    1.23
  -8   0  -2   20.54    1.10
  -8   0  -2   21.41    1.14
  -8   0  -2   20.86    1.16
   8   0   2   25.58    3.01
  -9   0  -2   21.86    1.23
  -9   0  -2   21.07    1.26
   9   0   2   19.92    2.87
 -10   0  -2    1.07    0.57
 -10   0  -2    0.20    0.39
  10   0   2    0.40    1.08
  12  -1  -2    0.56    1.14
 -12   1   2    1.12    0.66
 -12   1   2   -0.65    0.44
 -12   1   2    0.89    0.63
  11  -1  -2    5.45    1.65
  11  -1  -2    3.34    1.35
 -11   1   2    5.23    0.88
 -11   1   2    6.67    0.98
 -11   1   2    5.18    0.87
  10  -1  -2    0.56    0.83
  10  -1  -2    0.02    0.80
 -10   1   2    0.77    0.53
 -10   1   2    0.19    0.46
 -10   1   2    0.48    0.44
   9  -1  -2    2.58    0.99
   9  -1  -2    2.26    0.94
  -9   1   2    1.92    0.52
  -9   1   2    2.24    0.54
  -9   1   2    1.04    0.44
   8  -1  -2    0.39    0.59
   8  -1  -2    0.69    0.68
  -8   1   2    0.81    0.35
  -8   1   2    0.86    0.38
  -8   1   2    0.42    0.30
   7  -1  -2    3.26    0.88
   7  -1  -2    2.53    0.83
  -7   1   2    3.96    0.58
  -7   1   2    2.99    0.45
  -7   1   2    3.00    0.51
  -7   1   2    3.05    0.49
   6  -1  -2    0.79    0.49
   6  -1  -2    1.30    0.33
   6  -1  -2    1.43    0.66
  -6   1   2    1.28    0.30
  -6   1   2    1.64    0.38
  -6   1   2    0.70    0.28
  -6   1   2    1.10    0.31
   5  -1  -2    2.36    0.68
   5  -1  -2    3.62    0.73
   5  -1  -2    2.87    0.39
   5  -1  -2    2.29    0.34
  -5   1   2    2.23    0.35
  -5   1   2    2.56    0.34
  -5   1   2    2.21    0.37
  -5   1   2    2.38    0.40
   4  -1  -2   46.85    2.10
   4  -1  -2   43.68    1.49
   4  -1  -2   44.00    1.93
   4  -1  -2   43.85    1.59
  -4   1   2   44.65    1.50
  -4   1   2   42.99    1.53
  -4   1   2   43.52    1.54
   3  -1  -2  123.83    3.76
   3  -1  -2  126.87    4.17
  -3   1   2  132.66    3.82
  -3   1   2  127.74    3.80
  -3   1   2  129.12    3.77
   2  -1  -2    0.82    0.20
  -2   1   2    0.97    0.20
  -2   1   2    1.05    0.21
   1  -1  -2   13.78    0.59
   1  -1  -2   12.80    0.53
   1  -1  -2   13.37    0.57
   1  -1  -2   13.14    0.48
  -1   1   2   12.32    0.47
  -1   1   2   12.31    0.61
  -1   1   2   13.67    0.55
   0  -1  -2  317.08    8.86
   0  -1  -2  309.90    8.85
   0  -1  -2  327.65    8.89
   0  -1  -2  319.61    8.75
   0  -1  -2  305.89    8.87
   0   1   2  314.44    9.14
   0   1   2  298.70    9.21
  -1  -1  -2   95.70    2.73
  -1  -1  -2   96.29    2.73
  -1  -1  -2   92.81    2.88
  -1  -1  -2   93.05    2.87
  -1  -1  -2   94.71    3.02
   1   1   2   93.11    3.32
   1   1   2   95.10    3.25
  -2  -1  -2  205.57    6.26
  -2  -1  -2  203.94    5.95
  -2  -1  -2  205.21    5.84
  -2  -1  -2  207.09    5.94
  -2  -1  -2  207.55    5.81
   2   1   2  212.88    6.67
   2   1   2  206.41    6.59
  -3  -1  -2   30.33    1.13
  -3  -1  -2   30.60    1.14
  -3  -1  -2   31.60    1.10
  -3  -1  -2   31.24    1.04
   3   1   2   31.50    1.76
   3   1   2   30.70    1.77
  -4  -1  -2   52.57    1.69
  -4  -1  -2   51.87    1.86
  -4  -1  -2   55.48    1.81
  -4  -1  -2   50.77    1.79
  -4  -1  -2   50.35    1.79
   4   1   2   52.04    2.66
   4   1   2   49.87    2.56
  -5  -1  -2    6.28    0.46
  -5  -1  -2    6.70    0.56
  -5  -1  -2    6.85    0.52
  -5  -1  -2    6.57    0.53
  -5  -1  -2    9.10    0.83
   5   1   2    8.03    1.45
   5   1   2   10.86    1.59
  -6  -1  -2   29.42    1.37
  -6  -1  -2   31.29    1.27
  -6  -1  -2   30.97    1.36
  -6  -1  -2   30.45    1.34
  -6  -1  -2   30.66    1.42
   6   1   2   31.07    2.23
  -7  -1  -2    1.56    0.43
  -7  -1  -2    0.63    0.34
  -7  -1  -2    0.92    0.44
  -7  -1  -2    0.45    0.30
  -7  -1  -2    0.87    0.37
   7   1   2    1.00    0.76
  -8  -1  -2    0.14    0.40
  -8  -1  -2    0.24    0.34
  -8  -1  -2   -0.04    0.43
   8   1   2   -0.84    0.51
  -9  -1  -2    0.43    0.38
  -9  -1  -2    0.78    0.50
   9   1   2    0.27    0.76
 -10  -1  -2    0.60    0.49
 -10  -1  -2    1.93    0.75
  10   1   2    0.12    1.19
  12  -2  -2    1.08    1.28
 -12   2   2    0.09    0.54
 -12   2   2    0.21    0.48
 -12   2   2    0.04    0.52
  11  -2  -2    2.45    1.33
  11  -2  -2    1.83    1.06
 -11   2   2    2.41    0.64
 -11   2   2    0.90    0.53
 -11   2   2    2.87    0.69
  10  -2  -2   79.83    4.21
  10  -2  -2   72.49    4.26
 -10   2   2   74.42    2.85
 -10   2   2   70.28    2.85
 -10   2   2   75.37    2.86
   9  -2  -2  105.53    5.03
   9  -2  -2  113.15    5.01
  -9   2   2  110.12    3.76
  -9   2   2  109.47    3.76
  -9   2   2  107.46    3.75
   8  -2  -2    2.06    0.88
   8  -2  -2    1.01    0.72
  -8   2   2    0.98    0.40
  -8   2   2    1.09    0.38
  -8   2   2    1.97    0.48
   7  -2  -2   19.10    1.59
   7  -2  -2   16.86    1.48
  -7   2   2   17.77    0.96
  -7   2   2   18.71    0.94
  -7   2   2   17.88    0.98
  -7   2   2   15.89    0.93
   6  -2  -2   87.95    3.61
   6  -2  -2   83.69    2.74
   6  -2  -2   85.25    3.70
  -6   2   2   85.36    2.78
  -6   2   2   88.36    2.90
  -6   2   2   82.63    2.83
  -6   2   2   88.63    2.87
   5  -2  -2   38.51    1.48
   5  -2  -2   35.73    1.88
   5  -2  -2   36.44    1.36
   5  -2  -2   38.58    2.07
  -5   2   2   37.17    1.44
  -5   2   2   38.94    1.46
  -5   2   2   39.01    1.39
  -5   2   2   37.98    1.40
   4  -2  -2   23.48    1.46
   4  -2  -2   23.86    1.32
   4  -2  -2   21.91    0.89
  -4   2   2   21.96    0.94
  -4   2   2   22.13    0.94
  -4   2   2   20.85    0.88
  -4   2   2   20.67    0.81
   3  -2  -2   16.56    0.75
  -3   2   2   17.41    0.56
  -3   2   2   18.28    0.79
  -3   2   2   16.80    0.77
   2  -2  -2    5.13    0.42
   2  -2  -2    5.96    0.45
  -2   2   2    5.91    0.43
  -2   2   2    5.81    0.43
   1  -2  -2    5.30    0.41
   1  -2  -2    5.52    0.43
   1  -2  -2    6.02    0.55
   1  -2  -2    6.24    0.41
  -1   2   2    6.34    0.51
  -1   2   2    4.78    0.39
  -1   2   2    5.84    0.39
   0  -2  -2    3.28    0.46
   0  -2  -2    3.56    0.38
   0  -2  -2    4.74    0.56
   0  -2  -2    2.84    0.43
   0   2   2    3.65    0.42
   0   2   2    3.39    0.53
   0   2   2    4.55    0.68
  -1  -2  -2   56.88    1.87
  -1  -2  -2   54.52    1.94
  -1  -2  -2   54.67    1.83
  -1  -2  -2   52.57    1.94
   1   2   2   55.33    2.29
   1   2   2   57.15    1.85
   1   2   2   56.45    2.20
  -2  -2  -2  193.16    5.68
  -2  -2  -2  195.99    5.83
  -2  -2  -2  199.92    5.75
  -2  -2  -2  194.76    5.81
   2   2   2  192.17    5.69
   2   2   2  194.24    6.35
   2   2   2  193.53    6.42
  -3  -2  -2    6.17    0.50
  -3  -2  -2    8.76    0.79
  -3  -2  -2    7.95    0.74
  -3  -2  -2    5.43    0.43
   3   2   2    7.77    1.14
   3   2   2    8.62    1.33
  -4  -2  -2    0.38    0.22
  -4  -2  -2    0.56    0.31
  -4  -2  -2    0.03    0.20
  -4  -2  -2    0.02    0.23
  -4  -2  -2    0.06    0.24
   4   2   2   -0.19    0.38
   4   2   2   -0.35    0.30
  -5  -2  -2  204.31    6.22
  -5  -2  -2  200.09    6.18
  -5  -2  -2  201.50    6.29
  -5  -2  -2  201.35    6.08
  -5  -2  -2  199.67    6.27
   5   2   2  204.24    7.38
   5   2   2  206.89    7.54
  -6  -2  -2  144.99    4.71
  -6  -2  -2  140.69    4.63
  -6  -2  -2  135.98    4.58
  -6  -2  -2  143.50    4.52
  -6  -2  -2  140.66    4.68
   6   2   2  142.64    5.89
  -7  -2  -2    0.89    0.47
  -7  -2  -2    1.14    0.42
  -7  -2  -2    0.77    0.45
  -7  -2  -2    0.79    0.40
   7   2   2    1.47    0.90
  -8  -2  -2    3.81    0.84
  -8  -2  -2    2.28    0.61
  -8  -2  -2    2.98    0.74
   8   2   2    1.84    1.11
  -9  -2  -2   44.80    2.25
  -9  -2  -2   46.35    2.36
  -9  -2  -2   41.94    2.09
   9   2   2   39.13    3.34
 -10  -2  -2    5.15    1.00
  10   2   2    2.95    1.54
  12  -3  -2    1.20    1.32
 -12   3   2    0.59    0.57
 -12   3   2    1.22    0.60
 -12   3   2    0.31    0.55
  11  -3  -2    1.10    1.12
  11  -3  -2    2.49    1.37
 -11   3   2    1.89    0.63
 -11   3   2    0.31    0.45
 -11   3   2    1.81    0.61
  10  -3  -2   55.30    3.63
  10  -3  -2   60.03    3.69
 -10   3   2   54.03    2.34
 -10   3   2   54.21    2.33
 -10   3   2   56.30    2.38
   9  -3  -2   12.74    2.06
   9  -3  -2   12.61    1.93
  -9   3   2   11.80    0.92
  -9   3   2   12.07    0.93
  -9   3   2   11.02    0.92
   8  -3  -2   23.41    1.98
   8  -3  -2   25.36    2.02
  -8   3   2   24.17    1.26
  -8   3   2   24.30    1.25
  -8   3   2   22.52    1.22
   7  -3  -2   47.15    2.08
   7  -3  -2   53.54    2.77
   7  -3  -2   48.56    2.79
  -7   3   2   49.78    1.96
  -7   3   2   49.95    1.96
  -7   3   2   52.96    1.90
   6  -3  -2  218.54    7.75
   6  -3  -2  221.69    7.52
   6  -3  -2  229.12    6.59
  -6   3   2  215.17    6.69
  -6   3   2  233.71    6.61
  -6   3   2  231.92    6.65
  -6   3   2  219.16    6.70
   5  -3  -2   13.47    1.09
   5  -3  -2   11.88    1.14
   5  -3  -2   12.85    0.68
  -5   3   2   13.43    0.62
  -5   3   2   12.76    0.75
  -5   3   2   12.45    0.75
   4  -3  -2   59.70    2.79
   4  -3  -2   64.68    2.17
   4  -3  -2   66.33    2.63
  -4   3   2   65.08    1.95
  -4   3   2   65.36    2.23
  -4   3   2   63.62    2.21
  -4   3   2   66.10    2.17
   3  -3  -2   24.37    1.05
   3  -3  -2   23.60    1.04
  -3   3   2   22.90    1.01
  -3   3   2   24.15    1.05
  -3   3   2   24.78    1.06
   2  -3  -2    3.86    0.51
   2  -3  -2    3.23    0.48
  -2   3   2    3.63    0.48
  -2   3   2    2.51    0.38
   1  -3  -2   32.66    1.35
   1  -3  -2   33.13    1.37
   1  -3  -2   31.69    1.33
  -1   3   2   29.35    1.22
  -1   3   2   30.76    1.27
  -1   3   2   31.82    1.29
   0  -3  -2    9.91    0.63
   0  -3  -2   11.36    0.76
   0  -3  -2   10.49    0.74
   0  -3  -2    9.98    0.70
   0   3   2   10.27    0.84
   0   3   2   10.91    0.74
   0   3   2   10.12    0.65
  -1  -3  -2    9.85    0.63
  -1  -3  -2    7.60    0.62
  -1  -3  -2    8.54    0.67
  -1  -3  -2    8.20    0.63
   1   3   2    8.13    0.59
   1   3   2    8.64    0.82
   1   3   2    8.09    0.74
  -2  -3  -2    1.25    0.39
  -2  -3  -2    0.87    0.31
  -2  -3  -2    0.96    0.33
  -2  -3  -2    0.38    0.34
   2   3   2    1.14    0.47
   2   3   2    1.47    0.55
   2   3   2    1.41    0.39
  -3  -3  -2    4.06    0.59
  -3  -3  -2    4.54    0.66
  -3  -3  -2    4.60    0.68
  -3  -3  -2    4.87    0.72
   3   3   2    4.09    0.91
   3   3   2    4.71    0.61
   3   3   2    2.83    0.78
  -4  -3  -2    9.86    0.81
  -4  -3  -2    9.65    1.04
  -4  -3  -2   10.02    0.74
  -4  -3  -2   11.26    1.10
  -4  -3  -2   10.06    0.83
   4   3   2   11.66    1.59
   4   3   2    9.48    1.45
  -5  -3  -2   20.01    1.23
  -5  -3  -2   21.58    1.17
  -5  -3  -2   19.78    1.28
  -5  -3  -2   21.93    1.30
  -5  -3  -2   20.53    1.23
   5   3   2   22.71    1.85
   5   3   2   20.48    1.86
  -6  -3  -2    3.27    0.64
  -6  -3  -2    3.03    0.73
  -6  -3  -2    3.39    0.66
  -6  -3  -2    3.54    0.74
   6   3   2    3.99    1.18
  -7  -3  -2   11.17    1.34
  -7  -3  -2    9.36    1.12
  -7  -3  -2    9.66    1.21
  -7  -3  -2   10.10    1.16
   7   3   2    6.83    1.60
  -8  -3  -2   11.20    1.41
  -8  -3  -2   10.64    1.26
  -8  -3  -2   10.51    1.36
   8   3   2    6.47    1.68
  -9  -3  -2   26.03    1.77
  -9  -3  -2   21.43    1.57
  -9  -3  -2   20.43    1.67
   9   3   2   23.58    3.24
  12  -4  -2    6.69    1.93
 -12   4   2    5.28    0.87
 -12   4   2    5.89    0.94
 -12   4   2    6.17    0.98
  11  -4  -2    6.29    1.83
  11  -4  -2    3.99    1.48
 -11   4   2    3.00    0.72
 -11   4   2    3.57    0.77
 -11   4   2    4.22    0.82
  10  -4  -2    2.53    1.11
  10  -4  -2    4.49    1.41
 -10   4   2    4.56    0.82
 -10   4   2    3.62    0.68
 -10   4   2    2.58    0.69
   9  -4  -2    3.52    1.20
   9  -4  -2    5.53    1.39
  -9   4   2    4.06    0.68
  -9   4   2    3.69    0.66
   8  -4  -2    7.29    1.52
   8  -4  -2    7.37    1.45
  -8   4   2    4.99    0.70
  -8   4   2    5.97    0.78
   7  -4  -2    3.20    0.92
   7  -4  -2    1.89    0.86
   7  -4  -2    2.24    0.53
  -7   4   2    1.33    0.43
  -7   4   2    2.15    0.46
  -7   4   2    1.91    0.37
   6  -4  -2    1.15    0.67
   6  -4  -2    2.01    0.72
   6  -4  -2    1.55    0.37
  -6   4   2    1.19    0.27
  -6   4   2    1.36    0.39
  -6   4   2    1.17    0.40
   5  -4  -2  181.26    6.70
   5  -4  -2  195.10    5.88
   5  -4  -2  199.58    6.58
  -5   4   2  208.15    5.93
  -5   4   2  194.58    5.99
  -5   4   2  197.16    5.66
  -5   4   2  194.73    5.98
   4  -4  -2   51.03    1.89
   4  -4  -2   49.18    2.43
   4  -4  -2   50.88    1.59
   4  -4  -2   52.19    2.31
   4  -4  -2   51.69    1.89
  -4   4   2   51.05    1.87
  -4   4   2   51.82    1.94
  -4   4   2   49.62    1.92
   3  -4  -2   32.02    1.15
   3  -4  -2   34.95    1.48
   3  -4  -2   30.65    1.40
  -3   4   2   35.77    1.42
  -3   4   2   33.11    1.42
   2  -4  -2  117.57    3.97
   2  -4  -2  122.38    4.00
  -2   4   2  123.44    3.88
  -2   4   2  123.75    3.79
  -2   4   2  121.32    3.93
   1  -4  -2  616.66   18.14
   1  -4  -2  631.83   18.16
   1  -4  -2  639.86   18.16
  -1   4   2  629.79   17.95
  -1   4   2  647.13   17.92
  -1   4   2  636.54   18.03
   0  -4  -2   39.53    1.73
   0  -4  -2   33.65    1.61
   0  -4  -2   36.36    1.66
   0  -4  -2   35.56    1.54
   0   4   2   35.17    1.80
   0   4   2   39.26    1.59
   0   4   2   38.13    1.62
  -1  -4  -2    1.02    0.42
  -1  -4  -2    1.00    0.39
  -1  -4  -2    0.35    0.23
  -1  -4  -2    0.45    0.36
   1   4   2    0.50    0.34
   1   4   2    0.38    0.42
   1   4   2    0.44    0.35
  -2  -4  -2  103.79    3.54
  -2  -4  -2  103.74    3.51
  -2  -4  -2  105.72    3.62
  -2  -4  -2  100.08    3.56
   2   4   2  100.26    3.97
   2   4   2   96.99    3.43
   2   4   2   96.99    3.87
  -3  -4  -2   51.93    2.21
  -3  -4  -2   51.40    2.25
  -3  -4  -2   52.24    2.16
  -3  -4  -2   52.92    2.24
   3   4   2   53.89    2.71
   3   4   2   55.10    2.73
   3   4   2   52.11    2.09
  -4  -4  -2    2.48    0.64
  -4  -4  -2    4.21    0.70
  -4  -4  -2    3.47    0.73
  -4  -4  -2    3.91    0.76
   4   4   2    3.38    1.00
   4   4   2    4.07    1.08
  -5  -4  -2    5.87    1.01
  -5  -4  -2    3.57    0.77
  -5  -4  -2    5.00    0.90
  -5  -4  -2    5.53    0.87
   5   4   2    4.59    1.20
  -6  -4  -2    1.62    0.65
  -6  -4  -2    2.74    0.73
  -6  -4  -2    3.67    0.79
  -6  -4  -2    3.00    0.84
   6   4   2    3.17    1.07
  -7  -4  -2    3.43    0.95
  -7  -4  -2    0.81    0.55
  -7  -4  -2    2.29    0.77
   7   4   2    1.91    1.00
  -8  -4  -2   -0.07    0.56
  -8  -4  -2    2.48    0.87
  -8  -4  -2    1.29    0.77
   8   4   2    0.49    0.90
  -9  -4  -2    3.18    0.89
  -9  -4  -2    4.16    1.22
   9   4   2    3.07    1.50
  12  -5  -2    2.43    1.53
 -12   5   2    2.03    0.71
 -12   5   2    1.58    0.69
 -12   5   2    2.02    0.72
  11  -5  -2    2.41    1.41
  11  -5  -2    5.31    1.70
 -11   5   2    4.82    0.87
 -11   5   2    5.74    0.95
 -11   5   2    4.87    0.92
  10  -5  -2    1.09    0.90
  10  -5  -2    1.84    1.17
 -10   5   2    1.07    0.57
 -10   5   2    0.68    0.50
   9  -5  -2    1.76    1.05
   9  -5  -2    2.69    1.23
  -9   5   2    1.70    0.52
  -9   5   2    2.22    0.60
   8  -5  -2    4.19    1.24
   8  -5  -2    3.06    0.99
  -8   5   2    4.87    0.71
  -8   5   2    4.93    0.76
   7  -5  -2    0.41    0.59
   7  -5  -2    0.16    0.59
   7  -5  -2    0.07    0.40
  -7   5   2    0.91    0.40
  -7   5   2    1.13    0.42
   6  -5  -2    1.54    0.40
   6  -5  -2    1.78    0.80
   6  -5  -2    1.80    0.65
  -6   5   2    1.57    0.46
  -6   5   2    1.96    0.50
  -6   5   2    1.54    0.38
   5  -5  -2    3.48    0.55
   5  -5  -2    3.63    0.86
   5  -5  -2    2.59    0.67
   5  -5  -2    2.24    0.29
  -5   5   2    3.38    0.58
  -5   5   2    2.28    0.42
  -5   5   2    1.97    0.47
   4  -5  -2    0.14    0.39
   4  -5  -2    0.25    0.46
   4  -5  -2    0.49    0.30
   4  -5  -2    0.16    0.15
   4  -5  -2    0.75    0.34
  -4   5   2   -0.17    0.25
  -4   5   2    0.46    0.28
  -4   5   2    0.08    0.24
   3  -5  -2    1.10    0.43
   3  -5  -2    1.08    0.42
  -3   5   2    1.87    0.47
  -3   5   2    1.92    0.44
   2  -5  -2   76.57    2.94
   2  -5  -2   73.82    2.90
  -2   5   2   78.38    2.84
  -2   5   2   74.02    2.75
  -2   5   2   83.26    2.56
   1  -5  -2   66.71    2.66
   1  -5  -2   62.49    2.62
   1  -5  -2   68.58    2.67
  -1   5   2   74.28    2.72
  -1   5   2   67.28    2.36
  -1   5   2   65.41    2.53
   0  -5  -2   27.97    1.51
   0  -5  -2   28.33    1.54
   0  -5  -2   29.20    1.55
   0   5   2   26.88    1.41
   0   5   2   28.97    1.41
  -1  -5  -2    3.42    0.68
  -1  -5  -2    2.32    0.56
  -1  -5  -2    3.69    0.72
  -1  -5  -2    3.47    0.74
   1   5   2    2.82    0.65
   1   5   2    2.09    0.58
   1   5   2    2.45    0.67
  -2  -5  -2  191.47    6.17
  -2  -5  -2  185.53    6.16
  -2  -5  -2  189.09    6.16
   2   5   2  192.00    6.51
   2   5   2  189.25    6.58
   2   5   2  184.89    6.03
  -3  -5  -2    3.13    0.74
  -3  -5  -2    5.39    0.95
  -3  -5  -2    3.07    0.69
   3   5   2    4.14    1.01
   3   5   2    5.35    1.16
   3   5   2    4.19    0.77
  -4  -5  -2   69.68    3.01
  -4  -5  -2   72.43    2.99
  -4  -5  -2   68.53    2.96
  -4  -5  -2   69.83    3.12
   4   5   2   69.37    3.52
  -5  -5  -2    0.63    0.60
  -5  -5  -2    0.41    0.47
  -5  -5  -2   -0.22    0.44
  -5  -5  -2    0.34    0.44
   5   5   2    0.13    0.66
  -6  -5  -2    8.84    1.33
  -6  -5  -2   12.24    1.58
  -6  -5  -2   10.04    1.43
  -6  -5  -2    7.20    1.16
   6   5   2   12.83    2.15
  -7  -5  -2    8.84    1.46
  -7  -5  -2    8.84    1.33
  -7  -5  -2    7.45    1.37
   7   5   2   10.86    2.13
  -8  -5  -2    6.43    1.39
  -8  -5  -2    7.37    1.35
   8   5   2    5.79    1.84
  12  -6  -2   13.24    2.62
 -12   6   2   11.88    1.37
 -12   6   2   10.43    1.27
 -12   6   2    9.62    1.24
  11  -6  -2   23.98    3.11
  11  -6  -2   30.66    4.11
 -11   6   2   36.60    1.93
 -11   6   2   31.05    1.80
 -11   6   2   34.70    1.86
  10  -6  -2    7.34    1.82
  10  -6  -2    4.07    1.37
 -10   6   2    6.31    0.90
 -10   6   2    5.04    0.89
   9  -6  -2    0.37    0.92
   9  -6  -2    1.49    0.95
  -9   6   2    1.89    0.64
  -9   6   2    2.44    0.62
   8  -6  -2  154.34    6.44
   8  -6  -2  156.96    6.21
  -8   6   2  159.70    5.29
  -8   6   2  163.54    5.30
   7  -6  -2   68.66    3.33
   7  -6  -2   65.77    3.46
  -7   6   2   63.56    2.64
  -7   6   2   71.25    2.71
   6  -6  -2    3.26    0.89
   6  -6  -2    3.40    0.80
   6  -6  -2    5.37    0.74
  -6   6   2    4.23    0.66
  -6   6   2    4.71    0.74
   5  -6  -2   50.72    2.13
   5  -6  -2   51.90    2.49
   5  -6  -2   53.89    2.62
   5  -6  -2   53.71    1.80
   5  -6  -2   51.97    2.13
  -5   6   2   52.15    2.20
  -5   6   2   51.62    2.17
   4  -6  -2   52.11    2.24
   4  -6  -2   50.98    2.21
   4  -6  -2   51.93    2.42
   4  -6  -2   50.40    1.83
  -4   6   2   53.22    2.16
  -4   6   2   49.31    2.15
   3  -6  -2   17.94    1.26
   3  -6  -2   23.19    1.36
  -3   6   2   21.41    0.89
  -3   6   2   20.97    1.23
  -3   6   2   21.56    1.27
   2  -6  -2   24.04    1.45
   2  -6  -2   24.38    1.46
  -2   6   2   23.51    1.36
  -2   6   2   24.77    1.34
  -2   6   2   23.62    1.01
   1  -6  -2   13.50    1.08
   1  -6  -2   12.18    1.29
   1  -6  -2   11.72    1.32
  -1   6   2   13.91    0.84
  -1   6   2   12.61    0.99
   0  -6  -2    4.96    0.85
   0  -6  -2    3.76    0.82
   0  -6  -2    4.90    0.88
   0   6   2    4.02    0.79
   0   6   2    2.92    0.60
  -1  -6  -2    0.68    0.47
  -1  -6  -2    0.35    0.40
  -1  -6  -2    0.31    0.40
   1   6   2    0.64    0.53
   1   6   2    0.48    0.50
   1   6   2    0.08    0.38
  -2  -6  -2   -0.01    0.42
  -2  -6  -2    0.63    0.48
  -2  -6  -2   -0.03    0.38
   2   6   2   -0.31    0.38
   2   6   2    0.08    0.46
   2   6   2    0.12    0.44
  -3  -6  -2   45.63    2.33
  -3  -6  -2   52.75    2.45
  -3  -6  -2   46.81    2.37
   3   6   2   46.24    2.70
   3   6   2   52.25    2.69
  -4  -6  -2   48.63    2.48
  -4  -6  -2   50.70    2.48
  -4  -6  -2   51.13    2.54
  -4  -6  -2   46.20    2.84
   4   6   2   46.85    2.86
  -5  -6  -2    1.82    0.73
  -5  -6  -2    1.87    0.79
  -5  -6  -2    1.46    0.70
   5   6   2    1.62    0.99
  -6  -6  -2    3.08    0.97
  -6  -6  -2    3.31    0.98
   6   6   2    2.98    1.26
  -7  -6  -2   88.36    3.90
  -7  -6  -2   85.99    3.91
   7   6   2   87.41    4.83
 -12   7   2    0.38    0.63
 -12   7   2   -0.25    0.59
 -12   7   2    0.03    0.58
  11  -7  -2    0.02    1.19
 -11   7   2    0.22    0.57
 -11   7   2    0.51    0.59
  10  -7  -2    4.43    1.55
  10  -7  -2    3.17    1.14
 -10   7   2    4.28    0.88
 -10   7   2    2.93    0.68
   9  -7  -2    9.42    1.81
   9  -7  -2   11.25    1.72
  -9   7   2    9.69    1.08
  -9   7   2   11.07    1.23
   8  -7  -2   79.36    4.06
   8  -7  -2   78.90    3.76
  -8   7   2   77.85    3.17
  -8   7   2   84.48    3.22
   7  -7  -2   -0.17    0.61
   7  -7  -2    0.50    0.62
  -7   7   2   -0.30    0.37
  -7   7   2   -0.04    0.40
   6  -7  -2   10.35    1.28
   6  -7  -2   11.28    0.93
   6  -7  -2   12.03    1.51
  -6   7   2    9.21    1.02
  -6   7   2   12.13    1.22
   5  -7  -2  125.26    4.72
   5  -7  -2  123.69    4.36
   5  -7  -2  124.93    4.37
   5  -7  -2  116.46    4.48
   5  -7  -2  122.74    3.89
  -5   7   2  127.63    4.42
  -5   7   2  126.53    4.34
   4  -7  -2   90.66    3.44
   4  -7  -2   85.05    3.38
   4  -7  -2   86.53    3.03
   4  -7  -2   84.19    3.43
  -4   7   2   82.26    3.31
  -4   7   2   89.41    3.29
   3  -7  -2   33.66    1.91
   3  -7  -2   35.53    1.93
   3  -7  -2   32.74    1.69
  -3   7   2   34.32    1.81
  -3   7   2   33.98    1.74
   2  -7  -2   11.54    1.39
   2  -7  -2   15.69    1.59
  -2   7   2   11.68    1.29
   1  -7  -2    9.99    1.28
   1  -7  -2   11.35    1.35
  -1   7   2   13.89    1.37
   0  -7  -2    2.33    0.69
   0  -7  -2    3.84    0.88
   0   7   2    2.93    0.63
   0   7   2    3.88    0.80
  -1  -7  -2    5.76    1.04
  -1  -7  -2    6.92    1.11
   1   7   2    6.88    1.04
  -2  -7  -2    2.58    0.76
  -2  -7  -2    2.28    0.74
   2   7   2    1.21    0.67
   2   7   2    2.73    0.73
  -3  -7  -2    4.41    0.99
  -3  -7  -2    2.65    0.86
   3   7   2    2.90    0.96
  -4  -7  -2    2.71    0.91
  -4  -7  -2    0.48    0.70
   4   7   2    0.36    0.72
  -5  -7  -2    0.01    0.68
  -5  -7  -2    0.11    0.64
   5   7   2   -0.93    0.76
  -6  -7  -2   10.09    1.65
  -6  -7  -2    5.56    1.25
   6   7   2    7.39    1.88
  -7  -7  -2    9.70    1.63
   7   7   2    9.89    2.29
 -12   8   2    7.38    1.18
 -11   8   2   12.54    1.43
  10  -8  -2    7.00    1.72
 -10   8   2    8.52    1.21
 -10   8   2    6.65    1.07
   9  -8  -2    6.95    1.60
  -9   8   2    8.48    1.14
  -9   8   2    8.64    1.18
   8  -8  -2    4.17    1.16
  -8   8   2    3.94    0.83
  -8   8   2    4.65    0.85
   7  -8  -2    7.61    1.38
  -7   8   2    8.85    1.16
  -7   8   2    5.66    0.93
   6  -8  -2    2.80    0.72
   6  -8  -2    1.25    0.75
  -6   8   2    2.56    0.73
  -6   8   2    1.82    0.62
   5  -8  -2    9.00    1.16
   5  -8  -2    8.30    1.12
   5  -8  -2    9.33    1.20
  -5   8   2   10.20    1.22
  -5   8   2   10.25    1.20
   4  -8  -2   12.71    1.31
   4  -8  -2   12.47    1.42
   4  -8  -2   13.36    1.50
   4  -8  -2   11.04    0.96
  -4   8   2   12.28    1.36
   3  -8  -2  147.50    5.40
   3  -8  -2  145.50    4.82
   3  -8  -2  149.64    5.38
  -3   8   2  139.76    5.16
   2  -8  -2    0.97    0.58
   2  -8  -2    1.98    0.78
  -2   8   2    1.01    0.61
   1  -8  -2    7.91    1.24
   1  -8  -2    9.87    1.36
  -1   8   2    9.15    1.25
   0  -8  -2  114.52    4.50
   0  -8  -2  119.71    4.53
   0   8   2  109.76    4.28
  -1  -8  -2  148.23    5.40
  -1  -8  -2  139.92    5.37
   1   8   2  144.69    5.19
  -2  -8  -2    3.91    1.06
  -2  -8  -2    4.47    1.04
   2   8   2    1.79    0.79
   2   8   2    2.78    1.01
  -3  -8  -2    4.09    1.09
  -3  -8  -2    5.36    1.13
   3   8   2    3.67    1.11
  -4  -8  -2   30.11    2.11
  -4  -8  -2   32.43    2.19
   4   8   2   30.95    2.49
  -5  -8  -2    5.88    1.28
  -5  -8  -2   11.22    1.69
   5   8   2    8.53    1.82
  -6  -8  -2    1.07    0.90
   6   8   2    2.15    1.38
 -12   9   2    6.82    1.23
 -11   9   2   38.77    2.25
  10  -9  -2   -0.76    0.95
 -10   9   2   -0.55    0.61
   9  -9  -2    0.75    1.01
  -9   9   2    0.67    0.72
   8  -9  -2    3.28    1.14
  -8   9   2    3.17    0.88
   7  -9  -2    0.39    0.72
  -7   9   2    1.03    0.64
   6  -9  -2    1.73    0.75
   6  -9  -2    1.84    0.87
  -6   9   2    1.92    0.85
   5  -9  -2   -0.07    0.58
  -5   9   2    0.41    0.55
   4  -9  -2    3.02    0.90
   4  -9  -2    1.16    0.77
  -4   9   2    0.85    0.56
   3  -9  -2    2.13    0.78
   3  -9  -2    2.14    0.88
  -3   9   2    0.47    0.56
   2  -9  -2    1.33    0.69
   2  -9  -2    0.54    0.64
  -2   9   2    1.57    0.69
   1  -9  -2    2.45    0.88
   1  -9  -2    2.37    0.83
  -1   9   2    2.77    0.86
   0  -9  -2   45.05    2.59
   0  -9  -2   51.11    2.70
   0   9   2   51.12    2.56
  -1  -9  -2    4.96    1.09
  -1  -9  -2    4.20    1.08
   1   9   2    8.26    1.30
  -2  -9  -2   19.29    2.11
  -2  -9  -2   18.01    2.09
   2   9   2   18.72    2.03
  -3  -9  -2   10.57    1.69
  -3  -9  -2   11.04    1.66
  -4  -9  -2   50.16    2.93
  -4  -9  -2   44.79    2.83
  -5  -9  -2    2.51    1.16
 -11  10   2    3.08    1.03
 -10  10   2   36.86    2.32
  -9  10   2    8.13    1.31
  -8  10   2   13.52    1.67
  -7  10   2   12.13    1.52
   6 -10  -2  126.07    4.98
  -6  10   2  129.17    5.02
   5 -10  -2   17.05    1.94
  -5  10   2   19.41    1.60
   4 -10  -2    8.56    1.48
  -4  10   2    9.16    1.37
   3 -10  -2   42.20    2.55
   3 -10  -2   38.94    2.44
  -3  10   2   37.04    2.28
   2 -10  -2   15.96    1.85
   2 -10  -2   11.98    1.62
  -2  10   2   14.67    1.65
   1 -10  -2    6.53    1.29
   1 -10  -2    6.49    1.28
  -1  10   2   10.08    1.43
   0 -10  -2    6.95    1.31
   0 -10  -2    6.78    1.36
   0  10   2    7.38    1.25
  -1 -10  -2    5.90    1.28
  -1 -10  -2    4.90    1.15
   1  10   2    3.76    0.93
  -2 -10  -2    0.39    0.75
  -2 -10  -2    2.47    1.00
  -3 -10  -2   -0.12    0.75
  -3 -10  -2    0.30    0.83
  -4 -10  -2   -0.32    0.77
 -10  11   2   -0.15    0.85
  -9  11   2    0.93    0.82
  -8  11   2    1.96    0.88
  -7  11   2   26.45    2.01
  -6  11   2   35.35    2.33
   5 -11  -2    7.35    1.43
  -5  11   2    9.69    1.48
   4 -11  -2    0.49    0.86
  -4  11   2    0.44    0.69
   3 -11  -2   79.84    3.87
  -3  11   2   74.09    3.57
   2 -11  -2    6.92    1.40
   2 -11  -2    5.68    1.32
  -2  11   2    8.60    1.42
   1 -11  -2   10.02    1.61
   1 -11  -2    5.95    1.27
  -1  11   2   11.73    1.56
   0 -11  -2   -0.65    0.73
   0 -11  -2   -0.25    0.75
   0  11   2   -0.44    0.57
  -1 -11  -2    1.52    0.91
  -1 -11  -2    1.29    1.00
   1  11   2    0.76    0.87
  -2 -11  -2    1.79    1.12
  -2 -11  -2    1.84    0.97
  -9  12   2    4.66    1.24
  -8  12   2    3.87    1.22
  -7  12   2    4.54    1.20
  -6  12   2    4.21    1.19
   5 -12  -2    4.62    1.37
  -5  12   2    6.06    1.36
   4 -12  -2    0.30    0.81
  -4  12   2    1.63    0.89
   3 -12  -2    4.08    1.24
  -3  12   2    4.65    1.17
   2 -12  -2   15.67    2.05
  -2  12   2   20.27    2.14
   1 -12  -2   19.03    2.21
   1 -12  -2   19.55    2.67
   0 -12  -2    1.47    1.22
   0 -12  -2    2.88    1.20
   0  12   2    2.81    1.06
  -1 -12  -2   -1.01    0.78
  -1 -12  -2   -0.96    1.01
  -8  13   2    0.14    0.83
  -7  13   2    0.54    0.87
  -6  13   2    1.39    0.97
  -5  13   2   -0.50    0.85
   4 -13  -2    0.84    1.00
  -4  13   2   -0.08    0.81
   3 -13  -2   -0.10    0.92
  -3  13   2    0.05    0.75
   2 -13  -2    0.36    0.97
  -2  13   2    0.66    0.87
   1 -13  -2    0.84    0.96
  -1  13   2    1.61    0.93
   0  13  -3    4.51    1.25
   0 -13   3    4.12    1.35
  -1  13  -3   51.79    3.06
  -2  13  -3   33.35    2.42
  -3  13  -3    1.71    1.00
  -4  13  -3    0.68    0.90
  -5  13  -3   45.08    2.79
  -6  13  -3    2.62    1.11
   3  12  -3    1.90    0.98
  -3 -12   3    2.76    1.27
   2  12  -3    2.81    1.06
  -2 -12   3    1.60    0.99
   1  12  -3    2.92    1.02
  -1 -12   3    0.70    0.95
   0  12  -3    1.88    0.89
   0 -12   3    2.43    0.97
  -1  12  -3    3.00    1.00
   1 -12   3    1.86    1.06
  -2  12  -3    3.71    1.12
  -3  12  -3    0.04    0.71
  -4  12  -3    3.13    1.09
  -5  12  -3    6.64    1.34
  -6  12  -3   12.74    1.78
  -7  12  -3   19.24    2.15
  -8  12  -3   11.33    1.71
   4  11  -3    0.50    0.72
  -4 -11   3    0.08    1.07
  -4 -11   3    0.87    0.98
   3  11  -3    2.94    1.01
  -3 -11   3    2.43    1.11
   2  11  -3   36.32    2.37
  -2 -11   3   37.43    2.58
   1  11  -3   30.26    2.09
  -1 -11   3   29.22    2.22
   0  11  -3    2.32    0.86
   0 -11   3    0.61    0.72
  -1  11  -3    0.65    0.64
   1 -11   3   -0.36    0.57
   1 -11   3   -0.06    0.92
  -2  11  -3    5.61    1.13
   2 -11   3    2.21    0.99
  -3  11  -3    5.04    1.10
   3 -11   3    3.79    1.28
  -4  11  -3    8.04    1.34
  -5  11  -3   10.22    1.50
  -6  11  -3    9.44    1.42
  -7  11  -3   13.46    1.57
  -7  11  -3   19.16    2.03
  -8  11  -3    6.47    1.27
  -8  11  -3    4.14    1.06
  -9  11  -3   16.12    1.87
  -5 -10   3    6.53    1.52
  -5 -10   3    5.02    1.35
   4  10  -3    0.46    0.77
  -4 -10   3    0.57    0.86
  -4 -10   3    0.50    0.90
   3  10  -3    3.30    1.02
  -3 -10   3    3.20    1.14
  -3 -10   3    3.76    1.18
   2  10  -3   41.96    2.52
  -2 -10   3   52.91    2.85
  -2 -10   3   46.66    2.70
   1  10  -3    0.56    0.65
  -1 -10   3    1.43    0.83
   0  10  -3   68.93    3.20
   0 -10   3   68.11    3.28
  -1  10  -3    1.99    0.76
   1 -10   3    1.41    0.66
   1 -10   3    1.33    0.99
  -2  10  -3   23.60    1.72
   2 -10   3   19.28    2.20
   2 -10   3   29.12    1.92
  -3  10  -3   19.51    1.52
   3 -10   3   19.82    2.18
  -4  10  -3   23.00    1.60
  -4  10  -3   20.51    1.59
   4 -10   3   17.08    1.98
  -5  10  -3    3.73    0.93
  -5  10  -3    3.90    0.86
   5 -10   3    3.70    1.09
  -6  10  -3    3.78    0.97
  -6  10  -3    2.38    0.73
  -7  10  -3    0.77    0.78
  -7  10  -3    0.79    0.66
  -8  10  -3    2.20    0.78
  -8  10  -3    2.42    0.86
  -9  10  -3    0.23    0.76
  -7  -9   3    0.26    0.99
  -6  -9   3   -0.94    0.74
   5   9  -3    2.90    0.99
  -5  -9   3    0.45    0.86
  -5  -9   3    1.24    0.86
   4   9  -3    2.48    0.91
  -4  -9   3    1.71    0.88
  -4  -9   3    2.59    0.97
   3   9  -3    5.06    1.07
  -3  -9   3    4.93    1.12
  -3  -9   3    4.00    1.04
   2   9  -3    8.16    1.27
  -2  -9   3    5.48    1.13
  -2  -9   3    6.00    1.23
   1   9  -3   24.32    1.70
  -1  -9   3   22.61    1.72
  -1  -9   3   27.36    1.82
   0   9  -3   35.25    2.09
   0  -9   3   42.12    2.30
   0  -9   3   41.08    2.28
  -1   9  -3    5.77    1.01
   1  -9   3    4.88    1.14
   1  -9   3    4.88    1.04
  -2   9  -3   24.73    1.60
  -2   9  -3   24.14    1.60
   2  -9   3   23.86    1.67
   2  -9   3   17.87    2.08
  -3   9  -3  197.11    6.60
  -3   9  -3  199.94    6.71
   3  -9   3  198.45    7.25
  -4   9  -3   31.38    1.89
  -4   9  -3   33.76    1.83
   4  -9   3   28.95    2.07
  -5   9  -3   15.01    1.25
  -5   9  -3   14.89    1.61
   5  -9   3   12.35    1.56
  -6   9  -3   25.07    1.62
  -6   9  -3   23.47    1.70
   6  -9   3   23.07    1.76
  -7   9  -3   67.99    3.03
  -7   9  -3   71.95    3.09
  -8   9  -3    0.43    0.55
  -8   9  -3    0.29    0.59
  -9   9  -3    2.90    0.85
 -10   9  -3    3.03    0.86
  -7  -8   3   23.08    2.56
  -7  -8   3   23.76    2.54
  -6  -8   3    2.83    1.08
  -6  -8   3    4.07    1.17
   5   8  -3   22.28    1.75
  -5  -8   3   24.82    1.99
  -5  -8   3   23.28    1.87
   4   8  -3   -0.01    0.55
  -4  -8   3    1.06    0.78
  -4  -8   3    0.72    0.63
   3   8  -3   20.70    1.56
  -3  -8   3   24.58    1.81
  -3  -8   3   25.33    1.80
   2   8  -3   -0.06    0.43
  -2  -8   3   -0.50    0.49
  -2  -8   3    0.21    0.53
   1   8  -3    2.08    0.67
  -1  -8   3    1.34    0.65
  -1  -8   3    2.00    0.76
   0   8  -3    5.05    0.93
   0  -8   3    4.12    0.89
   0  -8   3    4.33    0.91
  -1   8  -3   13.91    1.30
  -1   8  -3   13.13    1.35
   1  -8   3   10.92    1.31
   1  -8   3    8.63    1.46
   1  -8   3   11.90    1.33
  -2   8  -3    9.28    1.05
  -2   8  -3   10.36    1.22
   2  -8   3    7.11    1.27
   2  -8   3    9.43    1.21
  -3   8  -3   15.62    1.16
  -3   8  -3   16.77    1.25
   3  -8   3   17.94    1.86
  -4   8  -3    3.49    0.74
  -4   8  -3    2.95    0.65
   4  -8   3    1.80    0.71
  -5   8  -3   -0.30    0.52
  -5   8  -3    0.34    0.42
   5  -8   3    0.36    0.54
  -6   8  -3   21.89    1.43
  -6   8  -3   24.11    1.54
   6  -8   3   24.11    1.71
  -7   8  -3    2.02    0.68
  -7   8  -3    5.23    0.97
   7  -8   3    5.10    0.99
  -8   8  -3   39.96    1.96
  -8   8  -3   40.77    2.10
  -9   8  -3    5.66    0.91
 -10   8  -3   11.90    1.28
   8   7  -3    5.40    1.51
  -8  -7   3    5.83    1.32
  -8  -7   3    5.94    1.43
   7   7  -3   35.86    2.61
  -7  -7   3   35.25    2.38
  -7  -7   3   35.26    2.36
   6   7  -3    2.65    0.89
   6   7  -3    2.50    0.96
  -6  -7   3    2.44    0.91
  -6  -7   3    2.02    0.81
   5   7  -3    0.06    0.54
   5   7  -3    0.11    0.63
  -5  -7   3    0.65    0.63
  -5  -7   3    0.39    0.56
   4   7  -3  139.93    5.22
   4   7  -3  148.63    5.29
  -4  -7   3  147.06    5.43
  -4  -7   3  144.62    5.38
   3   7  -3  145.56    4.94
   3   7  -3  144.17    5.10
  -3  -7   3  139.21    5.20
  -3  -7   3  139.44    5.20
   2   7  -3    7.41    1.01
   2   7  -3    7.19    1.07
  -2  -7   3    5.47    1.00
  -2  -7   3    7.15    1.14
   1   7  -3    4.19    0.80
  -1  -7   3    5.75    0.99
  -1  -7   3    4.71    0.88
   0   7  -3  145.66    5.02
   0   7  -3  145.38    4.93
   0  -7   3  152.15    5.10
   0  -7   3  135.81    6.20
   0  -7   3  151.50    5.12
  -1   7  -3   24.28    1.46
  -1   7  -3   27.63    1.48
   1  -7   3   27.90    1.60
   1  -7   3   29.06    2.00
   1  -7   3   28.29    1.60
   1  -7   3   26.43    1.58
  -2   7  -3    3.08    0.61
  -2   7  -3    2.42    0.61
   2  -7   3    3.01    0.72
   2  -7   3    2.28    0.81
   2  -7   3    1.33    0.47
   2  -7   3    3.17    0.77
  -3   7  -3    5.27    0.76
  -3   7  -3    4.09    0.69
  -3   7  -3    8.22    0.98
   3  -7   3    7.30    1.11
  -4   7  -3    4.97    0.74
  -4   7  -3    5.75    0.86
  -4   7  -3    3.73    0.63
   4  -7   3    4.52    0.84
  -5   7  -3    5.09    0.86
  -5   7  -3    4.69    0.65
  -5   7  -3    5.99    0.77
   5  -7   3    5.91    0.94
  -6   7  -3   13.05    1.01
  -6   7  -3   12.71    1.05
  -6   7  -3   14.84    0.99
   6  -7   3   14.36    1.24
  -7   7  -3   13.13    1.01
  -7   7  -3   13.10    0.99
  -7   7  -3   14.17    1.08
   7  -7   3   16.17    1.68
  -8   7  -3   24.03    1.45
  -9   7  -3    8.42    1.03
 -10   7  -3    1.93    0.66
   9   6  -3    0.72    1.01
  -9  -6   3   -0.08    0.77
  -9  -6   3    0.59    0.82
   8   6  -3    1.15    0.97
  -8  -6   3   -0.06    0.62
  -8  -6   3    0.13    0.70
   7   6  -3    3.88    1.14
  -7  -6   3    2.15    0.82
  -7  -6   3    2.53    0.90
   6   6  -3    4.81    1.11
   6   6  -3    4.48    1.00
  -6  -6   3    4.44    0.99
  -6  -6   3    5.21    1.07
   5   6  -3   12.03    1.40
   5   6  -3   12.99    1.57
  -5  -6   3   10.79    1.35
  -5  -6   3   11.12    1.42
   4   6  -3   31.52    1.80
   4   6  -3   31.86    1.75
  -4  -6   3   30.58    1.79
  -4  -6   3   29.35    1.77
   3   6  -3   12.79    1.00
   3   6  -3   13.44    1.07
  -3  -6   3   14.54    1.45
  -3  -6   3   16.34    1.57
   2   6  -3    6.08    0.73
   2   6  -3    4.79    0.78
  -2  -6   3    4.40    0.81
  -2  -6   3    5.20    0.88
  -2  -6   3    3.89    0.70
   1   6  -3   40.43    1.87
   1   6  -3   40.43    1.83
   1   6  -3   40.59    1.51
  -1  -6   3   41.55    1.98
  -1  -6   3   42.30    1.97
  -1  -6   3   39.49    1.95
   0   6  -3  117.49    4.07
   0   6  -3  117.35    4.00
   0  -6   3  122.85    4.18
   0  -6   3  118.87    4.15
  -1   6  -3   50.12    2.08
  -1   6  -3   49.65    1.71
  -1   6  -3   47.38    1.97
  -1   6  -3   49.66    2.18
   1  -6   3   51.55    1.70
   1  -6   3   49.29    2.55
   1  -6   3   48.31    2.14
   1  -6   3   49.52    2.13
   1  -6   3   50.22    2.18
  -2   6  -3  101.39    3.55
  -2   6  -3  109.00    3.71
  -2   6  -3  112.09    3.76
   2  -6   3  104.06    4.08
   2  -6   3  108.40    3.68
   2  -6   3  105.90    3.69
   2  -6   3  108.34    3.31
   2  -6   3  108.63    3.72
  -3   6  -3   37.50    1.69
  -3   6  -3   34.49    1.54
  -3   6  -3   38.73    1.68
   3  -6   3   35.32    1.88
   3  -6   3   34.14    1.66
   3  -6   3   38.42    1.52
  -4   6  -3    6.04    0.79
  -4   6  -3    4.67    0.62
  -4   6  -3    4.37    0.59
   4  -6   3    4.94    0.85
   4  -6   3    5.10    0.67
   4  -6   3    4.33    0.66
  -5   6  -3   62.19    2.30
  -5   6  -3   64.62    2.44
  -5   6  -3   62.26    2.24
   5  -6   3   62.73    2.65
   5  -6   3   58.79    2.66
  -6   6  -3    7.13    0.76
  -6   6  -3    7.60    0.62
  -6   6  -3    9.83    0.95
   6  -6   3    8.92    1.29
   6  -6   3    8.06    1.10
  -7   6  -3    3.13    0.49
  -7   6  -3    3.39    0.60
  -7   6  -3    3.90    0.60
   7  -6   3    3.88    1.00
  -8   6  -3    0.58    0.40
  -8   6  -3    0.21    0.33
   8  -6   3    0.48    0.80
  -9   6  -3    1.28    0.45
  -9   6  -3    1.88    0.64
 -10   6  -3    2.57    0.60
 -10   6  -3    2.77    0.60
 -11   6  -3    0.47    0.55
  10   5  -3   64.31    4.15
 -10  -5   3   61.98    3.27
   9   5  -3    3.09    1.23
  -9  -5   3    2.07    0.86
  -9  -5   3    3.60    1.04
   8   5  -3    0.22    0.71
  -8  -5   3    0.81    0.61
  -8  -5   3    0.92    0.63
   7   5  -3   41.53    2.63
  -7  -5   3   44.93    2.30
  -7  -5   3   39.08    2.18
   6   5  -3   34.13    1.89
   6   5  -3   37.02    2.24
  -6  -5   3   36.13    1.96
  -6  -5   3   34.71    1.94
   5   5  -3    1.22    0.50
   5   5  -3    2.16    0.71
  -5  -5   3    2.40    0.66
  -5  -5   3    3.38    0.74
   4   5  -3    3.05    0.70
   4   5  -3    2.48    0.64
  -4  -5   3    2.90    0.72
  -4  -5   3    3.51    0.69
  -4  -5   3    2.49    0.61
  -4  -5   3    2.37    0.56
   3   5  -3    2.32    0.59
   3   5  -3    4.25    0.68
  -3  -5   3    1.56    0.50
  -3  -5   3    2.51    0.64
  -3  -5   3    2.33    0.57
  -3  -5   3    2.65    0.64
   2   5  -3    5.64    0.71
   2   5  -3    6.55    0.71
   2   5  -3    5.99    0.79
  -2  -5   3    4.14    0.63
  -2  -5   3    6.17    0.86
  -2  -5   3    6.06    0.83
   1   5  -3   17.02    0.78
   1   5  -3   16.69    0.99
   1   5  -3   16.30    0.95
  -1  -5   3   16.39    1.06
  -1  -5   3   15.69    1.03
  -1  -5   3   16.99    1.08
   0   5  -3   15.93    0.93
   0   5  -3   15.65    0.88
   0   5  -3   16.13    1.03
   0   5  -3   16.51    0.64
   0  -5   3   14.48    0.99
   0  -5   3   16.22    0.99
   0  -5   3   16.10    1.02
  -1   5  -3   88.92    3.16
  -1   5  -3   88.57    2.93
  -1   5  -3   91.12    2.86
  -1   5  -3   86.33    3.01
   1  -5   3   85.32    3.11
   1  -5   3   82.06    3.09
   1  -5   3   93.22    3.52
   1  -5   3   94.62    3.13
   1  -5   3   91.36    2.95
  -2   5  -3   49.08    1.77
  -2   5  -3   51.89    1.92
  -2   5  -3   49.07    1.92
   2  -5   3   49.18    2.18
   2  -5   3   49.77    1.86
   2  -5   3   48.30    1.83
   2  -5   3   46.45    1.85
  -3   5  -3   -0.02    0.18
  -3   5  -3    0.73    0.35
  -3   5  -3    0.53    0.31
  -3   5  -3   -0.02    0.20
   3  -5   3    0.44    0.33
   3  -5   3    0.45    0.29
   3  -5   3   -0.08    0.27
  -4   5  -3   94.27    3.02
  -4   5  -3   98.15    3.03
  -4   5  -3   94.19    3.21
   4  -5   3   93.34    3.51
   4  -5   3   96.49    3.50
   4  -5   3  100.55    3.58
  -5   5  -3  287.85    8.23
  -5   5  -3  279.21    8.42
  -5   5  -3  285.63    8.31
   5  -5   3  282.70    9.13
   5  -5   3  285.09    8.94
   5  -5   3  301.92    9.21
  -6   5  -3    4.72    0.59
   6  -5   3    4.81    1.02
   6  -5   3    5.94    0.95
  -7   5  -3    4.92    0.60
  -7   5  -3    5.59    0.94
   7  -5   3    5.08    1.22
  -8   5  -3   53.73    2.03
   8  -5   3   52.63    3.29
  -9   5  -3   28.15    1.37
  -9   5  -3   31.34    1.31
   9  -5   3   19.70    2.61
 -10   5  -3    1.53    0.51
  10  -5   3    2.59    1.44
 -11   5  -3   -0.80    0.43
  11  -5   3   -0.60    1.17
  10   4  -3   20.17    2.71
 -10  -4   3   14.98    1.79
 -10  -4   3    8.22    1.37
   9   4  -3    3.40    1.18
  -9  -4   3    2.85    0.84
  -9  -4   3    3.63    0.93
   8   4  -3    2.01    1.00
  -8  -4   3    1.91    0.69
  -8  -4   3    1.67    0.63
   7   4  -3  109.72    4.77
   7   4  -3  116.83    4.64
   7   4  -3  119.19    4.31
  -7  -4   3  113.95    4.22
  -7  -4   3  113.44    4.23
   6   4  -3    2.34    0.65
   6   4  -3    2.53    0.81
   6   4  -3    1.50    0.57
  -6  -4   3    1.30    0.49
  -6  -4   3    3.11    0.67
  -6  -4   3    1.49    0.52
  -6  -4   3    1.90    0.54
   5   4  -3   96.63    3.39
   5   4  -3   87.83    3.63
   5   4  -3   90.55    3.26
  -5  -4   3   94.69    3.37
  -5  -4   3   91.45    3.52
  -5  -4   3   93.58    3.40
  -5  -4   3   93.02    3.39
   4   4  -3    0.78    0.34
   4   4  -3    1.72    0.55
   4   4  -3    0.76    0.42
  -4  -4   3    0.58    0.33
  -4  -4   3    0.96    0.43
  -4  -4   3    1.65    0.45
  -4  -4   3    1.47    0.43
   3   4  -3   44.14    1.61
   3   4  -3   46.32    1.89
   3   4  -3   41.23    1.79
   3   4  -3   44.99    1.82
  -3  -4   3   43.74    1.83
  -3  -4   3   45.85    1.87
  -3  -4   3   42.93    1.84
  -3  -4   3   43.46    1.92
   2   4  -3   28.78    1.26
   2   4  -3   26.74    1.02
   2   4  -3   27.13    1.20
   2   4  -3   27.34    1.26
  -2  -4   3   28.13    1.32
  -2  -4   3   26.62    1.34
  -2  -4   3   26.07    1.27
   1   4  -3   26.92    1.04
   1   4  -3   26.30    1.15
   1   4  -3   26.70    1.19
  -1  -4   3   27.53    1.28
  -1  -4   3   25.61    1.25
  -1  -4   3   26.10    1.26
   0   4  -3    1.17    0.30
   0   4  -3    0.82    0.17
   0   4  -3    1.02    0.34
   0   4  -3    0.83    0.27
   0  -4   3    0.67    0.33
   0  -4   3    0.24    0.22
   0  -4   3    1.17    0.39
  -1   4  -3    1.53    0.35
  -1   4  -3    1.81    0.39
  -1   4  -3    1.22    0.26
  -1   4  -3    1.17    0.32
   1  -4   3    1.48    0.37
   1  -4   3    1.77    0.49
   1  -4   3    1.21    0.33
   1  -4   3    0.87    0.25
   1  -4   3    1.93    0.43
  -2   4  -3   10.75    0.70
  -2   4  -3   11.75    0.63
  -2   4  -3   11.04    0.55
  -2   4  -3   11.74    0.65
   2  -4   3   12.02    0.62
   2  -4   3   12.49    0.87
   2  -4   3   11.03    0.57
   2  -4   3   12.04    0.81
   2  -4   3   12.20    0.72
  -3   4  -3   19.54    0.73
  -3   4  -3   19.77    0.92
  -3   4  -3   19.89    0.76
  -3   4  -3   19.66    0.93
   3  -4   3   18.85    1.14
   3  -4   3   19.91    1.15
   3  -4   3   20.95    1.22
  -4   4  -3   14.99    0.75
  -4   4  -3   13.30    0.71
   4  -4   3   14.52    1.14
   4  -4   3   13.21    1.08
   4  -4   3   12.87    0.96
  -5   4  -3   20.82    0.94
   5  -4   3   24.02    1.63
   5  -4   3   22.54    1.60
   5  -4   3   22.16    1.37
  -6   4  -3    0.44    0.28
   6  -4   3    0.53    0.51
   6  -4   3    0.58    0.60
  -7   4  -3    1.25    0.32
  -7   4  -3    1.33    0.25
   7  -4   3    0.96    0.79
  -8   4  -3   37.00    1.39
  -8   4  -3   35.22    1.34
  -8   4  -3   35.32    1.43
   8  -4   3   31.97    2.64
  -9   4  -3    0.56    0.35
  -9   4  -3    0.16    0.35
  -9   4  -3    0.15    0.31
   9  -4   3    0.25    0.97
 -10   4  -3   37.77    1.70
  10  -4   3   39.79    3.52
 -11   4  -3    0.01    0.38
  11  -4   3    0.27    1.39
  11   3  -3    0.58    1.11
 -11  -3   3    0.79    0.74
  10   3  -3    0.88    0.93
 -10  -3   3    0.72    0.60
 -10  -3   3    1.34    0.72
   9   3  -3    2.31    1.03
  -9  -3   3    1.09    0.55
  -9  -3   3    1.83    0.64
   8   3  -3    0.51    0.66
   8   3  -3    1.06    0.71
  -8  -3   3    0.18    0.40
  -8  -3   3    0.65    0.45
  -8  -3   3    0.64    0.45
   7   3  -3    0.07    0.51
   7   3  -3    0.18    0.40
   7   3  -3   -0.04    0.44
  -7  -3   3   -0.03    0.35
  -7  -3   3    0.32    0.40
  -7  -3   3   -0.22    0.32
  -7  -3   3    0.18    0.36
   6   3  -3   45.68    2.11
   6   3  -3   46.59    2.41
   6   3  -3   45.72    1.96
  -6  -3   3   42.89    1.94
  -6  -3   3   43.35    2.06
  -6  -3   3   45.30    1.95
  -6  -3   3   44.74    1.97
   5   3  -3   78.64    3.25
   5   3  -3   81.02    3.01
   5   3  -3   79.66    2.90
  -5  -3   3   81.17    2.93
  -5  -3   3   84.87    3.07
  -5  -3   3   81.63    2.90
  -5  -3   3   80.51    2.92
   4   3  -3    1.96    0.50
   4   3  -3    2.93    0.51
   4   3  -3    2.83    0.62
  -4  -3   3    1.99    0.45
  -4  -3   3    3.40    0.52
  -4  -3   3    2.05    0.42
  -4  -3   3    1.45    0.39
   3   3  -3   20.55    0.98
   3   3  -3   20.05    0.98
   3   3  -3   18.63    1.07
   3   3  -3   20.46    0.99
  -3  -3   3   19.37    0.99
  -3  -3   3   19.22    0.99
  -3  -3   3   20.00    1.06
  -3  -3   3   19.09    1.00
   2   3  -3  683.62   18.89
   2   3  -3  677.40   18.96
   2   3  -3  669.59   18.91
  -2  -3   3  660.04   18.95
  -2  -3   3  662.40   18.94
  -2  -3   3  671.92   19.03
   1   3  -3  182.38    5.31
   1   3  -3  174.58    5.41
   1   3  -3  178.75    5.34
   1   3  -3  187.47    5.31
  -1  -3   3  176.09    5.40
  -1  -3   3  185.69    5.43
  -1  -3   3  173.54    5.38
   0   3  -3   21.20    0.88
   0   3  -3   18.45    0.96
   0   3  -3   21.63    0.84
   0  -3   3   21.26    0.98
   0  -3   3   22.19    1.00
   0  -3   3   23.42    1.21
   0  -3   3   20.78    0.91
  -1   3  -3   90.18    2.75
  -1   3  -3   87.74    2.67
  -1   3  -3   84.69    2.58
  -1   3  -3   86.94    2.95
  -1   3  -3   85.83    2.76
   1  -3   3   91.89    3.03
   1  -3   3   81.86    3.02
   1  -3   3   87.17    2.71
   1  -3   3   88.61    2.68
  -2   3  -3  215.83    6.29
  -2   3  -3  213.91    6.19
  -2   3  -3  219.76    6.59
   2  -3   3  204.63    6.58
   2  -3   3  225.37    6.13
   2  -3   3  214.28    6.74
   2  -3   3  222.73    6.63
  -3   3  -3    7.74    0.45
  -3   3  -3    8.37    0.44
   3  -3   3    9.52    0.84
   3  -3   3    9.13    1.09
   3  -3   3    8.14    0.70
  -4   3  -3    0.40    0.20
  -4   3  -3    0.58    0.17
   4  -3   3    0.22    0.40
   4  -3   3    0.67    0.43
   4  -3   3    0.37    0.28
  -5   3  -3    9.41    0.49
  -5   3  -3    8.65    0.46
   5  -3   3    9.40    1.40
   5  -3   3   11.59    1.50
  -6   3  -3    3.73    0.40
   6  -3   3    5.26    1.20
   6  -3   3    4.03    1.06
  -7   3  -3    4.28    0.33
  -7   3  -3    4.74    0.45
  -7   3  -3    4.17    0.44
   7  -3   3    5.32    1.32
  -8   3  -3    6.21    0.50
  -8   3  -3    5.78    0.57
  -8   3  -3    4.78    0.48
   8  -3   3    6.05    1.54
  -9   3  -3   12.24    0.84
  -9   3  -3   14.59    0.83
  -9   3  -3   13.98    0.84
   9  -3   3   10.21    2.18
 -10   3  -3   12.44    0.89
  10  -3   3   15.00    2.71
 -11   3  -3    1.20    0.49
  11  -3   3    0.54    1.36
  11   2  -3    1.57    1.09
 -11  -2   3    2.11    0.77
 -11  -2   3    0.61    0.59
  10   2  -3    7.57    1.69
  10   2  -3    8.29    1.56
 -10  -2   3    9.31    1.25
 -10  -2   3   11.19    1.32
   9   2  -3   -0.43    0.63
   9   2  -3    0.37    0.69
  -9  -2   3   -0.19    0.37
  -9  -2   3   -0.07    0.41
  -9  -2   3    0.24    0.40
   8   2  -3    4.52    1.04
   8   2  -3    3.88    1.06
  -8  -2   3    4.62    0.84
  -8  -2   3    3.51    0.73
  -8  -2   3    3.21    0.66
   7   2  -3    0.70    0.54
   7   2  -3   -0.26    0.33
   7   2  -3    0.56    0.47
  -7  -2   3   -0.06    0.30
  -7  -2   3   -0.05    0.27
  -7  -2   3    0.13    0.32
  -7  -2   3    0.16    0.33
   6   2  -3    2.31    0.72
   6   2  -3    1.58    0.58
   6   2  -3    1.74    0.47
  -6  -2   3    1.91    0.45
  -6  -2   3    1.33    0.42
  -6  -2   3    1.68    0.47
  -6  -2   3    1.52    0.42
   5   2  -3    3.23    0.54
   5   2  -3    5.36    0.90
   5   2  -3    5.82    0.70
   5   2  -3    6.53    0.96
  -5  -2   3    3.71    0.55
  -5  -2   3    4.55    0.59
  -5  -2   3    4.99    0.66
  -5  -2   3    4.04    0.58
  -5  -2   3    4.27    0.61
   4   2  -3   10.98    0.82
   4   2  -3   11.05    0.69
   4   2  -3   10.60    0.86
   4   2  -3   13.05    0.81
  -4  -2   3   11.94    0.71
  -4  -2   3    9.98    0.68
  -4  -2   3   12.13    0.78
  -4  -2   3   10.97    0.69
   3   2  -3   40.07    1.51
   3   2  -3   42.71    1.74
   3   2  -3   42.00    1.53
   3   2  -3   40.86    1.60
  -3  -2   3   39.51    1.52
  -3  -2   3   40.41    1.52
  -3  -2   3   41.05    1.52
  -3  -2   3   39.20    1.58
   2   2  -3   92.66    2.93
   2   2  -3   94.72    3.03
   2   2  -3   96.39    3.10
   2   2  -3   94.87    2.92
  -2  -2   3   93.64    3.03
  -2  -2   3   94.41    2.96
  -2  -2   3   92.95    2.95
   1   2  -3    2.40    0.32
   1   2  -3    1.46    0.25
   1   2  -3    2.20    0.27
   1   2  -3    1.74    0.28
  -1  -2   3    1.41    0.26
  -1  -2   3    1.87    0.30
  -1  -2   3    1.30    0.24
   0   2  -3    6.60    0.44
   0   2  -3    7.26    0.42
   0   2  -3    6.97    0.37
   0   2  -3    6.52    0.38
   0   2  -3    6.45    0.34
   0  -2   3    6.72    0.42
   0  -2   3    6.25    0.53
   0  -2   3    6.89    0.40
  -1   2  -3  209.26    5.73
  -1   2  -3  200.01    5.79
  -1   2  -3  198.61    5.79
  -1   2  -3  205.40    6.09
   1  -2   3  205.08    6.11
   1  -2   3  198.92    6.17
   1  -2   3  203.83    6.34
  -2   2  -3   77.24    2.60
   2  -2   3   72.75    2.78
   2  -2   3   73.18    2.59
   2  -2   3   73.62    2.85
   3  -2   3  162.71    5.59
   3  -2   3  164.74    5.58
   3  -2   3  166.86    5.25
   4  -2   3   35.19    2.03
   4  -2   3   35.44    2.01
   5  -2   3   57.83    2.94
   5  -2   3   53.17    2.84
  -6   2  -3    3.99    0.39
  -6   2  -3    3.91    0.32
   6  -2   3    4.26    1.23
   6  -2   3    4.50    1.13
  -7   2  -3   37.43    1.35
  -7   2  -3   37.82    1.33
  -7   2  -3   36.53    1.31
   7  -2   3   35.97    2.68
   7  -2   3   35.09    2.64
  -8   2  -3    0.17    0.24
  -8   2  -3    0.09    0.27
  -8   2  -3    0.30    0.28
   8  -2   3    0.02    0.77
  -9   2  -3    1.26    0.41
  -9   2  -3    0.82    0.40
  -9   2  -3    0.82    0.36
   9  -2   3    0.55    0.95
 -10   2  -3    0.34    0.41
  10  -2   3   -0.65    1.05
  12   1  -3   20.05    2.95
 -12  -1   3   28.58    1.86
  11   1  -3   -0.32    0.77
  11   1  -3   -0.44    1.08
 -11  -1   3    0.17    0.53
 -11  -1   3    1.16    0.59
  10   1  -3    2.24    1.05
  10   1  -3    2.45    1.16
 -10  -1   3    2.82    0.72
 -10  -1   3    3.42    0.76
 -10  -1   3    3.01    0.71
   9   1  -3   92.60    4.14
   9   1  -3   89.40    4.42
  -9  -1   3   90.39    3.40
  -9  -1   3   88.26    3.39
  -9  -1   3   90.53    3.41
   8   1  -3  139.07    5.68
   8   1  -3  147.56    5.46
  -8  -1   3  138.51    4.74
  -8  -1   3  142.18    4.73
  -8  -1   3  144.41    4.76
   7   1  -3    1.39    0.70
   7   1  -3    1.11    0.39
   7   1  -3    1.46    0.70
  -7  -1   3    0.44    0.34
  -7  -1   3    1.55    0.46
  -7  -1   3    0.56    0.31
   6   1  -3   11.08    0.75
   6   1  -3   13.13    1.46
   6   1  -3   11.21    1.08
   6   1  -3   11.17    0.83
  -6  -1   3   11.09    0.75
  -6  -1   3   10.52    0.74
  -6  -1   3   10.07    0.74
  -6  -1   3   10.06    0.80
  -6  -1   3   11.16    0.74
   5   1  -3  120.15    4.31
   5   1  -3  121.47    3.81
   5   1  -3  117.24    4.33
   5   1  -3  122.24    3.94
  -5  -1   3  121.60    3.82
  -5  -1   3  121.85    3.95
  -5  -1   3  119.39    3.82
  -5  -1   3  122.31    3.82
  -5  -1   3  118.03    3.82
   4   1  -3   50.88    1.88
   4   1  -3   48.65    1.77
   4   1  -3   50.29    2.14
   4   1  -3   48.80    2.15
  -4  -1   3   50.04    1.78
  -4  -1   3   49.02    1.78
  -4  -1   3   51.42    1.90
  -4  -1   3   52.76    1.80
  -4  -1   3   50.84    1.79
   3   1  -3   10.79    0.58
   3   1  -3   12.45    0.68
   3   1  -3    9.99    0.56
   3   1  -3   12.53    0.82
  -3  -1   3   11.29    0.60
  -3  -1   3   11.29    0.66
  -3  -1   3   10.62    0.59
  -3  -1   3   11.87    0.60
   2   1  -3   15.08    0.67
   2   1  -3   16.03    0.74
   2   1  -3   15.38    0.67
  -2  -1   3   15.49    0.68
  -2  -1   3   15.38    0.68
  -2  -1   3   15.43    0.73
   1   1  -3    7.76    0.43
   1   1  -3    7.21    0.45
   1   1  -3    8.08    0.42
   1   1  -3    7.97    0.42
   1   1  -3    8.28    0.44
  -1  -1   3    8.50    0.57
  -1  -1   3    7.66    0.43
  -1  -1   3    7.47    0.42
   0   1  -3    3.78    0.23
   0   1  -3    4.44    0.24
   0   1  -3    3.93    0.25
   0   1  -3    3.93    0.25
   0   1  -3    3.98    0.27
   0   1  -3    4.47    0.38
   0  -1   3    4.35    0.25
   0  -1   3    6.26    0.83
   0  -1   3    5.31    0.52
  -1   1  -3   12.40    0.43
  -1   1  -3   12.58    0.69
   1  -1   3   13.14    0.92
   1  -1   3   11.10    0.67
   1  -1   3   11.94    0.84
  -2   1  -3   39.03    1.55
   2  -1   3   36.50    1.81
   2  -1   3   37.32    1.82
   2  -1   3   39.70    1.59
   3  -1   3  131.27    4.65
   3  -1   3  121.69    4.58
   4  -1   3   12.22    1.19
   4  -1   3   12.96    1.24
  -5   1  -3    0.11    0.17
  -5   1  -3    0.50    0.20
   5  -1   3   -0.02    0.50
   5  -1   3    0.14    0.45
  -6   1  -3  158.72    4.61
  -6   1  -3  156.77    4.60
   6  -1   3  156.70    6.29
   6  -1   3  149.52    6.29
  -7   1  -3  123.22    3.74
  -7   1  -3  127.11    3.86
  -7   1  -3  123.45    3.81
   7  -1   3  126.27    5.75
   7  -1   3  114.73    5.51
  -8   1  -3    1.26    0.39
  -8   1  -3    1.31    0.35
  -8   1  -3    0.91    0.38
   8  -1   3    1.91    1.12
  -9   1  -3    0.98    0.44
  -9   1  -3    0.66    0.33
   9  -1   3    0.79    1.13
 -10   1  -3   39.63    1.85
 -10   1  -3   45.95    2.01
  10  -1   3   42.49    3.75
  12   0  -3    0.93    1.06
 -12   0   3    0.78    0.70
 -12   0   3    0.61    0.65
  11   0  -3    0.11    0.89
  11   0  -3   -0.50    0.95
 -11   0   3    0.20    0.43
 -11   0   3   -0.30    0.48
 -11   0   3    0.23    0.49
  10   0  -3    2.50    1.07
  10   0  -3    3.19    1.12
 -10   0   3    2.64    0.69
 -10   0   3    2.27    0.63
 -10   0   3    2.46    0.63
   9   0  -3   52.46    2.99
   9   0  -3   52.77    3.17
  -9   0   3   55.57    2.27
  -9   0   3   49.68    2.22
  -9   0   3   53.77    2.27
   8   0  -3   16.65    1.99
   8   0  -3   17.55    1.57
  -8   0   3   18.48    1.08
  -8   0   3   15.90    1.03
  -8   0   3   18.02    1.07
   7   0  -3   22.38    1.67
   7   0  -3   23.32    1.68
   7   0  -3   19.88    1.06
  -7   0   3   23.24    1.16
  -7   0   3   21.44    1.12
  -7   0   3   20.55    1.10
   6   0  -3   50.67    1.86
   6   0  -3   51.49    1.98
   6   0  -3   47.33    2.44
   6   0  -3   50.80    2.51
  -6   0   3   52.13    1.88
  -6   0   3   49.21    1.89
  -6   0   3   50.03    1.90
  -6   0   3   49.47    1.89
   5   0  -3  291.72    8.31
   5   0  -3  286.48    9.02
   5   0  -3  283.69    8.93
   5   0  -3  291.56    8.43
  -5   0   3  287.47    8.29
  -5   0   3  279.72    8.33
  -5   0   3  279.63    8.31
  -5   0   3  284.45    8.34
   4   0  -3   15.74    1.17
   4   0  -3   17.29    1.10
   4   0  -3   14.89    0.74
   4   0  -3   15.62    0.81
  -4   0   3   15.44    0.75
  -4   0   3   14.26    0.72
  -4   0   3   15.67    0.77
  -4   0   3   16.45    0.79
   3   0  -3  118.59    3.70
   3   0  -3  118.31    3.61
   3   0  -3  118.87    4.00
  -3   0   3  125.71    3.64
  -3   0   3  121.68    3.64
  -3   0   3  118.24    3.63
   2   0  -3   41.91    1.39
   2   0  -3   41.58    1.39
  -2   0   3   43.14    1.40
  -2   0   3   41.12    1.40
   1   0  -3   14.96    0.61
   1   0  -3   14.92    0.68
   1   0  -3   15.62    0.60
  -1   0   3   15.21    0.66
  -1   0   3   16.27    0.61
  -1   0   3   15.55    0.61
   0   0  -3   48.61    1.49
   0   0  -3   49.88    1.68
   0   0  -3   51.39    1.54
   0   0  -3   51.34    1.53
   0   0  -3   47.94    1.43
   0   0   3   48.29    1.97
   0   0   3   44.93    1.44
   0   0   3   47.22    1.66
  -1   0  -3   12.65    0.49
  -1   0  -3   11.22    0.48
  -1   0  -3   12.89    0.69
   1   0   3   10.53    0.86
   1   0   3   12.33    0.69
   1   0   3   10.57    0.87
  -2   0  -3    2.20    0.23
  -2   0  -3    2.23    0.24
  -2   0  -3    1.75    0.39
   2   0   3    1.59    0.52
   2   0   3    1.40    0.50
  -3   0  -3    0.60    0.16
  -3   0  -3    0.20    0.13
   3   0   3    0.26    0.36
   3   0   3    0.31    0.42
  -4   0  -3    8.18    0.46
  -4   0  -3    9.88    0.48
  -4   0  -3    8.94    0.49
   4   0   3   13.11    1.65
   4   0   3   14.07    1.73
  -5   0  -3   12.30    0.60
  -5   0  -3   11.96    0.63
  -5   0  -3   12.65    0.53
  -5   0  -3   11.64    0.63
  -5   0  -3   12.18    0.62
   5   0   3   16.46    2.01
   5   0   3   16.93    2.13
  -6   0  -3   13.63    0.82
  -6   0  -3   13.31    0.68
  -6   0  -3   13.52    0.76
  -6   0  -3   14.77    0.77
   6   0   3   16.45    2.25
   6   0   3   21.77    2.71
  -7   0  -3    5.91    0.70
  -7   0  -3    6.58    0.75
  -7   0  -3    5.07    0.55
  -7   0  -3    4.50    0.65
   7   0   3    3.70    1.25
  -8   0  -3    3.60    0.66
  -8   0  -3    4.81    0.73
  -8   0  -3    3.51    0.54
   8   0   3    5.14    1.58
  -9   0  -3    4.18    0.64
  -9   0  -3    6.25    0.89
   9   0   3    4.13    1.62
 -10   0  -3   17.24    1.20
 -10   0  -3   18.66    1.35
  10   0   3   15.70    2.90
  12  -1  -3   12.06    2.35
 -12   1   3   11.25    1.30
 -12   1   3   11.88    1.38
  11  -1  -3   11.28    1.98
  11  -1  -3    8.20    1.90
 -11   1   3    9.56    1.15
 -11   1   3    9.72    1.16
 -11   1   3   11.50    1.26
  10  -1  -3    3.32    1.16
  10  -1  -3    6.56    1.51
 -10   1   3    4.89    0.83
 -10   1   3    3.43    0.70
 -10   1   3    4.44    0.75
   9  -1  -3    4.16    1.18
   9  -1  -3    3.56    1.12
  -9   1   3    3.83    0.64
  -9   1   3    4.02    0.67
  -9   1   3    3.07    0.59
   8  -1  -3    2.75    0.95
   8  -1  -3    2.36    0.89
  -8   1   3    2.98    0.52
  -8   1   3    3.06    0.57
  -8   1   3    2.55    0.51
   7  -1  -3    3.79    0.96
   7  -1  -3    5.06    1.12
   7  -1  -3    4.07    0.55
  -7   1   3    4.24    0.59
  -7   1   3    3.52    0.56
  -7   1   3    4.02    0.59
  -7   1   3    3.79    0.55
   6  -1  -3    0.12    0.21
   6  -1  -3    0.25    0.41
   6  -1  -3    0.11    0.53
   6  -1  -3    0.24    0.21
  -6   1   3    0.06    0.20
  -6   1   3    0.17    0.24
  -6   1   3    0.76    0.31
  -6   1   3   -0.11    0.19
   5  -1  -3    2.05    0.36
   5  -1  -3    2.06    0.57
   5  -1  -3    2.03    0.69
   5  -1  -3    1.82    0.36
  -5   1   3    1.67    0.34
  -5   1   3    1.96    0.32
  -5   1   3    2.61    0.40
  -5   1   3    2.89    0.44
   4  -1  -3  227.72    6.66
   4  -1  -3  220.33    6.53
   4  -1  -3  219.52    7.09
  -4   1   3  227.78    6.53
  -4   1   3  229.55    6.58
  -4   1   3  218.75    6.58
  -4   1   3  229.28    6.58
   3  -1  -3   78.41    2.45
   3  -1  -3   78.77    2.45
  -3   1   3   75.57    2.44
  -3   1   3   76.34    2.45
   2  -1  -3   25.87    0.97
  -2   1   3   25.92    0.84
  -2   1   3   25.53    0.96
  -2   1   3   21.84    0.97
   1  -1  -3  152.06    4.41
   1  -1  -3  146.08    4.39
   1  -1  -3  149.21    4.35
   1  -1  -3  148.41    4.41
   1  -1  -3  150.06    4.32
  -1   1   3  148.56    4.32
  -1   1   3  149.57    4.33
   0  -1  -3  944.43   25.66
   0  -1  -3  909.67   25.60
   0  -1  -3  911.35   25.57
   0  -1  -3  904.94   25.77
   0  -1  -3  961.76   25.45
   0   1   3  886.12   26.02
  -1  -1  -3   53.88    1.83
  -1  -1  -3   52.86    1.81
  -1  -1  -3   56.02    2.00
  -1  -1  -3   55.62    1.68
  -1  -1  -3   58.29    1.65
   1   1   3   51.15    2.33
   1   1   3   55.16    2.29
  -2  -1  -3    2.44    0.38
  -2  -1  -3    2.10    0.36
  -2  -1  -3    2.25    0.21
  -2  -1  -3    2.00    0.20
   2   1   3    3.01    0.73
   2   1   3    2.17    0.59
  -3  -1  -3  118.64    3.56
  -3  -1  -3  122.74    3.53
  -3  -1  -3  121.57    3.73
  -3  -1  -3  119.93    3.71
   3   1   3  126.55    4.69
   3   1   3  123.64    4.68
  -4  -1  -3   73.80    2.28
  -4  -1  -3   71.00    2.42
  -4  -1  -3   73.69    2.44
  -4  -1  -3   75.77    2.48
  -4  -1  -3   73.91    2.37
   4   1   3   74.43    3.47
   4   1   3   71.65    3.46
  -5  -1  -3    1.20    0.29
  -5  -1  -3    2.09    0.43
  -5  -1  -3    0.93    0.25
  -5  -1  -3    1.91    0.42
  -5  -1  -3    1.33    0.36
   5   1   3    1.15    0.70
   5   1   3    0.87    0.67
  -6  -1  -3    1.85    0.51
  -6  -1  -3    3.11    0.48
  -6  -1  -3    2.73    0.55
  -6  -1  -3    1.88    0.38
  -6  -1  -3    3.12    0.55
   6   1   3    2.25    0.95
   6   1   3    3.04    1.05
  -7  -1  -3    4.29    0.70
  -7  -1  -3    2.94    0.64
  -7  -1  -3    2.90    0.61
  -7  -1  -3    3.32    0.54
  -7  -1  -3    2.76    0.53
   7   1   3    2.01    1.06
  -8  -1  -3    1.02    0.56
  -8  -1  -3    1.35    0.48
   8   1   3    1.28    1.00
  -9  -1  -3    0.71    0.48
  -9  -1  -3    0.93    0.58
   9   1   3    0.80    1.00
 -10  -1  -3    2.42    0.92
 -10  -1  -3    2.57    0.72
  10   1   3    1.24    1.65
  12  -2  -3   53.05    4.10
 -12   2   3   54.26    2.58
 -12   2   3   57.45    2.67
 -12   2   3   58.62    2.63
  11  -2  -3    3.09    1.25
  11  -2  -3    5.44    1.62
 -11   2   3    8.19    1.04
 -11   2   3    8.55    1.06
 -11   2   3    5.79    0.92
  10  -2  -3   15.51    2.27
  10  -2  -3   10.30    1.86
 -10   2   3   10.44    1.09
 -10   2   3   11.19    1.15
 -10   2   3   12.27    1.00
   9  -2  -3    0.40    0.64
   9  -2  -3    0.12    0.67
  -9   2   3    0.79    0.42
  -9   2   3    1.59    0.49
  -9   2   3    0.82    0.43
   8  -2  -3   10.73    1.66
   8  -2  -3   10.06    1.54
  -8   2   3   11.79    0.85
  -8   2   3    9.98    0.97
  -8   2   3    9.57    0.95
   7  -2  -3    6.81    0.69
   7  -2  -3    6.79    1.22
   7  -2  -3    5.40    1.16
  -7   2   3    5.74    0.61
  -7   2   3    6.97    0.77
  -7   2   3    5.14    0.67
  -7   2   3    6.52    0.72
   6  -2  -3    1.92    0.39
   6  -2  -3    1.86    0.66
   6  -2  -3    2.04    0.39
   6  -2  -3    3.25    0.90
  -6   2   3    1.40    0.33
  -6   2   3    1.95    0.42
  -6   2   3    1.84    0.36
  -6   2   3    2.06    0.41
   5  -2  -3    1.26    0.32
   5  -2  -3    0.53    0.39
   5  -2  -3    1.54    0.68
  -5   2   3    0.65    0.26
  -5   2   3    0.83    0.24
  -5   2   3    1.08    0.31
   4  -2  -3    4.77    0.84
   4  -2  -3    4.08    0.48
   4  -2  -3    4.23    0.49
  -4   2   3    3.77    0.47
  -4   2   3    2.56    0.39
   3  -2  -3    2.61    0.39
  -3   2   3    2.50    0.37
  -3   2   3    2.48    0.38
   2  -2  -3    6.87    0.49
   2  -2  -3    6.72    0.31
   2  -2  -3    6.54    0.49
   2  -2  -3    6.69    0.50
  -2   2   3    7.28    0.48
   1  -2  -3   73.22    2.31
   1  -2  -3   70.17    2.42
   1  -2  -3   73.91    2.45
   1  -2  -3   75.21    2.35
   1  -2  -3   70.61    2.42
  -1   2   3   73.61    2.67
  -1   2   3   79.47    2.38
   0  -2  -3   83.96    2.78
   0  -2  -3   82.09    2.82
   0  -2  -3   87.22    2.67
   0  -2  -3   86.85    2.80
   0  -2  -3   87.02    2.81
   0   2   3   88.43    3.12
   0   2   3   86.71    2.67
   0   2   3   83.60    3.26
  -1  -2  -3   16.69    0.83
  -1  -2  -3   17.90    0.90
  -1  -2  -3   16.90    0.93
  -1  -2  -3   16.98    0.75
  -1  -2  -3   16.69    0.86
   1   2   3   17.47    0.75
   1   2   3   17.80    1.15
   1   2   3   18.45    1.26
  -2  -2  -3    2.41    0.37
  -2  -2  -3    1.74    0.43
  -2  -2  -3    1.98    0.33
  -2  -2  -3    2.64    0.49
   2   2   3    2.46    0.70
   2   2   3    3.54    0.84
  -3  -2  -3  205.21    6.24
  -3  -2  -3  216.09    6.18
  -3  -2  -3  211.60    6.37
  -3  -2  -3  212.04    6.39
   3   2   3  210.76    7.29
   3   2   3  206.52    7.21
  -4  -2  -3    6.28    0.73
  -4  -2  -3    6.15    0.61
  -4  -2  -3    4.28    0.60
  -4  -2  -3    6.60    0.81
  -4  -2  -3    6.18    0.77
   4   2   3    7.34    1.38
   4   2   3    6.05    1.21
  -5  -2  -3   91.66    3.19
  -5  -2  -3   87.63    3.17
  -5  -2  -3   94.02    3.02
  -5  -2  -3   87.23    3.18
  -5  -2  -3   91.87    3.17
   5   2   3   84.03    4.25
   5   2   3   94.70    4.33
  -6  -2  -3    0.40    0.40
  -6  -2  -3    1.49    0.41
  -6  -2  -3    0.53    0.33
  -6  -2  -3    0.41    0.40
  -6  -2  -3    0.47    0.41
   6   2   3    1.51    0.89
   6   2   3    0.05    0.66
  -7  -2  -3   16.36    1.05
  -7  -2  -3   15.03    1.16
  -7  -2  -3   14.84    1.15
   7   2   3   18.43    2.61
  -8  -2  -3    9.56    1.11
  -8  -2  -3    9.56    1.24
   8   2   3    7.93    1.88
  -9  -2  -3    8.99    1.16
  -9  -2  -3    9.20    1.31
   9   2   3    8.96    2.13
  13  -3  -3    1.13    1.51
 -13   3   3    0.21    0.68
  12  -3  -3    3.21    1.62
 -12   3   3    4.06    0.85
 -12   3   3    4.08    0.84
 -12   3   3    2.80    0.75
  11  -3  -3   16.01    2.50
  11  -3  -3   19.31    2.74
 -11   3   3   13.99    1.19
 -11   3   3   16.81    1.24
 -11   3   3   18.60    1.29
  10  -3  -3   50.31    3.43
  10  -3  -3   51.42    3.45
 -10   3   3   51.36    2.27
 -10   3   3   52.34    2.28
 -10   3   3   49.52    2.25
   9  -3  -3    6.84    1.66
   9  -3  -3    4.53    1.30
  -9   3   3    5.25    0.75
  -9   3   3    4.52    0.74
  -9   3   3    5.05    0.82
   8  -3  -3    1.30    0.85
   8  -3  -3    1.97    0.87
  -8   3   3    1.21    0.41
  -8   3   3    1.00    0.43
  -8   3   3    0.99    0.39
   7  -3  -3  276.86    9.42
   7  -3  -3  282.40    9.77
   7  -3  -3  278.34    8.23
  -7   3   3  273.22    8.35
  -7   3   3  280.04    8.16
  -7   3   3  281.86    8.39
  -7   3   3  288.65    8.35
   6  -3  -3  130.06    4.01
   6  -3  -3  128.22    4.88
   6  -3  -3  119.36    5.05
  -6   3   3  131.74    3.83
  -6   3   3  127.55    4.10
  -6   3   3  126.51    4.10
   5  -3  -3    0.11    0.21
   5  -3  -3    0.41    0.48
   5  -3  -3    0.19    0.21
   5  -3  -3    0.81    0.53
  -5   3   3    0.20    0.22
  -5   3   3    0.26    0.12
  -5   3   3    0.33    0.25
   4  -3  -3   69.81    2.35
  -4   3   3   68.00    2.36
  -4   3   3   67.14    2.38
  -4   3   3   67.58    2.34
   3  -3  -3   94.52    3.10
   3  -3  -3   96.60    3.12
  -3   3   3   94.95    3.05
  -3   3   3   93.22    3.07
   2  -3  -3   25.91    1.20
   2  -3  -3   26.79    1.19
   2  -3  -3   26.92    1.19
  -2   3   3   26.95    1.14
   1  -3  -3   21.27    1.06
   1  -3  -3   20.67    1.05
   1  -3  -3   20.59    0.98
   1  -3  -3   21.46    1.10
  -1   3   3   22.05    1.00
  -1   3   3   21.16    1.13
   0  -3  -3   13.82    0.87
   0  -3  -3   14.02    0.77
   0  -3  -3   14.85    0.92
   0  -3  -3   14.98    0.88
   0   3   3   13.85    0.96
   0   3   3   14.20    0.78
   0   3   3   14.93    1.13
  -1  -3  -3    1.55    0.45
  -1  -3  -3    1.31    0.40
  -1  -3  -3    1.53    0.44
  -1  -3  -3    1.61    0.35
   1   3   3    1.77    0.60
   1   3   3    2.73    0.46
   1   3   3    1.51    0.52
  -2  -3  -3    1.59    0.48
  -2  -3  -3    1.36    0.41
  -2  -3  -3    1.22    0.36
  -2  -3  -3    1.45    0.38
   2   3   3    1.69    0.65
   2   3   3    2.21    0.66
   2   3   3    1.53    0.38
  -3  -3  -3    2.27    0.49
  -3  -3  -3    3.29    0.66
  -3  -3  -3    2.06    0.58
  -3  -3  -3    2.59    0.50
   3   3   3    2.98    0.86
   3   3   3    2.20    0.76
  -4  -3  -3   42.35    1.88
  -4  -3  -3   42.74    1.79
  -4  -3  -3   42.09    1.99
  -4  -3  -3   45.00    1.97
  -4  -3  -3   41.95    1.91
   4   3   3   45.69    2.65
   4   3   3   40.65    2.55
  -5  -3  -3   54.32    2.31
  -5  -3  -3   50.64    2.24
  -5  -3  -3   53.32    2.30
  -5  -3  -3   53.09    2.13
   5   3   3   49.82    3.03
   5   3   3   48.85    3.07
  -6  -3  -3    0.70    0.50
  -6  -3  -3    0.86    0.42
  -6  -3  -3    0.17    0.46
  -6  -3  -3    0.29    0.36
   6   3   3    1.28    0.82
  -7  -3  -3    3.92    0.79
  -7  -3  -3    3.19    0.87
  -7  -3  -3    3.86    0.89
   7   3   3    4.41    1.40
  -8  -3  -3   89.19    3.79
  -8  -3  -3   97.95    3.74
  -8  -3  -3   98.30    3.84
   8   3   3   90.65    5.18
  -9  -3  -3   18.96    1.55
  -9  -3  -3   25.44    2.85
   9   3   3   24.16    3.48
  13  -4  -3    0.53    1.40
 -13   4   3    0.67    0.70
  12  -4  -3   -0.07    1.22
 -12   4   3    0.33    0.55
 -12   4   3   -0.07    0.49
 -12   4   3   -0.41    0.45
  11  -4  -3   -0.63    1.01
  11  -4  -3    1.28    1.08
 -11   4   3    0.79    0.54
 -11   4   3    0.18    0.47
 -11   4   3    1.11    0.58
  10  -4  -3   -0.26    0.78
  10  -4  -3    0.63    1.06
 -10   4   3    0.30    0.50
 -10   4   3    0.54    0.50
 -10   4   3   -0.12    0.43
   9  -4  -3    0.60    0.82
   9  -4  -3    0.86    0.90
  -9   4   3    0.89    0.44
  -9   4   3    1.00    0.48
   8  -4  -3   18.31    1.79
   8  -4  -3   16.80    2.27
  -8   4   3   18.85    1.16
  -8   4   3   18.19    1.13
   7  -4  -3  110.60    5.02
   7  -4  -3  115.13    3.69
   7  -4  -3  111.95    4.72
  -7   4   3  112.93    3.81
  -7   4   3  114.67    3.82
   6  -4  -3    1.79    0.40
   6  -4  -3    1.45    0.71
   6  -4  -3    0.95    0.36
   6  -4  -3    1.24    0.73
  -6   4   3    0.76    0.35
  -6   4   3    1.32    0.36
  -6   4   3    1.36    0.23
  -6   4   3    1.36    0.39
   5  -4  -3   15.59    0.88
   5  -4  -3   13.74    1.26
   5  -4  -3   12.66    1.65
  -5   4   3   15.68    0.91
  -5   4   3   13.39    0.87
  -5   4   3   15.19    0.86
   4  -4  -3  190.31    5.92
   4  -4  -3  193.59    5.93
  -4   4   3  195.54    5.91
  -4   4   3  195.53    5.95
   3  -4  -3  168.86    5.25
   3  -4  -3  157.48    5.18
  -3   4   3  169.26    5.11
  -3   4   3  164.61    5.14
   2  -4  -3   61.51    2.39
   2  -4  -3   61.32    2.40
   2  -4  -3   62.95    2.41
  -2   4   3   69.08    2.41
  -2   4   3   63.95    2.33
   1  -4  -3   23.20    1.26
   1  -4  -3   23.65    1.26
   1  -4  -3   21.82    1.21
  -1   4   3   22.91    1.22
  -1   4   3   24.01    1.16
   0  -4  -3   35.59    1.68
   0  -4  -3   38.31    1.75
   0  -4  -3   38.54    1.59
   0  -4  -3   36.40    1.70
   0   4   3   37.89    1.58
   0   4   3   33.65    1.69
  -1  -4  -3    1.49    0.40
  -1  -4  -3    1.72    0.50
  -1  -4  -3    2.51    0.58
  -1  -4  -3    3.23    0.62
   1   4   3    1.69    0.54
   1   4   3    2.79    0.54
   1   4   3    1.59    0.63
  -2  -4  -3   14.82    0.97
  -2  -4  -3   13.25    0.99
  -2  -4  -3   13.35    0.98
  -2  -4  -3   15.09    1.05
   2   4   3   14.06    0.90
   2   4   3   12.83    1.27
   2   4   3   13.79    1.23
  -3  -4  -3    0.71    0.47
  -3  -4  -3    1.63    0.51
  -3  -4  -3    1.44    0.52
  -3  -4  -3    1.52    0.49
   3   4   3    1.76    0.72
   3   4   3    1.25    0.66
  -4  -4  -3    2.86    0.76
  -4  -4  -3    1.79    0.57
  -4  -4  -3    2.14    0.66
  -4  -4  -3    2.58    0.68
   4   4   3    2.65    0.95
   4   4   3    2.70    0.97
  -5  -4  -3    0.34    0.42
  -5  -4  -3   -0.09    0.36
  -5  -4  -3    0.68    0.52
  -5  -4  -3    0.09    0.46
   5   4   3    0.22    0.68
   5   4   3    0.58    0.65
  -6  -4  -3    0.22    0.57
  -6  -4  -3    1.26    0.58
  -6  -4  -3    1.10    0.58
  -6  -4  -3    0.94    0.72
   6   4   3   -0.36    0.66
  -7  -4  -3    6.37    1.24
  -7  -4  -3   11.59    1.55
  -7  -4  -3    8.41    1.22
   7   4   3    7.21    1.78
  -8  -4  -3    9.21    1.32
  -8  -4  -3    9.19    1.43
  -8  -4  -3   11.64    1.66
   8   4   3    8.26    2.00
  13  -5  -3   16.56    3.01
 -13   5   3   26.67    1.73
  12  -5  -3    0.66    1.31
 -12   5   3    1.25    0.67
 -12   5   3    2.34    0.74
 -12   5   3    1.26    0.67
  11  -5  -3    7.10    1.81
  11  -5  -3    8.73    2.29
 -11   5   3    7.24    1.01
 -11   5   3    7.06    1.07
 -11   5   3    7.55    1.06
  10  -5  -3   29.74    2.64
  10  -5  -3   28.08    3.31
 -10   5   3   26.50    1.57
 -10   5   3   25.24    1.54
   9  -5  -3   14.38    2.29
   9  -5  -3   14.17    2.01
  -9   5   3   12.20    1.03
  -9   5   3   13.89    1.08
   8  -5  -3   10.28    1.83
   8  -5  -3    9.08    1.59
  -8   5   3    9.49    1.00
  -8   5   3   12.90    0.97
   7  -5  -3   10.49    1.53
   7  -5  -3    9.42    0.90
   7  -5  -3    7.24    1.40
  -7   5   3    7.88    0.88
  -7   5   3    9.36    0.98
   6  -5  -3    6.69    1.30
   6  -5  -3    3.49    0.89
  -6   5   3    5.30    0.72
  -6   5   3    5.72    0.73
   5  -5  -3    3.67    0.90
   5  -5  -3    1.88    0.75
   5  -5  -3    2.54    0.52
   5  -5  -3    3.73    0.62
  -5   5   3    3.38    0.58
  -5   5   3    3.80    0.64
  -5   5   3    3.28    0.58
   4  -5  -3    4.79    0.68
   4  -5  -3    3.94    0.64
  -4   5   3    3.67    0.58
  -4   5   3    4.87    0.69
   3  -5  -3   19.72    1.19
   3  -5  -3   18.66    1.14
  -3   5   3   19.19    1.11
  -3   5   3   17.86    1.07
  -3   5   3   19.22    1.06
   2  -5  -3  217.67    6.88
   2  -5  -3  221.91    6.85
   2  -5  -3  220.83    6.88
  -2   5   3  211.54    6.63
  -2   5   3  217.08    6.61
  -2   5   3  210.95    6.70
   1  -5  -3    6.96    0.91
   1  -5  -3    6.76    0.91
   1  -5  -3    7.99    1.00
  -1   5   3    7.72    0.84
  -1   5   3    6.91    0.85
   0  -5  -3   11.70    1.18
   0  -5  -3   10.34    0.83
   0  -5  -3    9.62    1.13
   0  -5  -3    8.85    1.09
   0   5   3   12.60    1.16
   0   5   3    9.20    0.86
  -1  -5  -3  171.80    5.78
  -1  -5  -3  175.92    5.78
  -1  -5  -3  172.48    5.79
   1   5   3  179.35    5.98
   1   5   3  170.53    5.59
   1   5   3  173.21    6.21
  -2  -5  -3  233.83    7.40
  -2  -5  -3  230.12    7.38
  -2  -5  -3  220.97    7.37
   2   5   3  232.86    7.20
   2   5   3  240.37    8.06
   2   5   3  229.34    7.82
  -3  -5  -3    1.40    0.65
  -3  -5  -3    0.90    0.56
  -3  -5  -3    1.69    0.64
   3   5   3    1.63    0.77
   3   5   3    1.16    0.73
  -4  -5  -3    2.80    0.75
  -4  -5  -3    3.49    0.85
  -4  -5  -3    2.42    0.74
  -4  -5  -3    3.50    0.81
   4   5   3    3.73    1.15
   4   5   3    3.21    1.01
  -5  -5  -3   50.99    2.45
  -5  -5  -3   45.19    2.47
  -5  -5  -3   49.61    2.47
  -5  -5  -3   48.04    2.44
   5   5   3   49.53    3.16
  -6  -5  -3   11.97    1.52
  -6  -5  -3   13.82    1.62
  -6  -5  -3    9.74    1.43
   6   5   3   15.96    2.39
  -7  -5  -3    0.82    0.74
  -7  -5  -3    0.25    0.71
  -7  -5  -3    0.59    0.72
   7   5   3    0.24    0.90
  -8  -5  -3    3.35    1.08
   8   5   3    1.57    1.28
  13  -6  -3    9.55    2.50
 -13   6   3    3.81    0.95
  12  -6  -3    2.49    1.62
 -12   6   3    5.17    1.08
 -12   6   3    6.44    1.06
 -12   6   3    5.00    1.03
  11  -6  -3   10.60    2.42
  11  -6  -3    8.84    1.96
 -11   6   3    9.46    1.15
 -11   6   3   11.61    1.27
 -11   6   3   11.91    1.32
  10  -6  -3   80.49    4.61
  10  -6  -3   85.96    4.88
 -10   6   3   91.84    3.48
 -10   6   3   86.06    3.40
   9  -6  -3    1.24    0.91
   9  -6  -3   -0.12    0.84
  -9   6   3   -0.25    0.40
  -9   6   3    0.03    0.45
   8  -6  -3    7.38    1.57
   8  -6  -3    6.19    1.37
  -8   6   3    7.87    0.99
  -8   6   3    7.33    0.92
   7  -6  -3    6.72    1.36
   7  -6  -3    7.54    0.87
   7  -6  -3    5.84    1.25
  -7   6   3    8.77    1.01
  -7   6   3    7.18    0.88
   6  -6  -3    1.07    0.44
   6  -6  -3    0.75    0.62
   6  -6  -3    1.46    0.77
  -6   6   3    1.69    0.53
  -6   6   3    1.34    0.50
   5  -6  -3    6.24    0.83
   5  -6  -3    6.34    0.88
   5  -6  -3    6.62    1.21
   5  -6  -3    4.93    1.04
  -5   6   3    6.72    0.86
  -5   6   3    6.73    0.86
   4  -6  -3    0.67    0.45
   4  -6  -3    1.04    0.41
   4  -6  -3    0.88    0.25
  -4   6   3    1.05    0.51
  -4   6   3    1.28    0.44
   3  -6  -3    3.94    0.76
   3  -6  -3    4.48    0.80
  -3   6   3    4.66    0.77
  -3   6   3    2.66    0.44
  -3   6   3    3.32    0.62
   2  -6  -3    0.52    0.45
   2  -6  -3    1.74    0.61
   2  -6  -3    1.41    0.51
  -2   6   3    1.12    0.46
  -2   6   3    1.03    0.39
   1  -6  -3    0.07    0.40
   1  -6  -3    0.62    0.42
   1  -6  -3    0.38    0.43
  -1   6   3    0.17    0.38
  -1   6   3    0.25    0.31
   0  -6  -3    7.98    1.04
   0  -6  -3    6.92    1.05
   0  -6  -3    8.88    1.16
   0   6   3    8.20    1.02
   0   6   3    8.19    1.06
  -1  -6  -3   63.23    2.71
  -1  -6  -3   57.74    2.63
  -1  -6  -3   59.37    2.67
   1   6   3   58.99    2.73
   1   6   3   52.73    2.43
   1   6   3   59.77    2.94
  -2  -6  -3   11.91    1.37
  -2  -6  -3   13.00    1.46
  -2  -6  -3   12.85    1.46
   2   6   3   14.55    1.68
   2   6   3   13.39    1.38
   2   6   3   13.91    1.81
  -3  -6  -3   16.81    1.39
  -3  -6  -3   16.72    1.35
  -3  -6  -3   15.21    1.64
   3   6   3   17.57    1.66
   3   6   3   18.76    2.25
  -4  -6  -3   14.09    1.65
  -4  -6  -3   15.68    1.77
  -4  -6  -3   10.18    1.89
  -4  -6  -3   17.04    1.78
   4   6   3   14.75    2.13
  -5  -6  -3   65.96    3.05
  -5  -6  -3   57.99    2.92
  -5  -6  -3   64.41    3.10
   5   6   3   61.17    3.74
  -6  -6  -3    1.46    0.79
  -6  -6  -3    4.18    1.07
   6   6   3    1.72    1.27
  -7  -6  -3   23.91    2.43
   7   6   3   18.61    2.95
  12  -7  -3    2.33    1.57
 -12   7   3    3.18    0.85
 -12   7   3    3.92    0.90
  11  -7  -3    2.34    1.68
  11  -7  -3    3.06    1.33
 -11   7   3    4.69    0.93
 -11   7   3    2.63    0.79
  10  -7  -3    2.45    1.38
  10  -7  -3    1.90    1.14
 -10   7   3    2.85    0.79
 -10   7   3    2.93    0.83
   9  -7  -3   65.74    3.61
   9  -7  -3   54.02    3.57
  -9   7   3   66.47    2.76
  -9   7   3   58.70    2.66
   8  -7  -3   23.05    2.13
   8  -7  -3   23.96    2.04
  -8   7   3   24.77    1.53
  -8   7   3   27.02    1.59
   7  -7  -3   21.27    1.34
   7  -7  -3   20.17    1.85
   7  -7  -3   20.60    1.77
  -7   7   3   24.12    1.46
  -7   7   3   22.64    1.44
   6  -7  -3   23.44    1.38
   6  -7  -3   18.76    1.64
   6  -7  -3   22.23    1.37
   6  -7  -3   21.02    1.73
  -6   7   3   24.16    1.46
  -6   7   3   23.86    1.46
   5  -7  -3  259.72    7.92
   5  -7  -3  220.64    8.08
   5  -7  -3  246.74    8.22
   5  -7  -3  246.18    7.86
  -5   7   3  259.76    7.84
  -5   7   3  242.36    7.81
   4  -7  -3   40.19    1.62
   4  -7  -3   36.52    1.96
   4  -7  -3   35.38    2.01
   4  -7  -3   38.09    2.07
  -4   7   3   37.84    1.94
   3  -7  -3    4.11    0.85
   3  -7  -3    5.40    0.99
  -3   7   3    4.88    0.87
   2  -7  -3   61.72    2.86
   2  -7  -3   61.84    2.84
  -2   7   3   63.18    2.71
   1  -7  -3   37.39    2.07
   1  -7  -3   36.97    2.07
  -1   7   3   37.60    1.95
  -1   7   3   36.82    1.75
   0  -7  -3    9.71    1.31
   0  -7  -3   11.72    1.42
   0   7   3   12.29    1.33
   0   7   3   10.76    1.23
  -1  -7  -3    9.67    1.32
  -1  -7  -3   10.71    1.37
   1   7   3    9.19    1.25
   1   7   3   11.49    1.32
  -2  -7  -3    6.71    1.18
  -2  -7  -3    5.08    1.07
   2   7   3    5.08    1.09
   2   7   3    5.38    1.21
  -3  -7  -3    3.25    0.89
  -3  -7  -3    1.17    0.66
   3   7   3    1.28    0.84
  -4  -7  -3   -0.13    0.58
  -4  -7  -3   -0.34    0.48
   4   7   3    0.64    0.86
  -5  -7  -3    3.12    1.00
  -5  -7  -3    2.88    0.97
   5   7   3    1.88    1.13
  -6  -7  -3   26.44    2.05
  -6  -7  -3   23.34    1.92
   6   7   3   27.84    2.69
 -12   8   3    0.13    0.62
 -11   8   3    0.33    0.57
  10  -8  -3   -0.65    0.95
 -10   8   3    0.61    0.67
   9  -8  -3    0.77    1.01
  -9   8   3    0.56    0.61
   8  -8  -3   -0.09    0.81
   8  -8  -3    0.05    0.85
  -8   8   3   -0.31    0.48
   7  -8  -3    0.95    0.52
   7  -8  -3    1.38    0.71
   7  -8  -3    0.80    0.74
  -7   8   3    0.08    0.52
   6  -8  -3   43.03    2.54
   6  -8  -3   49.25    2.36
   6  -8  -3   49.26    2.57
  -6   8   3   48.29    2.34
   5  -8  -3   66.43    3.05
   5  -8  -3   67.11    3.04
   5  -8  -3   64.46    3.01
   5  -8  -3   68.88    3.08
  -5   8   3   70.22    2.99
   4  -8  -3   11.25    1.47
   4  -8  -3   11.53    1.42
   4  -8  -3   12.73    1.16
  -4   8   3   12.97    1.42
   3  -8  -3    0.01    0.58
   3  -8  -3    0.66    0.60
  -3   8   3    0.08    0.45
   2  -8  -3  153.84    5.72
   2  -8  -3  163.06    5.81
  -2   8   3  151.76    5.50
   1  -8  -3   18.58    1.90
   1  -8  -3   23.45    1.69
  -1   8   3   19.14    1.46
   0  -8  -3   30.81    1.99
   0  -8  -3   31.12    2.00
   0   8   3   31.09    1.89
  -1  -8  -3    0.53    0.63
  -1  -8  -3    0.48    0.70
   1   8   3    0.83    0.66
  -2  -8  -3    8.17    1.40
  -2  -8  -3    5.43    1.11
  -3  -8  -3    4.89    1.15
  -3  -8  -3    4.25    1.15
   3   8   3    3.60    1.17
  -4  -8  -3    2.36    1.02
  -4  -8  -3    2.47    1.03
   4   8   3    2.08    1.12
  -5  -8  -3    0.50    0.88
  -5  -8  -3    0.78    0.85
   5   8   3    0.64    0.89
 -12   9   3   33.39    2.15
 -11   9   3   20.65    1.67
  10  -9  -3    4.49    1.47
 -10   9   3    3.85    0.99
   9  -9  -3   15.22    2.10
  -9   9   3   21.59    1.63
   8  -9  -3   15.09    1.91
  -8   9   3   17.85    1.79
   7  -9  -3    8.88    1.46
   7  -9  -3    9.65    1.25
  -7   9   3   10.52    1.38
   6  -9  -3    9.71    1.34
   6  -9  -3   11.21    1.45
  -6   9   3   12.84    1.53
   5  -9  -3    7.09    1.21
   5  -9  -3    8.89    1.37
  -5   9   3   11.15    1.41
   4  -9  -3    7.61    1.31
   4  -9  -3    6.82    1.24
  -4   9   3    6.86    1.15
   3  -9  -3    0.45    0.59
   3  -9  -3    0.18    0.70
  -3   9   3    0.45    0.58
   2  -9  -3    3.17    0.95
   2  -9  -3    5.02    1.08
  -2   9   3    4.24    0.95
   1  -9  -3   35.40    2.20
   1  -9  -3   31.84    2.12
  -1   9   3   28.87    1.92
   0  -9  -3   55.03    2.93
   0  -9  -3   55.92    2.96
   0   9   3   59.68    2.85
  -1  -9  -3    2.79    1.00
  -1  -9  -3    3.74    1.03
   1   9   3    2.28    0.80
  -2  -9  -3   -0.03    0.66
  -2  -9  -3   -0.01    0.71
  -3  -9  -3   73.29    3.73
  -3  -9  -3   84.04    3.88
  -4  -9  -3   29.87    2.29
  -4  -9  -3   32.13    2.38
 -11  10   3    0.58    0.84
 -10  10   3    5.20    1.26
  -9  10   3   31.92    2.15
  -8  10   3   45.81    2.58
  -7  10   3    2.14    0.87
   6 -10  -3    0.38    0.84
  -6  10   3    0.87    0.73
   5 -10  -3    2.82    1.01
  -5  10   3    3.30    0.97
   4 -10  -3   -0.37    0.70
   4 -10  -3    0.41    0.74
  -4  10   3   -0.04    0.62
   3 -10  -3    1.06    0.84
   3 -10  -3    0.75    0.78
  -3  10   3   -0.17    0.56
   2 -10  -3   -0.27    0.53
   2 -10  -3   -0.24    0.59
  -2  10   3   -0.37    0.60
   1 -10  -3    1.19    0.75
   1 -10  -3    1.77    0.82
  -1  10   3    1.07    0.75
   0 -10  -3    0.37    0.74
   0 -10  -3   -0.72    0.68
   0  10   3    0.87    0.75
  -1 -10  -3    0.33    0.78
  -1 -10  -3    0.65    0.70
  -2 -10  -3    6.36    1.38
  -2 -10  -3    4.54    1.20
  -3 -10  -3   17.34    2.10
  -3 -10  -3   17.81    2.19
 -11  11   3    4.37    1.17
 -10  11   3    2.06    0.96
  -9  11   3    9.19    1.54
  -8  11   3    0.48    0.80
  -7  11   3   62.76    3.21
   6 -11  -3    1.95    0.90
  -6  11   3    0.62    0.74
   5 -11  -3    8.22    1.48
   4 -11  -3   39.84    2.63
  -4  11   3   36.59    2.40
   3 -11  -3   83.11    4.03
   3 -11  -3   84.83    4.00
  -3  11   3   77.57    3.71
   2 -11  -3    4.30    1.21
   2 -11  -3    3.93    1.24
  -2  11   3    8.02    1.40
   1 -11  -3    4.06    1.09
   1 -11  -3    5.86    1.24
  -1  11   3    7.17    1.35
   0 -11  -3   20.84    2.33
   0 -11  -3   21.61    2.45
   0  11   3   23.38    1.86
  -1 -11  -3    6.23    1.43
  -1 -11  -3    7.59    1.59
  -2 -11  -3    4.26    1.75
  -2 -11  -3    1.51    1.02
  -9  12   3   -0.51    0.66
  -8  12   3    0.30    0.83
  -7  12   3    0.38    0.79
   6 -12  -3    2.35    1.07
  -6  12   3    2.35    0.98
   5 -12  -3   -0.44    0.73
  -5  12   3   -0.18    0.80
   4 -12  -3   38.71    2.69
  -4  12   3   37.45    2.51
   3 -12  -3    6.93    1.53
  -3  12   3    6.96    1.45
   2 -12  -3    7.96    1.59
  -2  12   3   10.89    1.63
   1 -12  -3    3.21    1.15
   1 -12  -3    4.62    1.34
  -1  12   3    3.95    1.17
   0 -12  -3   35.02    2.57
  -8  13   3    4.65    1.26
  -7  13   3   13.35    1.85
  -6  13   3    5.10    1.26
   5 -13  -3    3.45    1.26
  -5  13   3    3.12    1.07
   4 -13  -3    2.30    1.02
  -4  13   3    2.89    1.18
   3 -13  -3    4.70    1.43
  -3  13   3    4.71    1.33
   2 -13  -3    0.76    1.03
  -2  13   3    3.25    1.20
   0  13  -4    0.07    0.86
  -1  13  -4   25.99    2.14
  -2  13  -4    0.67    0.81
  -3  13  -4   11.57    1.75
  -4  13  -4    9.19    1.57
  -5  13  -4    9.45    1.55
   3  12  -4    1.43    0.87
  -3 -12   4    1.21    1.12
   2  12  -4    2.65    1.03
  -2 -12   4    3.12    1.16
   1  12  -4    4.90    1.21
  -1 -12   4    2.76    1.17
   0  12  -4    8.93    1.49
   0 -12   4    6.12    1.25
  -1  12  -4   16.95    1.91
  -2  12  -4    4.01    1.07
  -3  12  -4   11.40    1.64
  -4  12  -4   78.43    3.74
  -5  12  -4   17.58    1.97
  -6  12  -4    6.35    1.29
  -7  12  -4    9.19    1.67
   4  11  -4   13.28    1.87
  -4 -11   4   24.91    2.67
   3  11  -4    0.56    0.78
  -3 -11   4    1.45    0.95
   2  11  -4   17.67    2.02
  -2 -11   4   15.11    1.98
   1  11  -4    0.93    0.76
  -1 -11   4    0.05    0.83
   0  11  -4    4.04    1.09
   0 -11   4    3.83    1.11
  -1  11  -4    2.21    0.86
  -2  11  -4    5.74    1.12
   2 -11   4    2.63    1.10
  -3  11  -4    3.29    0.96
   3 -11   4    3.50    1.22
  -4  11  -4    5.87    1.16
   4 -11   4    3.36    1.17
  -5  11  -4    3.15    1.08
  -6  11  -4    0.41    0.65
  -6  11  -4   -0.24    0.79
  -7  11  -4    7.20    1.25
  -7  11  -4    6.88    1.41
  -8  11  -4    1.04    0.83
  -8  11  -4    0.93    0.93
  -6 -10   4   13.04    2.35
  -6 -10   4   13.00    2.01
   5  10  -4    4.17    1.22
  -5 -10   4    2.83    1.19
  -5 -10   4    4.41    1.27
   4  10  -4    0.95    0.82
  -4 -10   4    0.02    0.84
  -4 -10   4    0.87    0.85
   3  10  -4   66.61    3.44
  -3 -10   4   76.06    3.88
  -3 -10   4   80.85    3.75
   2  10  -4   76.50    3.60
  -2 -10   4   79.98    3.72
   1  10  -4    4.06    1.02
  -1 -10   4    2.52    0.96
   0  10  -4    0.79    0.63
   0 -10   4    0.66    0.76
  -1  10  -4   80.13    3.56
   1 -10   4   84.03    4.26
  -2  10  -4   13.46    1.59
   2 -10   4   12.53    1.88
  -3  10  -4    7.88    1.21
   3 -10   4    3.63    1.11
  -4  10  -4    1.82    0.68
  -4  10  -4    1.34    0.69
   4 -10   4    1.28    0.86
  -5  10  -4    6.20    1.02
  -5  10  -4    5.44    1.17
   5 -10   4    3.80    1.14
  -6  10  -4    3.86    1.05
  -6  10  -4    1.71    0.71
  -7  10  -4    7.34    1.24
  -7  10  -4    6.24    1.06
  -8  10  -4    6.05    1.13
  -9  10  -4    6.93    1.25
  -7  -9   4   -0.24    1.17
  -7  -9   4    0.18    0.92
   6   9  -4    3.55    1.65
  -6  -9   4    2.42    1.10
  -6  -9   4    3.10    1.21
   5   9  -4    2.48    0.94
  -5  -9   4    4.00    1.17
  -5  -9   4    3.61    1.17
   4   9  -4    6.65    1.25
  -4  -9   4    4.76    1.14
  -4  -9   4    5.59    1.32
   3   9  -4   13.38    1.63
  -3  -9   4   15.04    1.82
  -3  -9   4   13.86    1.75
   2   9  -4   10.92    1.46
  -2  -9   4   10.58    1.53
  -2  -9   4   10.44    1.50
   1   9  -4    1.29    0.62
  -1  -9   4   -0.39    0.57
  -1  -9   4    0.44    0.74
   0   9  -4   17.94    1.42
   0  -9   4   16.10    1.69
  -1   9  -4   52.34    2.55
   1  -9   4   55.88    2.66
   1  -9   4   48.15    3.12
  -2   9  -4   20.11    1.44
  -2   9  -4   18.38    1.41
   2  -9   4   17.20    2.07
  -3   9  -4   51.29    2.49
  -3   9  -4   52.63    2.42
   3  -9   4   49.17    2.97
  -4   9  -4   21.37    1.51
  -4   9  -4   20.43    1.43
   4  -9   4   19.24    2.07
  -5   9  -4    5.62    0.95
  -5   9  -4    7.34    1.18
   5  -9   4    4.21    1.07
  -6   9  -4   35.12    1.94
  -6   9  -4   35.44    2.04
   6  -9   4   37.09    2.39
  -7   9  -4    4.57    0.95
  -7   9  -4    6.61    1.08
  -8   9  -4    5.35    1.01
  -9   9  -4    0.66    0.70
  -8  -8   4    4.30    1.24
  -7  -8   4    1.91    1.02
  -7  -8   4    1.41    0.96
   6   8  -4   22.58    1.85
  -6  -8   4   22.78    2.45
  -6  -8   4   35.50    2.37
   5   8  -4   30.26    2.04
  -5  -8   4   30.95    2.22
  -5  -8   4   33.39    2.24
   4   8  -4    0.72    0.64
  -4  -8   4    0.11    0.65
  -4  -8   4    0.24    0.63
   3   8  -4    0.22    0.55
  -3  -8   4    0.41    0.57
  -3  -8   4    0.18    0.59
   2   8  -4    2.11    0.74
  -2  -8   4    2.50    0.86
  -2  -8   4    3.30    0.86
   1   8  -4    4.51    0.91
  -1  -8   4    5.58    1.02
  -1  -8   4    4.34    0.93
   0   8  -4   14.76    1.22
   0  -8   4   16.08    1.30
   0  -8   4   14.96    1.55
  -1   8  -4   13.55    1.41
  -1   8  -4   12.54    1.27
   1  -8   4    8.59    1.47
   1  -8   4   11.16    1.31
  -2   8  -4   39.77    1.97
  -2   8  -4   37.60    1.89
   2  -8   4   37.90    2.45
   2  -8   4   29.62    3.20
  -3   8  -4   32.93    1.78
  -3   8  -4   33.58    1.72
   3  -8   4   27.96    2.05
  -4   8  -4    3.17    0.73
  -4   8  -4    3.27    0.71
   4  -8   4    2.95    0.87
  -5   8  -4   46.52    2.23
  -5   8  -4   46.04    2.10
   5  -8   4   41.00    2.44
  -6   8  -4  141.31    4.81
  -6   8  -4  139.23    4.89
   6  -8   4  137.58    5.36
  -7   8  -4    3.06    0.73
  -7   8  -4    4.15    0.86
   7  -8   4    4.13    1.00
  -8   8  -4    4.10    0.87
  -9   8  -4   30.27    1.81
 -10   8  -4   17.22    1.38
  -9  -7   4    9.85    1.78
  -8  -7   4    0.24    0.81
  -8  -7   4   -0.05    0.69
   7   7  -4    1.75    1.06
  -7  -7   4    0.70    0.77
  -7  -7   4    0.83    0.75
   6   7  -4   82.66    3.78
   6   7  -4   72.34    3.42
  -6  -7   4   76.51    3.59
  -6  -7   4   80.37    3.68
   5   7  -4    3.32    0.91
   5   7  -4    1.58    0.71
  -5  -7   4    2.24    0.83
  -5  -7   4    2.09    0.80
   4   7  -4   64.02    2.98
   4   7  -4   68.71    3.00
  -4  -7   4   69.64    3.16
  -4  -7   4   73.16    3.21
   3   7  -4    0.39    0.46
  -3  -7   4    0.78    0.60
  -3  -7   4    0.03    0.54
   2   7  -4   40.17    2.08
  -2  -7   4   42.85    2.24
  -2  -7   4   45.67    2.25
   1   7  -4   16.55    1.67
   1   7  -4   16.47    1.19
  -1  -7   4   16.62    1.27
  -1  -7   4   15.45    1.24
   0   7  -4   27.69    1.48
   0   7  -4   26.47    1.52
   0  -7   4   28.92    1.62
   0  -7   4   25.34    1.56
  -1   7  -4    2.68    0.57
  -1   7  -4    2.06    0.58
   1  -7   4    2.05    0.70
   1  -7   4    2.64    0.92
   1  -7   4    2.27    0.69
   1  -7   4    1.70    0.48
  -2   7  -4    3.69    0.72
  -2   7  -4    3.41    0.59
   2  -7   4    3.72    0.71
   2  -7   4    3.39    0.90
  -3   7  -4    4.25    0.64
  -3   7  -4    5.77    0.85
  -3   7  -4    5.39    0.82
   3  -7   4    5.62    1.03
  -4   7  -4   11.42    0.88
  -4   7  -4    9.34    0.99
  -4   7  -4   12.37    0.99
   4  -7   4   12.31    1.45
  -5   7  -4    5.09    0.71
  -5   7  -4    5.69    0.87
  -5   7  -4    6.68    0.80
   5  -7   4    4.21    0.91
  -6   7  -4   11.33    0.92
  -6   7  -4   11.53    1.17
  -6   7  -4   11.33    0.91
   6  -7   4   10.30    1.40
  -7   7  -4    0.66    0.49
  -7   7  -4    0.49    0.39
   7  -7   4    0.13    0.61
  -8   7  -4   -0.32    0.47
  -8   7  -4   -0.27    0.54
  -9   7  -4   13.20    1.10
 -10   7  -4    0.07    0.51
   9   6  -4   -0.02    0.93
  -9  -6   4    1.31    0.93
  -9  -6   4    0.19    0.61
   8   6  -4    1.78    1.06
  -8  -6   4    1.80    0.90
  -8  -6   4    1.15    0.78
   7   6  -4    1.43    0.75
   7   6  -4    1.40    0.83
  -7  -6   4    1.18    0.74
  -7  -6   4    1.53    0.74
   6   6  -4    0.30    0.55
   6   6  -4    1.68    0.69
  -6  -6   4    1.35    0.67
  -6  -6   4    0.46    0.51
   5   6  -4   26.35    1.64
   5   6  -4   25.27    1.68
  -5  -6   4   23.55    1.62
  -5  -6   4   25.35    1.67
   4   6  -4   53.20    2.38
   4   6  -4   51.07    2.36
  -4  -6   4   52.63    2.48
  -4  -6   4   48.42    2.40
   3   6  -4    0.53    0.45
   3   6  -4    0.45    0.37
  -3  -6   4    0.34    0.48
  -3  -6   4   -0.13    0.37
   2   6  -4   13.63    0.83
   2   6  -4   11.57    1.52
   2   6  -4   11.93    0.96
  -2  -6   4   13.15    1.08
  -2  -6   4   13.16    1.09
  -2  -6   4   14.07    1.40
   1   6  -4  361.31   10.20
   1   6  -4  362.77   10.66
   1   6  -4  356.56   10.72
  -1  -6   4  344.65   10.83
  -1  -6   4  369.74   10.92
  -1  -6   4  356.18   10.87
   0   6  -4  107.24    3.19
   0   6  -4  107.53    3.60
   0   6  -4  102.12    3.64
   0  -6   4  103.65    3.75
   0  -6   4  104.06    4.39
   0  -6   4  107.48    3.76
   0  -6   4  104.45    3.76
  -1   6  -4   20.39    1.20
  -1   6  -4   22.60    1.16
  -1   6  -4   21.58    1.34
   1  -6   4   22.98    1.35
   1  -6   4   23.62    1.28
   1  -6   4   27.00    1.76
   1  -6   4   23.66    1.33
   1  -6   4   23.97    1.19
  -2   6  -4   35.21    1.51
  -2   6  -4   35.90    1.64
  -2   6  -4   37.68    1.73
   2  -6   4   35.24    1.54
   2  -6   4   37.03    1.62
   2  -6   4   36.97    2.03
  -3   6  -4  149.65    4.84
  -3   6  -4  154.96    4.86
  -3   6  -4  141.47    4.63
   3  -6   4  149.20    5.30
   3  -6   4  150.88    4.89
  -4   6  -4    3.48    0.52
  -4   6  -4    3.36    0.48
  -4   6  -4    2.96    0.57
   4  -6   4    3.80    0.68
   4  -6   4    3.29    0.73
   4  -6   4    3.19    0.65
  -5   6  -4    0.55    0.47
  -5   6  -4    1.40    0.36
  -5   6  -4    1.25    0.35
   5  -6   4    1.57    0.63
   5  -6   4    1.14    0.56
   5  -6   4    0.86    0.55
  -6   6  -4    7.33    0.62
  -6   6  -4    8.93    0.89
  -6   6  -4    9.15    0.84
   6  -6   4    5.29    1.08
   6  -6   4    6.36    1.10
   6  -6   4    6.74    1.18
  -7   6  -4    3.24    0.45
  -7   6  -4    4.00    0.62
   7  -6   4    2.75    1.07
  -8   6  -4    2.90    0.60
  -8   6  -4    1.85    0.44
  -9   6  -4    3.63    0.62
  -9   6  -4    4.58    0.63
 -10   6  -4    7.06    0.81
  10   5  -4    2.16    1.29
 -10  -5   4    1.80    0.84
   9   5  -4   12.17    2.01
  -9  -5   4   13.15    1.70
  -9  -5   4   14.65    1.83
   8   5  -4   -0.12    0.70
  -8  -5   4    0.99    0.69
  -8  -5   4    0.75    0.65
   7   5  -4    7.78    1.35
   7   5  -4    5.53    1.01
  -7  -5   4    5.08    1.04
  -7  -5   4    7.85    1.18
   6   5  -4   -0.01    0.50
   6   5  -4    0.10    0.46
  -6  -5   4   -0.11    0.38
  -6  -5   4    0.11    0.42
   5   5  -4    0.66    0.47
   5   5  -4    0.80    0.38
   5   5  -4    0.73    0.48
  -5  -5   4    0.49    0.44
  -5  -5   4    0.46    0.45
   4   5  -4    7.79    0.99
   4   5  -4    6.72    0.94
   4   5  -4    6.33    0.55
  -4  -5   4    7.62    0.99
  -4  -5   4    7.74    0.95
  -4  -5   4    8.15    1.03
   3   5  -4   16.28    1.03
   3   5  -4   16.81    0.80
   3   5  -4   18.51    1.12
  -3  -5   4   17.01    1.17
  -3  -5   4   16.61    1.12
  -3  -5   4   16.98    1.12
   2   5  -4   26.93    1.32
   2   5  -4   25.33    1.33
   2   5  -4   26.54    1.02
   2   5  -4   28.75    1.24
  -2  -5   4   26.22    1.42
  -2  -5   4   25.68    1.41
  -2  -5   4   27.27    1.42
   1   5  -4   49.31    1.99
   1   5  -4   54.14    2.08
   1   5  -4   52.25    1.80
   1   5  -4   55.66    2.67
  -1  -5   4   53.88    2.21
  -1  -5   4   53.10    2.16
  -1  -5   4   54.42    2.20
   0   5  -4    8.67    0.89
   0   5  -4    7.49    0.77
   0   5  -4    6.67    0.66
   0   5  -4    6.94    0.37
   0   5  -4    6.74    0.49
   0  -5   4    7.95    0.90
   0  -5   4    8.82    1.23
   0  -5   4    9.51    0.96
   0  -5   4    5.43    0.63
  -1   5  -4    0.69    0.26
  -1   5  -4    0.36    0.33
  -1   5  -4    0.41    0.28
   1  -5   4    0.95    0.40
   1  -5   4    0.16    0.37
   1  -5   4    0.76    0.27
   1  -5   4    0.58    0.43
   1  -5   4    0.58    0.31
  -2   5  -4  100.80    3.18
  -2   5  -4  100.77    3.41
  -2   5  -4  100.60    3.33
  -2   5  -4  104.90    3.43
   2  -5   4   99.31    3.39
   2  -5   4  104.36    3.31
   2  -5   4   99.61    3.77
   2  -5   4  101.50    3.56
  -3   5  -4   45.45    1.72
  -3   5  -4   45.12    1.61
  -3   5  -4   46.65    1.82
   3  -5   4   46.84    2.19
   3  -5   4   47.87    2.13
   3  -5   4   49.25    2.00
  -4   5  -4   85.18    2.76
  -4   5  -4   90.00    3.03
  -4   5  -4   91.01    2.81
   4  -5   4   91.00    3.49
   4  -5   4   90.51    3.47
   4  -5   4   92.91    3.59
  -5   5  -4   26.19    1.02
  -5   5  -4   26.06    1.21
  -5   5  -4   24.97    1.00
   5  -5   4   28.74    1.83
   5  -5   4   27.92    1.66
   5  -5   4   28.60    1.81
  -6   5  -4   45.88    1.66
   6  -5   4   42.24    2.32
   6  -5   4   46.92    2.65
   6  -5   4   49.90    2.72
  -7   5  -4    1.54    0.40
   7  -5   4    1.58    0.90
  -8   5  -4   31.53    1.40
   8  -5   4   34.02    2.65
  -9   5  -4   -0.06    0.34
   9  -5   4    0.27    0.93
 -10   5  -4    2.22    0.55
  10  -5   4    2.70    1.57
 -11  -4   4   26.73    2.03
  10   4  -4    0.01    0.84
 -10  -4   4    1.70    0.81
 -10  -4   4    0.77    0.69
   9   4  -4    2.89    1.08
  -9  -4   4    3.30    0.85
  -9  -4   4    2.73    0.82
   8   4  -4   74.07    3.82
  -8  -4   4   75.75    3.24
  -8  -4   4   78.06    3.28
   7   4  -4  146.53    4.96
   7   4  -4  140.47    4.98
   7   4  -4  142.07    5.51
  -7  -4   4  134.04    4.94
  -7  -4   4  138.26    4.95
   6   4  -4    0.24    0.38
   6   4  -4    0.20    0.46
   6   4  -4    1.25    0.52
  -6  -4   4    0.05    0.35
  -6  -4   4   -0.03    0.34
   5   4  -4    3.50    0.69
   5   4  -4    3.23    0.74
   5   4  -4    3.42    0.67
  -5  -4   4    2.83    0.59
  -5  -4   4    3.94    0.69
  -5  -4   4    2.89    0.62
  -5  -4   4    3.19    0.65
   4   4  -4  114.65    4.12
   4   4  -4  118.78    3.89
   4   4  -4  116.54    3.98
  -4  -4   4  122.45    4.18
  -4  -4   4  118.38    4.02
  -4  -4   4  117.85    4.03
  -4  -4   4  118.18    4.04
   3   4  -4   47.44    1.92
   3   4  -4   47.33    1.81
   3   4  -4   46.16    1.96
   3   4  -4   50.46    1.91
  -3  -4   4   46.02    1.95
  -3  -4   4   49.61    1.98
  -3  -4   4   47.10    2.02
   2   4  -4    3.15    0.48
   2   4  -4    2.79    0.48
   2   4  -4    2.97    0.47
  -2  -4   4    3.40    0.56
  -2  -4   4    2.45    0.43
  -2  -4   4    2.30    0.49
   1   4  -4    7.57    0.57
   1   4  -4    7.90    0.65
   1   4  -4    8.02    0.52
   1   4  -4    6.59    0.53
  -1  -4   4    7.92    0.62
  -1  -4   4    8.08    0.67
  -1  -4   4    8.14    0.65
   0   4  -4    1.58    0.39
   0   4  -4    1.89    0.34
   0   4  -4    1.64    0.44
   0  -4   4    1.12    0.30
   0  -4   4    1.62    0.46
   0  -4   4    0.98    0.47
   0  -4   4    1.59    0.47
  -1   4  -4    5.81    0.63
  -1   4  -4    5.74    0.64
  -1   4  -4    5.40    0.43
  -1   4  -4    4.45    0.37
   1  -4   4    3.22    0.63
   1  -4   4    7.07    0.71
   1  -4   4    7.42    0.89
   1  -4   4    5.66    0.61
   1  -4   4    4.71    0.41
  -2   4  -4   18.95    0.84
  -2   4  -4   18.70    0.84
  -2   4  -4   18.12    0.91
  -2   4  -4   17.88    0.72
   2  -4   4   18.59    1.20
   2  -4   4   18.15    1.15
  -3   4  -4   23.06    0.80
  -3   4  -4   22.56    0.82
  -3   4  -4   26.25    1.08
  -3   4  -4   24.78    1.02
   3  -4   4   21.90    1.35
   3  -4   4   25.15    1.50
   3  -4   4   24.19    1.37
  -4   4  -4   72.82    2.33
  -4   4  -4   66.33    2.28
   4  -4   4   71.92    3.05
   4  -4   4   69.52    2.84
   4  -4   4   70.93    3.11
  -5   4  -4   16.47    0.75
   5  -4   4   14.24    1.17
   5  -4   4   15.63    1.42
   5  -4   4   15.52    1.44
   6  -4   4    0.61    0.64
   6  -4   4    1.75    0.81
   7  -4   4   92.53    4.54
   7  -4   4   93.71    4.56
  -8   4  -4   78.64    2.66
  -8   4  -4   84.64    2.57
   8  -4   4   78.84    4.42
  -9   4  -4    1.03    0.37
  -9   4  -4    0.31    0.33
   9  -4   4    0.38    0.95
 -10   4  -4   -0.25    0.33
  10  -4   4    0.16    1.36
  11   3  -4    0.10    0.96
 -11  -3   4    1.84    0.86
 -11  -3   4    1.59    0.81
  10   3  -4    1.12    0.96
 -10  -3   4    0.94    0.61
 -10  -3   4    0.81    0.61
   9   3  -4    6.27    1.51
   9   3  -4    4.39    1.08
  -9  -3   4    4.79    0.94
  -9  -3   4    4.49    0.94
   8   3  -4   43.32    2.67
   8   3  -4   41.74    2.30
  -8  -3   4   41.97    2.08
  -8  -3   4   39.44    2.05
   7   3  -4   19.44    1.59
   7   3  -4   17.40    1.36
   7   3  -4   19.17    1.25
  -7  -3   4   17.21    1.21
  -7  -3   4   19.41    1.26
  -7  -3   4   18.40    1.22
   6   3  -4   11.38    0.89
   6   3  -4   10.93    0.99
   6   3  -4   12.13    1.50
  -6  -3   4   12.91    1.02
  -6  -3   4   11.22    0.88
  -6  -3   4   10.40    1.06
  -6  -3   4   10.46    0.87
   5   3  -4   37.74    1.65
   5   3  -4   36.16    1.77
   5   3  -4   35.90    1.90
  -5  -3   4   36.03    1.65
  -5  -3   4   38.38    1.66
  -5  -3   4   36.84    1.76
  -5  -3   4   36.01    1.65
   4   3  -4  222.80    7.82
   4   3  -4  243.82    7.32
   4   3  -4  247.44    7.48
   4   3  -4  236.29    7.16
   4   3  -4  242.21    7.34
  -4  -3   4  238.16    7.17
  -4  -3   4  234.51    7.18
  -4  -3   4  237.24    7.19
  -4  -3   4  229.91    7.28
   3   3  -4   15.69    0.83
   3   3  -4   14.50    0.91
   3   3  -4   13.19    0.80
   3   3  -4   13.57    0.90
  -3  -3   4   14.93    0.90
  -3  -3   4   13.42    0.84
  -3  -3   4   14.50    0.85
   2   3  -4  129.46    4.07
   2   3  -4  132.19    4.06
   2   3  -4  135.04    4.20
  -2  -3   4  132.37    4.15
  -2  -3   4  127.49    4.12
  -2  -3   4  133.18    4.19
   1   3  -4   36.69    1.36
   1   3  -4   35.08    1.42
   1   3  -4   35.74    1.46
   1   3  -4   37.83    1.35
  -1  -3   4   35.92    1.42
  -1  -3   4   36.50    1.41
  -1  -3   4   35.36    1.42
   0   3  -4   21.79    1.01
   0   3  -4   23.64    1.04
   0   3  -4   23.82    1.06
   0   3  -4   22.70    0.90
   0   3  -4   23.05    0.94
   0  -3   4   25.78    1.00
   0  -3   4   23.63    1.04
   0  -3   4   22.95    1.25
   0  -3   4   23.11    1.40
  -1   3  -4   52.29    1.69
  -1   3  -4   51.86    1.62
  -1   3  -4   52.23    1.77
  -1   3  -4   52.76    1.76
   1  -3   4   51.15    2.08
   1  -3   4   53.68    1.70
   1  -3   4   48.64    2.22
  -2   3  -4   11.81    0.59
  -2   3  -4   11.88    0.52
   2  -3   4   10.93    0.83
   2  -3   4   10.10    0.94
   2  -3   4   10.23    0.86
  -3   3  -4    1.37    0.25
  -3   3  -4    1.78    0.25
   3  -3   4    1.08    0.51
   3  -3   4    1.00    0.39
   3  -3   4    0.96    0.49
   4  -3   4    1.24    0.62
   4  -3   4    1.21    0.63
   4  -3   4    1.07    0.44
   5  -3   4   11.03    1.69
   5  -3   4   12.86    1.68
   6  -3   4   11.66    1.83
   6  -3   4   18.33    2.21
   7  -3   4    9.73    1.81
   7  -3   4    9.00    1.76
  -8   3  -4    4.15    0.48
  -8   3  -4    4.38    0.45
   8  -3   4    5.30    1.53
  -9   3  -4    0.40    0.32
  -9   3  -4    0.22    0.31
   9  -3   4   -0.39    0.86
 -10   3  -4    2.07    0.46
  10  -3   4    2.75    1.62
  11   2  -4   15.46    2.48
 -11  -2   4   16.92    1.76
 -11  -2   4   13.23    1.54
  10   2  -4   12.10    2.03
  10   2  -4   18.84    2.17
 -10  -2   4   15.13    1.59
 -10  -2   4   13.05    1.42
   9   2  -4    2.73    1.03
   9   2  -4    2.49    0.94
  -9  -2   4    2.17    0.68
  -9  -2   4    2.18    0.68
   8   2  -4    3.02    0.91
   8   2  -4    2.80    0.81
   8   2  -4    2.04    0.77
  -8  -2   4    3.14    0.68
  -8  -2   4    1.73    0.56
  -8  -2   4    2.88    0.61
   7   2  -4    2.13    0.70
   7   2  -4    1.85    0.53
   7   2  -4    2.08    0.78
  -7  -2   4    1.75    0.47
  -7  -2   4    2.48    0.58
  -7  -2   4    1.34    0.49
  -7  -2   4    2.38    0.54
   6   2  -4    1.90    0.46
   6   2  -4    1.90    0.64
   6   2  -4    1.69    0.46
   6   2  -4    2.47    0.70
  -6  -2   4    1.84    0.47
  -6  -2   4    1.57    0.44
  -6  -2   4    1.79    0.44
  -6  -2   4    2.19    0.49
   5   2  -4    1.32    0.38
   5   2  -4    1.50    0.39
   5   2  -4    1.35    0.49
   5   2  -4    1.54    0.54
  -5  -2   4    1.15    0.35
  -5  -2   4    1.49    0.40
  -5  -2   4    1.41    0.39
  -5  -2   4    1.07    0.34
   4   2  -4    5.01    0.61
   4   2  -4    4.42    0.57
   4   2  -4    4.88    0.56
   4   2  -4    4.06    0.70
   4   2  -4    4.41    0.82
  -4  -2   4    3.11    0.49
  -4  -2   4    3.52    0.52
  -4  -2   4    3.22    0.48
  -4  -2   4    3.24    0.46
   3   2  -4  144.48    4.68
   3   2  -4  144.88    4.39
   3   2  -4  143.21    4.40
   3   2  -4  145.81    4.54
  -3  -2   4  142.58    4.43
  -3  -2   4  147.06    4.53
  -3  -2   4  139.79    4.42
   2   2  -4   69.44    2.24
   2   2  -4   67.81    2.29
   2   2  -4   70.41    2.35
   2   2  -4   70.00    2.27
  -2  -2   4   67.40    2.27
  -2  -2   4   66.88    2.26
  -2  -2   4   69.06    2.34
   1   2  -4   11.57    0.64
   1   2  -4   11.83    0.57
   1   2  -4   11.87    0.62
   1   2  -4   12.36    0.59
  -1  -2   4   12.67    0.65
  -1  -2   4   10.84    0.77
  -1  -2   4   12.28    0.62
  -1  -2   4   12.06    0.62
   0   2  -4  112.34    3.21
   0   2  -4  109.28    3.32
   0   2  -4  108.83    3.31
   0   2  -4  106.84    3.26
   0   2  -4  106.21    3.57
   0   2  -4  112.61    3.25
   0  -2   4  112.41    3.60
   0  -2   4  108.18    3.92
   0  -2   4  108.18    3.30
  -1   2  -4  670.16   18.64
  -1   2  -4  699.29   18.61
  -1   2  -4  677.11   18.68
  -1   2  -4  668.88   19.09
   1  -2   4  667.28   19.52
   1  -2   4  642.24   19.07
   2  -2   4   41.82    2.01
   2  -2   4   44.20    1.82
   2  -2   4   42.06    2.10
   3  -2   4   10.96    1.37
   3  -2   4    9.81    1.07
   3  -2   4   10.62    1.39
   4  -2   4  103.72    4.26
   4  -2   4   96.02    4.11
   5  -2   4   78.81    3.84
   5  -2   4   78.70    3.76
   6  -2   4    0.36    0.68
   6  -2   4   -0.33    0.52
   7  -2   4    1.45    0.91
   7  -2   4    1.93    1.02
  -8   2  -4    3.67    0.48
  -8   2  -4    3.79    0.45
  -8   2  -4    4.91    0.55
   8  -2   4    4.08    1.45
  -9   2  -4    1.18    0.37
  -9   2  -4    1.37    0.41
   9  -2   4    0.71    1.06
 -10   2  -4    0.88    0.40
  10  -2   4    2.12    1.58
  12   1  -4   -0.47    0.97
 -12  -1   4    0.59    0.65
  11   1  -4   66.55    3.73
  11   1  -4   58.18    3.94
 -11  -1   4   69.82    2.98
 -11  -1   4   61.64    2.89
  10   1  -4    9.66    1.80
  10   1  -4   12.03    1.82
 -10  -1   4   10.67    1.29
 -10  -1   4   10.75    1.22
   9   1  -4   22.23    1.85
   9   1  -4   18.63    2.30
  -9  -1   4   21.87    1.38
  -9  -1   4   21.58    1.38
  -9  -1   4   25.39    1.46
   8   1  -4    2.36    0.60
   8   1  -4    0.98    0.77
   8   1  -4    0.66    0.62
  -8  -1   4    0.29    0.32
  -8  -1   4    1.10    0.48
  -8  -1   4    0.93    0.46
   7   1  -4   22.56    1.66
   7   1  -4   22.46    1.21
   7   1  -4   22.82    1.69
  -7  -1   4   23.00    1.22
  -7  -1   4   22.98    1.25
  -7  -1   4   21.87    1.22
   6   1  -4    4.73    0.66
   6   1  -4    5.74    1.02
   6   1  -4    6.67    1.13
   6   1  -4    6.05    0.71
  -6  -1   4    5.62    0.70
  -6  -1   4    4.70    0.63
  -6  -1   4    4.61    0.60
   5   1  -4    5.33    0.93
   5   1  -4    4.30    0.82
   5   1  -4    5.86    0.65
   5   1  -4    5.01    0.61
  -5  -1   4    4.45    0.57
  -5  -1   4    4.49    0.56
  -5  -1   4    4.77    0.59
   4   1  -4    0.54    0.35
   4   1  -4    0.54    0.23
   4   1  -4    0.30    0.20
   4   1  -4    0.96    0.29
  -4  -1   4    0.74    0.25
  -4  -1   4    0.55    0.26
  -4  -1   4    0.60    0.24
   3   1  -4    1.43    0.29
   3   1  -4    0.78    0.23
   3   1  -4    0.53    0.21
   3   1  -4    0.73    0.38
  -3  -1   4    0.99    0.26
  -3  -1   4    0.94    0.27
   2   1  -4   10.34    0.54
   2   1  -4   10.23    0.60
   2   1  -4   10.21    0.55
   2   1  -4   10.24    0.54
  -2  -1   4    8.81    0.52
  -2  -1   4   10.05    0.55
   1   1  -4   23.87    0.90
   1   1  -4   24.03    0.95
   1   1  -4   24.27    0.89
   1   1  -4   23.57    0.89
   1   1  -4   23.42    0.88
  -1  -1   4   22.84    1.04
  -1  -1   4   23.96    0.89
  -1  -1   4   23.26    0.89
   0   1  -4   57.39    1.73
   0   1  -4   56.83    1.72
   0   1  -4   56.03    1.78
   0   1  -4   55.42    2.00
   0   1  -4   53.54    1.69
   0   1  -4   56.78    1.73
   0  -1   4   55.60    2.38
   0  -1   4   54.26    1.69
   0  -1   4   54.18    1.98
  -1   1  -4   73.48    2.15
  -1   1  -4   73.93    2.57
   1  -1   4   74.07    2.99
   1  -1   4   74.87    2.92
   1  -1   4   71.83    2.57
   2  -1   4    3.63    0.81
   2  -1   4    4.23    0.87
   2  -1   4    3.13    0.53
   3  -1   4    2.11    0.71
   3  -1   4    1.43    0.62
   4  -1   4  146.21    5.74
   4  -1   4  158.05    5.88
   5  -1   4    5.73    1.30
   5  -1   4    3.80    1.10
  -6   1  -4   84.33    2.54
   6  -1   4   75.26    4.06
   6  -1   4   76.35    4.18
  -7   1  -4    0.68    0.23
  -7   1  -4    0.95    0.34
  -7   1  -4    0.56    0.32
   7  -1   4   -0.38    0.67
   7  -1   4    0.62    0.77
  -8   1  -4   17.77    1.02
  -8   1  -4   17.28    0.91
  -8   1  -4   20.19    1.04
   8  -1   4   22.69    3.09
  -9   1  -4    6.15    0.69
   9  -1   4    7.79    2.08
 -10   1  -4    9.19    0.95
  10  -1   4    9.29    2.46
  12   0  -4   -0.44    0.87
 -12   0   4    0.39    0.60
 -12   0   4    0.01    0.58
  11   0  -4    2.15    1.13
  11   0  -4    2.14    1.20
 -11   0   4    2.43    0.71
 -11   0   4    2.66    0.72
  10   0  -4   17.61    2.38
  10   0  -4   14.94    2.05
 -10   0   4   17.51    1.26
 -10   0   4   17.78    1.27
 -10   0   4   15.65    1.22
   9   0  -4   60.71    3.25
   9   0  -4   58.68    3.35
  -9   0   4   58.50    2.46
  -9   0   4   58.98    2.46
  -9   0   4   58.15    2.46
   8   0  -4    2.80    0.57
   8   0  -4    3.54    1.02
   8   0  -4    2.77    0.93
  -8   0   4    4.26    0.63
  -8   0   4    2.08    0.52
  -8   0   4    2.67    0.58
   7   0  -4    1.14    0.39
   7   0  -4    1.05    0.65
   7   0  -4    1.14    0.69
  -7   0   4    0.61    0.34
  -7   0   4    0.62    0.33
  -7   0   4    1.21    0.41
   6   0  -4  348.65   11.23
   6   0  -4  354.15   10.34
   6   0  -4  364.96   11.16
   6   0  -4  365.37   10.50
  -6   0   4  352.52   10.37
  -6   0   4  349.37   10.32
  -6   0   4  348.44   10.36
  -6   0   4  355.38   10.35
   5   0  -4  179.46    6.17
   5   0  -4  185.81    6.42
   5   0  -4  181.87    5.51
   5   0  -4  185.09    5.65
  -5   0   4  184.53    5.56
  -5   0   4  183.77    5.53
  -5   0   4  177.27    5.54
   4   0  -4    2.30    0.39
   4   0  -4    2.69    0.41
   4   0  -4    1.63    0.50
   4   0  -4    2.18    0.35
  -4   0   4    1.85    0.34
  -4   0   4    2.22    0.38
  -4   0   4    2.07    0.38
   3   0  -4   74.83    2.45
   3   0  -4   72.71    2.34
   3   0  -4   74.00    2.34
  -3   0   4   70.64    2.35
  -3   0   4   69.80    2.35
   2   0  -4  166.29    4.83
   2   0  -4  164.18    4.80
   2   0  -4  161.75    4.82
   2   0  -4  166.00    4.83
  -2   0   4  162.16    4.86
  -2   0   4  163.38    4.81
  -2   0   4  164.00    4.82
   1   0  -4   32.98    1.14
   1   0  -4   33.67    1.18
   1   0  -4   34.76    1.30
   1   0  -4   33.26    1.19
  -1   0   4   32.82    1.25
  -1   0   4   33.76    1.14
  -1   0   4   32.85    1.14
   0   0  -4   10.36    0.43
   0   0  -4   10.28    0.52
   0   0  -4   10.68    0.65
   0   0  -4   10.57    0.50
   0   0  -4   10.41    0.50
   0   0   4   10.27    0.88
   0   0   4   10.41    0.42
   0   0   4   11.17    0.65
  -1   0  -4   12.59    0.58
  -1   0  -4   14.36    0.60
  -1   0  -4   14.47    0.83
   1   0   4   13.83    1.10
   1   0   4   14.03    1.10
   1   0   4   14.23    0.82
  -2   0  -4    2.07    0.31
  -2   0  -4    2.41    0.31
   2   0   4    1.37    0.57
   2   0   4    1.32    0.58
  -3   0  -4    2.96    0.38
  -3   0  -4    3.58    0.41
   3   0   4    2.77    0.79
   3   0   4    3.24    0.87
  -4   0  -4    5.92    0.55
  -4   0  -4    4.98    0.36
  -4   0  -4    4.73    0.39
   4   0   4    7.33    1.43
   4   0   4    4.51    1.09
  -5   0  -4   29.09    1.18
  -5   0  -4   29.75    1.19
  -5   0  -4   28.68    1.10
   5   0   4   28.15    2.22
   5   0   4   30.29    2.24
  -6   0  -4   43.16    1.65
  -6   0  -4   40.57    1.46
  -6   0  -4   40.51    1.63
   6   0   4   44.31    3.04
   6   0   4   46.41    3.00
  -7   0  -4    0.52    0.25
  -7   0  -4   -0.08    0.34
  -7   0  -4    0.53    0.36
   7   0   4    1.17    0.89
   7   0   4    0.54    0.81
  -8   0  -4    3.03    0.53
  -8   0  -4    4.07    0.72
  -8   0  -4    3.55    0.67
   8   0   4    2.73    1.30
  -9   0  -4   73.25    2.74
  -9   0  -4   71.66    2.88
   9   0   4   75.97    4.93
  12  -1  -4    0.01    1.01
 -12   1   4   -0.12    0.54
 -12   1   4    0.51    0.61
  11  -1  -4    0.29    0.81
  11  -1  -4   -0.45    0.90
 -11   1   4    0.62    0.54
 -11   1   4   -0.13    0.52
 -11   1   4   -0.04    0.60
  10  -1  -4    0.21    0.76
  10  -1  -4    0.55    0.90
 -10   1   4    0.87    0.48
 -10   1   4   -0.05    0.44
 -10   1   4    0.12    0.41
   9  -1  -4    0.76    0.77
   9  -1  -4    2.03    1.03
  -9   1   4    1.53    0.51
  -9   1   4    1.15    0.48
  -9   1   4    1.45    0.54
   8  -1  -4    0.35    0.60
   8  -1  -4    1.08    0.40
   8  -1  -4    0.96    0.77
  -8   1   4   -0.05    0.30
  -8   1   4    0.39    0.36
  -8   1   4    0.61    0.35
   7  -1  -4   22.10    1.11
   7  -1  -4   21.68    1.67
   7  -1  -4   23.28    1.84
  -7   1   4   21.01    1.15
  -7   1   4   21.45    1.16
  -7   1   4   21.18    1.12
   6  -1  -4  116.85    3.86
   6  -1  -4  113.09    4.45
   6  -1  -4  117.63    3.72
   6  -1  -4  120.72    4.78
  -6   1   4  118.45    3.73
  -6   1   4  115.27    3.77
  -6   1   4  114.86    3.77
  -6   1   4  111.46    3.72
   5  -1  -4    5.92    0.62
   5  -1  -4    4.70    0.56
   5  -1  -4    7.27    1.07
  -5   1   4    5.84    0.62
  -5   1   4    7.69    0.72
  -5   1   4    5.75    0.59
   4  -1  -4   15.63    0.78
   4  -1  -4   14.32    0.75
  -4   1   4   16.35    0.81
  -4   1   4   15.26    0.79
  -4   1   4   17.78    0.82
   3  -1  -4  218.60    6.45
   3  -1  -4  215.29    6.43
  -3   1   4  226.68    6.30
  -3   1   4  219.81    6.44
   2  -1  -4  229.04    6.58
   2  -1  -4  225.52    6.51
   2  -1  -4  226.40    6.51
  -2   1   4  226.66    6.45
  -2   1   4  219.87    6.51
   1  -1  -4   93.03    3.04
   1  -1  -4   97.01    3.06
   1  -1  -4   98.07    2.96
   1  -1  -4  101.93    3.09
   1  -1  -4   99.72    3.07
  -1   1   4   98.25    2.96
  -1   1   4   97.51    3.03
  -1   1   4  100.11    3.62
   0  -1  -4   40.82    1.34
   0  -1  -4   41.73    1.48
   0  -1  -4   42.27    1.58
   0  -1  -4   40.91    1.49
   0  -1  -4   39.09    1.46
   0   1   4   41.11    1.57
   0   1   4   44.30    1.99
  -1  -1  -4   72.54    2.38
  -1  -1  -4   73.46    2.37
  -1  -1  -4   74.84    2.18
  -1  -1  -4   73.88    2.28
   1   1   4   73.06    3.00
   1   1   4   68.89    3.06
  -2  -1  -4    1.57    0.35
  -2  -1  -4    0.03    0.22
  -2  -1  -4    0.30    0.12
  -2  -1  -4    0.36    0.13
   2   1   4    0.49    0.47
   2   1   4    0.04    0.38
  -3  -1  -4   25.02    1.14
  -3  -1  -4   26.14    0.94
  -3  -1  -4   24.95    1.13
  -3  -1  -4   26.57    0.92
   3   1   4   24.70    1.77
   3   1   4   27.06    1.87
  -4  -1  -4    0.26    0.28
  -4  -1  -4    0.59    0.30
  -4  -1  -4    0.32    0.21
  -4  -1  -4    0.79    0.20
  -4  -1  -4    0.71    0.25
   4   1   4    0.55    0.58
   4   1   4    0.53    0.60
  -5  -1  -4    0.63    0.25
  -5  -1  -4    1.06    0.39
  -5  -1  -4    0.97    0.30
  -5  -1  -4    0.57    0.35
  -5  -1  -4    0.48    0.30
   5   1   4    0.63    0.63
   5   1   4    1.20    0.81
  -6  -1  -4    0.23    0.38
  -6  -1  -4    0.14    0.22
  -6  -1  -4   -0.09    0.32
  -6  -1  -4    0.50    0.26
  -6  -1  -4   -0.04    0.36
   6   1   4   -0.26    0.45
   6   1   4    0.26    0.61
  -7  -1  -4    2.01    0.59
  -7  -1  -4    2.76    0.64
  -7  -1  -4    1.95    0.45
   7   1   4    1.83    1.06
   7   1   4    2.74    1.34
  -8  -1  -4    6.99    0.85
  -8  -1  -4    8.02    1.08
   8   1   4    7.81    2.00
  -9  -1  -4    9.21    1.25
  -9  -1  -4    7.34    1.00
   9   1   4    7.58    2.10
  13  -2  -4   16.43    2.86
  12  -2  -4   42.04    3.60
 -12   2   4   45.47    2.33
 -12   2   4   49.50    2.39
  11  -2  -4    1.05    0.91
  11  -2  -4    2.10    1.27
 -11   2   4    1.37    0.60
 -11   2   4    2.82    0.74
 -11   2   4    0.83    0.53
  10  -2  -4    6.41    1.58
  10  -2  -4    4.78    1.46
 -10   2   4    5.04    0.83
 -10   2   4    5.13    0.81
 -10   2   4    4.87    0.81
   9  -2  -4   43.01    2.91
   9  -2  -4   39.69    2.72
  -9   2   4   37.86    1.84
  -9   2   4   38.25    1.80
  -9   2   4   38.87    1.85
   8  -2  -4   19.61    1.74
   8  -2  -4   17.67    1.02
   8  -2  -4   16.55    2.11
  -8   2   4   16.45    1.07
  -8   2   4   20.36    1.15
  -8   2   4   18.18    1.11
   7  -2  -4   10.61    1.47
   7  -2  -4    9.23    1.56
   7  -2  -4   10.57    0.74
  -7   2   4    9.36    0.75
  -7   2   4   10.54    0.79
  -7   2   4    9.69    0.77
   6  -2  -4    9.30    1.32
   6  -2  -4   10.90    1.66
   6  -2  -4    8.00    0.72
   6  -2  -4    9.49    0.64
  -6   2   4    7.78    0.66
  -6   2   4    8.47    0.66
  -6   2   4    9.22    0.66
   5  -2  -4    2.16    0.67
   5  -2  -4    2.64    0.43
  -5   2   4    1.83    0.38
  -5   2   4    2.30    0.43
   4  -2  -4    3.32    0.43
   4  -2  -4    3.41    0.47
  -4   2   4    2.05    0.38
  -4   2   4    2.93    0.43
  -4   2   4    2.40    0.18
   3  -2  -4    0.26    0.20
  -3   2   4    0.20    0.09
  -3   2   4   -0.19    0.17
   2  -2  -4   20.33    0.97
   2  -2  -4   21.43    0.96
   2  -2  -4   19.58    0.88
   2  -2  -4   19.96    0.79
   2  -2  -4   19.35    0.95
  -2   2   4   20.44    0.90
   1  -2  -4  254.06    7.28
   1  -2  -4  250.04    7.36
   1  -2  -4  255.01    7.38
   1  -2  -4  249.46    7.38
   1  -2  -4  246.05    7.22
  -1   2   4  248.14    7.79
  -1   2   4  250.10    7.24
   0  -2  -4   13.79    0.78
   0  -2  -4   12.32    0.64
   0  -2  -4   13.27    0.82
   0  -2  -4   14.19    0.78
   0  -2  -4   15.89    0.82
   0   2   4   16.23    1.12
   0   2   4   13.54    0.67
  -1  -2  -4   10.22    0.90
  -1  -2  -4    6.73    0.56
  -1  -2  -4    6.98    0.47
  -1  -2  -4    8.36    0.80
   1   2   4    8.05    1.22
   1   2   4    9.49    1.20
  -2  -2  -4  194.61    6.07
  -2  -2  -4  202.41    5.95
  -2  -2  -4  202.90    5.89
  -2  -2  -4  199.14    6.11
   2   2   4  203.16    7.05
   2   2   4  200.07    6.86
  -3  -2  -4  287.26    8.50
  -3  -2  -4  282.05    8.46
  -3  -2  -4  291.74    8.30
  -3  -2  -4  283.78    8.27
   3   2   4  273.55    9.45
   3   2   4  287.28    9.60
  -4  -2  -4    1.15    0.46
  -4  -2  -4    0.75    0.31
  -4  -2  -4    0.49    0.41
  -4  -2  -4    1.41    0.41
   4   2   4    1.44    0.82
   4   2   4    1.13    0.73
  -5  -2  -4    1.71    0.55
  -5  -2  -4    2.34    0.60
  -5  -2  -4    0.86    0.35
  -5  -2  -4    1.16    0.44
  -5  -2  -4    1.51    0.41
   5   2   4    1.33    0.81
  -6  -2  -4   59.95    2.56
  -6  -2  -4   59.59    2.41
  -6  -2  -4   65.39    2.41
  -6  -2  -4   62.63    2.56
  -6  -2  -4   64.62    2.61
   6   2   4   66.79    3.91
   6   2   4   60.29    3.72
  -7  -2  -4   16.11    1.11
  -7  -2  -4   15.68    1.25
   7   2   4   17.46    2.68
  -8  -2  -4    0.42    0.55
  -8  -2  -4   -0.13    0.40
   8   2   4    0.45    0.92
  -9  -2  -4    1.68    0.67
  -9  -2  -4    2.02    0.84
   9   2   4    0.96    1.22
  13  -3  -4   17.02    3.03
 -13   3   4   27.92    1.79
  12  -3  -4   11.65    2.33
 -12   3   4    9.47    1.16
 -12   3   4   10.67    1.21
  11  -3  -4    7.75    1.96
  11  -3  -4    6.05    1.80
 -11   3   4    5.52    0.89
 -11   3   4    6.07    0.95
 -11   3   4    6.50    1.01
  10  -3  -4   16.05    2.50
  10  -3  -4   16.51    2.43
 -10   3   4   17.63    1.24
 -10   3   4   16.60    1.23
 -10   3   4   16.58    1.22
   9  -3  -4  146.95    6.46
   9  -3  -4  152.05    6.25
  -9   3   4  143.41    4.89
  -9   3   4  143.51    4.89
  -9   3   4  145.62    4.93
   8  -3  -4    0.19    0.34
   8  -3  -4    0.42    0.71
   8  -3  -4    0.54    0.65
  -8   3   4    0.43    0.36
  -8   3   4    0.39    0.37
  -8   3   4    0.68    0.38
   7  -3  -4   23.05    1.98
   7  -3  -4   22.37    1.14
   7  -3  -4   22.39    1.80
  -7   3   4   21.84    0.93
  -7   3   4   24.20    1.24
  -7   3   4   22.39    1.21
   6  -3  -4   15.20    1.40
   6  -3  -4   13.64    1.91
   6  -3  -4   16.07    0.90
  -6   3   4   13.91    0.90
  -6   3   4   14.63    0.91
  -6   3   4   16.40    0.62
   5  -3  -4    8.55    0.80
   5  -3  -4    9.67    1.36
  -5   3   4    8.39    0.66
  -5   3   4    8.50    0.81
   4  -3  -4    9.55    0.67
   4  -3  -4   11.52    0.73
  -4   3   4   10.30    0.70
  -4   3   4   10.70    0.70
   3  -3  -4    3.14    0.53
   3  -3  -4    2.88    0.48
   3  -3  -4    3.00    0.49
  -3   3   4    2.76    0.47
   2  -3  -4    3.49    0.52
   2  -3  -4    2.97    0.50
   2  -3  -4    3.09    0.34
   2  -3  -4    2.88    0.49
  -2   3   4    3.88    0.52
  -2   3   4    3.50    0.67
   1  -3  -4    0.65    0.31
   1  -3  -4    0.37    0.21
   1  -3  -4    0.52    0.25
   1  -3  -4    0.50    0.34
   1  -3  -4    0.42    0.29
  -1   3   4    0.91    0.31
  -1   3   4    0.47    0.38
   0  -3  -4    5.47    0.58
   0  -3  -4    4.52    0.67
   0  -3  -4    5.05    0.68
   0  -3  -4    4.95    0.67
   0  -3  -4    4.22    0.59
   0   3   4    6.08    0.63
   0   3   4    6.60    0.95
  -1  -3  -4   13.19    0.91
  -1  -3  -4   14.50    0.93
  -1  -3  -4   15.27    0.82
  -1  -3  -4   14.66    0.95
   1   3   4   13.03    0.73
   1   3   4   13.65    1.15
   1   3   4   12.99    1.24
  -2  -3  -4   49.51    2.04
  -2  -3  -4   50.35    1.89
  -2  -3  -4   46.02    1.93
  -2  -3  -4   47.94    2.00
   2   3   4   48.78    2.65
   2   3   4   46.91    2.48
  -3  -3  -4   17.00    1.09
  -3  -3  -4   16.42    1.00
  -3  -3  -4   16.03    1.08
  -3  -3  -4   16.98    1.02
   3   3   4   17.41    1.61
   3   3   4   15.06    1.46
  -4  -3  -4   13.02    1.29
  -4  -3  -4   13.98    1.36
  -4  -3  -4   10.97    1.05
  -4  -3  -4   11.54    0.91
   4   3   4   16.41    2.14
   4   3   4   14.21    2.02
  -5  -3  -4   14.43    1.44
  -5  -3  -4   14.48    1.42
  -5  -3  -4   12.15    1.02
  -5  -3  -4   12.38    0.96
   5   3   4   12.78    2.09
   5   3   4   15.92    2.30
  -6  -3  -4   63.80    2.62
  -6  -3  -4   63.05    2.74
  -6  -3  -4   64.55    2.74
   6   3   4   62.46    3.89
   6   3   4   63.78    3.86
  -7  -3  -4    3.45    0.77
  -7  -3  -4    2.41    0.85
  -7  -3  -4    3.42    0.90
   7   3   4    2.76    1.36
  -8  -3  -4   21.36    1.66
  -8  -3  -4   24.56    1.65
   8   3   4   24.83    3.27
  13  -4  -4   -0.03    1.50
 -13   4   4    1.09    0.70
  12  -4  -4    2.20    1.53
 -12   4   4    1.66    0.63
 -12   4   4    1.81    0.69
  11  -4  -4    2.58    1.30
  11  -4  -4    4.13    1.64
 -11   4   4    3.23    0.75
 -11   4   4    2.63    0.73
 -11   4   4    4.09    0.85
  10  -4  -4    1.37    1.03
  10  -4  -4   -0.30    0.93
 -10   4   4    1.98    0.58
 -10   4   4    1.44    0.62
 -10   4   4    1.46    0.63
   9  -4  -4    0.43    0.80
   9  -4  -4    2.37    1.15
  -9   4   4    1.26    0.49
  -9   4   4    0.68    0.48
  -9   4   4    1.95    0.55
   8  -4  -4   85.45    3.02
   8  -4  -4   82.29    4.44
   8  -4  -4   86.40    4.22
  -8   4   4   83.88    3.15
  -8   4   4   86.06    3.14
   7  -4  -4   39.01    2.79
   7  -4  -4   50.96    2.85
   7  -4  -4   47.68    1.90
  -7   4   4   45.39    1.95
  -7   4   4   48.20    1.99
   6  -4  -4   27.98    2.00
   6  -4  -4   25.94    1.31
   6  -4  -4   23.56    2.03
  -6   4   4   29.52    1.40
  -6   4   4   29.81    1.39
   5  -4  -4   32.54    1.50
  -5   4   4   34.85    1.54
  -5   4   4   34.92    1.50
   4  -4  -4  445.65   13.23
   4  -4  -4  446.96   13.23
  -4   4   4  464.40   13.17
  -4   4   4  468.52   13.25
   3  -4  -4   65.22    2.50
   3  -4  -4   67.27    2.02
   3  -4  -4   66.85    2.54
   3  -4  -4   66.34    2.52
  -3   4   4   67.84    2.45
   2  -4  -4    1.06    0.45
   2  -4  -4    0.47    0.31
   2  -4  -4    0.27    0.30
   2  -4  -4    0.23    0.17
  -2   4   4    0.81    0.34
  -2   4   4   -0.03    0.30
   1  -4  -4   96.22    3.23
   1  -4  -4   92.90    3.39
   1  -4  -4   89.95    3.34
   1  -4  -4   94.90    3.42
  -1   4   4   92.23    3.20
  -1   4   4  103.69    3.58
   0  -4  -4   67.12    2.63
   0  -4  -4   62.32    2.55
   0  -4  -4   67.25    2.61
   0  -4  -4   68.27    2.45
   0   4   4   63.82    2.37
   0   4   4   63.97    2.74
  -1  -4  -4    9.62    1.09
  -1  -4  -4   12.91    1.27
  -1  -4  -4   10.20    1.16
  -1  -4  -4    7.86    0.84
   1   4   4    8.82    0.70
   1   4   4   10.40    1.28
   1   4   4   11.02    1.51
  -2  -4  -4    9.63    1.16
  -2  -4  -4    9.60    1.07
  -2  -4  -4    7.85    1.02
  -2  -4  -4    9.88    1.01
   2   4   4    9.04    1.50
   2   4   4    7.50    1.24
  -3  -4  -4    5.53    0.85
  -3  -4  -4    5.07    0.87
  -3  -4  -4    4.40    0.82
   3   4   4    4.16    1.11
   3   4   4    5.63    1.30
  -4  -4  -4    1.70    0.65
  -4  -4  -4    1.98    0.61
  -4  -4  -4    1.03    0.54
   4   4   4    1.38    0.81
   4   4   4    2.48    1.00
  -5  -4  -4   -0.06    0.54
  -5  -4  -4    1.33    0.57
  -5  -4  -4   -0.01    0.52
  -5  -4  -4    0.43    0.47
   5   4   4    0.44    0.73
   5   4   4    0.62    0.82
  -6  -4  -4    3.05    0.92
  -6  -4  -4    2.67    0.76
  -6  -4  -4    2.60    0.83
   6   4   4    2.31    1.19
  -7  -4  -4   20.99    1.67
  -7  -4  -4   21.82    1.68
  -7  -4  -4   23.15    1.71
   7   4   4   27.00    3.34
  -8  -4  -4   10.29    1.48
   8   4   4    8.73    2.23
  13  -5  -4    0.68    1.51
 -13   5   4    0.34    0.62
  12  -5  -4    3.15    1.62
 -12   5   4    1.88    0.71
 -12   5   4    2.09    0.69
  11  -5  -4    0.54    0.98
  11  -5  -4    0.28    1.39
 -11   5   4    0.44    0.60
 -11   5   4    0.45    0.52
 -11   5   4   -0.09    0.51
  10  -5  -4    0.64    1.03
  10  -5  -4    0.20    0.99
 -10   5   4   -0.10    0.43
 -10   5   4    0.16    0.45
   9  -5  -4    0.86    0.88
   9  -5  -4   -0.07    0.80
  -9   5   4   -0.01    0.40
  -9   5   4   -0.37    0.37
   8  -5  -4    0.67    0.78
   8  -5  -4    1.04    0.45
   8  -5  -4    0.78    0.82
  -8   5   4    0.81    0.48
  -8   5   4    0.33    0.41
   7  -5  -4   -0.04    0.56
   7  -5  -4    0.12    0.36
   7  -5  -4    0.22    0.38
   7  -5  -4    0.35    0.72
  -7   5   4    0.65    0.42
  -7   5   4    0.57    0.39
   6  -5  -4   -0.27    0.29
   6  -5  -4    0.70    0.66
   6  -5  -4    0.79    0.61
  -6   5   4   -0.19    0.28
  -6   5   4    0.10    0.34
   5  -5  -4   60.35    2.41
   5  -5  -4   60.37    2.40
  -5   5   4   62.01    2.45
  -5   5   4   65.85    2.43
   4  -5  -4  102.30    3.68
   4  -5  -4  100.35    3.68
  -4   5   4  107.16    3.57
  -4   5   4  106.95    3.64
   3  -5  -4    6.84    0.90
   3  -5  -4    8.61    1.02
   3  -5  -4    7.42    0.85
  -3   5   4    9.28    0.82
  -3   5   4    8.26    0.90
   2  -5  -4    1.27    0.49
   2  -5  -4   -0.26    0.28
   2  -5  -4    0.93    0.42
  -2   5   4    0.46    0.35
  -2   5   4    0.78    0.41
   1  -5  -4  253.59    8.03
   1  -5  -4  261.10    8.04
   1  -5  -4  249.64    7.99
  -1   5   4  253.92    7.81
  -1   5   4  259.18    8.01
   0  -5  -4   38.57    1.92
   0  -5  -4   37.45    1.88
   0  -5  -4   34.08    1.83
   0   5   4   37.77    1.95
   0   5   4   37.43    1.72
  -1  -5  -4   57.47    2.57
  -1  -5  -4   60.35    2.61
  -1  -5  -4   59.45    2.60
   1   5   4   60.73    2.82
   1   5   4   59.59    3.04
   1   5   4   57.45    2.34
  -2  -5  -4    1.38    0.60
  -2  -5  -4    2.08    0.69
  -2  -5  -4    1.17    0.60
   2   5   4    0.41    0.51
   2   5   4    1.08    0.71
  -3  -5  -4   18.63    1.37
  -3  -5  -4   17.48    1.33
  -3  -5  -4   22.09    1.47
   3   5   4   19.72    1.86
   3   5   4   18.83    1.76
  -4  -5  -4    7.27    1.17
  -4  -5  -4    5.69    1.04
  -4  -5  -4    3.87    0.93
   4   5   4    3.43    1.17
   4   5   4    3.61    1.17
  -5  -5  -4    7.15    1.19
  -5  -5  -4    8.22    1.27
  -5  -5  -4    6.56    1.19
   5   5   4    7.20    1.70
  -6  -5  -4    0.08    0.64
  -6  -5  -4    0.49    0.61
  -6  -5  -4    0.54    0.66
   6   5   4    0.49    0.98
  -7  -5  -4    0.99    0.73
  -7  -5  -4    0.63    0.72
  -7  -5  -4   -0.51    0.65
   7   5   4   -0.21    0.92
  13  -6  -4    1.46    1.71
 -13   6   4    1.59    0.74
  12  -6  -4    0.47    1.25
 -12   6   4   -0.18    0.63
 -12   6   4    0.26    0.62
  11  -6  -4   48.39    3.92
  11  -6  -4   62.07    4.16
 -11   6   4   55.46    2.63
  10  -6  -4   44.89    3.34
  10  -6  -4   39.90    3.30
 -10   6   4   43.45    2.19
 -10   6   4   44.13    2.19
   9  -6  -4    1.83    1.02
   9  -6  -4    2.45    1.16
  -9   6   4    3.22    0.76
  -9   6   4    3.68    0.74
   8  -6  -4   25.42    2.21
   8  -6  -4   27.18    1.44
   8  -6  -4   18.15    2.40
  -8   6   4   27.91    1.54
  -8   6   4   24.76    1.48
   7  -6  -4   35.17    1.70
   7  -6  -4   32.62    2.44
   7  -6  -4   32.63    2.41
  -7   6   4   32.71    1.71
  -7   6   4   32.72    1.71
   6  -6  -4   15.72    1.91
   6  -6  -4   17.29    1.14
   6  -6  -4   12.66    1.79
  -6   6   4   14.37    1.10
  -6   6   4   18.22    1.19
   5  -6  -4   18.90    1.24
   5  -6  -4   18.13    1.23
  -5   6   4   18.79    1.20
  -5   6   4   18.97    1.23
   4  -6  -4   11.34    1.21
   4  -6  -4   12.96    1.05
  -4   6   4   11.95    0.94
  -4   6   4   11.63    0.95
   3  -6  -4    5.20    0.90
   3  -6  -4    4.12    1.18
   3  -6  -4    4.25    0.79
  -3   6   4    3.17    0.64
  -3   6   4    3.24    0.56
   2  -6  -4    0.36    0.41
   2  -6  -4    0.40    0.43
   2  -6  -4    0.42    0.44
  -2   6   4    0.31    0.39
  -2   6   4    0.22    0.42
   1  -6  -4    1.54    0.56
   1  -6  -4    2.40    0.67
   1  -6  -4    1.61    0.60
  -1   6   4    1.66    0.59
  -1   6   4    1.87    0.61
   0  -6  -4   43.32    2.16
   0  -6  -4   40.46    2.13
   0  -6  -4   43.01    2.18
   0   6   4   40.39    1.96
   0   6   4   40.42    2.12
  -1  -6  -4   80.64    3.45
  -1  -6  -4   89.77    3.53
  -1  -6  -4   83.96    3.49
   1   6   4   85.95    3.67
   1   6   4   84.43    3.24
  -2  -6  -4    0.87    0.63
  -2  -6  -4    0.71    0.63
  -2  -6  -4    1.69    0.66
   2   6   4    1.48    0.80
   2   6   4    2.79    0.99
  -3  -6  -4   -0.23    0.41
  -3  -6  -4    0.13    0.63
  -3  -6  -4    0.35    0.56
   3   6   4    0.07    0.59
   3   6   4    0.75    0.79
  -4  -6  -4  118.30    4.70
  -4  -6  -4  119.59    4.74
  -4  -6  -4  124.29    4.81
   4   6   4  131.66    5.65
   4   6   4  120.57    5.61
  -5  -6  -4   50.45    2.64
  -5  -6  -4   49.24    2.69
  -5  -6  -4   44.93    2.56
   5   6   4   49.41    3.42
  -6  -6  -4    0.49    0.79
  -6  -6  -4    0.82    0.81
   6   6   4    0.71    1.04
 -13   7   4    0.85    0.82
  12  -7  -4    2.82    1.39
 -12   7   4    2.90    0.88
 -12   7   4    1.52    0.71
  11  -7  -4   54.24    4.08
  11  -7  -4   54.45    3.91
 -11   7   4   57.77    2.73
  10  -7  -4    1.91    1.12
  10  -7  -4    4.19    1.67
 -10   7   4    2.66    0.87
   9  -7  -4    5.37    1.46
   9  -7  -4    5.08    1.57
  -9   7   4    8.89    1.14
   8  -7  -4   50.68    3.29
   8  -7  -4   63.25    2.65
   8  -7  -4   66.79    3.74
   8  -7  -4   70.06    2.71
  -8   7   4   63.58    2.77
   7  -7  -4   97.09    3.65
   7  -7  -4   85.24    4.32
   7  -7  -4  107.09    4.59
  -7   7   4   99.25    3.74
   6  -7  -4    4.79    1.08
   6  -7  -4    5.70    1.23
   6  -7  -4    4.13    0.85
   6  -7  -4    6.20    0.93
  -6   7   4    5.98    0.93
   5  -7  -4    6.62    1.00
   5  -7  -4    4.98    0.91
  -5   7   4    5.87    0.92
   4  -7  -4   10.16    1.27
   4  -7  -4   11.93    1.37
  -4   7   4   14.76    1.43
   3  -7  -4    0.72    0.58
   3  -7  -4    0.08    0.43
  -3   7   4    0.59    0.56
  -3   7   4    0.82    0.54
   2  -7  -4    1.05    0.57
   2  -7  -4    2.72    0.74
  -2   7   4    2.40    0.62
  -2   7   4    2.88    0.74
   1  -7  -4    0.31    0.51
   1  -7  -4   -0.30    0.40
  -1   7   4    0.28    0.42
  -1   7   4    0.47    0.50
   0  -7  -4    1.62    0.65
   0  -7  -4    2.06    0.76
   0   7   4    3.12    0.75
   0   7   4    3.37    0.81
  -1  -7  -4    0.06    0.56
  -1  -7  -4    0.90    0.67
   1   7   4    0.69    0.58
   1   7   4    0.70    0.63
  -2  -7  -4   -0.05    0.53
  -2  -7  -4    1.07    0.73
   2   7   4    0.23    0.57
  -3  -7  -4    9.41    1.44
  -3  -7  -4   13.24    1.72
   3   7   4   12.22    2.01
   3   7   4    9.73    1.67
  -4  -7  -4   23.59    1.85
  -4  -7  -4   21.76    1.80
   4   7   4   23.09    2.86
  -5  -7  -4   -0.61    0.73
  -5  -7  -4    0.48    0.89
   5   7   4   -0.01    0.89
  -6  -7  -4    2.51    1.08
   6   7   4    3.72    1.57
 -12   8   4    2.57    0.87
 -11   8   4    1.63    0.76
  10  -8  -4    6.21    1.79
 -10   8   4    5.00    1.03
   9  -8  -4    0.72    0.98
   9  -8  -4    1.16    0.96
  -9   8   4    2.40    0.79
   8  -8  -4    9.68    1.63
   8  -8  -4   10.70    1.40
   8  -8  -4    8.92    1.45
  -8   8   4   12.94    1.41
   7  -8  -4    1.41    0.59
   7  -8  -4    1.27    0.78
   7  -8  -4    1.33    0.93
  -7   8   4    1.15    0.64
   6  -8  -4  108.44    4.56
   6  -8  -4  105.86    4.56
   6  -8  -4  110.32    4.24
   6  -8  -4  111.64    4.23
  -6   8   4  109.45    4.19
   5  -8  -4    3.25    0.89
   5  -8  -4    4.33    0.92
   5  -8  -4    3.72    0.90
  -5   8   4    4.39    0.88
   4  -8  -4   16.56    1.71
   4  -8  -4   21.55    1.65
  -4   8   4   18.20    1.43
   3  -8  -4   73.18    3.24
   3  -8  -4   68.14    3.20
  -3   8   4   62.28    2.94
   2  -8  -4  170.39    6.13
   2  -8  -4  168.71    6.09
  -2   8   4  160.43    5.80
   1  -8  -4    8.93    1.40
   1  -8  -4   10.32    1.48
  -1   8   4    8.78    1.28
   0  -8  -4    4.21    1.00
   0  -8  -4    5.81    1.17
   0   8   4    5.49    1.06
  -1  -8  -4   39.24    2.36
  -1  -8  -4   38.08    2.33
  -2  -8  -4   15.88    1.85
  -2  -8  -4   16.62    1.89
  -3  -8  -4    2.48    0.96
  -3  -8  -4    2.84    1.03
  -4  -8  -4    4.56    1.21
  -4  -8  -4    6.10    1.32
  -5  -8  -4    0.18    0.82
 -12   9   4    0.79    0.81
 -11   9   4    2.90    0.93
  10  -9  -4   -0.09    1.08
 -10   9   4    0.36    0.67
   9  -9  -4   -0.37    0.88
  -9   9   4    0.29    0.70
   8  -9  -4   -0.33    0.80
  -8   9   4    0.14    0.58
   7  -9  -4    0.75    0.74
   7  -9  -4    1.22    0.72
  -7   9   4    0.33    0.61
   6  -9  -4    0.46    0.74
   6  -9  -4    0.49    0.74
  -6   9   4    0.21    0.61
   5  -9  -4    0.82    0.61
   5  -9  -4    1.37    0.73
  -5   9   4    2.39    0.81
   4  -9  -4    1.28    0.74
   4  -9  -4    0.79    0.70
  -4   9   4    0.21    0.62
   3  -9  -4   65.31    3.22
   3  -9  -4   61.34    3.18
  -3   9   4   67.41    3.09
   2  -9  -4   24.74    1.89
   2  -9  -4   22.59    1.84
  -2   9   4   20.98    1.65
   1  -9  -4    8.26    1.33
   1  -9  -4   12.39    1.64
  -1   9   4   15.30    1.67
   0  -9  -4    9.27    1.48
   0  -9  -4    7.90    1.38
   0   9   4    7.82    1.26
  -1  -9  -4   85.63    3.99
  -1  -9  -4   86.46    3.96
  -2  -9  -4   -0.04    0.78
  -2  -9  -4    0.11    0.66
  -3  -9  -4    7.84    1.41
  -3  -9  -4   10.11    1.59
  -4  -9  -4    1.32    0.91
 -11  10   4    7.19    1.35
 -10  10   4    1.33    0.86
  -9  10   4   59.94    3.08
  -8  10   4   12.69    1.60
   7 -10  -4    8.34    1.41
  -7  10   4    6.87    1.28
   6 -10  -4   32.20    2.23
  -6  10   4   30.66    2.05
   5 -10  -4   12.29    1.73
  -5  10   4   13.94    1.70
   4 -10  -4    5.74    1.28
   4 -10  -4    7.55    1.38
  -4  10   4    9.53    1.46
   3 -10  -4    6.43    1.37
   3 -10  -4    9.58    1.56
  -3  10   4   11.39    1.58
   2 -10  -4    7.25    1.39
   2 -10  -4    6.35    1.27
  -2  10   4    6.65    1.28
   1 -10  -4    2.81    0.97
   1 -10  -4    1.43    0.75
  -1  10   4    3.73    1.03
   0 -10  -4    2.43    1.02
   0 -10  -4    0.44    0.86
   0  10   4    1.62    1.15
  -1 -10  -4   -0.23    0.74
  -1 -10  -4   -0.39    0.83
  -2 -10  -4   31.11    2.37
  -2 -10  -4   27.77    2.75
  -3 -10  -4    8.11    1.54
 -11  11   4    3.06    1.12
 -10  11   4   12.77    1.83
  -9  11   4   34.11    2.36
  -8  11   4    0.80    0.85
   7 -11  -4    0.20    0.76
  -7  11   4    1.74    0.93
   6 -11  -4   63.60    3.41
  -6  11   4   61.13    3.19
   5 -11  -4   18.94    2.32
  -5  11   4   20.68    2.13
   4 -11  -4    2.55    1.09
  -4  11   4    3.54    1.03
   3 -11  -4    0.84    0.82
   3 -11  -4    0.07    0.87
  -3  11   4    0.26    0.82
   2 -11  -4    1.73    0.89
   2 -11  -4    1.76    0.97
  -2  11   4    2.77    1.07
   1 -11  -4   -0.06    0.66
   1 -11  -4    1.08    0.84
  -1  11   4    0.37    0.88
   0 -11  -4   -0.39    0.70
   0 -11  -4   -0.04    0.63
  -1 -11  -4    1.11    0.95
  -1 -11  -4    0.33    1.03
  -9  12   4    1.22    0.98
  -8  12   4    8.32    1.55
  -7  12   4   -0.51    0.72
   6 -12  -4    8.37    1.64
  -6  12   4    7.67    1.39
   5 -12  -4    7.89    1.61
  -5  12   4    5.90    1.27
   4 -12  -4   43.63    2.85
  -4  12   4   43.42    2.70
   3 -12  -4    0.30    0.93
  -3  12   4    0.85    0.90
   2 -12  -4   -0.40    0.83
   2 -12  -4    1.17    1.05
  -2  12   4    0.09    0.84
   1 -12  -4   40.51    2.82
   1 -12  -4   36.38    2.73
   0 -12  -4   19.55    2.32
  -7  13   4    0.01    0.93
   6 -13  -4   -1.23    0.91
  -6  13   4   -0.58    0.77
   5 -13  -4    0.11    0.94
  -5  13   4    0.13    0.74
   4 -13  -4    0.13    0.95
  -4  13   4    0.01    0.78
   3 -13  -4    2.95    1.27
  -3  13   4    3.66    1.11
   0  13  -5    1.55    0.92
  -1  13  -5    0.65    0.82
  -2  13  -5   42.49    2.75
  -3  13  -5    7.99    1.53
  -4  13  -5    4.00    1.28
   3  12  -5    2.21    1.09
  -3 -12   5    1.83    1.12
   2  12  -5    2.99    1.14
  -2 -12   5    4.18    1.33
   1  12  -5    4.00    1.21
  -1 -12   5    3.11    1.17
   0  12  -5    0.26    0.73
  -1  12  -5    6.08    1.26
  -2  12  -5   18.00    1.99
  -3  12  -5    6.67    1.37
  -4  12  -5   19.34    2.06
  -5  12  -5    9.74    1.60
  -6  12  -5    5.63    1.34
   4  11  -5   21.54    2.36
  -4 -11   5   25.00    2.65
   3  11  -5    0.93    0.87
  -3 -11   5    1.14    1.02
   2  11  -5    0.65    0.75
  -2 -11   5    0.36    0.81
   1  11  -5    2.27    0.90
  -1 -11   5    2.60    1.03
   0  11  -5    2.61    0.94
  -1  11  -5    7.21    1.29
  -2  11  -5    6.21    1.19
  -3  11  -5   15.98    1.78
  -4  11  -5   16.33    1.84
  -5  11  -5    2.88    1.06
  -5  11  -5    3.94    0.98
  -6  11  -5   21.26    1.74
  -6  11  -5   19.49    2.05
  -7  11  -5   62.80    3.04
  -7  11  -5   53.76    2.93
   6  10  -5    1.20    1.00
  -6 -10   5    0.85    1.18
  -6 -10   5    1.53    1.00
   5  10  -5   37.46    2.56
  -5 -10   5   44.11    2.84
   4  10  -5    2.06    0.85
  -4 -10   5    0.54    0.79
   3  10  -5   37.55    2.39
  -3 -10   5   37.16    2.46
   2  10  -5    0.82    0.77
  -2 -10   5    0.58    0.77
   1  10  -5   35.11    2.24
  -1 -10   5   35.93    2.30
   0  10  -5    7.22    1.24
   0 -10   5    6.61    1.21
   0 -10   5    6.84    1.58
  -1  10  -5   18.73    1.52
   1 -10   5   11.26    1.90
  -2  10  -5    3.33    0.88
   2 -10   5    3.09    1.28
  -3  10  -5    4.51    1.02
  -3  10  -5    6.16    1.05
   3 -10   5    4.59    1.27
  -4  10  -5    1.68    0.68
  -4  10  -5    1.97    0.76
   4 -10   5    2.17    1.01
  -5  10  -5    5.07    0.94
  -5  10  -5    6.43    1.18
   5 -10   5    3.20    1.28
  -6  10  -5    1.69    0.73
  -6  10  -5    3.30    1.01
  -7  10  -5    4.10    1.11
  -7  10  -5    3.29    0.86
  -8  10  -5    0.89    0.72
  -7  -9   5    1.31    1.06
  -7  -9   5    2.39    1.13
   6   9  -5    1.46    0.88
  -6  -9   5    0.34    0.83
  -6  -9   5    0.75    0.91
   5   9  -5    2.45    0.91
  -5  -9   5    1.10    0.89
  -5  -9   5    0.78    0.89
   4   9  -5   13.24    1.73
  -4  -9   5   14.87    1.93
  -4  -9   5   16.14    1.95
   3   9  -5   24.20    1.84
  -3  -9   5   29.01    2.05
  -3  -9   5   24.29    1.90
   2   9  -5    1.62    0.74
  -2  -9   5    2.49    0.86
   1   9  -5    9.45    1.38
  -1  -9   5    9.74    1.36
   0   9  -5  169.85    5.97
   0  -9   5  153.05    6.71
   0  -9   5  174.53    6.00
  -1   9  -5   57.34    2.69
   1  -9   5   53.31    3.36
  -2   9  -5   14.43    1.43
  -2   9  -5   15.75    1.59
   2  -9   5   11.86    1.83
  -3   9  -5   16.22    1.63
  -3   9  -5   11.23    1.26
   3  -9   5    9.67    1.60
  -4   9  -5   84.43    3.47
  -4   9  -5   88.18    3.41
   4  -9   5   77.59    3.96
  -5   9  -5    1.42    0.54
  -5   9  -5    0.77    0.65
   5  -9   5    0.91    0.80
  -6   9  -5    1.96    0.78
  -6   9  -5    2.58    0.75
   6  -9   5    1.91    0.99
  -7   9  -5    6.28    1.01
  -8   9  -5    2.54    0.80
  -9   9  -5    0.35    0.71
  -8  -8   5   10.05    2.00
  -8  -8   5   12.29    1.98
  -7  -8   5    0.45    0.86
  -7  -8   5    0.94    0.88
   6   8  -5    8.89    1.47
  -6  -8   5    7.39    1.46
  -6  -8   5    8.96    1.61
   5   8  -5   -0.01    0.63
  -5  -8   5    0.53    0.75
  -5  -8   5   -0.42    0.62
   4   8  -5    1.56    0.75
  -4  -8   5    1.65    0.86
  -4  -8   5    1.49    0.78
   3   8  -5    4.64    0.99
  -3  -8   5    3.81    0.91
  -3  -8   5    4.73    1.07
   2   8  -5   16.61    1.69
  -2  -8   5   11.19    1.47
  -2  -8   5   13.18    1.55
   1   8  -5   14.11    1.50
  -1  -8   5   12.76    1.44
   0   8  -5   23.62    1.52
   0   8  -5   20.74    1.40
   0  -8   5   23.99    2.59
   0  -8   5   23.64    1.57
  -1   8  -5    6.39    0.90
  -1   8  -5   10.32    1.24
   1  -8   5    8.16    1.14
   1  -8   5   11.04    1.75
  -2   8  -5    0.02    0.33
  -2   8  -5   -0.22    0.43
   2  -8   5    0.49    0.73
  -3   8  -5   40.05    1.92
  -3   8  -5   41.38    2.03
   3  -8   5   38.86    2.50
  -4   8  -5   24.19    1.45
  -4   8  -5   23.67    1.51
   4  -8   5   23.88    1.92
  -5   8  -5   39.32    1.90
  -5   8  -5   35.31    1.95
   5  -8   5   40.56    2.44
  -6   8  -5   14.88    1.15
  -6   8  -5   15.43    1.46
   6  -8   5   14.63    1.74
  -7   8  -5   30.60    1.73
  -8   8  -5   -0.62    0.54
  -9   8  -5   21.77    1.55
  -9  -7   5    1.76    1.00
  -8  -7   5    1.65    0.88
  -8  -7   5    1.41    0.89
   7   7  -5   46.98    2.69
  -7  -7   5   49.89    2.83
  -7  -7   5   53.41    2.91
   6   7  -5   96.51    4.10
  -6  -7   5   98.97    4.23
  -6  -7   5  101.66    4.27
   5   7  -5    1.21    0.64
  -5  -7   5   -0.55    0.44
  -5  -7   5    0.53    0.64
   4   7  -5    0.14    0.45
  -4  -7   5    0.67    0.57
  -4  -7   5   -0.23    0.45
   3   7  -5   83.75    3.37
  -3  -7   5   85.83    3.53
  -3  -7   5   76.90    3.41
   2   7  -5   32.59    1.80
  -2  -7   5   33.46    1.90
  -2  -7   5   33.09    1.92
   1   7  -5   -0.11    0.34
   1   7  -5    0.04    0.35
  -1  -7   5    0.03    0.45
  -1  -7   5   -0.21    0.45
   0   7  -5    1.77    0.52
   0   7  -5    3.72    0.77
   0  -7   5    3.30    0.75
   0  -7   5    2.89    1.01
  -1   7  -5    2.89    0.68
  -1   7  -5    3.19    0.60
   1  -7   5    3.14    0.97
   1  -7   5    2.48    0.65
  -2   7  -5    2.65    0.54
  -2   7  -5    5.47    0.86
   2  -7   5    3.24    0.90
  -3   7  -5   16.44    1.01
  -3   7  -5   13.15    1.04
  -3   7  -5   16.42    1.17
   3  -7   5   15.00    1.73
  -4   7  -5   13.74    1.07
  -4   7  -5   15.06    1.10
  -4   7  -5   14.80    0.96
   4  -7   5   13.64    1.59
  -5   7  -5   33.18    1.54
  -5   7  -5   32.95    1.61
  -5   7  -5   30.84    1.66
   5  -7   5   31.49    2.06
  -6   7  -5   14.86    1.02
  -6   7  -5   13.63    1.02
   6  -7   5   13.23    1.64
  -7   7  -5    1.62    0.51
  -7   7  -5    2.15    0.60
   7  -7   5    1.52    0.84
  -8   7  -5   45.25    2.12
  -8   7  -5   48.04    2.00
  -9   7  -5   44.86    2.04
   9   6  -5    2.83    1.24
  -9  -6   5    2.55    1.04
  -9  -6   5    1.89    0.92
   8   6  -5    5.53    1.36
  -8  -6   5    4.84    1.11
  -8  -6   5    4.53    1.13
   7   6  -5   31.47    2.17
   7   6  -5   27.05    1.85
  -7  -6   5   27.38    1.91
  -7  -6   5   25.12    1.83
   6   6  -5   16.87    1.50
   6   6  -5   14.74    1.59
  -6  -6   5   15.60    1.68
  -6  -6   5   17.84    1.80
   5   6  -5    2.53    0.71
   5   6  -5    2.56    0.76
  -5  -6   5    2.16    0.68
  -5  -6   5    1.02    0.57
   4   6  -5   20.72    1.39
   4   6  -5   21.93    1.38
  -4  -6   5   21.20    1.47
  -4  -6   5   23.09    1.52
   3   6  -5  150.48    4.89
   3   6  -5  146.85    5.08
  -3  -6   5  159.98    5.28
  -3  -6   5  143.23    5.17
   2   6  -5    7.86    0.98
   2   6  -5    5.91    0.58
   2   6  -5    8.15    0.93
  -2  -6   5    6.26    0.95
  -2  -6   5    7.68    1.04
   1   6  -5   92.95    2.86
   1   6  -5   89.58    3.21
   1   6  -5   90.69    3.29
  -1  -6   5   89.18    3.41
  -1  -6   5   91.27    3.39
  -1  -6   5   88.81    3.42
   0   6  -5   25.05    1.24
   0   6  -5   24.22    1.29
   0  -6   5   25.54    1.41
   0  -6   5   23.17    1.31
   0  -6   5   22.39    1.36
   0  -6   5   23.63    1.81
   0  -6   5   21.99    1.40
  -1   6  -5   25.69    1.30
  -1   6  -5   23.92    1.19
  -1   6  -5   23.13    1.36
   1  -6   5   24.15    1.72
   1  -6   5   23.25    1.37
   1  -6   5   24.19    1.35
   1  -6   5   24.70    1.44
  -2   6  -5   37.54    1.70
  -2   6  -5   40.33    1.61
  -2   6  -5   37.62    1.80
   2  -6   5   38.58    2.17
   2  -6   5   42.77    1.91
  -3   6  -5   10.48    0.82
  -3   6  -5   11.74    0.86
  -3   6  -5    9.10    0.65
   3  -6   5    9.22    1.08
   3  -6   5   10.98    1.36
  -4   6  -5    3.43    0.47
  -4   6  -5    3.75    0.55
  -4   6  -5    4.75    0.74
   4  -6   5    4.01    0.83
   4  -6   5    3.64    0.80
  -5   6  -5    2.25    0.46
  -5   6  -5    1.76    0.54
  -5   6  -5    1.59    0.37
   5  -6   5    3.38    0.88
   5  -6   5    1.80    0.69
  -6   6  -5    3.57    0.54
  -6   6  -5    4.24    0.53
   6  -6   5    4.11    0.92
   6  -6   5    3.71    1.04
  -7   6  -5    6.99    0.65
  -7   6  -5    6.55    0.75
  -8   6  -5    4.31    0.68
  -8   6  -5    1.95    0.44
  -9   6  -5    2.52    0.54
  -9   6  -5    2.53    0.54
 -10   6  -5    0.31    0.36
  10   5  -5   11.90    2.03
 -10  -5   5   15.67    1.90
 -10  -5   5   14.80    1.88
   9   5  -5   18.85    2.36
  -9  -5   5   17.83    1.93
  -9  -5   5   18.50    2.02
   8   5  -5    1.44    0.84
  -8  -5   5    1.12    0.68
  -8  -5   5    1.27    0.70
   7   5  -5    1.00    0.69
   7   5  -5    1.17    0.66
  -7  -5   5    2.01    0.68
  -7  -5   5    1.30    0.61
   6   5  -5    1.63    0.61
   6   5  -5    2.64    0.80
  -6  -5   5    2.79    0.77
  -6  -5   5    1.75    0.65
   5   5  -5    1.01    0.46
   5   5  -5    2.57    0.65
   5   5  -5    1.93    0.67
  -5  -5   5    2.38    0.66
  -5  -5   5    1.20    0.51
   4   5  -5    5.76    0.87
   4   5  -5    4.17    0.61
   4   5  -5    4.89    0.79
  -4  -5   5    4.06    0.75
  -4  -5   5    5.10    0.83
   3   5  -5    6.90    0.88
   3   5  -5    6.26    0.80
   3   5  -5    5.33    0.63
   3   5  -5    4.87    0.74
  -3  -5   5    5.81    0.86
  -3  -5   5    8.30    1.01
  -3  -5   5    4.81    0.70
   2   5  -5   68.03    2.56
   2   5  -5   69.94    2.43
   2   5  -5   69.32    2.53
  -2  -5   5   67.10    2.66
  -2  -5   5   65.63    2.65
  -2  -5   5   67.78    2.65
   1   5  -5   44.28    1.67
   1   5  -5   46.02    1.86
   1   5  -5   43.78    1.94
   1   5  -5   44.75    1.79
  -1  -5   5   47.04    1.94
  -1  -5   5   44.52    1.97
  -1  -5   5   50.34    2.53
  -1  -5   5   46.30    1.98
   0   5  -5    1.75    0.48
   0   5  -5    2.41    0.47
   0   5  -5    1.54    0.35
   0  -5   5    1.38    0.54
   0  -5   5    1.29    0.48
   0  -5   5    1.67    0.36
   0  -5   5    1.58    0.56
   0  -5   5    1.75    0.48
  -1   5  -5   62.23    2.20
  -1   5  -5   61.99    2.36
  -1   5  -5   59.85    2.09
   1  -5   5   60.03    2.16
   1  -5   5   59.28    2.57
   1  -5   5   58.93    2.24
   1  -5   5   57.97    2.66
   1  -5   5   60.35    2.22
  -2   5  -5  369.03   10.68
  -2   5  -5  367.47   10.53
  -2   5  -5  377.87   10.81
   2  -5   5  358.84   11.32
   2  -5   5  372.57   11.27
  -3   5  -5   25.38    1.18
  -3   5  -5   24.31    0.99
  -3   5  -5   26.13    1.15
   3  -5   5   26.44    1.62
   3  -5   5   26.14    1.62
  -4   5  -5   12.29    0.65
  -4   5  -5   11.08    0.79
  -4   5  -5   11.73    0.58
   4  -5   5   14.07    1.47
   4  -5   5   12.91    1.26
   4  -5   5   12.12    1.15
   5  -5   5   62.65    3.10
   5  -5   5   57.80    2.92
   5  -5   5   53.40    2.69
   6  -5   5   63.59    3.07
   6  -5   5   65.09    3.37
   6  -5   5   62.92    3.41
   7  -5   5    0.27    0.72
   7  -5   5    1.17    0.88
  -8   5  -5    0.24    0.31
   8  -5   5    0.23    0.91
  -9   5  -5    3.42    0.54
   9  -5   5    3.41    1.39
 -10   5  -5    1.33    0.44
  11   4  -5    0.69    1.16
 -11  -4   5    1.06    0.82
  10   4  -5   55.59    3.58
 -10  -4   5   54.92    2.85
 -10  -4   5   55.92    2.90
   9   4  -5   11.33    1.84
  -9  -4   5   10.31    1.37
  -9  -4   5    9.98    1.41
   8   4  -5   29.63    2.20
   8   4  -5   26.43    1.71
  -8  -4   5   27.58    1.74
  -8  -4   5   29.42    1.81
   7   4  -5    0.60    0.68
   7   4  -5    0.15    0.52
   7   4  -5    0.35    0.50
  -7  -4   5   -0.04    0.39
  -7  -4   5    0.44    0.47
   6   4  -5   32.06    1.71
   6   4  -5   31.02    1.94
   6   4  -5   31.96    1.68
  -6  -4   5   32.01    1.72
  -6  -4   5   31.78    1.70
   5   4  -5    3.37    0.68
   5   4  -5    4.34    0.73
   5   4  -5    3.50    0.76
  -5  -4   5    2.67    0.63
  -5  -4   5    2.96    0.63
  -5  -4   5    2.69    0.61
   4   4  -5    9.37    0.78
   4   4  -5   10.05    0.88
   4   4  -5   10.62    0.82
  -4  -4   5    8.05    0.89
  -4  -4   5    9.59    1.03
  -4  -4   5    8.96    0.98
   3   4  -5    2.57    0.54
   3   4  -5    2.35    0.45
   3   4  -5    1.92    0.46
  -3  -4   5    2.15    0.50
  -3  -4   5    1.10    0.33
  -3  -4   5    1.03    0.40
   2   4  -5    0.95    0.34
   2   4  -5    1.64    0.38
   2   4  -5    1.75    0.40
  -2  -4   5    1.37    0.34
  -2  -4   5    1.45    0.44
  -2  -4   5    1.39    0.42
   1   4  -5   10.42    0.75
   1   4  -5   10.90    0.70
   1   4  -5   11.17    0.67
  -1  -4   5   12.90    1.36
  -1  -4   5    9.76    0.75
  -1  -4   5   11.82    0.79
  -1  -4   5   10.18    0.71
   0   4  -5   26.61    1.27
   0   4  -5   26.91    1.17
   0   4  -5   27.55    1.13
   0  -4   5   27.36    1.29
   0  -4   5   27.08    1.64
   0  -4   5   28.96    1.30
   0  -4   5   30.14    1.61
   0  -4   5   28.82    1.21
  -1   4  -5   32.38    1.25
  -1   4  -5   32.04    1.18
  -1   4  -5   30.97    1.29
  -1   4  -5   32.68    1.40
   1  -4   5   31.25    1.76
   1  -4   5   31.73    1.23
   1  -4   5   32.02    1.67
  -2   4  -5   44.40    1.54
  -2   4  -5   40.22    1.41
  -2   4  -5   44.17    1.58
  -2   4  -5   42.99    1.59
   2  -4   5   43.62    2.19
   2  -4   5   44.46    2.05
  -3   4  -5    0.48    0.27
  -3   4  -5    1.54    0.32
   3  -4   5    0.87    0.46
   3  -4   5    1.21    0.61
   3  -4   5    0.11    0.30
  -4   4  -5    2.24    0.40
   4  -4   5    1.40    0.69
   4  -4   5    2.24    0.62
   4  -4   5    1.77    0.69
   5  -4   5   83.71    3.57
   5  -4   5   87.58    4.07
   5  -4   5   89.78    3.99
   6  -4   5    3.17    1.03
   6  -4   5    5.21    1.34
   7  -4   5   59.40    3.59
   7  -4   5   62.74    3.75
   8  -4   5    1.06    1.05
  -9   4  -5   17.23    0.93
  -9   4  -5   17.56    0.89
   9  -4   5   17.29    2.81
 -10   4  -5    4.25    0.79
 -10   4  -5    4.07    0.55
  10  -4   5    4.52    1.91
  11   3  -5   -0.02    0.78
 -11  -3   5    0.83    0.67
 -11  -3   5    0.34    0.62
  10   3  -5   -0.28    0.79
 -10  -3   5    1.16    0.60
 -10  -3   5    0.89    0.56
   9   3  -5   17.29    1.92
   9   3  -5   12.34    1.87
  -9  -3   5   11.95    1.42
  -9  -3   5   12.02    1.42
   8   3  -5   48.95    2.29
   8   3  -5   49.82    2.85
   8   3  -5   49.36    2.56
  -8  -3   5   47.23    2.30
  -8  -3   5   48.09    2.31
   7   3  -5    1.61    0.57
   7   3  -5    0.81    0.62
   7   3  -5    2.48    0.87
  -7  -3   5    1.43    0.53
  -7  -3   5    0.74    0.44
   6   3  -5    0.45    0.39
   6   3  -5    0.55    0.46
   6   3  -5    1.43    0.60
  -6  -3   5    1.18    0.48
  -6  -3   5    2.28    0.56
  -6  -3   5    0.85    0.39
   5   3  -5  309.28    9.19
   5   3  -5  300.01    9.39
   5   3  -5  301.81    9.25
   5   3  -5  289.26    8.95
  -5  -3   5  299.68    9.15
  -5  -3   5  298.79    8.97
  -5  -3   5  292.56    8.97
  -5  -3   5  297.55    9.00
   4   3  -5  170.01    5.38
   4   3  -5  174.20    5.56
   4   3  -5  173.55    5.37
   4   3  -5  175.63    5.70
  -4  -3   5  166.38    5.41
  -4  -3   5  172.19    5.42
  -4  -3   5  178.70    5.46
  -4  -3   5  170.06    5.53
   3   3  -5    7.46    0.59
   3   3  -5    6.78    0.56
   3   3  -5    7.00    0.68
  -3  -3   5    6.87    0.71
  -3  -3   5    7.81    0.63
  -3  -3   5    9.14    0.86
   2   3  -5   38.22    1.49
   2   3  -5   39.79    1.63
   2   3  -5   39.26    1.56
   2   3  -5   38.16    1.51
  -2  -3   5   38.36    1.56
  -2  -3   5   39.75    1.58
  -2  -3   5   39.95    1.61
   1   3  -5  165.38    5.15
   1   3  -5  169.28    5.20
   1   3  -5  167.68    5.08
   1   3  -5  173.47    5.07
  -1  -3   5  165.49    5.13
  -1  -3   5  174.72    5.59
  -1  -3   5  169.94    5.16
  -1  -3   5  173.79    5.17
   0   3  -5   21.03    0.89
   0   3  -5   21.26    0.97
   0   3  -5   21.23    0.85
   0   3  -5   21.26    0.96
   0   3  -5   21.11    0.91
   0  -3   5   19.82    0.96
   0  -3   5   22.46    1.23
   0  -3   5   18.96    1.38
   0  -3   5   20.71    0.97
  -1   3  -5    3.14    0.40
  -1   3  -5    2.59    0.27
  -1   3  -5    2.05    0.31
  -1   3  -5    2.79    0.36
   1  -3   5    2.51    0.67
   1  -3   5    2.03    0.48
  -2   3  -5    9.51    0.47
  -2   3  -5    9.25    0.50
   2  -3   5   13.63    1.55
   2  -3   5   10.55    1.08
   3  -3   5    2.90    0.82
   3  -3   5    2.23    0.83
   3  -3   5    2.69    0.67
   4  -3   5    3.46    0.95
   4  -3   5    4.33    1.06
   4  -3   5    2.91    0.67
   5  -3   5    8.39    1.56
   5  -3   5    9.45    1.55
   6  -3   5   19.06    2.41
   6  -3   5   24.10    2.80
   7  -3   5   27.08    2.47
   7  -3   5   23.58    2.99
   8  -3   5    2.74    1.33
  -9   3  -5    1.85    0.40
  -9   3  -5    2.00    0.41
   9  -3   5    3.48    1.66
 -10   3  -5   47.92    1.83
  10  -3   5   40.56    3.83
  12   2  -5    1.22    1.21
 -12  -2   5    0.41    0.64
  11   2  -5    0.40    1.00
 -11  -2   5   -0.10    0.56
 -11  -2   5    0.98    0.72
  10   2  -5    0.70    0.81
  10   2  -5    0.76    0.78
 -10  -2   5    0.32    0.54
 -10  -2   5    0.37    0.54
   9   2  -5    0.13    0.60
   9   2  -5    0.97    0.72
  -9  -2   5    1.01    0.54
  -9  -2   5    0.96    0.53
   8   2  -5    3.89    1.01
   8   2  -5    2.80    0.96
   8   2  -5    4.41    0.82
  -8  -2   5    3.68    0.74
  -8  -2   5    3.95    0.76
   7   2  -5    4.61    0.97
   7   2  -5    5.20    0.77
   7   2  -5    5.03    1.04
  -7  -2   5    4.15    0.72
  -7  -2   5    3.26    0.65
  -7  -2   5    4.26    0.67
   6   2  -5   21.46    1.20
   6   2  -5   24.19    1.36
   6   2  -5   25.72    1.66
   6   2  -5   23.51    1.55
  -6  -2   5   22.17    1.22
  -6  -2   5   22.01    1.24
  -6  -2   5   24.72    1.38
  -6  -2   5   24.00    1.27
   5   2  -5   88.87    3.22
   5   2  -5   88.65    3.52
   5   2  -5   91.24    3.61
   5   2  -5   86.78    3.07
  -5  -2   5   90.12    3.11
  -5  -2   5   91.32    3.13
  -5  -2   5   90.66    3.13
  -5  -2   5   90.34    3.24
   4   2  -5   13.10    0.86
   4   2  -5   12.73    0.98
   4   2  -5   11.66    0.75
   4   2  -5   11.70    0.73
  -4  -2   5   10.97    0.74
  -4  -2   5   11.13    0.75
  -4  -2   5   11.05    0.80
  -4  -2   5   12.92    0.78
   3   2  -5    8.98    0.98
   3   2  -5    6.31    0.49
   3   2  -5    7.25    0.53
  -3  -2   5    6.93    0.58
  -3  -2   5    6.90    0.55
  -3  -2   5    6.49    0.53
   2   2  -5  159.23    4.92
   2   2  -5  158.10    4.80
   2   2  -5  161.65    4.82
   2   2  -5  163.62    4.84
  -2  -2   5  159.55    4.83
  -2  -2   5  158.64    4.82
  -2  -2   5  159.34    5.16
   1   2  -5  184.11    5.33
   1   2  -5  179.03    5.36
   1   2  -5  179.68    5.30
   1   2  -5  177.64    5.41
  -1  -2   5  183.11    5.36
  -1  -2   5  184.54    5.69
  -1  -2   5  181.68    5.35
   0   2  -5   80.03    2.53
   0   2  -5   82.13    2.58
   0   2  -5   80.46    2.51
   0   2  -5   82.34    2.48
   0   2  -5   80.90    2.50
   0  -2   5   82.67    3.36
   0  -2   5   81.77    2.52
   0  -2   5   79.55    2.87
  -1   2  -5   53.57    1.65
  -1   2  -5   51.02    1.71
  -1   2  -5   53.51    1.67
   1  -2   5   53.74    2.54
   1  -2   5   51.24    2.10
  -2   2  -5   72.36    2.09
  -2   2  -5   69.46    2.09
   2  -2   5   70.86    2.71
   2  -2   5   69.27    3.02
   2  -2   5   70.95    3.17
   3  -2   5    0.64    0.51
   3  -2   5    1.43    0.47
   3  -2   5    1.43    0.74
   4  -2   5   33.17    2.21
   4  -2   5   37.54    2.39
   5  -2   5    0.51    0.63
   5  -2   5    0.19    0.57
   6  -2   5    1.34    0.94
   6  -2   5    1.92    1.03
   7  -2   5   -0.47    0.80
   7  -2   5    0.85    0.93
  -8   2  -5    2.57    0.37
  -8   2  -5    2.94    0.46
   8  -2   5    3.25    1.46
  -9   2  -5    4.40    0.55
  -9   2  -5    5.68    0.65
   9  -2   5    5.39    1.89
  12   1  -5   16.49    2.62
 -12  -1   5   21.32    1.65
 -12  -1   5   19.11    2.18
  11   1  -5   62.30    3.99
  11   1  -5   65.41    3.70
 -11  -1   5   61.53    2.88
 -11  -1   5   64.77    2.94
  10   1  -5    2.05    0.98
  10   1  -5    1.48    0.89
 -10  -1   5    1.60    0.60
 -10  -1   5    1.68    0.66
   9   1  -5    2.66    0.96
   9   1  -5    2.43    1.04
  -9  -1   5    1.56    0.54
  -9  -1   5    1.59    0.54
   8   1  -5   50.12    2.85
   8   1  -5   51.57    2.83
   8   1  -5   52.02    2.20
  -8  -1   5   54.21    2.26
  -8  -1   5   50.75    2.23
  -8  -1   5   50.00    2.21
   7   1  -5   26.40    1.35
   7   1  -5   27.12    1.87
   7   1  -5   24.99    2.05
   7   1  -5   25.24    1.81
  -7  -1   5   27.65    1.40
  -7  -1   5   27.30    1.38
  -7  -1   5   25.13    1.37
   6   1  -5    7.01    1.11
   6   1  -5    7.64    0.83
   6   1  -5    6.91    1.20
   6   1  -5    8.79    0.88
  -6  -1   5    5.78    0.70
  -6  -1   5    7.82    0.85
  -6  -1   5    7.66    0.83
   5   1  -5    7.11    0.75
   5   1  -5    7.05    0.74
   5   1  -5    9.46    1.21
  -5  -1   5    7.75    0.77
  -5  -1   5    8.57    0.80
  -5  -1   5    6.55    0.69
   4   1  -5    1.59    0.36
   4   1  -5    1.83    0.57
   4   1  -5    1.59    0.35
   4   1  -5    1.40    0.32
  -4  -1   5    0.65    0.28
  -4  -1   5    1.39    0.34
  -4  -1   5    1.24    0.34
   3   1  -5    1.82    0.32
   3   1  -5    1.21    0.29
  -3  -1   5    1.55    0.33
  -3  -1   5    1.20    0.30
   2   1  -5    3.54    0.41
   2   1  -5    2.31    0.37
   2   1  -5    3.33    0.41
   2   1  -5    2.86    0.39
  -2  -1   5    3.10    0.48
  -2  -1   5    3.66    0.44
  -2  -1   5    3.26    0.42
   1   1  -5   14.94    0.69
   1   1  -5   14.92    0.67
   1   1  -5   16.66    0.73
   1   1  -5   15.43    0.75
   1   1  -5   15.54    0.88
   1   1  -5   15.43    0.68
  -1  -1   5   14.66    0.67
  -1  -1   5   15.26    0.84
  -1  -1   5   13.60    0.64
   0   1  -5  165.44    4.83
   0   1  -5  168.31    4.82
   0   1  -5  163.82    4.78
   0   1  -5  169.42    5.23
   0  -1   5  159.90    5.16
   0  -1   5  176.60    4.87
   0  -1   5  161.70    5.74
  -1   1  -5   19.50    0.71
  -1   1  -5   19.61    0.73
   1  -1   5   20.50    1.46
   1  -1   5   19.85    1.08
   2  -1   5    4.51    0.98
   2  -1   5    4.74    0.79
   2  -1   5    5.01    1.04
   3  -1   5  158.60    6.00
   3  -1   5  161.00    6.00
   4  -1   5  245.99    8.68
   4  -1   5  238.54    8.55
   5  -1   5    0.19    0.59
   5  -1   5    0.24    0.60
   6  -1   5    0.63    0.89
   6  -1   5    0.33    0.78
  -7   1  -5   58.76    2.09
  -7   1  -5   55.69    1.88
   7  -1   5   56.20    3.77
   7  -1   5   61.05    4.01
  -8   1  -5   14.28    0.80
  -8   1  -5   16.02    0.96
   8  -1   5   11.83    2.34
  -9   1  -5    0.43    0.34
   9  -1   5    1.45    1.29
  12   0  -5   20.92    2.95
 -12   0   5   29.53    1.89
 -12   0   5   30.41    1.91
  11   0  -5   18.69    2.62
  11   0  -5   21.97    2.68
 -11   0   5   16.00    1.33
 -11   0   5   17.21    1.38
  10   0  -5    7.26    1.55
  10   0  -5    5.64    1.45
 -10   0   5    6.48    0.99
 -10   0   5    7.68    1.06
   9   0  -5   14.98    2.05
   9   0  -5   15.78    2.06
  -9   0   5   16.35    1.17
  -9   0   5   16.88    1.17
  -9   0   5   16.11    1.17
   8   0  -5  177.24    5.67
   8   0  -5  175.47    6.73
   8   0  -5  183.45    6.83
  -8   0   5  177.52    5.75
  -8   0   5  177.02    5.73
  -8   0   5  177.67    5.73
   7   0  -5    2.18    0.74
   7   0  -5    0.71    0.35
   7   0  -5    0.33    0.32
   7   0  -5    1.50    0.75
  -7   0   5    1.22    0.41
  -7   0   5    1.12    0.38
  -7   0   5    0.49    0.33
   6   0  -5   45.15    1.81
   6   0  -5   42.73    2.35
   6   0  -5   46.87    1.96
   6   0  -5   48.40    2.66
  -6   0   5   46.25    1.85
  -6   0   5   45.28    1.82
  -6   0   5   45.36    1.84
   5   0  -5   23.38    1.16
   5   0  -5   19.06    1.00
   5   0  -5   22.28    1.48
  -5   0   5   20.05    1.04
  -5   0   5   20.41    1.04
  -5   0   5   21.48    1.04
   4   0  -5   24.36    1.11
   4   0  -5   27.20    1.25
   4   0  -5   27.26    1.13
  -4   0   5   25.06    1.13
  -4   0   5   26.73    1.13
  -4   0   5   25.69    1.14
   3   0  -5   15.49    0.78
   3   0  -5   14.38    0.76
  -3   0   5   15.31    0.78
  -3   0   5   16.35    0.79
  -3   0   5   15.97    0.81
   2   0  -5    4.76    0.49
   2   0  -5    3.64    0.43
   2   0  -5    3.87    0.43
   2   0  -5    3.97    0.41
  -2   0   5    4.29    0.46
  -2   0   5    4.54    0.46
  -2   0   5    4.21    0.47
   1   0  -5    0.93    0.28
   1   0  -5    1.10    0.25
   1   0  -5    1.24    0.26
   1   0  -5    1.12    0.22
  -1   0   5    1.40    0.56
  -1   0   5    1.21    0.29
  -1   0   5    1.31    0.24
   0   0  -5    1.47    0.27
   0   0  -5    1.20    0.21
   0   0  -5    2.00    0.31
   0   0  -5    0.95    0.32
   0   0  -5    1.70    0.30
   0   0   5    1.28    0.35
   0   0   5    1.25    0.19
   0   0   5    1.75    0.63
  -1   0  -5   14.03    0.63
  -1   0  -5   13.15    0.63
   1   0   5   13.89    0.88
   1   0   5   12.56    1.16
   1   0   5   12.98    1.17
  -2   0  -5   20.73    0.86
  -2   0  -5   22.95    0.87
   2   0   5   21.03    1.60
   2   0   5   19.02    1.54
  -3   0  -5   35.56    1.30
  -3   0  -5   36.73    1.32
   3   0   5   35.33    2.25
   3   0   5   32.49    2.21
  -4   0  -5   19.11    0.90
  -4   0  -5   19.10    0.91
   4   0   5   19.48    1.82
   4   0   5   20.54    1.82
  -5   0  -5    3.82    0.58
   5   0   5    3.16    1.15
   5   0   5    4.39    1.29
  -6   0  -5    8.83    0.64
  -6   0  -5   10.32    0.95
  -6   0  -5    8.59    0.53
   6   0   5    5.60    1.58
   6   0   5    8.08    1.79
  -7   0  -5   52.79    1.92
  -7   0  -5   51.62    2.12
  -7   0  -5   52.22    2.11
   7   0   5   55.91    3.77
   7   0   5   55.15    3.87
  -8   0  -5    1.69    0.82
  -8   0  -5    2.00    0.49
   8   0   5    3.27    1.54
  -9   0  -5   23.20    1.31
   9   0   5   20.40    3.31
 -13   1   5    0.88    0.79
  12  -1  -5    0.40    0.98
 -12   1   5    2.53    0.81
 -12   1   5    1.83    0.74
  11  -1  -5    2.14    1.20
  11  -1  -5    1.13    1.05
 -11   1   5    1.48    0.64
 -11   1   5    1.33    0.63
  10  -1  -5    2.81    1.25
  10  -1  -5    1.52    1.02
 -10   1   5    3.40    0.75
 -10   1   5    2.44    0.66
   9  -1  -5   -0.04    0.77
   9  -1  -5    0.60    0.69
  -9   1   5    0.69    0.40
  -9   1   5    0.79    0.46
  -9   1   5    0.95    0.45
   8  -1  -5    0.88    0.43
   8  -1  -5    0.82    0.61
   8  -1  -5    1.19    0.88
  -8   1   5    1.22    0.43
  -8   1   5    0.31    0.33
  -8   1   5    0.90    0.39
   7  -1  -5   83.22    3.82
   7  -1  -5   82.24    2.99
   7  -1  -5   92.76    3.21
   7  -1  -5   87.87    4.14
  -7   1   5   84.50    3.08
  -7   1   5   83.78    3.07
  -7   1   5   87.79    3.05
   6  -1  -5   61.99    2.22
   6  -1  -5   57.38    2.86
   6  -1  -5   60.54    2.36
  -6   1   5   58.81    2.24
  -6   1   5   61.48    2.24
  -6   1   5   58.84    2.24
   5  -1  -5   24.27    1.23
   5  -1  -5   27.32    1.71
   5  -1  -5   23.82    1.12
  -5   1   5   24.65    1.16
  -5   1   5   22.72    1.13
  -5   1   5   24.16    1.12
   4  -1  -5   40.53    1.56
   4  -1  -5   41.54    1.57
  -4   1   5   40.02    1.59
  -4   1   5   41.69    1.46
  -4   1   5   40.29    1.55
  -4   1   5   41.03    1.58
   3  -1  -5  617.12   17.49
   3  -1  -5  612.11   17.48
  -3   1   5  613.46   17.45
  -3   1   5  634.86   17.48
  -3   1   5  618.63   17.32
   2  -1  -5  101.43    3.22
   2  -1  -5   99.76    3.22
   2  -1  -5  104.71    3.17
  -2   1   5  101.79    3.17
  -2   1   5  102.04    3.15
  -2   1   5  101.42    3.17
   1  -1  -5    3.78    0.50
   1  -1  -5    3.63    0.46
   1  -1  -5    3.62    0.38
   1  -1  -5    3.95    0.47
   1  -1  -5    3.92    0.49
  -1   1   5    3.38    0.45
  -1   1   5    5.09    0.96
  -1   1   5    4.15    0.43
  -1   1   5    4.09    0.41
   0  -1  -5  109.96    3.51
   0  -1  -5  111.51    3.50
   0  -1  -5  115.18    3.70
   0  -1  -5  111.93    3.52
   0  -1  -5  114.14    3.35
   0   1   5  108.19    3.29
   0   1   5  111.84    4.25
   0   1   5  116.64    3.69
  -1  -1  -5   97.55    2.87
  -1  -1  -5   95.66    3.08
  -1  -1  -5   95.82    3.06
  -1  -1  -5   92.90    3.01
   1   1   5   99.05    3.90
   1   1   5   95.05    3.98
  -2  -1  -5    5.54    0.37
  -2  -1  -5    6.85    0.68
  -2  -1  -5    7.82    0.72
  -2  -1  -5    5.55    0.40
   2   1   5    5.80    1.21
   2   1   5    9.22    1.41
  -3  -1  -5    6.17    0.73
  -3  -1  -5    5.02    0.64
  -3  -1  -5    5.06    0.44
  -3  -1  -5    4.17    0.40
   3   1   5    5.38    1.18
   3   1   5    4.42    1.19
  -4  -1  -5    5.24    0.72
  -4  -1  -5    4.39    0.45
  -4  -1  -5    4.85    0.52
  -4  -1  -5    6.29    0.75
   4   1   5    4.73    1.34
   4   1   5    6.06    1.35
  -5  -1  -5    2.07    0.56
  -5  -1  -5    0.95    0.29
  -5  -1  -5    1.00    0.46
  -5  -1  -5    1.50    0.33
  -5  -1  -5    1.44    0.39
   5   1   5    1.23    0.90
   5   1   5    2.63    1.05
  -6  -1  -5    0.88    0.32
  -6  -1  -5    1.56    0.51
  -6  -1  -5    1.35    0.51
   6   1   5    2.10    1.10
   6   1   5    1.50    1.02
  -7  -1  -5    3.04    0.73
  -7  -1  -5    3.11    0.56
  -7  -1  -5    3.34    0.78
   7   1   5    3.87    1.45
   7   1   5    4.58    1.55
  -8  -1  -5   16.72    1.14
  -8  -1  -5   14.98    1.24
   8   1   5   13.97    2.61
  -9  -1  -5    6.90    0.98
   9   1   5    6.06    2.97
  13  -2  -5    1.74    1.52
 -13   2   5    1.98    0.83
  12  -2  -5    0.51    1.07
 -12   2   5    0.17    0.56
 -12   2   5    1.65    0.68
  11  -2  -5    7.71    1.90
  11  -2  -5    4.06    1.37
 -11   2   5    5.78    0.92
 -11   2   5    6.51    1.03
  10  -2  -5   -0.21    0.94
  10  -2  -5    0.44    0.84
 -10   2   5    0.04    0.41
 -10   2   5    0.43    0.43
 -10   2   5    0.67    0.43
   9  -2  -5    0.55    0.53
   9  -2  -5   -0.43    0.73
   9  -2  -5    0.01    0.65
  -9   2   5    0.40    0.41
  -9   2   5   -0.12    0.35
  -9   2   5    0.51    0.45
   8  -2  -5    0.38    0.55
   8  -2  -5    0.38    0.77
   8  -2  -5    0.74    0.36
  -8   2   5    0.36    0.37
  -8   2   5    0.24    0.34
  -8   2   5    0.31    0.35
   7  -2  -5    1.09    0.66
   7  -2  -5    0.65    0.75
   7  -2  -5    0.92    0.39
   7  -2  -5    0.88    0.39
  -7   2   5    0.78    0.37
  -7   2   5    0.62    0.36
  -7   2   5    1.35    0.40
   6  -2  -5    1.60    0.70
   6  -2  -5    2.34    0.48
  -6   2   5    2.65    0.49
  -6   2   5    1.96    0.46
  -6   2   5    1.87    0.41
   5  -2  -5    4.93    0.62
  -5   2   5    4.46    0.57
  -5   2   5    3.88    0.56
   4  -2  -5   65.81    2.30
   4  -2  -5   63.45    2.30
  -4   2   5   59.26    2.24
  -4   2   5   64.59    2.29
  -4   2   5   69.58    1.96
   3  -2  -5  119.02    3.82
  -3   2   5  118.86    3.76
  -3   2   5  120.05    3.51
   2  -2  -5    3.08    0.46
   2  -2  -5    3.23    0.47
   2  -2  -5    2.61    0.46
   2  -2  -5    2.97    0.41
   2  -2  -5    3.36    0.41
  -2   2   5    4.16    0.87
  -2   2   5    3.72    0.47
   1  -2  -5    0.25    0.20
   1  -2  -5    0.33    0.19
   1  -2  -5    0.37    0.26
   1  -2  -5    0.39    0.24
   1  -2  -5    0.64    0.27
  -1   2   5    0.32    0.23
  -1   2   5    0.26    0.38
   0  -2  -5  287.21    8.56
   0  -2  -5  295.87    8.33
   0  -2  -5  294.36    8.54
   0  -2  -5  287.96    8.53
   0   2   5  289.61    8.27
   0   2   5  280.13    9.19
  -1  -2  -5   45.02    1.65
  -1  -2  -5   49.36    1.86
  -1  -2  -5   46.31    1.83
  -1  -2  -5   47.60    1.85
   1   2   5   45.91    2.55
   1   2   5   46.69    2.42
  -2  -2  -5   84.79    2.88
  -2  -2  -5   83.14    2.96
  -2  -2  -5   85.14    2.97
  -2  -2  -5   83.75    2.75
   2   2   5   85.14    3.74
   2   2   5   88.22    3.95
  -3  -2  -5    2.31    0.42
  -3  -2  -5    2.24    0.43
  -3  -2  -5    2.83    0.60
  -3  -2  -5    2.55    0.56
   3   2   5    2.28    0.84
   3   2   5    2.79    0.99
  -4  -2  -5   32.07    1.46
  -4  -2  -5   31.86    1.41
  -4  -2  -5   33.51    1.61
  -4  -2  -5   33.58    1.57
   4   2   5   31.82    2.39
   4   2   5   33.84    2.50
  -5  -2  -5    2.96    0.57
  -5  -2  -5    5.07    0.76
  -5  -2  -5    4.43    0.82
  -5  -2  -5    4.18    0.61
  -5  -2  -5    4.28    0.79
   5   2   5    5.02    1.52
   5   2   5    3.74    1.34
  -6  -2  -5    8.53    0.95
  -6  -2  -5   11.02    1.26
   6   2   5   11.44    2.15
   6   2   5    9.08    2.00
  -7  -2  -5    0.57    0.44
  -7  -2  -5    1.15    0.66
   7   2   5    0.02    0.97
   7   2   5    0.05    0.91
  -8  -2  -5    0.81    0.54
  -8  -2  -5    0.96    0.69
   8   2   5    0.77    1.22
  13  -3  -5   14.89    2.82
 -13   3   5   25.81    1.75
  12  -3  -5    1.28    1.30
 -12   3   5    2.10    0.79
 -12   3   5    1.38    0.70
  11  -3  -5    3.23    1.43
  11  -3  -5    1.83    1.33
 -11   3   5    1.30    0.58
 -11   3   5    1.82    0.63
  10  -3  -5   96.16    4.91
  10  -3  -5   91.31    5.06
 -10   3   5   85.09    3.47
 -10   3   5   92.83    3.49
 -10   3   5   91.10    3.51
   9  -3  -5   76.56    4.46
   9  -3  -5   78.39    3.13
   9  -3  -5   83.41    4.32
  -9   3   5   80.69    3.13
  -9   3   5   82.34    3.11
  -9   3   5   78.34    3.08
   8  -3  -5    1.01    0.72
   8  -3  -5    1.23    0.42
   8  -3  -5    1.35    0.95
  -8   3   5    1.15    0.46
  -8   3   5    0.78    0.40
  -8   3   5    0.42    0.36
   7  -3  -5   25.01    2.23
   7  -3  -5   28.57    1.37
   7  -3  -5   30.78    2.19
  -7   3   5   25.91    1.38
  -7   3   5   27.28    1.40
   6  -3  -5   55.71    3.00
   6  -3  -5   55.39    2.17
  -6   3   5   57.28    2.21
  -6   3   5   59.22    2.25
   5  -3  -5   19.65    1.08
  -5   3   5   20.33    1.07
  -5   3   5   20.59    1.08
   4  -3  -5   20.21    1.06
  -4   3   5   17.99    0.99
   3  -3  -5   13.34    0.84
   3  -3  -5   12.52    0.58
   3  -3  -5   11.71    0.81
   3  -3  -5   12.34    0.81
  -3   3   5   12.20    0.77
   2  -3  -5    1.98    0.45
   2  -3  -5    1.26    0.34
   2  -3  -5    1.97    0.45
   2  -3  -5    1.76    0.33
   2  -3  -5    1.81    0.43
  -2   3   5    2.98    0.76
  -2   3   5    2.76    0.49
   1  -3  -5    0.21    0.24
   1  -3  -5    0.35    0.28
   1  -3  -5    0.19    0.26
   1  -3  -5    0.43    0.23
   1  -3  -5   -0.05    0.28
  -1   3   5    1.00    0.45
  -1   3   5    0.17    0.24
   0  -3  -5    0.15    0.23
   0  -3  -5    0.32    0.28
   0  -3  -5   -0.24    0.28
   0  -3  -5    0.41    0.32
   0   3   5    0.43    0.27
   0   3   5    0.25    0.43
  -1  -3  -5   39.51    1.75
  -1  -3  -5   36.44    1.73
  -1  -3  -5   38.32    1.57
  -1  -3  -5   37.32    1.72
   1   3   5   38.36    1.46
   1   3   5   38.47    2.35
   1   3   5   38.12    2.16
  -2  -3  -5   89.04    3.02
  -2  -3  -5   83.06    3.18
  -2  -3  -5   88.96    3.15
  -2  -3  -5   85.91    3.20
   2   3   5   92.52    4.15
   2   3   5   84.79    3.84
  -3  -3  -5    3.13    0.58
  -3  -3  -5    0.27    0.36
  -3  -3  -5   -0.01    0.43
  -3  -3  -5   -0.22    0.36
   3   3   5   -0.22    0.44
   3   3   5    0.14    0.56
  -4  -3  -5   -0.21    0.38
  -4  -3  -5    0.68    0.41
  -4  -3  -5    0.04    0.36
  -4  -3  -5    1.16    0.53
   4   3   5    0.13    0.59
   4   3   5    0.04    0.72
  -5  -3  -5  127.42    4.42
  -5  -3  -5  129.72    4.53
  -5  -3  -5  132.34    4.51
  -5  -3  -5  118.15    4.47
   5   3   5  128.62    5.95
   5   3   5  123.30    5.84
  -6  -3  -5   60.05    2.59
  -6  -3  -5   58.47    2.62
  -6  -3  -5   56.54    2.52
   6   3   5   50.51    3.68
   6   3   5   54.10    3.76
  -7  -3  -5    0.54    0.68
  -7  -3  -5    1.12    0.66
   7   3   5    0.38    1.14
  -8  -3  -5    3.23    0.91
  -8  -3  -5    2.80    1.02
   8   3   5    6.17    2.05
  13  -4  -5    1.87    1.51
 -13   4   5    1.76    0.82
  12  -4  -5    0.33    1.29
 -12   4   5    0.84    0.61
 -12   4   5   -0.11    0.52
  11  -4  -5    4.30    1.59
  11  -4  -5    4.80    1.65
 -11   4   5    4.84    0.91
 -11   4   5    7.57    1.12
  10  -4  -5   77.39    4.52
  10  -4  -5   72.70    4.63
 -10   4   5   76.30    3.14
 -10   4   5   80.42    3.55
 -10   4   5   72.84    3.05
   9  -4  -5    5.67    1.55
   9  -4  -5    7.67    0.99
   9  -4  -5    9.23    1.76
  -9   4   5    7.48    0.99
  -9   4   5    6.28    0.87
  -9   4   5    7.49    0.93
   8  -4  -5    9.18    1.78
   8  -4  -5   11.39    0.88
   8  -4  -5    9.02    1.64
  -8   4   5   12.55    0.97
  -8   4   5   11.26    0.93
   7  -4  -5   92.71    3.22
   7  -4  -5   78.33    4.40
   7  -4  -5   97.49    4.40
  -7   4   5   87.26    3.27
  -7   4   5   93.51    3.29
   6  -4  -5  194.39    7.08
   6  -4  -5  185.17    5.93
  -6   4   5  189.42    5.93
  -6   4   5  185.62    5.93
   5  -4  -5    9.28    0.97
  -5   4   5    9.46    0.76
  -5   4   5    9.50    0.96
   4  -4  -5   14.49    0.95
   4  -4  -5   14.94    0.96
  -4   4   5   12.30    0.87
   3  -4  -5   33.29    1.61
   3  -4  -5   34.51    1.63
   3  -4  -5   34.42    1.21
   3  -4  -5   34.26    1.62
  -3   4   5   32.43    1.51
  -3   4   5   34.75    1.86
   2  -4  -5    1.48    0.48
   2  -4  -5    1.57    0.40
   2  -4  -5    1.50    0.45
   2  -4  -5    1.71    0.34
   2  -4  -5    2.40    0.54
  -2   4   5    1.43    0.43
  -2   4   5    1.73    0.57
   1  -4  -5    9.52    1.06
   1  -4  -5    5.92    0.85
   1  -4  -5    6.51    0.84
   1  -4  -5    6.18    0.72
  -1   4   5    6.32    0.98
  -1   4   5    7.48    0.80
   0  -4  -5    0.26    0.29
   0  -4  -5    0.68    0.42
   0  -4  -5    0.09    0.35
   0  -4  -5    0.27    0.36
   0   4   5    1.03    0.38
   0   4   5    0.68    0.52
  -1  -4  -5    3.51    0.70
  -1  -4  -5    2.70    0.68
  -1  -4  -5    2.40    0.61
  -1  -4  -5    2.49    0.52
   1   4   5    1.71    0.69
  -2  -4  -5    0.41    0.48
  -2  -4  -5   -0.03    0.36
  -2  -4  -5    0.16    0.42
  -2  -4  -5    0.47    0.52
   2   4   5   -0.21    0.46
   2   4   5   -0.13    0.47
  -3  -4  -5    2.99    0.80
  -3  -4  -5    1.40    0.57
  -3  -4  -5    2.22    0.72
   3   4   5    1.76    0.83
   3   4   5    2.05    0.95
  -4  -4  -5   11.96    1.33
  -4  -4  -5   15.39    1.61
  -4  -4  -5   14.58    1.52
   4   4   5   14.59    2.19
   4   4   5   11.84    1.92
  -5  -4  -5   20.96    1.55
  -5  -4  -5   20.74    1.52
  -5  -4  -5   23.81    1.61
   5   4   5   26.81    3.22
   5   4   5   17.43    2.51
  -6  -4  -5    0.43    0.60
  -6  -4  -5    0.46    0.69
  -6  -4  -5    1.24    0.73
   6   4   5   -0.18    0.76
   6   4   5    0.88    0.99
  -7  -4  -5    2.36    0.86
  -7  -4  -5    1.10    0.81
   7   4   5    2.71    1.41
  13  -5  -5   11.29    2.63
 -13   5   5    8.13    1.21
  12  -5  -5    4.96    1.77
 -12   5   5    3.80    0.92
 -12   5   5    4.23    0.96
  11  -5  -5    4.35    1.62
  11  -5  -5    2.16    1.42
 -11   5   5    3.29    0.88
 -11   5   5    4.75    0.92
  10  -5  -5    3.12    1.46
  10  -5  -5    3.13    1.32
 -10   5   5    3.12    0.74
 -10   5   5    3.52    0.81
   9  -5  -5    3.18    1.37
   9  -5  -5    4.47    1.38
   9  -5  -5    4.62    1.13
  -9   5   5    3.95    0.81
  -9   5   5    4.61    0.82
   8  -5  -5    1.97    1.02
   8  -5  -5    0.64    0.77
   8  -5  -5    1.64    0.57
  -8   5   5    2.69    0.68
  -8   5   5    1.82    0.58
   7  -5  -5    9.34    1.02
   7  -5  -5    6.53    1.49
   7  -5  -5    9.36    1.00
   7  -5  -5    7.76    1.52
  -7   5   5    9.63    1.01
  -7   5   5    9.47    1.03
   6  -5  -5    1.49    0.50
  -6   5   5    1.70    0.50
  -6   5   5    1.19    0.44
   5  -5  -5  157.20    5.17
   5  -5  -5  156.01    5.16
  -5   5   5  161.39    5.18
  -5   5   5  154.82    5.09
   4  -5  -5   12.33    0.99
   4  -5  -5   12.37    0.99
   4  -5  -5   13.07    0.99
  -4   5   5   12.26    0.93
   3  -5  -5   23.20    1.44
   3  -5  -5   28.71    1.51
   3  -5  -5   25.93    1.47
   3  -5  -5   25.45    1.05
  -3   5   5   26.53    1.37
  -3   5   5   25.89    1.52
   2  -5  -5   99.30    3.76
   2  -5  -5  107.61    3.83
   2  -5  -5   97.15    3.37
   2  -5  -5  109.36    3.84
  -2   5   5  102.07    3.59
  -2   5   5  104.86    3.89
   1  -5  -5  296.44    9.09
   1  -5  -5  292.90    9.05
   1  -5  -5  287.31    9.04
  -1   5   5  277.08    8.71
  -1   5   5  294.45    9.18
   0  -5  -5   13.37    1.48
   0  -5  -5   11.76    1.27
   0  -5  -5    9.82    1.22
   0   5   5   12.73    1.14
   0   5   5   13.24    1.54
  -1  -5  -5    1.41    0.60
  -1  -5  -5    2.32    0.69
  -1  -5  -5    2.50    0.69
   1   5   5    1.28    0.63
  -2  -5  -5   60.44    2.67
  -2  -5  -5   55.15    2.61
  -2  -5  -5   55.00    2.60
   2   5   5   52.65    3.18
   2   5   5   61.09    3.15
  -3  -5  -5   23.69    1.61
  -3  -5  -5   19.79    1.51
  -3  -5  -5   22.47    1.61
   3   5   5   21.96    1.98
   3   5   5   23.12    2.12
  -4  -5  -5    1.96    0.79
  -4  -5  -5    1.94    0.77
  -4  -5  -5    2.56    0.91
   4   5   5    1.36    0.92
   4   5   5    1.90    0.94
  -5  -5  -5    2.24    0.75
  -5  -5  -5    4.81    1.09
  -5  -5  -5    3.74    1.06
   5   5   5    4.30    1.43
   5   5   5    3.20    1.31
  -6  -5  -5    1.79    0.90
  -6  -5  -5    0.33    0.79
  -6  -5  -5    0.96    0.72
   6   5   5    1.14    1.10
  -7  -5  -5    1.56    0.87
   7   5   5    0.51    1.29
  13  -6  -5   26.45    3.72
  12  -6  -5    1.67    1.53
 -12   6   5    2.53    0.83
 -12   6   5    0.98    0.68
  11  -6  -5    0.63    1.31
  11  -6  -5    1.64    1.28
 -11   6   5    0.69    0.55
 -11   6   5    0.65    0.60
  10  -6  -5    5.63    1.74
  10  -6  -5    3.79    1.44
 -10   6   5    5.82    0.96
   9  -6  -5    1.51    1.10
   9  -6  -5    2.58    1.16
  -9   6   5    1.98    0.67
   8  -6  -5    0.98    0.52
   8  -6  -5    0.81    0.88
   8  -6  -5    1.67    0.65
   8  -6  -5    1.26    0.89
  -8   6   5    0.94    0.56
   7  -6  -5    0.63    0.73
   7  -6  -5   -0.31    0.36
   7  -6  -5   -0.53    0.60
  -7   6   5   -0.36    0.39
   6  -6  -5    0.85    0.44
  -6   6   5    1.08    0.49
   5  -6  -5    0.98    0.49
   5  -6  -5    0.55    0.45
  -5   6   5    0.51    0.42
   4  -6  -5    0.36    0.41
   4  -6  -5   -0.10    0.32
  -4   6   5    0.36    0.48
  -4   6   5   -0.18    0.35
   3  -6  -5    3.96    0.84
   3  -6  -5    4.78    0.87
  -3   6   5    3.49    0.69
  -3   6   5    5.40    0.83
   2  -6  -5   83.12    3.38
   2  -6  -5   82.31    3.36
   2  -6  -5   82.87    3.40
  -2   6   5   83.55    3.28
  -2   6   5   82.37    3.15
   1  -6  -5   32.62    1.95
   1  -6  -5   36.60    2.01
   1  -6  -5   39.20    2.05
  -1   6   5   36.80    2.00
  -1   6   5   36.50    1.79
   0  -6  -5   14.95    1.51
   0  -6  -5   12.18    1.49
   0  -6  -5   17.56    1.73
   0   6   5   13.47    1.05
   0   6   5   14.50    1.30
  -1  -6  -5    9.78    1.35
  -1  -6  -5   11.16    1.46
  -1  -6  -5   11.54    1.36
   1   6   5   10.32    1.51
  -2  -6  -5  140.10    5.08
  -2  -6  -5  130.57    4.99
  -2  -6  -5  133.81    5.01
   2   6   5  128.98    5.46
  -3  -6  -5    0.72    0.72
  -3  -6  -5    0.42    0.64
  -3  -6  -5    0.84    0.61
   3   6   5    0.46    0.78
   3   6   5    0.72    0.83
  -4  -6  -5   22.74    1.79
  -4  -6  -5   19.96    2.06
  -4  -6  -5   21.88    1.76
   4   6   5   22.79    2.88
   4   6   5   20.37    2.62
  -5  -6  -5    0.76    0.75
  -5  -6  -5    3.24    0.97
  -5  -6  -5    1.33    0.72
   5   6   5    2.71    1.23
  -6  -6  -5    2.54    1.01
   6   6   5    3.62    1.57
  13  -7  -5    3.21    1.72
 -13   7   5    4.53    1.15
  12  -7  -5   13.10    2.52
 -12   7   5   14.30    1.54
 -12   7   5   12.47    1.50
  11  -7  -5   15.12    2.51
  11  -7  -5   14.63    2.69
 -11   7   5   18.43    1.51
  10  -7  -5    8.21    1.88
  10  -7  -5    8.20    1.87
 -10   7   5   10.02    1.26
   9  -7  -5    2.94    1.14
   9  -7  -5    2.06    1.12
  -9   7   5    3.48    0.85
   8  -7  -5  117.42    5.55
   8  -7  -5  120.20    4.39
   8  -7  -5  126.83    5.56
  -8   7   5  118.23    4.43
   7  -7  -5   38.26    2.59
   7  -7  -5   33.23    1.87
   7  -7  -5   30.23    2.43
  -7   7   5   34.10    1.87
   6  -7  -5    5.44    0.92
   6  -7  -5    3.94    0.85
  -6   7   5    3.57    0.81
   5  -7  -5   48.51    2.40
   5  -7  -5   48.02    2.39
  -5   7   5   49.34    2.31
  -5   7   5   49.46    2.40
   4  -7  -5   27.63    1.79
   4  -7  -5   27.14    1.75
  -4   7   5   30.21    1.70
   3  -7  -5    9.43    1.30
   3  -7  -5    9.66    1.32
  -3   7   5   11.91    1.31
  -3   7   5   11.95    1.02
   2  -7  -5   11.81    1.43
   2  -7  -5   11.66    1.48
  -2   7   5   12.69    1.11
  -2   7   5   11.93    1.32
   1  -7  -5    7.58    1.20
   1  -7  -5    6.67    1.11
  -1   7   5    7.26    1.04
  -1   7   5    8.47    1.14
   0  -7  -5    2.70    0.83
   0  -7  -5    2.87    0.87
   0   7   5    4.27    0.86
   0   7   5    2.62    0.82
  -1  -7  -5    0.04    0.61
  -1  -7  -5    1.38    0.77
   1   7   5    1.33    0.77
  -2  -7  -5    0.52    0.64
  -2  -7  -5   -0.52    0.51
   2   7   5    0.16    0.63
  -3  -7  -5   34.84    2.24
  -3  -7  -5   32.67    2.21
   3   7   5   34.61    2.62
  -4  -7  -5   16.42    1.95
  -4  -7  -5   16.65    1.95
  -5  -7  -5    2.77    1.10
  -5  -7  -5    3.31    1.35
   5   7   5    3.67    1.43
 -12   8   5    1.43    0.78
 -11   8   5    0.14    0.62
  10  -8  -5    0.75    1.11
  10  -8  -5    1.59    1.15
 -10   8   5    2.53    0.88
   9  -8  -5   15.91    2.16
   9  -8  -5   14.01    2.12
  -9   8   5   22.48    1.58
   8  -8  -5   68.26    3.02
   8  -8  -5   72.18    3.82
   8  -8  -5   65.80    3.75
  -8   8   5   66.95    3.05
   7  -8  -5    1.22    0.83
   7  -8  -5    0.58    0.54
   7  -8  -5    0.94    0.79
  -7   8   5    1.20    0.63
   6  -8  -5    0.44    0.64
   6  -8  -5    0.64    0.57
   6  -8  -5    1.25    0.69
  -6   8   5    0.90    0.59
   5  -8  -5  122.58    4.94
   5  -8  -5  133.02    5.02
  -5   8   5  131.26    4.81
   4  -8  -5   44.43    2.64
   4  -8  -5   56.43    2.78
  -4   8   5   56.73    2.60
   3  -8  -5   12.56    1.61
   3  -8  -5   13.15    1.57
  -3   8   5   13.56    1.49
   2  -8  -5    0.61    0.68
   2  -8  -5    0.66    0.69
  -2   8   5    0.06    0.54
   1  -8  -5    8.31    1.35
   1  -8  -5    9.20    1.40
  -1   8   5   10.13    1.31
   0  -8  -5    1.82    0.86
   0  -8  -5    2.43    0.88
   0   8   5    1.24    0.99
  -1  -8  -5    2.03    0.88
  -1  -8  -5    1.35    0.83
  -2  -8  -5    0.46    0.67
  -2  -8  -5   -0.03    0.66
  -3  -8  -5    0.77    0.72
  -3  -8  -5    0.65    0.75
  -4  -8  -5    0.08    0.85
  -4  -8  -5    0.85    0.81
 -12   9   5    6.28    1.24
 -11   9   5    9.86    1.44
  10  -9  -5    3.10    1.42
 -10   9   5    4.33    1.03
   9  -9  -5    4.67    1.41
  -9   9   5    4.15    1.02
   8  -9  -5    3.42    1.09
   8  -9  -5    4.12    0.99
  -8   9   5    4.07    0.98
   7  -9  -5    5.91    1.25
   7  -9  -5    6.69    1.20
  -7   9   5    6.09    1.12
   6  -9  -5    0.11    0.69
   6  -9  -5   -0.09    0.62
   6  -9  -5   -0.11    0.64
  -6   9   5    0.67    0.62
   5  -9  -5   10.97    1.55
   5  -9  -5    9.48    1.48
  -5   9   5    9.89    1.35
   4  -9  -5    8.83    1.40
   4  -9  -5   11.03    1.56
  -4   9   5   10.67    1.40
   3  -9  -5   73.41    3.55
   3  -9  -5   69.10    3.47
  -3   9   5   73.61    3.29
   2  -9  -5    1.09    0.82
   2  -9  -5    1.15    0.73
  -2   9   5    1.28    0.75
   1  -9  -5    2.87    0.97
   1  -9  -5    2.33    0.91
  -1   9   5    3.68    0.95
   0  -9  -5   68.87    3.57
   0  -9  -5   82.29    3.79
  -1  -9  -5   55.82    3.12
  -1  -9  -5   59.80    3.20
  -2  -9  -5    0.36    0.85
  -2  -9  -5   -0.18    0.80
  -3  -9  -5    3.09    1.46
  -3  -9  -5    3.26    1.08
 -11  10   5   35.20    2.33
 -10  10   5   -0.21    0.67
  -9  10   5    0.38    0.72
   8 -10  -5    5.00    1.11
  -8  10   5    4.75    1.08
   7 -10  -5    1.02    0.86
  -7  10   5    0.28    0.60
   6 -10  -5    0.02    0.81
  -6  10   5    0.53    0.71
   5 -10  -5    0.22    0.67
   5 -10  -5   -0.15    0.64
  -5  10   5   -0.21    0.61
   4 -10  -5    0.00    0.66
   4 -10  -5    0.89    0.76
  -4  10   5    0.77    0.67
   3 -10  -5   -0.24    0.64
   3 -10  -5    0.92    0.83
  -3  10   5   -0.28    0.58
   2 -10  -5   -0.34    0.65
   2 -10  -5    0.75    0.76
  -2  10   5    0.73    0.76
   1 -10  -5    4.92    1.29
   1 -10  -5    4.62    1.22
  -1  10   5    5.50    1.13
   0 -10  -5   36.92    2.56
   0 -10  -5   36.82    2.54
  -1 -10  -5    1.32    0.90
  -1 -10  -5    1.90    1.08
  -2 -10  -5    6.71    1.50
 -10  11   5   30.70    2.28
  -9  11   5    1.30    0.89
  -8  11   5    7.71    1.40
   7 -11  -5   14.64    1.92
  -7  11   5   12.78    1.69
   6 -11  -5   70.10    3.67
  -6  11   5   66.47    3.43
   5 -11  -5    7.84    1.58
  -5  11   5    9.46    1.52
   4 -11  -5    8.11    1.55
   4 -11  -5    4.47    1.31
  -4  11   5    5.27    1.15
   3 -11  -5   16.64    2.11
   3 -11  -5   18.78    2.19
  -3  11   5   18.55    1.97
   2 -11  -5    7.19    1.37
   2 -11  -5    7.94    1.60
  -2  11   5    8.63    1.39
   1 -11  -5    2.76    1.18
   1 -11  -5    4.18    1.26
   0 -11  -5    2.25    0.95
   0 -11  -5    3.20    1.14
  -1 -11  -5    2.90    1.13
  -9  12   5    0.30    0.86
  -8  12   5    0.10    0.84
   7 -12  -5   37.61    2.63
  -7  12   5   31.43    2.38
   6 -12  -5   20.54    2.37
  -6  12   5   16.04    1.96
   5 -12  -5    4.16    1.27
  -5  12   5    6.79    1.36
   4 -12  -5    3.33    1.31
  -4  12   5    2.50    1.03
   3 -12  -5   49.91    3.83
   3 -12  -5   50.44    3.19
  -3  12   5   53.23    2.97
   2 -12  -5    3.06    1.29
   2 -12  -5    3.50    1.25
  -2  12   5    3.47    1.18
   1 -12  -5    2.45    1.28
   6 -13  -5    4.58    1.49
  -6  13   5    5.07    1.35
   5 -13  -5    2.94    1.15
  -5  13   5    3.85    1.28
  -1  13  -6    1.68    0.93
  -2  13  -6   11.28    1.71
  -3  13  -6    3.33    1.12
   2  12  -6    9.12    1.65
  -2 -12   6    8.00    2.03
   1  12  -6    1.16    0.93
   0  12  -6    3.92    1.11
  -1  12  -6   72.17    3.61
  -2  12  -6   25.48    2.00
  -3  12  -6    6.04    1.22
  -4  12  -6    5.46    1.28
  -5  12  -6   48.70    2.87
   4  11  -6   -0.28    0.75
  -4 -11   6   -0.14    0.91
   3  11  -6    2.45    1.01
  -3 -11   6    2.62    1.05
   2  11  -6    3.15    1.02
  -2 -11   6    2.60    1.04
   1  11  -6    7.12    1.32
   0  11  -6    5.63    1.23
  -1  11  -6    8.37    1.33
  -2  11  -6    5.33    1.11
  -3  11  -6    1.38    0.83
  -4  11  -6   11.81    1.59
  -5  11  -6    8.25    1.49
  -5  11  -6    8.33    1.27
  -6  11  -6   12.03    1.60
  -6  11  -6   13.18    1.58
  -7  11  -6    7.11    1.27
   6  10  -6   22.13    2.38
  -6 -10   6   27.24    2.85
   5  10  -6   58.43    3.27
  -5 -10   6   65.44    3.55
   4  10  -6    0.03    0.72
  -4 -10   6    0.16    0.84
   3  10  -6   -0.61    0.65
  -3 -10   6    1.54    0.90
   2  10  -6   45.70    2.70
  -2 -10   6   50.99    2.79
   1  10  -6   20.26    2.08
  -1 -10   6   18.86    2.01
   0  10  -6    2.02    0.82
  -1  10  -6    0.66    0.66
  -2  10  -6    3.30    0.90
   2 -10   6    4.01    1.84
  -3  10  -6    2.08    0.76
  -3  10  -6    1.81    0.76
  -4  10  -6   10.12    1.36
  -4  10  -6    7.05    1.08
  -5  10  -6    7.22    1.25
  -5  10  -6    4.28    0.90
  -6  10  -6   11.83    1.49
  -6  10  -6    9.80    1.27
  -7  10  -6    8.70    1.21
   7   9  -6    4.52    1.35
  -7  -9   6    3.48    1.18
  -7  -9   6    3.22    1.27
   6   9  -6   11.27    1.73
  -6  -9   6   10.94    1.76
  -6  -9   6   12.18    1.84
   5   9  -6   10.57    1.69
  -5  -9   6   10.13    1.70
   4   9  -6    0.89    0.77
  -4  -9   6    0.65    0.82
   3   9  -6   11.86    1.59
  -3  -9   6   10.06    1.54
   2   9  -6   70.35    3.28
  -2  -9   6   70.84    3.31
   1   9  -6    0.99    0.68
  -1  -9   6    2.32    1.09
  -1  -9   6    1.60    0.81
   0   9  -6   46.07    2.40
   0  -9   6   40.78    3.04
  -1   9  -6   14.55    1.60
  -1   9  -6   12.38    1.36
   1  -9   6   14.61    2.20
  -2   9  -6   24.92    1.65
  -2   9  -6   22.06    1.53
   2  -9   6   18.23    2.37
  -3   9  -6   21.47    1.51
  -3   9  -6   23.44    1.61
   3  -9   6   22.54    2.52
  -4   9  -6    6.60    0.99
  -4   9  -6    8.67    1.25
   4  -9   6    6.01    1.43
  -5   9  -6    5.86    0.97
  -5   9  -6    6.44    1.11
  -7   9  -6    1.23    0.66
  -8   9  -6    4.06    0.91
  -8  -8   6   18.66    2.38
  -8  -8   6   16.86    2.23
   7   8  -6    0.01    0.76
  -7  -8   6    0.12    0.82
  -7  -8   6   -0.18    0.76
   6   8  -6    0.38    0.67
  -6  -8   6    0.92    0.86
  -6  -8   6   -0.12    0.69
   5   8  -6    1.86    0.79
  -5  -8   6    1.12    0.88
  -5  -8   6    1.84    0.92
   4   8  -6    3.01    0.94
  -4  -8   6    1.42    0.86
  -4  -8   6    0.84    0.71
   3   8  -6    4.79    1.00
  -3  -8   6    4.13    0.96
  -3  -8   6    5.83    1.29
   2   8  -6    5.16    0.94
  -2  -8   6    6.06    1.14
   1   8  -6   31.20    1.82
  -1  -8   6   29.97    2.50
  -1  -8   6   31.70    1.90
   0   8  -6   27.01    1.67
   0   8  -6   30.09    1.67
   0  -8   6   27.02    2.32
   0  -8   6   29.65    1.80
  -1   8  -6    1.09    0.45
  -1   8  -6    0.80    0.52
   1  -8   6    0.80    0.91
  -2   8  -6   30.49    1.62
  -2   8  -6   30.10    1.71
   2  -8   6   29.09    2.31
  -3   8  -6  177.45    5.88
  -3   8  -6  179.09    5.72
   3  -8   6  162.41    6.62
  -4   8  -6   16.76    1.26
  -4   8  -6   13.84    1.06
   4  -8   6   10.32    1.56
  -5   8  -6    9.54    1.09
  -5   8  -6   10.71    1.31
   5  -8   6    8.39    1.50
  -6   8  -6   27.63    1.60
  -7   8  -6   41.62    2.05
  -8   8  -6    0.67    0.58
  -9  -7   6   43.54    2.84
  -8  -7   6    9.13    1.63
  -8  -7   6    6.94    1.38
   7   7  -6   23.85    1.84
  -7  -7   6   25.82    2.01
  -7  -7   6   25.66    1.99
   6   7  -6   -0.20    0.50
  -6  -7   6    0.95    0.69
  -6  -7   6    0.78    0.73
   5   7  -6   34.75    2.05
  -5  -7   6   34.75    2.13
  -5  -7   6   29.01    2.00
   4   7  -6    2.72    0.82
  -4  -7   6    1.74    0.76
  -4  -7   6    1.06    0.66
   3   7  -6   11.96    1.36
  -3  -7   6   13.89    1.55
  -3  -7   6   10.73    1.35
   2   7  -6    2.33    0.64
  -2  -7   6    2.24    0.73
  -2  -7   6    1.71    0.66
   1   7  -6    3.31    0.70
   1   7  -6    3.71    0.66
  -1  -7   6    2.87    1.10
  -1  -7   6    2.53    0.77
   0   7  -6    6.92    0.86
   0   7  -6    7.04    1.00
   0  -7   6    9.60    1.14
   0  -7   6    6.28    1.28
  -1   7  -6   16.81    1.17
  -1   7  -6   18.33    1.12
   1  -7   6   18.47    2.02
  -2   7  -6   14.84    0.96
  -2   7  -6   14.38    1.06
   2  -7   6   10.44    1.57
  -3   7  -6   23.55    1.44
  -3   7  -6   22.04    1.18
  -3   7  -6   20.99    1.31
   3  -7   6   17.33    1.93
  -4   7  -6    2.03    0.44
  -4   7  -6    2.61    0.65
  -4   7  -6    3.70    0.70
   4  -7   6    3.12    0.87
  -5   7  -6    0.94    0.41
  -5   7  -6    0.94    0.47
  -5   7  -6    1.92    0.60
   5  -7   6    0.61    0.68
  -6   7  -6   39.98    1.82
  -6   7  -6   39.88    1.80
   6  -7   6   38.26    2.51
  -7   7  -6    2.26    0.58
  -7   7  -6    3.38    0.67
  -8   7  -6   25.72    1.53
  -8   7  -6   31.44    1.52
  -9   7  -6    0.66    0.50
   9   6  -6    0.39    0.82
  -9  -6   6    0.46    0.69
  -9  -6   6   -0.21    0.65
   8   6  -6    8.12    1.38
   8   6  -6    9.08    1.58
  -8  -6   6    7.23    1.30
  -8  -6   6    6.40    1.26
   7   6  -6   32.68    2.05
   7   6  -6   35.28    2.32
  -7  -6   6   34.66    2.15
  -7  -6   6   33.15    2.10
   6   6  -6   -0.35    0.44
   6   6  -6    0.50    0.59
  -6  -6   6    0.21    0.51
  -6  -6   6    0.55    0.56
   5   6  -6    0.44    0.52
   5   6  -6    0.24    0.51
  -5  -6   6    0.69    0.59
  -5  -6   6    0.20    0.49
   4   6  -6  179.38    6.13
   4   6  -6  187.36    6.07
  -4  -6   6  182.01    6.25
  -4  -6   6  187.78    6.28
   3   6  -6  117.70    4.17
   3   6  -6  113.78    3.94
  -3  -6   6  114.69    4.27
  -3  -6   6  119.34    4.29
   2   6  -6   11.67    0.94
   2   6  -6   11.50    0.78
   2   6  -6   11.53    0.91
  -2  -6   6   11.32    1.25
  -2  -6   6   11.10    1.23
   1   6  -6   13.29    0.93
   1   6  -6   13.92    1.00
  -1  -6   6   13.85    1.08
  -1  -6   6   14.21    1.77
  -1  -6   6   14.58    1.13
   0   6  -6  122.53    4.04
   0   6  -6  119.56    4.12
   0  -6   6  129.88    5.03
   0  -6   6  118.35    4.51
   0  -6   6  126.61    4.24
   0  -6   6  120.61    4.14
  -1   6  -6   10.26    1.02
  -1   6  -6   11.10    0.78
  -1   6  -6   11.78    0.87
   1  -6   6   11.39    1.10
   1  -6   6   13.16    1.61
  -2   6  -6    0.48    0.28
  -2   6  -6    0.44    0.35
  -2   6  -6    0.61    0.39
   2  -6   6    0.30    0.50
   2  -6   6    0.07    0.44
  -3   6  -6    6.36    0.79
  -3   6  -6    7.15    0.82
  -3   6  -6    5.74    0.61
   3  -6   6    6.97    1.22
   3  -6   6    5.90    1.04
  -4   6  -6    3.02    0.63
  -4   6  -6    2.46    0.40
  -4   6  -6    2.45    0.53
   4  -6   6    4.50    1.00
   4  -6   6    2.75    0.81
  -5   6  -6    2.36    0.48
  -5   6  -6    2.88    0.42
   5  -6   6    2.11    0.74
   5  -6   6    1.56    0.75
  -6   6  -6    5.68    0.61
  -6   6  -6    6.43    0.64
   6  -6   6    6.79    1.39
   6  -6   6    7.12    1.30
  -7   6  -6    9.98    0.75
  -7   6  -6   12.09    0.87
   7  -6   6    9.87    1.76
  -8   6  -6   17.26    1.00
  -8   6  -6   16.55    1.05
  -9   6  -6    3.24    0.56
  -9   6  -6    1.79    0.45
  10   5  -6    1.79    1.13
 -10  -5   6    2.43    1.02
 -10  -5   6    1.00    0.78
   9   5  -6   -0.19    0.76
  -9  -5   6   -0.15    0.54
  -9  -5   6   -0.34    0.56
   8   5  -6    0.83    0.75
   8   5  -6    1.49    0.71
  -8  -5   6    2.12    0.80
  -8  -5   6    0.18    0.49
   7   5  -6    4.08    0.98
   7   5  -6    3.68    0.82
  -7  -5   6    4.08    0.89
  -7  -5   6    4.93    0.98
   6   5  -6   10.91    1.44
   6   5  -6   10.89    1.29
  -6  -5   6    8.92    1.22
  -6  -5   6   11.18    1.29
   5   5  -6   17.13    1.32
   5   5  -6   18.75    1.35
   5   5  -6   19.18    1.28
  -5  -5   6   17.66    1.27
  -5  -5   6   20.38    1.34
   4   5  -6   60.65    2.47
   4   5  -6   54.65    2.23
   4   5  -6   53.31    2.34
  -4  -5   6   56.14    2.42
  -4  -5   6   53.41    2.40
   3   5  -6   14.35    1.00
   3   5  -6   16.17    1.01
   3   5  -6   13.71    0.96
  -3  -5   6   14.25    1.07
  -3  -5   6   14.64    1.08
   2   5  -6    0.51    0.31
   2   5  -6    1.10    0.38
   2   5  -6    0.67    0.34
  -2  -5   6    0.42    0.31
  -2  -5   6    1.40    0.50
  -2  -5   6    0.53    0.43
   1   5  -6   87.49    2.97
   1   5  -6   85.38    2.90
   1   5  -6   85.58    3.02
  -1  -5   6   88.72    3.17
  -1  -5   6   85.05    3.69
  -1  -5   6   85.26    3.06
  -1  -5   6   83.52    3.14
   0   5  -6  106.12    3.55
   0   5  -6  110.14    3.48
   0   5  -6  108.62    3.71
   0  -5   6  109.56    3.57
   0  -5   6  111.43    4.24
   0  -5   6   96.41    4.11
   0  -5   6  107.62    3.66
  -1   5  -6   43.89    1.62
  -1   5  -6   44.91    1.84
  -1   5  -6   40.41    1.67
   1  -5   6   43.30    2.24
   1  -5   6   40.19    2.21
  -2   5  -6   37.83    1.53
  -2   5  -6   38.73    1.66
  -2   5  -6   35.93    1.40
   2  -5   6   39.45    2.08
   2  -5   6   38.93    2.15
  -3   5  -6   53.49    1.98
  -3   5  -6   53.06    1.95
  -3   5  -6   51.42    1.76
   3  -5   6   55.64    2.74
   3  -5   6   49.55    2.51
  -4   5  -6    2.92    0.40
  -4   5  -6    2.12    0.28
  -4   5  -6    3.35    0.56
   4  -5   6    2.54    0.79
   4  -5   6    3.09    0.94
   5  -5   6   32.83    2.21
   5  -5   6   31.61    2.28
   5  -5   6   32.07    2.06
   6  -5   6    0.45    0.72
   6  -5   6   -0.09    0.56
   6  -5   6    0.40    0.75
   7  -5   6    4.33    1.30
   7  -5   6    6.04    1.55
   8  -5   6    0.51    1.09
  11   4  -6   18.42    2.60
 -11  -4   6   16.59    1.93
  10   4  -6   64.84    3.93
 -10  -4   6   71.63    3.37
 -10  -4   6   70.13    3.34
   9   4  -6    1.49    0.88
  -9  -4   6    0.28    0.59
  -9  -4   6    0.49    0.57
   8   4  -6   -0.38    0.51
   8   4  -6   -0.46    0.44
  -8  -4   6    0.13    0.43
  -8  -4   6    0.43    0.52
   7   4  -6   52.87    2.50
   7   4  -6   50.97    2.78
   7   4  -6   49.14    2.36
  -7  -4   6   55.40    2.52
  -7  -4   6   51.91    2.45
   6   4  -6   32.05    1.89
   6   4  -6   25.35    1.61
   6   4  -6   30.26    1.62
  -6  -4   6   27.59    1.61
  -6  -4   6   28.02    1.61
   5   4  -6    3.03    0.73
   5   4  -6    2.46    0.60
   5   4  -6    3.00    0.72
  -5  -4   6    1.25    0.47
  -5  -4   6    1.75    0.54
   4   4  -6    4.07    0.68
   4   4  -6    4.68    0.81
   4   4  -6    4.44    0.70
  -4  -4   6    3.39    0.60
  -4  -4   6    3.22    0.63
  -4  -4   6    4.36    0.73
   3   4  -6    1.49    0.40
   3   4  -6    2.10    0.50
   3   4  -6    2.16    0.47
   3   4  -6    1.82    0.52
  -3  -4   6    1.54    0.42
  -3  -4   6    2.05    0.51
  -3  -4   6    1.73    0.49
   2   4  -6    1.72    0.37
   2   4  -6    1.82    0.47
   2   4  -6    1.51    0.40
   2   4  -6    1.46    0.41
   2   4  -6    1.36    0.39
  -2  -4   6    1.65    0.43
  -2  -4   6    0.90    0.53
  -2  -4   6    1.33    0.36
  -2  -4   6    1.72    0.45
   1   4  -6    7.62    0.59
   1   4  -6    7.89    0.58
   1   4  -6    6.47    0.71
   1   4  -6    8.31    0.82
  -1  -4   6    7.15    1.00
  -1  -4   6   10.21    0.96
  -1  -4   6    9.46    0.91
  -1  -4   6    7.69    0.64
   0   4  -6   12.11    0.68
   0   4  -6   11.74    0.70
   0   4  -6   10.91    0.76
   0  -4   6   11.81    0.80
   0  -4   6   11.93    0.78
   0  -4   6   13.31    1.60
   0  -4   6   12.86    0.75
   0  -4   6   12.61    1.28
  -1   4  -6   75.20    2.60
  -1   4  -6   77.32    2.48
  -1   4  -6   73.19    2.40
   1  -4   6   77.06    3.07
   1  -4   6   72.28    3.30
  -2   4  -6   19.78    0.89
  -2   4  -6   20.79    0.80
   2  -4   6   18.98    1.53
   2  -4   6   20.61    1.37
  -3   4  -6    0.66    0.27
   3  -4   6    0.89    0.59
   3  -4   6    0.12    0.38
   4  -4   6   89.35    3.69
   4  -4   6   88.39    3.93
   4  -4   6   91.13    4.15
   5  -4   6  155.96    6.46
   5  -4   6  165.36    6.38
   5  -4   6  161.61    5.90
   6  -4   6    0.59    0.77
   6  -4   6    0.27    0.74
   7  -4   6    0.13    0.86
   7  -4   6    0.12    0.85
   8  -4   6   41.00    3.32
   9  -4   6   10.38    2.27
  11   3  -6   22.04    2.86
 -11  -3   6   24.76    1.85
 -11  -3   6   22.76    1.82
  10   3  -6   18.78    2.49
 -10  -3   6   16.11    1.75
 -10  -3   6   17.32    1.82
   9   3  -6    2.68    0.93
   9   3  -6    3.10    1.10
  -9  -3   6    2.72    0.80
  -9  -3   6    2.89    0.77
   8   3  -6   12.07    1.58
   8   3  -6   11.96    1.76
   8   3  -6   13.15    1.38
  -8  -3   6   12.54    1.37
  -8  -3   6   12.03    1.34
   7   3  -6  153.96    5.78
   7   3  -6  161.80    5.46
   7   3  -6  170.29    6.07
  -7  -3   6  159.66    5.48
  -7  -3   6  167.36    5.50
   6   3  -6    0.85    0.55
   6   3  -6    1.55    0.59
   6   3  -6    1.09    0.46
  -6  -3   6    1.07    0.45
  -6  -3   6    1.14    0.46
   5   3  -6   60.98    2.69
   5   3  -6   59.87    2.51
   5   3  -6   56.97    2.32
  -5  -3   6   61.19    2.50
  -5  -3   6   59.38    2.38
  -5  -3   6   59.07    2.36
   4   3  -6   17.23    1.01
   4   3  -6   18.73    1.13
   4   3  -6   15.76    1.17
   4   3  -6   18.45    1.01
  -4  -3   6   16.38    1.02
  -4  -3   6   17.41    1.04
  -4  -3   6   18.39    1.11
   3   3  -6   36.18    1.54
   3   3  -6   39.08    1.81
   3   3  -6   37.41    1.68
   3   3  -6   36.95    1.56
  -3  -3   6   37.00    1.65
  -3  -3   6   39.97    1.63
  -3  -3   6   38.73    1.62
   2   3  -6   16.92    0.90
   2   3  -6   16.71    0.97
   2   3  -6   17.13    0.88
   2   3  -6   17.49    0.93
  -2  -3   6   16.93    1.19
  -2  -3   6   18.25    0.96
  -2  -3   6   16.50    0.91
  -2  -3   6   16.66    0.94
   1   3  -6    5.93    0.53
   1   3  -6    6.70    0.64
   1   3  -6    6.28    0.47
   1   3  -6    5.71    0.47
  -1  -3   6    5.68    0.80
  -1  -3   6    6.70    0.67
  -1  -3   6    6.33    0.66
   0   3  -6    2.02    0.35
   0   3  -6    2.67    0.38
   0   3  -6    2.27    0.32
   0   3  -6    2.10    0.34
   0   3  -6    2.48    0.39
   0  -3   6    3.52    0.50
   0  -3   6    1.85    0.68
   0  -3   6    2.80    0.57
   0  -3   6    2.45    0.42
  -1   3  -6    3.82    0.41
  -1   3  -6    3.39    0.41
  -1   3  -6    3.90    0.36
  -1   3  -6    3.03    0.39
  -1   3  -6    3.08    0.40
   1  -3   6    3.62    0.70
   1  -3   6    3.72    0.91
  -2   3  -6   12.78    0.59
  -2   3  -6   12.65    0.59
   2  -3   6   15.45    1.79
   2  -3   6   13.02    1.02
   3  -3   6   21.42    1.40
   3  -3   6   18.96    1.68
   3  -3   6   23.16    1.68
   4  -3   6   20.96    1.77
   4  -3   6   23.34    1.55
   4  -3   6   19.04    1.81
   5  -3   6   17.50    2.35
   5  -3   6   16.76    2.24
   6  -3   6    0.18    0.76
   6  -3   6    0.69    0.89
   7  -3   6    4.49    1.48
   7  -3   6    4.93    1.57
   8  -3   6   30.69    3.03
   8  -3   6   36.59    3.31
   9  -3   6    1.13    1.36
  12   2  -6    1.17    1.19
 -12  -2   6    1.64    0.83
  11   2  -6    0.65    0.94
 -11  -2   6    1.35    0.71
 -11  -2   6    0.73    0.64
  10   2  -6    1.19    0.85
  10   2  -6    0.52    0.77
 -10  -2   6    1.53    0.69
 -10  -2   6    0.42    0.56
   9   2  -6    0.95    0.55
   9   2  -6    0.98    0.84
   9   2  -6    0.62    0.75
  -9  -2   6    1.04    0.57
  -9  -2   6    1.21    0.61
   8   2  -6    0.50    0.66
   8   2  -6    0.18    0.63
   8   2  -6    0.22    0.43
  -8  -2   6   -0.38    0.38
  -8  -2   6   -0.01    0.34
   7   2  -6   -0.03    0.51
   7   2  -6    0.07    0.48
   7   2  -6    0.54    0.40
  -7  -2   6   -0.04    0.33
  -7  -2   6    0.57    0.46
   6   2  -6   59.45    2.82
   6   2  -6   57.56    2.30
   6   2  -6   60.90    2.90
  -6  -2   6   58.44    2.35
  -6  -2   6   57.19    2.34
   5   2  -6   52.50    2.18
   5   2  -6   51.96    2.05
   5   2  -6   53.21    2.50
  -5  -2   6   48.62    2.03
  -5  -2   6   50.12    2.05
   4   2  -6   13.45    0.91
   4   2  -6   13.85    1.11
   4   2  -6   14.58    0.86
   4   2  -6   14.23    0.84
  -4  -2   6   15.00    0.88
  -4  -2   6   13.03    0.84
   3   2  -6   30.60    1.32
   3   2  -6   33.75    1.46
   3   2  -6   31.54    1.34
  -3  -2   6   32.16    1.36
  -3  -2   6   31.68    1.60
  -3  -2   6   30.53    1.34
   2   2  -6  521.49   14.75
   2   2  -6  520.20   14.73
   2   2  -6  516.34   14.70
   2   2  -6  525.53   14.86
  -2  -2   6  516.07   14.73
  -2  -2   6  508.03   14.72
  -2  -2   6  525.29   15.10
   1   2  -6   83.39    2.72
   1   2  -6   83.66    2.71
   1   2  -6   84.14    2.75
   1   2  -6   84.24    2.83
  -1  -2   6   89.20    3.90
  -1  -2   6   92.81    3.14
  -1  -2   6   86.12    2.74
   0   2  -6   10.59    0.62
   0   2  -6   11.04    0.57
   0   2  -6   11.39    0.57
   0   2  -6    9.99    0.56
   0  -2   6   14.85    1.76
   0  -2   6   11.79    0.86
  -1   2  -6   83.88    2.52
  -1   2  -6   81.18    2.58
  -1   2  -6   80.72    2.51
  -1   2  -6   83.94    2.53
   1  -2   6   82.10    3.06
   1  -2   6   82.99    3.67
  -2   2  -6  107.16    3.11
  -2   2  -6  104.56    3.10
   2  -2   6  104.91    3.82
   2  -2   6  106.80    4.46
   3  -2   6    3.52    1.13
   3  -2   6    2.26    0.78
   3  -2   6    2.61    0.70
   4  -2   6    0.89    0.68
   4  -2   6    1.31    0.74
   5  -2   6    5.62    1.41
   5  -2   6    5.13    1.40
   6  -2   6    2.17    1.18
   6  -2   6    0.59    0.98
   7  -2   6    2.94    1.41
   7  -2   6    1.07    1.17
   8  -2   6    2.54    1.57
   8  -2   6    4.07    1.67
  -9   2  -6    9.79    0.69
  -9   2  -6    9.40    0.73
   9  -2   6    9.48    2.44
  12   1  -6    3.36    1.41
 -12  -1   6    5.16    1.09
 -12  -1   6    5.32    1.07
  11   1  -6    0.69    0.98
  11   1  -6    0.51    1.03
 -11  -1   6    0.28    0.53
 -11  -1   6    0.93    0.62
  10   1  -6    9.90    1.81
  10   1  -6   13.44    1.96
 -10  -1   6   13.25    1.41
 -10  -1   6   13.82    1.44
   9   1  -6    0.20    0.58
   9   1  -6   -0.31    0.40
   9   1  -6    0.16    0.70
  -9  -1   6    0.18    0.46
  -9  -1   6   -0.17    0.43
   8   1  -6    1.04    0.51
   8   1  -6    0.32    0.69
   8   1  -6    0.76    0.63
  -8  -1   6    0.46    0.45
  -8  -1   6    0.21    0.41
   7   1  -6    0.70    0.56
   7   1  -6    1.28    0.44
   7   1  -6    1.66    0.77
  -7  -1   6    2.14    0.52
  -7  -1   6    1.60    0.49
   6   1  -6    1.02    0.37
   6   1  -6    0.44    0.29
   6   1  -6    1.10    0.57
  -6  -1   6    0.86    0.38
  -6  -1   6    0.90    0.36
  -6  -1   6    0.73    0.35
   5   1  -6    6.11    0.72
   5   1  -6    6.11    1.01
   5   1  -6    6.03    0.67
   5   1  -6    8.17    0.83
  -5  -1   6    7.26    0.78
  -5  -1   6    5.10    0.63
  -5  -1   6    6.21    0.72
   4   1  -6   16.38    0.86
   4   1  -6   15.17    0.92
   4   1  -6   14.09    0.83
  -4  -1   6   14.68    0.84
  -4  -1   6   13.02    0.80
   3   1  -6   59.82    2.15
   3   1  -6   56.53    2.02
   3   1  -6   57.07    2.01
   3   1  -6   56.30    2.01
  -3  -1   6   53.42    1.99
  -3  -1   6   57.52    2.18
  -3  -1   6   55.13    2.00
   2   1  -6   93.61    3.07
   2   1  -6  100.08    3.21
   2   1  -6  101.61    3.09
   2   1  -6   95.70    3.08
  -2  -1   6   94.25    3.05
  -2  -1   6   96.67    3.27
  -2  -1   6   98.37    3.07
   1   1  -6    0.32    0.19
   1   1  -6    0.40    0.17
   1   1  -6    0.39    0.20
  -1  -1   6    0.09    0.12
  -1  -1   6    0.44    0.21
  -1  -1   6    0.21    0.22
  -1  -1   6   -0.17    0.33
   0   1  -6    0.32    0.15
   0   1  -6    0.69    0.21
   0   1  -6    0.82    0.22
   0   1  -6    0.84    0.22
   0  -1   6    0.73    0.32
   0  -1   6    0.32    0.46
  -1   1  -6  228.20    6.46
   1  -1   6  223.89    7.79
   1  -1   6  224.04    7.02
  -2   1  -6   41.06    1.32
  -2   1  -6   38.83    1.33
   2  -1   6   37.62    2.37
   2  -1   6   41.91    2.40
   2  -1   6   39.87    1.91
   3  -1   6   79.58    3.91
   3  -1   6   83.66    3.91
   4  -1   6    4.99    1.29
   4  -1   6    2.91    1.00
   5  -1   6   33.42    2.67
   5  -1   6   33.99    2.67
   6  -1   6    3.05    1.30
   6  -1   6    3.23    1.32
  -7   1  -6   13.79    0.89
   7  -1   6   13.47    2.59
   7  -1   6   15.11    2.62
  -8   1  -6    0.35    0.33
  -8   1  -6    0.40    0.43
   8  -1   6    1.57    1.40
   8  -1   6   -0.19    1.00
  -9   1  -6    1.26    0.45
   9  -1   6    0.93    1.31
  12   0  -6   22.90    3.06
 -12   0   6   27.42    1.87
 -12   0   6   28.50    1.91
  11   0  -6   -0.81    0.88
  11   0  -6    1.42    1.10
 -11   0   6    1.45    0.69
 -11   0   6    0.71    0.58
  10   0  -6    1.38    1.02
  10   0  -6    2.64    1.18
 -10   0   6    3.07    0.80
 -10   0   6    1.76    0.64
   9   0  -6  111.32    5.14
   9   0  -6  115.14    4.05
   9   0  -6  108.30    5.10
  -9   0   6  115.08    4.13
  -9   0   6  118.35    4.14
   8   0  -6  105.85    3.75
   8   0  -6  107.91    4.72
   8   0  -6  108.34    4.81
  -8   0   6  108.90    3.82
  -8   0   6  106.15    3.81
   7   0  -6    0.53    0.71
   7   0  -6   -0.06    0.26
   7   0  -6   -0.10    0.42
  -7   0   6    0.30    0.33
  -7   0   6   -0.29    0.23
  -7   0   6    0.14    0.28
   6   0  -6   20.35    1.58
   6   0  -6   22.13    1.26
   6   0  -6   21.44    1.15
  -6   0   6   22.28    1.17
  -6   0   6   21.76    1.16
  -6   0   6   21.91    1.16
   5   0  -6   89.70    3.11
   5   0  -6   89.93    2.95
   5   0  -6   82.76    3.54
   5   0  -6   82.15    2.91
  -5   0   6   85.14    2.94
  -5   0   6   86.20    2.94
  -5   0   6   81.68    2.93
   4   0  -6   24.63    1.12
   4   0  -6   22.79    1.10
   4   0  -6   23.34    1.20
  -4   0   6   23.72    1.11
  -4   0   6   24.00    1.13
  -4   0   6   23.36    1.10
   3   0  -6   11.47    0.70
   3   0  -6   11.48    0.69
   3   0  -6   11.58    0.69
  -3   0   6   12.21    0.71
  -3   0   6   11.64    0.69
  -3   0   6   12.33    0.71
   2   0  -6    9.37    0.70
   2   0  -6    9.10    0.59
   2   0  -6   10.48    0.62
   2   0  -6    9.39    0.56
  -2   0   6   10.13    0.58
  -2   0   6   10.62    0.66
  -2   0   6    9.25    0.57
   1   0  -6    1.84    0.36
   1   0  -6    1.80    0.43
   1   0  -6    2.12    0.37
   1   0  -6    2.19    0.32
  -1   0   6    2.22    0.43
  -1   0   6    1.91    0.74
  -1   0   6    1.45    0.29
   0   0  -6    0.60    0.24
   0   0  -6    0.75    0.24
   0   0  -6    0.83    0.24
   0   0  -6    0.23    0.16
   0   0   6    0.33    0.48
   0   0   6    0.31    0.25
  -1   0  -6    2.32    0.25
  -1   0  -6    1.78    0.32
  -1   0  -6    2.98    0.41
  -1   0  -6    3.80    0.46
   1   0   6    1.80    0.48
   1   0   6    3.09    0.95
  -2   0  -6   25.51    1.05
  -2   0  -6   26.50    1.05
   2   0   6   26.80    1.95
   2   0   6   24.45    1.88
  -3   0  -6   66.64    2.18
  -3   0  -6   66.65    2.17
   3   0   6   66.59    3.47
   3   0   6   59.91    3.37
  -4   0  -6    1.08    0.33
   4   0   6    1.91    0.87
   4   0   6    0.87    0.82
  -5   0  -6    0.79    0.37
   5   0   6    0.62    0.83
   5   0   6    0.41    0.73
  -6   0  -6   99.93    3.35
  -6   0  -6  104.57    3.20
  -6   0  -6  100.95    3.33
   6   0   6  106.49    5.47
   6   0   6   98.78    5.39
  -7   0  -6   52.46    2.16
  -7   0  -6   52.53    1.93
   7   0   6   47.64    3.81
   7   0   6   49.01    3.79
  -8   0  -6    2.35    0.54
   8   0   6    2.18    1.46
  13  -1  -6   -0.30    1.07
 -13   1   6    1.16    0.78
  12  -1  -6    1.36    1.06
 -12   1   6    0.79    0.77
 -12   1   6    1.10    0.74
  11  -1  -6   -0.25    0.89
  11  -1  -6    0.06    0.97
 -11   1   6   -0.57    0.45
 -11   1   6   -0.07    0.53
  10  -1  -6    6.89    1.65
  10  -1  -6    7.44    1.60
 -10   1   6    6.03    0.92
 -10   1   6    7.30    1.07
   9  -1  -6   73.46    3.96
   9  -1  -6   81.35    3.00
   9  -1  -6   74.51    4.18
  -9   1   6   75.37    3.02
  -9   1   6   78.57    3.05
   8  -1  -6   15.52    2.20
   8  -1  -6   11.26    1.69
   8  -1  -6   13.12    0.93
  -8   1   6   11.26    1.12
  -8   1   6   13.63    1.48
  -8   1   6   12.45    0.96
   7  -1  -6   11.52    1.93
   7  -1  -6   10.70    0.91
   7  -1  -6   10.76    0.82
   7  -1  -6    9.34    1.46
  -7   1   6    9.96    1.02
  -7   1   6   10.38    0.83
  -7   1   6    9.84    0.81
   6  -1  -6  100.16    3.54
   6  -1  -6  101.79    4.26
   6  -1  -6   94.98    3.35
  -6   1   6   98.02    3.37
  -6   1   6  101.23    3.40
  -6   1   6   97.21    3.39
   5  -1  -6  234.03    7.11
   5  -1  -6  232.07    7.09
   5  -1  -6  240.60    7.29
  -5   1   6  231.41    7.10
  -5   1   6  233.01    7.11
  -5   1   6  238.19    7.11
  -5   1   6  244.59    6.95
   4  -1  -6   12.62    0.79
   4  -1  -6   12.80    0.79
  -4   1   6   13.98    0.81
  -4   1   6   14.57    0.83
  -4   1   6   13.72    0.69
   3  -1  -6   29.16    1.28
   3  -1  -6   29.46    1.30
   3  -1  -6   29.17    1.24
  -3   1   6   29.48    1.25
  -3   1   6   30.45    1.27
  -3   1   6   31.56    1.19
   2  -1  -6   58.13    2.01
   2  -1  -6   60.19    2.13
   2  -1  -6   55.86    2.09
   2  -1  -6   59.08    2.08
  -2   1   6   58.70    2.01
  -2   1   6   58.25    2.00
  -2   1   6   58.27    2.04
   1  -1  -6    7.45    0.56
   1  -1  -6    7.22    0.55
   1  -1  -6    7.93    0.64
   1  -1  -6    7.36    0.49
   1  -1  -6    8.34    0.73
  -1   1   6    7.35    0.58
  -1   1   6    7.28    1.13
  -1   1   6    7.07    0.48
   0  -1  -6   11.38    0.74
   0  -1  -6   12.99    0.63
   0  -1  -6   11.85    0.73
   0  -1  -6   12.38    0.72
   0   1   6   11.87    1.18
   0   1   6   11.66    0.82
  -1  -1  -6    0.29    0.17
  -1  -1  -6    0.61    0.28
  -1  -1  -6    0.27    0.25
  -1  -1  -6    0.25    0.23
   1   1   6    0.57    0.53
  -2  -1  -6    0.91    0.32
  -2  -1  -6    1.45    0.35
  -2  -1  -6    1.41    0.37
  -2  -1  -6    1.16    0.25
   2   1   6    1.31    0.69
   2   1   6    1.34    0.72
  -3  -1  -6    0.61    0.26
  -3  -1  -6    0.86    0.25
  -3  -1  -6    0.69    0.36
  -3  -1  -6    0.50    0.31
   3   1   6    0.27    0.63
   3   1   6    0.64    0.64
  -4  -1  -6    7.56    0.84
  -4  -1  -6    4.53    0.52
  -4  -1  -6    7.56    0.86
  -4  -1  -6    6.16    0.62
   4   1   6    4.46    1.29
   4   1   6    4.89    1.34
  -5  -1  -6   11.98    0.93
  -5  -1  -6   12.96    0.85
  -5  -1  -6   12.99    0.80
   5   1   6   16.78    2.61
   5   1   6   15.87    2.51
  -6  -1  -6   15.94    1.13
  -6  -1  -6   16.05    0.99
  -6  -1  -6   17.47    1.15
   6   1   6   24.79    3.16
   6   1   6   15.01    2.58
  -7  -1  -6    1.53    0.66
  -7  -1  -6    1.89    0.55
   7   1   6    3.18    1.51
   7   1   6    0.26    1.04
  -8  -1  -6    0.08    0.46
   8   1   6    1.75    1.34
  13  -2  -6    0.86    1.24
 -13   2   6    2.09    0.90
  12  -2  -6   13.18    2.35
 -12   2   6   15.46    1.57
 -12   2   6   19.98    1.51
  11  -2  -6    6.28    1.77
  11  -2  -6    7.31    1.83
 -11   2   6    8.41    1.16
 -11   2   6    5.03    0.89
  10  -2  -6    1.93    1.22
  10  -2  -6    2.35    1.13
 -10   2   6    2.80    0.71
 -10   2   6    2.54    0.64
   9  -2  -6    2.27    1.01
   9  -2  -6    4.99    1.56
   9  -2  -6    2.93    0.61
  -9   2   6    2.17    0.61
  -9   2   6    2.95    0.66
   8  -2  -6    1.58    0.78
   8  -2  -6    2.19    0.56
   8  -2  -6    1.75    1.09
  -8   2   6    2.09    0.55
  -8   2   6    1.54    0.49
  -8   2   6    1.96    0.55
   7  -2  -6    0.32    0.51
   7  -2  -6    0.75    0.37
   7  -2  -6    0.70    0.88
   7  -2  -6    0.36    0.31
  -7   2   6    0.92    0.36
  -7   2   6    0.83    0.44
  -7   2   6    0.88    0.39
   6  -2  -6    4.03    0.64
   6  -2  -6    3.00    0.94
  -6   2   6    3.28    0.57
  -6   2   6    3.28    0.54
  -6   2   6    3.80    0.60
   5  -2  -6    2.02    0.42
   5  -2  -6    2.00    0.45
   5  -2  -6    1.12    0.40
  -5   2   6    1.23    0.38
  -5   2   6    2.06    0.25
  -5   2   6    1.18    0.36
  -5   2   6    1.84    0.41
   4  -2  -6  165.85    5.26
   4  -2  -6  171.45    5.26
  -4   2   6  172.36    4.89
  -4   2   6  163.90    5.20
   3  -2  -6   21.76    1.10
   3  -2  -6   21.60    0.99
   3  -2  -6   21.83    1.04
  -3   2   6   22.91    0.92
  -3   2   6   22.22    1.05
   2  -2  -6   25.63    1.23
   2  -2  -6   23.73    1.17
   2  -2  -6   24.60    1.09
   2  -2  -6   25.99    1.14
   2  -2  -6   24.08    1.18
  -2   2   6   24.88    1.69
  -2   2   6   24.14    1.08
   1  -2  -6  119.83    3.99
   1  -2  -6  122.89    3.97
   1  -2  -6  123.60    3.80
   1  -2  -6  119.80    3.96
  -1   2   6  122.84    4.64
  -1   2   6  122.27    3.75
   0  -2  -6  374.40   10.90
   0  -2  -6  377.02   10.69
   0  -2  -6  379.56   10.94
   0  -2  -6  368.16   10.87
   0   2   6  376.87   11.83
   0   2   6  367.95   10.56
   0   2   6  367.19   10.55
  -1  -2  -6   11.25    0.67
  -1  -2  -6   10.97    0.78
  -1  -2  -6   10.89    0.80
  -1  -2  -6   10.57    0.83
   1   2   6   14.76    1.79
  -2  -2  -6    0.08    0.20
  -2  -2  -6   -0.18    0.33
  -2  -2  -6    0.81    0.40
  -2  -2  -6   -0.25    0.30
   2   2   6    0.03    0.46
   2   2   6   -0.04    0.57
  -3  -2  -6   70.36    2.71
  -3  -2  -6   68.61    2.67
  -3  -2  -6   72.16    2.53
  -3  -2  -6   70.73    2.63
   3   2   6   77.50    3.85
   3   2   6   73.97    3.91
  -4  -2  -6   29.35    1.46
  -4  -2  -6   30.05    1.43
  -4  -2  -6   29.84    1.54
  -4  -2  -6   30.67    1.56
   4   2   6   28.28    2.44
   4   2   6   29.04    2.42
  -5  -2  -6    0.30    0.35
  -5  -2  -6    0.51    0.43
  -5  -2  -6    1.00    0.57
   5   2   6    0.41    0.72
   5   2   6    0.19    0.68
  -6  -2  -6    2.95    0.80
  -6  -2  -6    2.84    0.63
   6   2   6    2.61    1.31
   6   2   6    1.92    1.14
  -7  -2  -6    1.03    0.58
  -7  -2  -6    1.48    0.76
   7   2   6    3.61    1.43
   7   2   6    0.62    1.08
  -8  -2  -6    0.67    0.61
  13  -3  -6    2.75    1.49
 -13   3   6    2.70    0.95
  12  -3  -6   69.22    4.75
 -12   3   6   66.57    3.06
 -12   3   6   70.95    3.12
  11  -3  -6    3.81    1.43
  11  -3  -6    7.48    2.06
 -11   3   6    4.36    0.83
 -11   3   6    3.84    0.82
  10  -3  -6    1.89    1.21
  10  -3  -6    3.65    1.36
 -10   3   6    5.22    0.85
 -10   3   6    4.56    0.84
   9  -3  -6    9.71    2.07
   9  -3  -6    9.09    1.76
   9  -3  -6    7.71    0.96
  -9   3   6    9.79    1.12
  -9   3   6    8.97    1.07
   8  -3  -6    4.99    1.49
   8  -3  -6    7.87    1.51
   8  -3  -6    8.68    0.99
  -8   3   6    9.61    1.54
  -8   3   6    8.28    0.96
  -8   3   6    8.97    1.04
   7  -3  -6    1.00    0.75
   7  -3  -6    1.79    0.55
  -7   3   6    1.68    0.46
  -7   3   6    2.62    0.60
  -7   3   6    1.33    0.42
   6  -3  -6    0.04    0.30
   6  -3  -6   -0.07    0.28
  -6   3   6   -0.07    0.29
  -6   3   6   -0.14    0.26
   5  -3  -6    0.70    0.34
   5  -3  -6    1.09    0.41
  -5   3   6    0.36    0.31
  -5   3   6    0.81    0.33
   4  -3  -6    1.35    0.40
  -4   3   6    0.90    0.37
   3  -3  -6    3.05    0.58
   3  -3  -6    3.17    0.42
   3  -3  -6    4.42    0.64
   3  -3  -6    3.53    0.58
  -3   3   6    3.97    0.59
   2  -3  -6   12.25    0.86
   2  -3  -6   11.89    0.88
   2  -3  -6   11.27    0.76
   2  -3  -6   11.41    0.86
   2  -3  -6   12.37    0.74
  -2   3   6   11.03    1.34
  -2   3   6   12.69    0.77
   1  -3  -6   81.55    2.91
   1  -3  -6   72.11    2.80
   1  -3  -6   78.74    2.87
   1  -3  -6   76.42    2.69
  -1   3   6   75.39    2.60
  -1   3   6   83.16    3.45
   0  -3  -6   44.96    1.96
   0  -3  -6   47.26    1.99
   0  -3  -6   46.45    2.02
   0  -3  -6   44.15    1.80
   0   3   6   47.76    2.50
   0   3   6   45.68    1.66
  -1  -3  -6    8.24    0.97
  -1  -3  -6    7.78    0.66
  -1  -3  -6   10.88    1.12
  -1  -3  -6   11.80    1.17
   1   3   6    8.51    1.37
  -2  -3  -6   11.10    1.15
  -2  -3  -6   13.15    1.27
  -2  -3  -6   13.16    1.30
  -2  -3  -6   10.07    0.81
   2   3   6   10.68    1.68
   2   3   6   14.09    2.04
  -3  -3  -6  145.22    4.66
  -3  -3  -6  137.36    4.79
  -3  -3  -6  144.89    4.83
  -3  -3  -6  139.11    4.75
   3   3   6  133.18    5.83
   3   3   6  136.38    6.04
  -4  -3  -6    1.06    0.54
  -4  -3  -6    0.83    0.59
  -4  -3  -6    0.39    0.57
   4   3   6    2.26    1.13
   4   3   6    0.36    0.68
  -5  -3  -6   26.01    1.68
  -5  -3  -6   27.99    1.67
  -5  -3  -6   31.55    1.78
   5   3   6   24.44    3.00
   5   3   6   29.23    2.67
  -6  -3  -6    1.97    0.72
  -6  -3  -6    2.43    0.86
   6   3   6    0.70    0.91
   6   3   6    3.07    1.48
  -7  -3  -6   10.78    1.41
  -7  -3  -6    9.74    1.36
   7   3   6    7.65    2.09
  13  -4  -6   -0.94    1.33
 -13   4   6    1.18    0.75
  12  -4  -6    3.32    1.80
 -12   4   6    3.88    0.94
 -12   4   6    2.82    0.82
  11  -4  -6   18.10    2.92
  11  -4  -6   21.80    3.09
 -11   4   6   22.43    1.58
 -11   4   6   22.68    1.57
  10  -4  -6   33.01    2.93
  10  -4  -6   24.22    3.29
 -10   4   6   28.78    1.74
 -10   4   6   29.40    1.72
   9  -4  -6   13.41    2.13
   9  -4  -6   13.84    2.40
   9  -4  -6   15.86    1.13
  -9   4   6   13.72    1.13
  -9   4   6   14.58    1.15
   8  -4  -6    3.68    0.74
   8  -4  -6    3.50    1.33
   8  -4  -6    2.28    1.07
  -8   4   6    3.66    0.71
   7  -4  -6  220.06    8.22
   7  -4  -6  210.56    6.76
  -7   4   6  214.06    6.81
   6  -4  -6   61.94    2.51
  -6   4   6   64.30    2.51
   5  -4  -6    0.95    0.40
  -5   4   6    0.72    0.41
   4  -4  -6   56.33    2.33
   4  -4  -6   61.74    2.38
  -4   4   6   57.43    2.27
   3  -4  -6   49.52    2.14
   3  -4  -6   46.24    2.08
   3  -4  -6   47.66    2.09
   3  -4  -6   48.70    1.71
  -3   4   6   49.49    2.43
  -3   4   6   47.46    1.95
   2  -4  -6   12.78    1.23
   2  -4  -6   10.41    0.86
   2  -4  -6   11.50    1.15
   2  -4  -6    9.38    0.69
  -2   4   6    9.12    0.76
  -2   4   6   12.46    1.42
   1  -4  -6   11.54    1.22
   1  -4  -6   12.21    0.96
   1  -4  -6   11.98    1.22
   1  -4  -6   12.87    1.26
  -1   4   6   10.41    0.79
  -1   4   6   12.70    1.51
   0  -4  -6    6.66    0.93
   0  -4  -6    7.03    0.97
   0  -4  -6    7.81    1.09
   0  -4  -6    7.18    0.96
   0   4   6    6.87    1.19
   0   4   6    7.29    0.76
  -1  -4  -6    1.17    0.53
  -1  -4  -6    2.15    0.61
  -1  -4  -6    0.42    0.45
   1   4   6    2.31    0.92
  -2  -4  -6   -0.04    0.37
  -2  -4  -6   -0.19    0.37
  -2  -4  -6   -0.23    0.42
   2   4   6    0.23    0.59
   2   4   6    0.63    0.74
  -3  -4  -6    0.21    0.38
  -3  -4  -6    0.74    0.64
  -3  -4  -6    0.85    0.51
   3   4   6    0.75    0.72
   3   4   6   -0.03    0.58
  -4  -4  -6   27.92    1.80
  -4  -4  -6   32.13    1.85
  -4  -4  -6   28.88    1.81
   4   4   6   31.48    2.67
   4   4   6   23.70    2.33
  -5  -4  -6   19.03    1.55
  -5  -4  -6   19.30    1.53
  -5  -4  -6   20.25    1.54
   5   4   6   18.21    2.71
   5   4   6   16.32    2.62
  -6  -4  -6    2.98    0.92
  -6  -4  -6    1.83    0.86
   6   4   6    0.84    1.06
   6   4   6    0.33    1.03
  -7  -4  -6    3.52    1.01
   7   4   6    8.42    3.26
  13  -5  -6   -0.40    1.47
 -13   5   6   -0.31    0.57
  12  -5  -6   -0.28    1.11
 -12   5   6    0.48    0.64
 -12   5   6    1.09    0.68
  11  -5  -6    0.83    1.35
  11  -5  -6   -0.82    0.95
 -11   5   6   -0.10    0.59
 -11   5   6    0.66    0.61
  10  -5  -6    1.19    1.06
  10  -5  -6    0.60    1.07
 -10   5   6   -0.10    0.42
 -10   5   6    0.47    0.51
   9  -5  -6    1.59    1.13
   9  -5  -6    0.42    0.47
   9  -5  -6    0.19    0.72
  -9   5   6    0.88    0.53
   8  -5  -6   28.26    2.51
   8  -5  -6   33.14    2.81
   8  -5  -6   34.49    1.70
  -8   5   6   28.73    1.66
   7  -5  -6  103.00    4.92
   7  -5  -6  102.62    3.71
  -7   5   6   97.89    3.66
   6  -5  -6    0.01    0.34
  -6   5   6   -0.05    0.34
   5  -5  -6    1.47    0.52
   5  -5  -6    0.80    0.47
  -5   5   6    0.69    0.42
   4  -5  -6  217.85    7.23
   4  -5  -6  198.34    6.54
   4  -5  -6  199.03    6.53
  -4   5   6  196.10    6.39
   3  -5  -6   90.06    3.43
   3  -5  -6   83.20    3.36
   3  -5  -6   90.13    2.89
   3  -5  -6   83.23    3.39
  -3   5   6   86.06    3.20
  -3   5   6   94.87    3.64
   2  -5  -6   25.76    1.54
   2  -5  -6   25.01    1.53
   2  -5  -6   26.89    1.61
  -2   5   6   26.42    1.72
  -2   5   6   25.17    1.37
   1  -5  -6    1.42    0.56
   1  -5  -6    0.40    0.48
   1  -5  -6    1.10    0.56
  -1   5   6    0.92    0.45
  -1   5   6    1.69    0.70
   0  -5  -6   24.82    1.58
   0  -5  -6   25.11    1.61
   0  -5  -6   27.24    1.66
   0   5   6   26.00    1.84
  -1  -5  -6    0.76    0.58
  -1  -5  -6    0.69    0.54
  -1  -5  -6    0.51    0.59
   1   5   6    0.40    0.62
  -2  -5  -6    2.20    0.79
  -2  -5  -6    2.61    0.79
  -2  -5  -6    4.52    0.96
   2   5   6    2.53    0.97
  -3  -5  -6    0.11    0.61
  -3  -5  -6    0.37    0.54
  -3  -5  -6   -0.11    0.44
   3   5   6    0.40    0.73
   3   5   6   -0.31    0.62
  -4  -5  -6    0.34    0.71
  -4  -5  -6    0.22    0.55
  -4  -5  -6    1.19    0.75
   4   5   6    0.67    0.78
   4   5   6    0.70    0.85
  -5  -5  -6    0.97    0.80
  -5  -5  -6    0.38    0.76
  -5  -5  -6    0.06    0.51
   5   5   6   -0.23    0.80
   5   5   6    0.86    1.04
  -6  -5  -6    1.56    0.92
  -6  -5  -6    1.35    0.76
   6   5   6    0.67    1.06
  13  -6  -6   15.73    3.04
  12  -6  -6    0.33    1.22
 -12   6   6    0.34    0.70
 -12   6   6    0.94    0.73
  11  -6  -6    6.20    2.08
  11  -6  -6    6.35    1.92
 -11   6   6    7.32    1.10
 -11   6   6    6.94    1.08
  10  -6  -6   13.88    2.63
  10  -6  -6   19.38    2.84
 -10   6   6   19.24    1.45
   9  -6  -6    5.01    1.54
   9  -6  -6    7.81    1.05
   9  -6  -6    5.30    1.56
  -9   6   6    5.53    0.94
   8  -6  -6    7.19    1.69
   8  -6  -6   10.50    1.18
   8  -6  -6    7.01    1.04
   8  -6  -6    8.60    1.77
  -8   6   6    9.12    1.15
   7  -6  -6    8.72    1.12
   7  -6  -6    7.70    1.70
  -7   6   6    7.22    1.00
   6  -6  -6    5.68    0.90
  -6   6   6    7.32    1.01
   5  -6  -6   -0.25    0.38
   5  -6  -6   -0.41    0.38
  -5   6   6    0.59    0.44
  -5   6   6    0.26    0.50
   4  -6  -6    7.55    1.07
   4  -6  -6    6.76    1.01
  -4   6   6    7.18    0.99
  -4   6   6    8.03    1.11
   3  -6  -6   15.30    1.23
   3  -6  -6   10.46    1.31
  -3   6   6   15.92    1.27
  -3   6   6   16.97    1.17
   2  -6  -6  108.19    4.14
   2  -6  -6  109.70    4.17
   2  -6  -6  108.21    4.15
  -2   6   6  105.34    4.16
  -2   6   6  104.38    3.85
   1  -6  -6    0.47    0.49
   1  -6  -6    0.17    0.51
   1  -6  -6    0.73    0.54
  -1   6   6    0.29    0.55
  -1   6   6    1.61    0.62
   0  -6  -6    3.13    0.80
   0  -6  -6    3.31    0.82
   0  -6  -6    2.44    0.73
   0   6   6    2.95    0.92
  -1  -6  -6  109.92    4.39
  -1  -6  -6  114.48    4.44
  -1  -6  -6  115.40    4.41
   1   6   6  107.13    4.76
  -2  -6  -6   96.67    3.89
  -2  -6  -6   88.78    3.83
  -2  -6  -6   90.49    3.82
   2   6   6   81.68    4.26
  -3  -6  -6   -0.30    0.54
  -3  -6  -6   -0.54    0.62
  -3  -6  -6    0.06    0.63
   3   6   6   -0.48    0.74
  -4  -6  -6    1.88    0.93
  -4  -6  -6    3.35    0.93
  -4  -6  -6    4.93    1.14
   4   6   6    5.25    1.52
  -5  -6  -6   24.96    2.01
  -5  -6  -6   23.11    1.90
  -5  -6  -6   22.71    1.86
  13  -7  -6    3.88    1.76
 -13   7   6    3.62    1.10
  12  -7  -6    1.75    1.43
 -12   7   6    2.50    0.86
 -12   7   6    2.42    0.86
  11  -7  -6   13.74    2.56
  11  -7  -6   13.43    2.66
 -11   7   6   21.61    1.61
  10  -7  -6   70.29    4.43
  10  -7  -6   67.04    4.43
 -10   7   6   76.45    3.27
   9  -7  -6   -0.05    0.52
   9  -7  -6   -0.05    0.91
   9  -7  -6   -0.25    0.79
  -9   7   6    0.67    0.57
   8  -7  -6    0.51    0.84
   8  -7  -6   -0.31    0.76
   8  -7  -6    0.78    0.61
  -8   7   6    0.52    0.53
   7  -7  -6   13.82    1.48
   7  -7  -6    9.24    1.67
   7  -7  -6   15.54    2.28
  -7   7   6   11.48    1.34
   6  -7  -6    0.54    0.52
   6  -7  -6    1.30    0.62
  -6   7   6    1.80    0.65
   5  -7  -6    1.03    0.59
   5  -7  -6    1.17    0.66
  -5   7   6    0.27    0.49
  -5   7   6    0.78    0.60
   4  -7  -6    0.03    0.48
   4  -7  -6   -0.06    0.39
  -4   7   6    0.06    0.44
  -4   7   6    0.15    0.41
   3  -7  -6    0.86    0.56
   3  -7  -6    1.63    0.72
  -3   7   6    2.68    0.73
  -3   7   6    1.15    0.62
   2  -7  -6    1.01    0.64
   2  -7  -6   -0.10    0.47
  -2   7   6    0.42    0.55
  -2   7   6    0.38    0.52
   1  -7  -6    0.53    0.59
   1  -7  -6    0.07    0.50
  -1   7   6    0.94    0.61
  -1   7   6   -0.48    0.47
   0  -7  -6    7.81    1.27
   0  -7  -6    9.96    1.48
   0   7   6   10.64    1.51
  -1  -7  -6   49.89    2.67
  -1  -7  -6   50.70    2.70
   1   7   6   44.45    2.80
  -2  -7  -6    2.02    0.95
  -2  -7  -6    3.96    1.10
   2   7   6    2.96    1.11
  -3  -7  -6    4.00    1.12
  -3  -7  -6    4.45    1.25
   3   7   6    4.11    1.32
  -4  -7  -6   16.10    2.00
  -4  -7  -6   16.03    1.98
 -12   8   6    1.85    0.86
  11  -8  -6    2.60    1.48
 -11   8   6    5.75    1.13
  10  -8  -6    0.33    1.06
  10  -8  -6    1.56    1.24
 -10   8   6    1.49    0.76
   9  -8  -6   56.12    2.69
   9  -8  -6   59.09    3.64
   9  -8  -6   52.22    2.64
   9  -8  -6   49.24    3.40
  -9   8   6   53.67    2.67
   8  -8  -6    5.48    1.40
   8  -8  -6    6.57    1.11
   8  -8  -6    4.61    1.36
  -8   8   6    5.72    1.07
   7  -8  -6   21.71    1.99
   7  -8  -6   20.33    1.56
   7  -8  -6   21.88    2.12
  -7   8   6   21.20    1.58
   6  -8  -6   24.44    1.74
   6  -8  -6   24.08    1.74
  -6   8   6   24.14    1.68
   5  -8  -6  135.97    5.11
   5  -8  -6  131.63    5.08
  -5   8   6  122.67    4.79
   4  -8  -6   11.65    1.55
   4  -8  -6   11.16    1.45
  -4   8   6   16.22    1.61
   3  -8  -6    3.72    1.00
   3  -8  -6    4.56    1.05
  -3   8   6    2.86    0.85
   2  -8  -6   39.11    2.40
   2  -8  -6   37.81    2.33
  -2   8   6   37.14    2.12
   1  -8  -6   18.11    1.97
   1  -8  -6   15.31    1.84
  -1   8   6   12.35    1.50
   0  -8  -6    4.49    1.08
   0  -8  -6    4.69    1.09
  -1  -8  -6    3.98    1.09
  -1  -8  -6    7.94    1.51
  -2  -8  -6    2.04    1.02
  -2  -8  -6    4.74    1.21
   2   8   6    2.43    1.18
  -3  -8  -6    0.74    0.81
  -3  -8  -6    0.17    0.96
 -12   9   6    0.30    0.76
 -11   9   6   -0.12    0.65
  10  -9  -6    0.80    1.11
 -10   9   6    1.93    0.91
   9  -9  -6    0.73    1.18
  -9   9   6    1.24    0.79
   8  -9  -6    0.42    0.71
   8  -9  -6    0.03    0.86
  -8   9   6   -0.53    0.61
   7  -9  -6    0.15    0.69
   7  -9  -6    0.67    0.69
  -7   9   6    0.06    0.54
   6  -9  -6   55.13    3.12
   6  -9  -6   59.17    3.02
   6  -9  -6   58.95    3.02
  -6   9   6   51.58    2.77
   5  -9  -6   44.34    2.64
   5  -9  -6   40.47    2.56
  -5   9   6   42.67    2.39
   4  -9  -6    4.57    1.15
   4  -9  -6    7.43    1.32
  -4   9   6    4.96    1.07
   3  -9  -6    1.80    0.93
   3  -9  -6    3.26    1.05
  -3   9   6    5.79    1.17
   2  -9  -6  110.82    4.75
   2  -9  -6  112.30    4.80
  -2   9   6  111.40    4.45
   1  -9  -6    7.08    1.46
   1  -9  -6    9.55    1.61
   0  -9  -6    6.17    1.32
   0  -9  -6    6.68    1.41
  -1  -9  -6    0.53    0.70
  -1  -9  -6    1.21    0.86
  -2  -9  -6    2.83    0.98
  -2  -9  -6    2.91    0.99
 -11  10   6    9.85    1.51
 -10  10   6    2.81    0.94
  -9  10   6   17.21    1.88
   8 -10  -6    8.88    1.47
  -8  10   6    7.47    1.28
   7 -10  -6    4.56    1.23
  -7  10   6    5.03    1.16
   6 -10  -6    4.00    1.13
  -6  10   6    4.28    1.02
   5 -10  -6    2.37    1.00
   5 -10  -6    4.88    1.21
  -5  10   6    5.69    1.17
   4 -10  -6    4.05    1.13
   4 -10  -6    2.90    1.00
  -4  10   6    4.33    1.09
   3 -10  -6    1.84    0.87
   3 -10  -6    1.22    0.90
  -3  10   6    2.20    0.94
   2 -10  -6    2.98    1.09
   2 -10  -6    1.96    1.06
  -2  10   6    2.94    1.01
   1 -10  -6   18.59    2.18
   1 -10  -6   18.08    2.22
   0 -10  -6   17.14    2.17
   0 -10  -6   15.97    2.08
  -1 -10  -6    4.08    1.49
  -1 -10  -6    3.35    1.17
 -10  11   6    0.83    0.85
  -9  11   6   36.87    2.51
   8 -11  -6   27.77    2.20
  -8  11   6   29.92    2.23
   7 -11  -6    0.91    1.00
  -7  11   6   -0.07    0.71
   6 -11  -6    0.51    0.96
  -6  11   6    0.79    0.77
   5 -11  -6    2.55    1.08
  -5  11   6    3.86    1.05
   4 -11  -6    0.33    0.71
   4 -11  -6    0.44    0.84
  -4  11   6    0.70    0.88
   3 -11  -6   -1.00    0.65
   3 -11  -6   -0.40    0.79
  -3  11   6   -0.08    0.78
   2 -11  -6   -0.41    0.81
   2 -11  -6    1.10    1.01
   1 -11  -6   -0.48    0.82
   1 -11  -6    0.28    0.88
   0 -11  -6    0.24    0.95
  -9  12   6   11.45    1.82
  -8  12   6    0.73    0.90
   7 -12  -6   34.36    2.63
   6 -12  -6   -0.68    0.97
  -6  12   6    0.47    0.77
   5 -12  -6    3.47    1.29
  -5  12   6    3.88    1.15
   4 -12  -6   19.01    2.39
  -4  12   6   32.71    2.31
   3 -12  -6   32.20    2.54
  -3  12   6   31.63    2.42
   2 -12  -6    1.35    1.05
   2  12  -7    3.90    1.16
   1  12  -7   27.46    2.19
   0  12  -7   -0.12    0.76
  -1  12  -7   23.32    2.36
  -2  12  -7    6.40    1.38
  -3  12  -7   16.37    1.95
  -4  12  -7    9.57    1.51
   4  11  -7    0.71    0.89
  -4 -11   7    0.79    1.00
   3  11  -7    0.57    0.76
  -3 -11   7    1.31    0.99
   2  11  -7    3.61    1.12
   1  11  -7    3.44    1.08
   0  11  -7   12.17    1.67
  -1  11  -7   14.37    1.75
  -2  11  -7    3.29    0.94
  -3  11  -7   18.06    1.96
  -4  11  -7   74.95    3.68
  -4  11  -7   70.71    3.39
  -5  11  -7    5.61    1.06
  -5  11  -7    7.37    1.39
  -6  11  -7    4.73    1.03
   6  10  -7   14.53    1.99
  -6 -10   7   10.68    1.87
   5  10  -7    0.15    0.83
  -5 -10   7   -0.53    0.88
   4  10  -7   26.19    2.14
  -4 -10   7   27.64    2.22
   3  10  -7    0.09    0.65
  -3 -10   7    0.66    0.88
   2  10  -7   11.36    1.62
  -2 -10   7   11.08    1.64
   1  10  -7    1.38    0.78
   0  10  -7    5.06    1.15
  -1  10  -7    3.07    0.90
  -2  10  -7    6.87    1.14
  -3  10  -7   10.10    1.42
  -3  10  -7    6.45    1.12
  -4  10  -7    8.45    1.30
  -4  10  -7    8.61    1.27
  -5  10  -7    3.66    1.00
  -5  10  -7    3.26    0.89
  -6  10  -7    1.78    0.76
  -7  10  -7   13.61    1.53
   7   9  -7    5.87    1.51
  -7  -9   7    4.53    1.26
   6   9  -7   14.56    1.94
  -6  -9   7   15.75    2.06
   5   9  -7    1.84    0.89
  -5  -9   7    1.67    0.90
   4   9  -7    1.37    0.80
  -4  -9   7    1.12    0.92
   3   9  -7   91.33    3.99
  -3  -9   7   90.08    4.04
   2   9  -7   63.81    3.09
  -2  -9   7   63.66    3.10
   1   9  -7   12.88    1.58
  -1  -9   7    5.72    1.79
   0   9  -7    3.82    0.96
   0  -9   7    2.29    1.16
  -1   9  -7   75.56    3.25
  -1   9  -7   70.84    3.10
   1  -9   7   70.58    4.11
  -2   9  -7    5.02    0.91
  -2   9  -7    6.62    1.11
   2  -9   7    1.67    1.06
  -3   9  -7    4.03    0.90
  -3   9  -7    1.94    0.66
  -4   9  -7    3.03    0.82
  -4   9  -7    1.99    0.69
  -5   9  -7    2.48    0.87
  -6   9  -7    1.41    0.67
  -7   9  -7    3.31    0.83
  -8  -8   7   -0.40    0.84
  -8  -8   7   -0.45    0.76
   7   8  -7    0.81    0.75
  -7  -8   7    1.42    0.95
  -7  -8   7    1.79    0.93
   6   8  -7    2.22    0.91
  -6  -8   7    1.63    0.88
  -6  -8   7    2.99    1.05
   5   8  -7    4.49    1.07
  -5  -8   7    7.80    1.42
   4   8  -7   14.33    1.67
  -4  -8   7   15.82    1.91
   3   8  -7   27.59    1.81
  -3  -8   7   27.41    1.91
   2   8  -7   11.54    1.36
  -2  -8   7   10.77    1.93
  -2  -8   7   10.53    1.46
   1   8  -7   -0.60    0.42
  -1  -8   7    0.37    0.82
  -1  -8   7    1.14    0.70
   0   8  -7   41.71    2.03
   0   8  -7   39.71    2.07
   0  -8   7   35.69    2.77
  -1   8  -7   54.55    2.50
  -1   8  -7   54.51    2.40
   1  -8   7   53.72    3.31
  -2   8  -7   14.65    1.12
  -2   8  -7   18.74    1.32
   2  -8   7   15.13    2.07
  -3   8  -7   20.34    1.31
  -3   8  -7   21.97    1.48
   3  -8   7   19.11    2.23
  -4   8  -7   35.23    1.90
  -4   8  -7   33.12    1.70
   4  -8   7   32.41    2.43
  -5   8  -7    2.69    0.64
  -6   8  -7   23.15    1.45
  -7   8  -7    0.38    0.47
  -8   8  -7    3.45    0.77
  -9  -7   7   56.09    3.28
  -9  -7   7   58.64    4.01
   8   7  -7    0.44    0.74
  -8  -7   7   -0.34    0.74
  -8  -7   7    0.88    0.91
   7   7  -7   -0.15    0.56
  -7  -7   7    1.19    0.79
  -7  -7   7    0.32    0.70
   6   7  -7   33.81    2.14
  -6  -7   7   38.96    2.34
  -6  -7   7   35.38    2.30
   5   7  -7   26.49    1.77
  -5  -7   7   24.48    1.82
  -5  -7   7   25.70    1.85
   4   7  -7   -0.32    0.45
  -4  -7   7   -0.31    0.50
  -4  -7   7   -0.27    0.52
   3   7  -7    0.45    0.50
  -3  -7   7    0.80    0.66
   2   7  -7    2.25    0.68
  -2  -7   7    2.76    0.81
  -2  -7   7    2.73    1.11
   1   7  -7    0.94    0.54
   1   7  -7    0.99    0.46
  -1  -7   7    0.43    0.85
  -1  -7   7    0.89    0.59
  -1  -7   7    2.08    0.88
   0   7  -7    9.66    1.11
   0   7  -7    7.95    0.92
   0  -7   7    8.35    1.53
  -1   7  -7   10.35    1.12
  -1   7  -7    8.48    0.91
   1  -7   7    7.86    1.42
  -2   7  -7   32.29    1.55
  -2   7  -7   36.45    1.74
   2  -7   7   31.54    2.27
  -3   7  -7   16.48    1.16
  -3   7  -7   15.17    0.97
   3  -7   7   11.40    1.67
  -4   7  -7   -0.04    0.45
  -4   7  -7    0.87    0.54
  -4   7  -7    0.94    0.41
   4  -7   7    0.78    0.65
  -5   7  -7   45.15    1.92
  -5   7  -7   50.83    2.18
  -6   7  -7   85.01    3.15
  -6   7  -7   81.82    2.99
  -7   7  -7   -0.16    0.46
  -7   7  -7   -0.03    0.43
  -8   7  -7    0.53    0.53
  -8   7  -7    0.61    0.52
   9   6  -7   16.35    2.24
  -9  -6   7   14.86    1.94
  -9  -6   7   17.38    2.11
   8   6  -7    0.78    0.84
   8   6  -7    1.39    0.75
  -8  -6   7    0.48    0.74
  -8  -6   7    0.30    0.66
   7   6  -7    9.81    1.50
   7   6  -7    8.99    1.35
  -7  -6   7    8.58    1.35
  -7  -6   7    8.75    1.36
   6   6  -7  112.81    4.38
   6   6  -7  117.25    4.52
  -6  -6   7  113.33    4.47
  -6  -6   7  110.46    4.43
   5   6  -7    1.61    0.66
   5   6  -7    2.94    0.78
  -5  -6   7    1.32    0.66
  -5  -6   7    1.32    0.64
   4   6  -7   50.91    2.31
   4   6  -7   46.67    2.16
  -4  -6   7   45.98    2.33
  -4  -6   7   48.12    2.36
   3   6  -7   11.97    0.96
   3   6  -7   12.66    1.32
  -3  -6   7   11.27    1.28
  -3  -6   7   13.57    1.44
   2   6  -7   36.53    1.78
   2   6  -7   40.00    1.79
  -2  -6   7   33.17    1.85
  -2  -6   7   33.86    2.41
   1   6  -7   12.95    0.97
   1   6  -7   12.69    0.93
  -1  -6   7   15.05    1.12
  -1  -6   7   13.33    1.72
  -1  -6   7   14.28    1.86
   0   6  -7    8.01    0.93
   0   6  -7    9.26    0.90
   0  -6   7    8.38    1.28
   0  -6   7    9.18    1.40
  -1   6  -7    4.57    0.61
  -1   6  -7    4.22    0.81
  -1   6  -7    5.80    0.80
   1  -6   7    4.47    1.00
   1  -6   7    4.78    1.06
  -2   6  -7    4.98    0.73
  -2   6  -7    4.08    0.67
  -2   6  -7    4.22    0.58
   2  -6   7    3.75    0.93
   2  -6   7    3.86    0.98
  -3   6  -7    7.41    0.60
  -3   6  -7    8.92    0.93
  -3   6  -7    9.11    0.99
   3  -6   7    7.97    1.30
   3  -6   7    7.77    1.30
  -4   6  -7   14.23    0.80
  -4   6  -7   14.91    1.03
   4  -6   7   16.75    1.61
   4  -6   7   12.88    1.62
  -5   6  -7   10.60    0.67
  -5   6  -7   10.69    0.86
   5  -6   7   10.90    1.63
   5  -6   7    9.50    1.62
  -6   6  -7    9.09    0.75
  -6   6  -7   10.13    0.68
   6  -6   7    9.18    1.70
  -7   6  -7    0.81    0.42
  -7   6  -7    0.77    0.39
   7  -6   7    0.95    1.00
  -8   6  -7    2.47    0.56
  10   5  -7    0.31    1.03
 -10  -5   7    0.64    0.74
 -10  -5   7    0.55    0.74
   9   5  -7    1.06    0.93
   9   5  -7    0.77    0.84
  -9  -5   7    0.92    0.65
  -9  -5   7    0.77    0.64
   8   5  -7    0.76    0.75
   8   5  -7    0.42    0.64
  -8  -5   7    0.52    0.66
  -8  -5   7    1.23    0.67
   7   5  -7   -0.05    0.47
   7   5  -7    0.04    0.60
  -7  -5   7    0.85    0.59
  -7  -5   7    0.42    0.48
   6   5  -7    0.46    0.48
   6   5  -7    0.50    0.56
  -6  -5   7    0.43    0.45
  -6  -5   7    0.03    0.40
   5   5  -7   30.59    1.70
   5   5  -7   31.61    1.83
  -5  -5   7   33.71    1.80
  -5  -5   7   30.59    1.74
   4   5  -7   37.13    1.84
   4   5  -7   33.03    1.73
  -4  -5   7   32.79    1.75
  -4  -5   7   35.40    1.83
   3   5  -7    3.10    0.64
   3   5  -7    4.65    0.70
   3   5  -7    4.95    0.75
  -3  -5   7    4.78    0.81
  -3  -5   7    4.69    0.79
   2   5  -7   20.07    1.12
   2   5  -7   17.70    1.10
   2   5  -7   19.76    1.15
  -2  -5   7   17.95    1.18
  -2  -5   7   18.84    1.61
  -2  -5   7   20.29    1.25
   1   5  -7  306.44    8.93
   1   5  -7  302.49    8.84
  -1  -5   7  300.30    9.05
  -1  -5   7  297.85    9.73
  -1  -5   7  274.90    9.98
  -1  -5   7  302.49    8.96
   0   5  -7   53.70    1.98
   0   5  -7   53.70    2.16
   0   5  -7   52.41    2.03
   0  -5   7   48.25    2.54
   0  -5   7   49.50    2.70
  -1   5  -7   16.27    0.84
  -1   5  -7   16.06    0.91
  -1   5  -7   14.31    0.99
   1  -5   7   17.17    1.38
   1  -5   7   14.54    1.42
  -2   5  -7   41.21    1.79
  -2   5  -7   43.07    1.56
  -2   5  -7   43.05    1.68
   2  -5   7   39.87    2.26
   2  -5   7   41.14    2.44
  -3   5  -7   77.47    2.56
  -3   5  -7   80.90    2.83
  -3   5  -7   82.24    2.75
   3  -5   7   83.23    3.82
   3  -5   7   82.93    3.56
  -4   5  -7    0.47    0.20
  -4   5  -7    0.25    0.29
   4  -5   7    0.59    0.68
   4  -5   7    0.05    0.45
   5  -5   7    0.71    0.81
   5  -5   7   -0.33    0.47
   6  -5   7    4.79    1.35
   6  -5   7    4.32    1.40
   7  -5   7    1.27    1.06
  11   4  -7    3.10    1.39
 -11  -4   7    5.07    1.12
  10   4  -7   -0.22    0.85
 -10  -4   7   -0.50    0.63
 -10  -4   7    0.67    0.67
   9   4  -7   15.06    1.66
   9   4  -7   13.48    1.88
  -9  -4   7   15.62    1.74
  -9  -4   7   16.07    1.72
   8   4  -7    0.33    0.77
   8   4  -7    0.26    0.50
  -8  -4   7    0.44    0.50
  -8  -4   7    0.44    0.51
   7   4  -7    1.98    0.81
   7   4  -7    1.94    0.67
   7   4  -7    1.78    0.74
  -7  -4   7    2.45    0.71
  -7  -4   7    2.10    0.66
   6   4  -7    2.82    0.77
   6   4  -7    1.78    0.72
   6   4  -7    2.23    0.64
  -6  -4   7    2.91    0.71
  -6  -4   7    2.46    0.64
   5   4  -7    2.28    0.61
   5   4  -7    1.80    0.62
  -5  -4   7    1.13    0.51
  -5  -4   7    2.30    0.62
   4   4  -7    7.99    0.95
   4   4  -7    9.03    1.12
  -4  -4   7    8.18    0.99
  -4  -4   7    8.02    0.97
   3   4  -7   20.86    1.16
   3   4  -7   21.99    1.15
   3   4  -7   20.28    1.25
   3   4  -7   22.46    1.33
  -3  -4   7   20.37    1.23
  -3  -4   7   21.97    1.22
  -3  -4   7   19.49    1.18
  -3  -4   7   19.89    1.54
   2   4  -7   40.93    1.64
   2   4  -7   39.99    1.65
   2   4  -7   37.67    1.75
  -2  -4   7   38.10    1.68
  -2  -4   7   38.01    1.69
  -2  -4   7   36.66    1.68
  -2  -4   7   36.87    2.07
   1   4  -7   56.77    2.27
   1   4  -7   60.83    2.24
   1   4  -7   58.31    2.11
   1   4  -7   60.00    2.16
  -1  -4   7   59.90    2.36
  -1  -4   7   53.66    3.11
  -1  -4   7   58.10    2.66
  -1  -4   7   59.28    2.24
   0   4  -7    3.73    0.55
   0   4  -7    5.73    0.65
   0   4  -7    5.18    0.60
   0   4  -7    4.10    0.49
   0  -4   7    5.11    0.91
   0  -4   7    5.79    1.18
  -1   4  -7    1.49    0.29
  -1   4  -7    1.43    0.35
   1  -4   7    0.81    0.48
   1  -4   7    1.18    0.65
  -2   4  -7  127.37    3.83
  -2   4  -7  126.94    3.95
  -2   4  -7  126.38    3.73
   2  -4   7  124.30    4.62
   2  -4   7  114.83    4.99
  -3   4  -7   29.85    1.15
   3  -4   7   26.09    2.09
   3  -4   7   30.37    1.85
   4  -4   7   48.68    2.56
   4  -4   7   46.96    2.99
   5  -4   7    4.37    1.31
   5  -4   7    3.56    1.01
   5  -4   7    3.22    1.22
   6  -4   7   34.74    2.90
   6  -4   7   33.90    2.72
   7  -4   7   -0.16    0.88
   7  -4   7    0.36    1.01
   8  -4   7   17.50    2.81
   8  -4   7   14.49    2.70
  11   3  -7   21.86    2.81
 -11  -3   7   23.63    1.90
 -11  -3   7   27.13    1.96
  10   3  -7   -0.17    0.79
 -10  -3   7    0.26    0.58
 -10  -3   7   -0.05    0.52
   9   3  -7    2.91    1.10
   9   3  -7    2.31    0.97
   9   3  -7    2.49    0.72
  -9  -3   7    2.37    0.75
  -9  -3   7    1.70    0.64
   8   3  -7  102.03    4.47
   8   3  -7  100.63    4.28
   8   3  -7   90.51    3.76
  -8  -3   7  100.79    3.90
  -8  -3   7  109.63    3.97
   7   3  -7  113.07    4.62
   7   3  -7  109.08    4.03
   7   3  -7  114.89    4.49
  -7  -3   7  111.18    4.07
  -7  -3   7  108.28    4.07
   6   3  -7    0.52    0.48
   6   3  -7    0.78    0.63
   6   3  -7    1.40    0.51
  -6  -3   7    0.42    0.40
  -6  -3   7    0.92    0.44
   5   3  -7   11.25    1.10
   5   3  -7   10.28    1.29
  -5  -3   7    8.60    0.99
  -5  -3   7   11.01    1.10
   4   3  -7   90.78    3.25
   4   3  -7   94.16    3.24
   4   3  -7   94.45    3.65
  -4  -3   7   91.47    3.29
  -4  -3   7   96.23    3.32
   3   3  -7   22.21    1.11
   3   3  -7   21.71    1.14
   3   3  -7   22.60    1.25
  -3  -3   7   22.46    1.47
  -3  -3   7   23.58    1.20
  -3  -3   7   21.34    1.15
   2   3  -7    3.22    0.47
   2   3  -7    3.35    0.51
   2   3  -7    3.68    0.53
   2   3  -7    2.87    0.48
  -2  -3   7    4.73    0.63
  -2  -3   7    3.34    0.69
  -2  -3   7    4.26    0.60
   1   3  -7    5.33    0.62
   1   3  -7    5.59    0.63
   1   3  -7    7.05    0.68
   1   3  -7    6.40    0.60
  -1  -3   7    6.86    1.43
  -1  -3   7    6.88    0.92
  -1  -3   7    8.14    0.77
   0   3  -7    1.76    0.34
   0   3  -7    1.52    0.33
   0   3  -7    1.35    0.34
   0   3  -7    1.62    0.32
   0  -3   7    1.48    0.75
   0  -3   7    1.40    0.47
  -1   3  -7    0.81    0.23
  -1   3  -7    0.62    0.25
  -1   3  -7    0.65    0.24
  -1   3  -7    0.73    0.25
   1  -3   7    0.77    0.62
   1  -3   7    0.30    0.36
  -2   3  -7    4.98    0.48
  -2   3  -7    6.69    0.43
   2  -3   7    5.53    0.93
   2  -3   7    5.61    1.29
   3  -3   7   16.57    1.32
   3  -3   7   20.01    2.42
   4  -3   7   37.26    2.74
   4  -3   7   43.53    2.33
   4  -3   7   39.76    2.64
   5  -3   7    3.32    1.17
   5  -3   7    3.09    1.28
   6  -3   7    2.04    1.14
   6  -3   7    0.08    0.87
   7  -3   7   68.04    4.57
   7  -3   7   70.24    4.43
   8  -3   7   42.78    3.63
   8  -3   7   39.00    3.64
  12   2  -7    0.35    1.06
 -12  -2   7    0.61    0.79
  11   2  -7    1.32    0.98
 -11  -2   7    1.82    0.81
 -11  -2   7    2.11    0.86
  10   2  -7   -0.08    0.90
  10   2  -7    2.26    1.05
 -10  -2   7    1.95    0.77
 -10  -2   7    1.91    0.73
   9   2  -7    8.48    1.56
   9   2  -7    9.00    1.17
   9   2  -7   10.34    1.64
  -9  -2   7   10.94    1.31
  -9  -2   7   10.75    1.25
   8   2  -7   64.30    2.70
   8   2  -7   67.47    3.44
   8   2  -7   65.51    3.33
  -8  -2   7   65.73    2.79
  -8  -2   7   63.07    2.76
   7   2  -7   16.39    1.54
   7   2  -7   17.46    1.53
   7   2  -7   14.58    1.08
  -7  -2   7   16.84    1.17
  -7  -2   7   15.08    1.12
   6   2  -7    5.72    0.80
   6   2  -7    4.82    0.99
  -6  -2   7    4.56    0.72
  -6  -2   7    4.99    0.76
   5   2  -7   77.78    2.97
   5   2  -7   73.66    2.80
   5   2  -7   77.31    3.33
  -5  -2   7   79.03    2.84
  -5  -2   7   75.63    2.82
   4   2  -7  204.45    6.24
   4   2  -7  194.98    6.24
   4   2  -7  203.88    6.42
  -4  -2   7  206.26    6.61
  -4  -2   7  206.64    6.28
  -4  -2   7  205.89    6.27
   3   2  -7   13.44    0.82
   3   2  -7   13.95    0.84
   3   2  -7   15.45    0.95
   3   2  -7   13.41    0.84
  -3  -2   7   14.23    0.85
  -3  -2   7   13.87    0.84
  -3  -2   7   14.23    1.02
   2   2  -7   43.00    1.65
   2   2  -7   44.08    1.76
   2   2  -7   41.61    1.64
   2   2  -7   43.35    1.64
  -2  -2   7   44.00    1.66
  -2  -2   7   41.48    1.89
  -2  -2   7   42.38    1.64
   1   2  -7   57.59    1.96
   1   2  -7   55.36    1.94
   1   2  -7   56.46    1.94
   1   2  -7   55.00    2.03
  -1  -2   7   54.53    1.91
  -1  -2   7   55.36    2.28
  -1  -2   7   53.59    1.90
  -1  -2   7   53.48    3.00
   0   2  -7   12.57    0.73
   0   2  -7   13.29    0.68
   0   2  -7   13.52    0.68
   0   2  -7   12.59    0.66
   0  -2   7   13.98    1.00
   0  -2   7   13.92    1.83
  -1   2  -7   19.36    0.81
  -1   2  -7   18.60    0.79
  -1   2  -7   18.26    0.80
  -1   2  -7   19.82    0.88
   1  -2   7   18.77    1.24
   1  -2   7   19.79    1.70
  -2   2  -7    0.29    0.16
  -2   2  -7    0.46    0.20
   2  -2   7    0.38    0.35
   2  -2   7    0.72    0.70
   3  -2   7    2.06    0.66
   3  -2   7    2.70    1.04
   4  -2   7    2.41    1.12
   4  -2   7    1.79    0.87
   5  -2   7    7.77    1.80
   5  -2   7    7.94    1.75
   6  -2   7   10.95    2.37
   6  -2   7   15.38    2.54
   7  -2   7   11.82    2.50
   7  -2   7   14.41    2.64
   8  -2   7    3.01    1.54
   8  -2   7    2.93    1.62
  12   1  -7   -0.15    0.95
 -12  -1   7    0.19    0.62
 -12  -1   7    0.39    0.74
  11   1  -7   16.49    2.41
  11   1  -7   19.56    2.48
 -11  -1   7   16.92    1.75
 -11  -1   7   17.63    1.81
  10   1  -7   10.13    1.79
  10   1  -7    9.82    1.81
 -10  -1   7   12.03    1.39
 -10  -1   7    9.58    1.24
   9   1  -7    2.51    0.69
   9   1  -7    2.24    0.98
   9   1  -7    1.44    0.88
  -9  -1   7    2.97    0.76
  -9  -1   7    1.80    0.64
   8   1  -7    2.19    0.94
   8   1  -7    1.83    0.86
   8   1  -7    3.93    0.73
  -8  -1   7    0.93    0.52
  -8  -1   7    3.16    0.71
   7   1  -7    1.06    0.78
   7   1  -7    1.65    0.50
   7   1  -7    1.36    0.67
  -7  -1   7    0.91    0.45
  -7  -1   7    0.60    0.44
   6   1  -7    0.09    0.28
   6   1  -7    0.67    0.51
  -6  -1   7    0.20    0.34
  -6  -1   7    0.23    0.36
   5   1  -7    0.93    0.38
   5   1  -7    1.36    0.62
   5   1  -7    0.56    0.32
   5   1  -7    0.12    0.26
  -5  -1   7    0.20    0.30
  -5  -1   7    0.67    0.35
   4   1  -7    1.57    0.36
   4   1  -7    1.50    0.39
   4   1  -7    3.42    0.54
  -4  -1   7    3.30    0.53
  -4  -1   7    1.94    0.46
  -4  -1   7    2.77    0.50
   3   1  -7  114.42    3.67
   3   1  -7  114.02    3.80
   3   1  -7  111.06    3.66
   3   1  -7  118.09    3.67
  -3  -1   7  112.77    3.65
  -3  -1   7  112.53    3.81
  -3  -1   7  114.09    3.65
   2   1  -7   23.17    1.15
   2   1  -7   24.29    1.09
   2   1  -7   23.51    1.08
   2   1  -7   24.18    1.08
  -2  -1   7   24.76    1.24
  -2  -1   7   25.08    1.06
  -2  -1   7   24.08    1.05
   1   1  -7   16.98    0.80
   1   1  -7   16.65    0.88
   1   1  -7   15.85    0.80
  -1  -1   7   16.99    1.57
  -1  -1   7   16.65    1.02
  -1  -1   7   15.68    0.74
  -1  -1   7   17.13    0.76
   0   1  -7   96.30    2.99
   0   1  -7   97.67    3.05
   0   1  -7   95.60    3.07
   0   1  -7   98.33    3.05
   0   1  -7   96.00    3.11
   0  -1   7   97.64    4.22
   0  -1   7   99.73    3.49
  -1   1  -7  316.10    9.20
  -1   1  -7  325.50    9.21
  -1   1  -7  328.63    9.12
   1  -1   7  324.92    9.86
   1  -1   7  320.04   10.81
  -2   1  -7    7.46    0.47
   2  -1   7   12.01    1.84
   2  -1   7   10.36    1.19
   3  -1   7    0.72    0.82
   3  -1   7    1.09    0.77
   4  -1   7   62.36    3.66
   4  -1   7   61.31    3.71
   5  -1   7   35.09    2.84
   5  -1   7   33.15    2.87
   6  -1   7    0.91    1.03
   6  -1   7    0.57    1.02
   7  -1   7    1.84    1.30
   7  -1   7    1.75    1.30
  -8   1  -7    1.89    0.53
  -8   1  -7    1.78    0.42
   8  -1   7    2.41    1.55
   8  -1   7    0.99    1.28
  12   0  -7    1.08    1.24
 -12   0   7    3.71    0.93
 -12   0   7    2.84    0.86
  11   0  -7   77.19    4.47
  11   0  -7   91.83    4.91
 -11   0   7   83.82    3.56
 -11   0   7   87.18    3.59
  10   0  -7   10.88    1.90
  10   0  -7    7.81    1.82
 -10   0   7    8.46    1.17
 -10   0   7    8.59    1.16
   9   0  -7    8.78    1.71
   9   0  -7   12.70    1.30
   9   0  -7   12.82    2.03
  -9   0   7   14.02    1.13
  -9   0   7   11.71    1.27
   8   0  -7   10.87    1.14
   8   0  -7    8.61    1.64
   8   0  -7   10.14    1.59
  -8   0   7   10.72    1.14
  -8   0   7    9.10    1.04
   7   0  -7   19.74    1.18
   7   0  -7   22.76    1.82
  -7   0   7   18.46    1.17
  -7   0   7   19.06    1.17
   6   0  -7    2.26    0.53
   6   0  -7    1.46    0.69
   6   0  -7    1.40    0.44
  -6   0   7    2.00    0.50
  -6   0   7    2.79    0.57
   5   0  -7    0.17    0.27
   5   0  -7   -0.03    0.23
   5   0  -7    0.22    0.26
  -5   0   7    0.07    0.25
  -5   0   7    0.21    0.29
  -5   0   7    0.16    0.29
   4   0  -7    1.71    0.40
   4   0  -7    2.69    0.48
   4   0  -7    1.70    0.38
  -4   0   7    1.78    0.42
  -4   0   7    2.14    0.43
  -4   0   7    2.44    0.43
   3   0  -7    1.36    0.35
   3   0  -7    1.37    0.35
   3   0  -7    0.93    0.32
  -3   0   7    1.57    0.37
  -3   0   7    1.44    0.34
  -3   0   7    1.14    0.30
   2   0  -7    9.06    0.61
   2   0  -7    9.76    0.64
   2   0  -7    9.82    0.64
  -2   0   7    8.94    1.53
  -2   0   7    9.77    0.71
  -2   0   7    9.44    0.59
  -2   0   7    9.46    0.59
   1   0  -7   23.76    0.98
   1   0  -7   23.71    1.04
   1   0  -7   22.43    1.07
  -1   0   7   22.47    0.92
  -1   0   7   23.60    1.20
  -1   0   7   21.89    0.91
  -1   0   7   21.78    1.75
   0   0  -7   58.61    2.08
   0   0  -7   58.76    1.95
   0   0  -7   60.01    2.06
   0   0   7   60.24    2.39
   0   0   7   62.79    3.15
  -1   0  -7   42.33    1.56
  -1   0  -7   41.44    1.54
  -1   0  -7   42.95    1.57
  -1   0  -7   42.44    1.41
   1   0   7   37.85    2.50
   1   0   7   41.54    1.96
  -2   0  -7    1.91    0.38
  -2   0  -7    2.98    0.44
  -2   0  -7    1.61    0.35
  -2   0  -7    1.73    0.24
   2   0   7    2.94    1.05
  -3   0  -7    7.07    0.55
  -3   0  -7    7.57    0.56
   3   0   7   10.85    1.87
   3   0   7   11.13    1.97
  -4   0  -7  113.77    3.53
   4   0   7  107.62    5.35
   4   0   7  113.69    5.43
  -5   0  -7    1.39    0.33
  -5   0  -7    1.52    0.38
  -5   0  -7    1.21    0.38
   5   0   7    1.76    1.09
   5   0   7    0.50    0.89
  -6   0  -7   29.88    1.32
  -6   0  -7   30.26    1.40
   6   0   7   31.68    3.79
   6   0   7   33.47    4.04
  -7   0  -7    2.97    0.69
  -7   0  -7    1.54    0.46
   7   0   7    2.28    1.40
   7   0   7    0.31    0.98
  -8   0  -7    9.97    1.00
   8   0   7    9.00    2.41
  13  -1  -7    1.58    1.30
 -13   1   7    0.72    0.68
  12  -1  -7   -0.37    1.09
 -12   1   7    1.15    0.74
 -12   1   7    0.46    0.67
  11  -1  -7    4.42    1.60
  11  -1  -7    3.47    1.41
 -11   1   7    2.81    0.83
 -11   1   7    4.44    0.89
  10  -1  -7   25.26    1.54
  10  -1  -7   23.63    2.29
  10  -1  -7   13.89    2.29
 -10   1   7   21.90    1.48
 -10   1   7   19.10    1.38
   9  -1  -7   40.43    3.04
   9  -1  -7   37.41    1.89
   9  -1  -7   41.06    2.85
  -9   1   7   40.14    1.96
  -9   1   7   36.95    1.91
   8  -1  -7   14.63    2.20
   8  -1  -7   12.18    1.84
   8  -1  -7   13.48    0.99
  -8   1   7   13.84    1.03
  -8   1   7   11.82    0.99
   7  -1  -7    3.38    0.62
   7  -1  -7    2.92    0.93
  -7   1   7    4.15    0.67
  -7   1   7    3.75    0.67
   6  -1  -7  275.51    8.56
   6  -1  -7  283.03    8.38
   6  -1  -7  273.53    9.35
  -6   1   7  280.22    8.39
  -6   1   7  272.60    8.12
  -6   1   7  273.64    8.38
   5  -1  -7   86.80    3.13
   5  -1  -7   89.91    3.13
  -5   1   7   93.48    3.16
  -5   1   7   94.89    2.95
  -5   1   7   86.57    3.11
   4  -1  -7    1.02    0.36
   4  -1  -7    1.19    0.37
   4  -1  -7    1.38    0.36
  -4   1   7    1.73    0.42
  -4   1   7    1.94    0.43
  -4   1   7    0.98    0.28
   3  -1  -7   60.19    2.24
   3  -1  -7   60.86    2.19
  -3   1   7   59.94    2.14
  -3   1   7   63.83    2.20
  -3   1   7   61.20    2.19
   2  -1  -7   79.46    2.61
   2  -1  -7   75.16    2.70
   2  -1  -7   77.10    2.67
  -2   1   7   79.08    2.57
  -2   1   7   77.29    2.67
  -2   1   7   76.80    3.62
  -2   1   7   75.64    2.56
   1  -1  -7    8.58    0.64
   1  -1  -7    8.58    0.57
   1  -1  -7    8.06    0.67
   1  -1  -7    7.00    0.59
  -1   1   7    8.40    0.52
  -1   1   7    8.75    0.69
  -1   1   7    7.44    0.49
  -1   1   7   10.18    1.60
   0  -1  -7    7.86    0.78
   0  -1  -7    7.34    0.75
   0  -1  -7    6.40    0.49
   0  -1  -7    7.42    0.76
   0   1   7    9.41    1.53
  -1  -1  -7    5.74    0.68
  -1  -1  -7    5.46    0.53
  -1  -1  -7    5.53    0.66
  -1  -1  -7    7.01    0.73
   1   1   7    6.10    1.27
  -2  -1  -7    1.19    0.38
  -2  -1  -7    1.31    0.29
  -2  -1  -7    0.61    0.37
  -2  -1  -7    1.98    0.45
   2   1   7    0.86    0.73
  -3  -1  -7    0.41    0.31
  -3  -1  -7    0.43    0.34
  -3  -1  -7    0.17    0.23
  -3  -1  -7    0.59    0.33
   3   1   7    0.33    0.73
   3   1   7   -0.38    0.50
  -4  -1  -7    1.64    0.45
  -4  -1  -7    1.38    0.40
  -4  -1  -7    1.55    0.43
   4   1   7    0.48    0.87
   4   1   7    1.90    1.04
  -5  -1  -7   17.68    1.13
  -5  -1  -7   18.69    1.14
  -5  -1  -7   19.01    1.12
   5   1   7   27.65    3.53
   5   1   7   26.16    3.23
  -6  -1  -7   15.00    1.10
  -6  -1  -7   14.87    1.08
  -6  -1  -7   14.74    1.06
   6   1   7   16.04    2.81
   6   1   7   13.82    2.55
  -7  -1  -7    0.32    0.47
   7   1   7   -0.80    0.93
   7   1   7   -0.50    0.88
  13  -2  -7   -0.88    1.13
 -13   2   7    0.31    0.75
  12  -2  -7   -0.20    1.10
 -12   2   7   -0.10    0.59
 -12   2   7   -0.09    0.53
  11  -2  -7    0.25    0.91
  11  -2  -7    5.98    2.07
 -11   2   7    1.08    0.60
 -11   2   7    0.34    0.55
  10  -2  -7   -0.12    0.76
  10  -2  -7    0.62    0.50
  10  -2  -7    0.88    1.35
 -10   2   7    0.60    0.53
 -10   2   7    1.19    0.58
   9  -2  -7    1.23    0.85
   9  -2  -7    1.10    1.00
   9  -2  -7    2.69    0.61
  -9   2   7    1.41    0.53
  -9   2   7    0.67    0.49
   8  -2  -7    0.09    0.88
   8  -2  -7    0.05    0.58
   8  -2  -7    0.46    0.40
  -8   2   7    0.11    0.41
  -8   2   7    0.86    0.43
   7  -2  -7   36.77    2.52
   7  -2  -7   34.20    1.67
  -7   2   7   34.98    1.68
  -7   2   7   35.46    1.71
  -7   2   7   34.77    1.34
   6  -2  -7  107.78    3.81
  -6   2   7  113.21    3.86
  -6   2   7  113.10    3.83
  -6   2   7  112.82    3.38
   5  -2  -7    1.16    0.41
   5  -2  -7    1.53    0.42
   5  -2  -7    0.65    0.35
  -5   2   7    1.11    0.24
  -5   2   7    0.90    0.39
  -5   2   7    1.21    0.41
   4  -2  -7    0.41    0.32
   4  -2  -7    1.32    0.43
  -4   2   7    1.67    0.42
  -4   2   7    0.63    0.23
  -4   2   7    0.62    0.30
   3  -2  -7  231.36    6.88
   3  -2  -7  224.22    6.96
   3  -2  -7  229.68    6.86
  -3   2   7  228.07    6.88
  -3   2   7  232.53    6.76
  -3   2   7  225.92    6.87
   2  -2  -7  116.63    3.70
   2  -2  -7  113.57    3.87
   2  -2  -7  112.98    3.81
   2  -2  -7  110.53    3.80
   2  -2  -7  123.28    4.02
  -2   2   7  114.30    4.68
  -2   2   7  116.05    3.67
  -2   2   7  116.23    3.69
   1  -2  -7   40.07    1.72
   1  -2  -7   39.82    1.74
   1  -2  -7   38.70    1.73
   1  -2  -7   40.58    1.59
  -1   2   7   41.00    1.53
  -1   2   7   43.23    2.41
   0  -2  -7    4.27    0.64
   0  -2  -7    2.97    0.46
   0  -2  -7    5.55    0.75
   0  -2  -7    4.19    0.67
   0   2   7    3.63    0.95
  -1  -2  -7   45.08    1.89
  -1  -2  -7   47.52    1.74
  -1  -2  -7   44.07    1.93
  -1  -2  -7   42.78    1.87
   1   2   7   46.04    2.73
  -2  -2  -7    0.04    0.36
  -2  -2  -7    0.04    0.34
  -2  -2  -7    0.40    0.40
  -2  -2  -7    0.05    0.23
   2   2   7   -0.26    0.61
  -3  -2  -7    7.68    0.83
  -3  -2  -7    7.77    0.96
  -3  -2  -7    6.46    0.89
  -3  -2  -7    7.69    0.95
   3   2   7    5.97    1.46
   3   2   7    8.53    1.74
  -4  -2  -7    0.99    0.73
  -4  -2  -7    0.92    0.51
  -4  -2  -7    1.30    0.49
  -4  -2  -7    0.76    0.51
   4   2   7    0.83    0.88
   4   2   7    0.18    0.75
  -5  -2  -7    1.36    0.64
  -5  -2  -7    0.50    0.46
   5   2   7    0.02    0.78
   5   2   7    1.56    1.05
  -6  -2  -7    0.17    0.60
  -6  -2  -7    0.51    0.58
   6   2   7   -0.08    0.84
   6   2   7    0.64    1.02
  -7  -2  -7    1.26    0.71
   7   2   7    2.62    1.44
   7   2   7    1.24    1.24
  13  -3  -7   15.11    2.75
 -13   3   7   24.48    1.79
  12  -3  -7   36.32    3.44
 -12   3   7   34.24    2.06
 -12   3   7   32.47    2.02
  11  -3  -7   -0.19    1.27
  11  -3  -7    0.39    1.04
 -11   3   7    0.61    0.53
 -11   3   7    2.95    0.75
  10  -3  -7    8.51    2.22
  10  -3  -7    7.47    1.75
  10  -3  -7    7.35    0.99
 -10   3   7    7.09    1.06
 -10   3   7    6.84    1.04
   9  -3  -7   28.44    2.54
   9  -3  -7   29.61    1.60
   9  -3  -7   26.55    3.36
  -9   3   7   28.62    1.63
  -9   3   7   24.75    1.57
   8  -3  -7    9.63    1.78
   8  -3  -7   10.31    1.10
   8  -3  -7    6.84    1.87
  -8   3   7    9.92    1.10
  -8   3   7    8.17    0.98
   7  -3  -7    9.84    1.07
   7  -3  -7    8.48    1.60
  -7   3   7    7.96    0.94
  -7   3   7    7.64    0.92
   6  -3  -7    6.38    0.86
   6  -3  -7    6.69    0.87
  -6   3   7    6.65    0.84
   5  -3  -7    2.32    0.53
   5  -3  -7    3.34    0.61
  -5   3   7    2.73    0.56
   4  -3  -7    0.21    0.31
  -4   3   7    0.81    0.37
   3  -3  -7    2.74    0.56
   3  -3  -7    2.93    0.45
   3  -3  -7    3.44    0.60
   3  -3  -7    3.60    0.63
  -3   3   7    2.86    0.54
  -3   3   7    2.79    0.81
   2  -3  -7   16.16    1.04
   2  -3  -7   13.60    0.96
   2  -3  -7   15.85    0.93
   2  -3  -7   16.36    1.09
  -2   3   7   14.27    1.35
  -2   3   7   14.61    0.88
   1  -3  -7  100.81    3.68
   1  -3  -7  109.92    3.81
   1  -3  -7  109.27    3.78
   1  -3  -7  106.40    3.55
  -1   3   7  106.98    3.43
  -1   3   7  104.36    4.42
   0  -3  -7    0.60    0.40
   0  -3  -7    0.49    0.38
   0  -3  -7    0.52    0.28
   0  -3  -7    0.35    0.41
   0   3   7    0.45    0.56
  -1  -3  -7    3.27    0.57
  -1  -3  -7    3.59    0.71
  -1  -3  -7    3.33    0.69
  -1  -3  -7    3.05    0.66
   1   3   7    3.18    1.01
  -2  -3  -7  125.17    4.11
  -2  -3  -7  117.35    4.31
  -2  -3  -7  121.09    4.31
  -2  -3  -7  122.99    4.29
   2   3   7  119.48    5.30
  -3  -3  -7  105.46    3.90
  -3  -3  -7  104.66    3.96
  -3  -3  -7  108.73    3.91
   3   3   7  104.55    5.08
   3   3   7  109.68    5.34
  -4  -3  -7   -0.62    0.52
  -4  -3  -7   -0.58    0.54
  -4  -3  -7    0.04    0.53
   4   3   7    0.99    0.90
   4   3   7    0.21    0.86
  -5  -3  -7    2.68    0.78
  -5  -3  -7    2.36    0.81
   5   3   7    2.59    1.28
   5   3   7    3.01    1.30
  -6  -3  -7   27.37    1.80
  -6  -3  -7   28.28    1.85
   6   3   7   31.15    3.03
   6   3   7   33.00    3.09
  13  -4  -7   27.92    4.01
 -13   4   7   37.49    2.25
 -13   4   7   39.87    2.68
  12  -4  -7    9.23    2.31
 -12   4   7    7.24    1.19
 -12   4   7    8.04    1.23
  11  -4  -7   -0.28    1.21
  11  -4  -7    2.62    1.58
 -11   4   7    3.16    0.80
 -11   4   7    3.69    0.85
  10  -4  -7   33.94    1.84
  10  -4  -7   34.00    3.21
  10  -4  -7   32.33    2.98
 -10   4   7   30.78    1.88
 -10   4   7   34.45    1.91
   9  -4  -7  125.33    4.37
   9  -4  -7  122.37    6.24
   9  -4  -7  118.80    5.95
  -9   4   7  115.02    4.39
  -9   4   7  125.18    4.44
   8  -4  -7    0.50    0.52
   8  -4  -7   -0.57    0.81
   8  -4  -7   -0.34    0.62
  -8   4   7    0.10    0.42
   7  -4  -7    5.22    0.85
   7  -4  -7    2.89    1.22
   7  -4  -7    3.87    0.74
  -7   4   7    6.06    0.89
   6  -4  -7   25.77    1.44
  -6   4   7   23.79    1.38
   5  -4  -7    5.43    0.80
  -5   4   7    7.68    0.93
   4  -4  -7    1.83    0.54
   4  -4  -7    1.31    0.50
  -4   4   7    0.96    0.58
  -4   4   7    1.12    0.47
   3  -4  -7    0.33    0.40
   3  -4  -7    0.61    0.40
   3  -4  -7    0.30    0.29
   3  -4  -7    0.92    0.42
  -3   4   7    1.32    0.67
  -3   4   7    0.24    0.38
   2  -4  -7    1.34    0.50
   2  -4  -7    1.62    0.51
   2  -4  -7    0.82    0.44
  -2   4   7    0.80    0.61
  -2   4   7    0.70    0.41
   1  -4  -7    0.90    0.48
   1  -4  -7    0.56    0.44
   1  -4  -7    0.60    0.44
  -1   4   7    1.42    0.69
  -1   4   7    0.45    0.35
   0  -4  -7    2.01    0.62
   0  -4  -7    1.67    0.60
   0  -4  -7    2.11    0.68
   0   4   7    1.26    0.68
  -1  -4  -7   17.45    1.32
  -1  -4  -7   15.65    1.24
  -1  -4  -7   14.74    1.21
   1   4   7   19.13    2.24
  -2  -4  -7   43.09    2.21
  -2  -4  -7   42.43    2.13
  -2  -4  -7   41.93    2.14
   2   4   7   40.72    2.77
  -3  -4  -7    7.11    1.15
  -3  -4  -7    6.03    1.04
  -3  -4  -7    8.11    1.26
   3   4   7    4.73    1.35
  -4  -4  -7    2.64    0.91
  -4  -4  -7    2.34    0.72
  -4  -4  -7    1.76    0.79
   4   4   7    1.86    1.05
   4   4   7    2.60    1.39
  -5  -4  -7   17.68    1.84
  -5  -4  -7   15.25    1.70
   5   4   7   16.10    2.71
   5   4   7   13.23    2.44
  -6  -4  -7   34.18    2.22
  -6  -4  -7   34.85    2.17
   6   4   7   40.42    3.51
   6   4   7   32.04    3.19
  13  -5  -7    2.45    1.98
 -13   5   7    0.86    0.68
  12  -5  -7    0.39    1.34
 -12   5   7    1.61    0.77
 -12   5   7    1.33    0.78
  11  -5  -7   -0.28    1.20
  11  -5  -7    2.39    1.43
 -11   5   7    0.88    0.61
 -11   5   7    0.66    0.67
  10  -5  -7    6.06    0.99
  10  -5  -7    3.84    1.69
  10  -5  -7    5.89    1.71
 -10   5   7    5.75    0.99
 -10   5   7    5.48    0.92
   9  -5  -7    2.04    0.70
   9  -5  -7    2.02    1.14
   9  -5  -7    1.09    0.93
  -9   5   7    1.54    0.59
   8  -5  -7   74.64    2.95
   8  -5  -7   69.85    4.17
   8  -5  -7   65.45    4.19
  -8   5   7   67.92    2.90
   7  -5  -7   17.25    1.24
  -7   5   7   14.78    1.14
   6  -5  -7   28.55    1.61
  -6   5   7   27.70    1.55
   5  -5  -7   36.53    1.83
   5  -5  -7   36.07    1.84
  -5   5   7   33.92    1.73
   4  -5  -7  217.04    7.13
   4  -5  -7  218.65    7.13
  -4   5   7  216.63    6.94
  -4   5   7  232.33    7.63
   3  -5  -7   18.28    1.33
   3  -5  -7   18.75    1.34
   3  -5  -7   23.38    1.48
  -3   5   7   17.71    1.51
  -3   5   7   19.96    1.21
   2  -5  -7    0.68    0.47
   2  -5  -7    0.63    0.49
   2  -5  -7    0.69    0.52
  -2   5   7    0.21    0.38
  -2   5   7    1.09    0.67
   1  -5  -7   52.14    2.48
   1  -5  -7   51.50    2.49
   1  -5  -7   52.89    2.49
  -1   5   7   53.33    2.28
  -1   5   7   52.51    2.81
   0  -5  -7   27.32    1.74
   0  -5  -7   28.94    1.76
   0  -5  -7   26.56    1.73
   0   5   7   28.40    2.08
  -1  -5  -7    4.16    0.94
  -1  -5  -7    3.25    0.89
  -1  -5  -7    3.60    0.86
   1   5   7    3.16    1.02
  -2  -5  -7    3.27    0.86
  -2  -5  -7    3.14    0.79
  -2  -5  -7    4.04    0.89
   2   5   7    3.62    1.18
  -3  -5  -7    1.77    0.80
  -3  -5  -7    1.75    0.80
  -3  -5  -7    2.29    0.92
   3   5   7    1.56    1.02
  -4  -5  -7   -0.16    0.67
  -4  -5  -7    0.80    0.65
  -4  -5  -7   -0.19    0.64
   4   5   7    0.52    0.90
  -5  -5  -7   -0.05    0.74
  -5  -5  -7    0.21    0.71
  -5  -5  -7   -0.05    0.62
   5   5   7    0.38    0.98
  13  -6  -7    3.60    2.04
 -13   6   7    2.43    0.83
  12  -6  -7    2.68    1.51
 -12   6   7    2.62    0.88
 -12   6   7    0.80    0.75
  11  -6  -7   -0.34    1.15
  11  -6  -7   -0.39    1.14
 -11   6   7   -0.10    0.51
 -11   6   7    0.24    0.50
  10  -6  -7    0.20    0.62
  10  -6  -7    0.06    1.27
  10  -6  -7    0.81    0.95
 -10   6   7   -0.36    0.54
   9  -6  -7    0.88    1.03
   9  -6  -7    1.32    0.64
   9  -6  -7    0.44    0.92
  -9   6   7    0.63    0.52
   8  -6  -7    0.05    0.47
   8  -6  -7    0.81    0.58
   8  -6  -7   -0.01    0.88
   8  -6  -7    0.72    0.98
  -8   6   7    1.42    0.64
   7  -6  -7    0.07    0.48
  -7   6   7   -0.45    0.43
   6  -6  -7    1.63    0.60
  -6   6   7    2.93    0.71
   5  -6  -7   67.22    2.92
   5  -6  -7   66.26    2.92
  -5   6   7   67.28    2.82
  -5   6   7   72.26    3.22
   4  -6  -7   57.45    2.74
   4  -6  -7   60.98    2.78
  -4   6   7   62.83    2.93
  -4   6   7   62.41    2.63
   3  -6  -7    5.12    0.95
   3  -6  -7    5.69    0.97
  -3   6   7    4.93    0.99
  -3   6   7    6.19    0.95
   2  -6  -7    7.27    1.14
   2  -6  -7    4.42    0.96
   2  -6  -7    5.52    1.04
  -2   6   7    4.88    1.04
  -2   6   7    5.81    0.89
   1  -6  -7  164.65    6.07
   1  -6  -7  175.51    6.16
   1  -6  -7  171.76    6.12
  -1   6   7  180.64    6.46
   0  -6  -7   17.11    1.84
   0  -6  -7   13.85    1.66
   0  -6  -7   12.52    1.50
   0   6   7   15.81    1.92
  -1  -6  -7   14.20    1.69
  -1  -6  -7   21.01    1.63
  -1  -6  -7   16.58    1.87
   1   6   7   14.94    2.08
  -2  -6  -7    1.06    0.63
  -2  -6  -7    1.28    0.70
  -2  -6  -7    1.16    0.70
   2   6   7    2.17    1.05
  -3  -6  -7    9.41    1.48
  -3  -6  -7   11.04    1.59
  -3  -6  -7    8.98    1.37
   3   6   7   10.16    1.91
  -4  -6  -7    2.40    0.99
  -4  -6  -7    1.82    0.98
  -4  -6  -7    1.26    0.97
   4   6   7    1.80    1.18
  13  -7  -7    4.15    2.04
 -13   7   7    3.80    1.13
  12  -7  -7   -0.58    1.22
 -12   7   7    0.06    0.64
 -12   7   7    0.55    0.63
  11  -7  -7   38.42    3.53
 -11   7   7   49.15    2.55
  10  -7  -7   16.46    2.63
  10  -7  -7   15.19    2.54
 -10   7   7   23.38    1.66
   9  -7  -7    2.60    0.83
   9  -7  -7    2.05    1.38
   9  -7  -7    1.67    1.24
   9  -7  -7    1.50    0.68
  -9   7   7    1.50    0.70
   8  -7  -7   19.42    2.55
   8  -7  -7   18.54    2.58
   8  -7  -7   21.70    1.58
  -8   7   7   22.01    1.55
   7  -7  -7   14.05    1.49
  -7   7   7   17.73    1.35
   6  -7  -7    5.64    1.01
   6  -7  -7    5.49    1.03
  -6   7   7    6.43    1.14
  -6   7   7    6.02    1.00
   5  -7  -7    9.53    1.34
   5  -7  -7   10.84    1.39
  -5   7   7   11.80    1.35
  -5   7   7    8.44    1.19
   4  -7  -7    4.34    0.94
   4  -7  -7    5.79    1.12
  -4   7   7    8.09    1.10
  -4   7   7    5.22    0.98
   3  -7  -7    1.95    0.77
   3  -7  -7    2.91    0.90
  -3   7   7    4.16    0.86
  -3   7   7    3.28    0.85
   2  -7  -7    1.35    0.76
   2  -7  -7    0.52    0.64
  -2   7   7    1.94    0.68
  -2   7   7    2.87    0.86
   1  -7  -7    1.48    0.80
   1  -7  -7    2.29    0.80
  -1   7   7    1.42    0.84
   0  -7  -7   26.74    1.99
   0  -7  -7   25.44    1.93
   0   7   7   27.30    2.11
  -1  -7  -7   27.45    2.03
  -1  -7  -7   23.53    1.90
   1   7   7   25.07    2.18
  -2  -7  -7    4.49    1.15
  -2  -7  -7    4.22    1.07
   2   7   7    5.02    1.37
  -3  -7  -7    0.85    0.73
  -3  -7  -7    0.37    0.69
   3   7   7   -0.30    0.91
  -4  -7  -7   45.23    2.77
   4   7   7   55.99    3.83
  12  -8  -7    4.95    1.83
 -12   8   7    4.76    1.07
 -12   8   7    7.23    1.35
  11  -8  -7   52.61    3.95
 -11   8   7   53.12    2.80
  10  -8  -7   -0.12    0.85
  10  -8  -7    0.45    1.24
 -10   8   7    1.00    0.63
   9  -8  -7    0.50    1.02
   9  -8  -7    0.27    0.94
   9  -8  -7    1.22    0.76
   9  -8  -7    1.76    0.76
  -9   8   7    1.98    0.82
   8  -8  -7   68.31    3.19
   8  -8  -7   65.63    3.98
   8  -8  -7   68.92    3.93
  -8   8   7   70.20    3.15
   7  -8  -7   53.74    2.79
  -7   8   7   60.16    2.82
   6  -8  -7    0.79    0.69
   6  -8  -7    1.47    0.72
  -6   8   7    0.62    0.63
   5  -8  -7    0.77    0.68
   5  -8  -7    0.27    0.62
  -5   8   7    0.98    0.62
   4  -8  -7    9.23    1.42
   4  -8  -7    7.57    1.25
  -4   8   7   10.74    1.37
   3  -8  -7    0.61    0.58
   3  -8  -7    0.04    0.54
  -3   8   7   -0.14    0.58
   2  -8  -7    0.27    0.67
   2  -8  -7    0.11    0.62
  -2   8   7   -0.16    0.60
   1  -8  -7    0.51    0.72
   1  -8  -7    0.55    0.76
   0  -8  -7    1.07    0.81
   0  -8  -7    1.44    0.83
  -1  -8  -7    0.59    0.78
  -1  -8  -7    0.32    0.64
  -2  -8  -7   -0.28    0.65
  -2  -8  -7   -0.38    0.61
  -3  -8  -7    7.62    1.51
 -12   9   7    0.90    0.81
 -11   9   7    0.60    0.74
  10  -9  -7    1.98    1.13
 -10   9   7    5.75    1.20
   9  -9  -7    0.81    1.10
   9  -9  -7   -0.53    0.67
  -9   9   7   -0.45    0.57
   8  -9  -7    8.65    2.08
   8  -9  -7   10.82    1.79
   8  -9  -7   11.27    1.56
  -8   9   7   12.42    1.56
   7  -9  -7    1.59    1.03
   7  -9  -7    1.73    0.77
  -7   9   7    0.27    0.71
   6  -9  -7   65.09    3.24
   6  -9  -7   63.90    3.23
  -6   9   7   55.33    2.92
   5  -9  -7   -0.60    0.65
   5  -9  -7    0.89    0.72
  -5   9   7    0.22    0.61
   4  -9  -7    6.64    1.29
   4  -9  -7    7.50    1.34
  -4   9   7    8.84    1.35
   3  -9  -7   41.72    2.70
   3  -9  -7   44.18    2.69
  -3   9   7   45.93    2.51
   2  -9  -7   66.73    3.48
   2  -9  -7   65.29    3.47
   1  -9  -7    1.41    0.88
   1  -9  -7    3.85    1.27
   0  -9  -7    5.57    1.35
   0  -9  -7    2.05    1.03
  -1  -9  -7   14.95    1.98
  -1  -9  -7   11.86    1.80
  -2  -9  -7    4.71    1.39
 -11  10   7    3.53    1.02
 -10  10   7   -0.12    0.78
   9 -10  -7    0.91    0.86
  -9  10   7   -0.08    0.66
   8 -10  -7   -0.29    0.66
  -8  10   7   -0.10    0.71
   7 -10  -7    0.99    0.90
  -7  10   7    0.60    0.76
   6 -10  -7    1.25    0.89
   6 -10  -7    0.05    0.95
  -6  10   7    1.05    0.74
   5 -10  -7    0.49    0.68
   5 -10  -7    0.23    0.82
  -5  10   7    2.05    0.90
   4 -10  -7    1.94    0.89
   4 -10  -7    1.19    0.86
  -4  10   7    1.40    0.76
   3 -10  -7   53.73    3.04
   3 -10  -7   38.66    2.77
  -3  10   7   45.29    2.64
   2 -10  -7    7.53    1.50
   2 -10  -7    7.38    1.59
   1 -10  -7    5.60    1.48
   1 -10  -7    4.98    1.31
   0 -10  -7    8.36    1.70
   0 -10  -7   10.27    1.95
 -10  11   7    2.95    1.11
  -9  11   7   31.06    2.30
   8 -11  -7    5.08    1.30
  -8  11   7    4.96    1.31
   7 -11  -7    4.84    1.39
  -7  11   7    3.80    1.19
   6 -11  -7   12.45    1.95
  -6  11   7   15.25    1.89
   5 -11  -7    4.80    1.39
   5 -11  -7    4.80    1.24
  -5  11   7    4.26    1.16
   4 -11  -7    0.75    0.85
   4 -11  -7    2.02    0.98
  -4  11   7    2.72    1.07
   3 -11  -7    2.35    1.08
   3 -11  -7    3.49    1.17
   2 -11  -7    3.82    1.25
   2 -11  -7    2.97    1.21
   1 -11  -7   -0.03    0.77
   8 -12  -7    0.76    0.93
  -8  12   7   -0.73    0.82
   7 -12  -7    0.54    1.02
  -7  12   7    0.09    0.93
   6 -12  -7   48.54    3.21
  -6  12   7   48.20    2.95
   5 -12  -7    6.59    1.47
  -5  12   7    8.91    1.55
   4 -12  -7   -0.47    0.85
  -4  12   7   -0.29    0.92
   1  12  -8   30.80    2.33
   0  12  -8    4.30    1.24
  -1  12  -8    0.78    0.88
  -2  12  -8   42.28    2.66
  -3  12  -8    2.39    1.04
   4  11  -8    4.09    1.24
  -4 -11   8    5.53    1.58
   3  11  -8    7.51    1.51
   2  11  -8   10.28    1.66
   1  11  -8    4.82    1.26
   0  11  -8    2.11    0.90
  -1  11  -8   12.48    1.71
  -2  11  -8   25.32    1.96
  -3  11  -8    5.57    1.21
  -4  11  -8   11.06    1.52
  -4  11  -8   10.26    1.44
   5  10  -8   16.67    2.11
  -5 -10   8   15.58    2.13
   4  10  -8   16.20    2.03
  -4 -10   8   14.12    1.95
   3  10  -8    0.17    0.69
  -3 -10   8    0.62    1.14
   2  10  -8    0.56    0.74
   1  10  -8    1.43    0.81
   0  10  -8    0.66    0.67
  -1  10  -8    2.82    0.92
  -2  10  -8    5.51    1.18
  -2  10  -8    5.68    1.13
  -3  10  -8   10.42    1.45
  -3  10  -8    9.24    1.28
  -4  10  -8    7.63    1.12
  -4  10  -8    9.21    1.35
  -5  10  -8    1.05    0.71
  -6  10  -8   19.93    1.61
   7   9  -8    1.01    0.95
  -7  -9   8    0.24    0.90
   6   9  -8    5.79    1.33
  -6  -9   8    5.42    1.36
   5   9  -8   60.97    3.21
  -5  -9   8   57.06    3.23
   4   9  -8    1.19    0.78
  -4  -9   8    1.44    0.92
   3   9  -8   24.94    1.86
  -3  -9   8   28.02    2.06
   2   9  -8    5.81    1.16
   1   9  -8   30.31    1.96
   0   9  -8    6.38    1.16
  -1   9  -8    5.82    1.10
  -1   9  -8    5.81    1.01
  -2   9  -8    5.65    0.97
  -2   9  -8    5.95    1.09
  -3   9  -8    4.97    0.91
  -3   9  -8    5.60    1.09
  -4   9  -8    3.42    0.76
  -4   9  -8    4.22    0.93
  -5   9  -8    6.82    1.05
  -6   9  -8    3.81    0.87
   8   8  -8    0.66    0.81
  -8  -8   8   -0.05    0.79
   7   8  -8   -0.22    0.62
  -7  -8   8    1.18    0.93
   6   8  -8    0.90    0.74
  -6  -8   8    0.12    0.70
   5   8  -8    0.75    0.67
  -5  -8   8   -0.11    0.67
   4   8  -8   14.53    1.68
  -4  -8   8   15.97    1.87
   3   8  -8   18.38    1.50
  -3  -8   8   20.40    1.66
   2   8  -8    0.04    0.47
  -2  -8   8   -0.66    0.72
  -2  -8   8    0.48    0.93
   1   8  -8   12.39    1.42
  -1  -8   8    7.64    1.69
   0   8  -8  154.36    5.37
   0   8  -8  150.17    5.23
  -1   8  -8   32.82    1.82
  -1   8  -8   28.40    1.63
   1  -8   8   30.87    2.53
  -2   8  -8   15.19    1.54
  -2   8  -8   12.86    1.04
   2  -8   8    8.63    1.65
  -3   8  -8   17.36    1.21
  -3   8  -8   17.46    1.37
  -4   8  -8   52.99    2.33
  -4   8  -8   57.46    2.82
  -5   8  -8   -0.15    0.39
  -6   8  -8    0.39    0.55
  -7   8  -8    1.84    0.61
  -9  -7   8    0.85    0.84
  -9  -7   8    0.61    0.97
   8   7  -8   16.29    2.00
  -8  -7   8   16.51    2.09
  -8  -7   8   20.11    2.30
   7   7  -8    1.13    0.78
  -7  -7   8    0.60    0.78
  -7  -7   8   -0.11    0.63
   6   7  -8    3.87    0.96
  -6  -7   8    2.93    1.55
  -6  -7   8    3.27    0.96
   5   7  -8    1.55    0.70
  -5  -7   8    0.85    0.74
   4   7  -8    2.58    0.78
  -4  -7   8    1.92    0.74
   3   7  -8    5.87    1.00
  -3  -7   8    9.07    1.34
  -3  -7   8    4.50    1.30
   2   7  -8   15.65    1.22
  -2  -7   8   13.17    2.07
  -2  -7   8   16.06    1.31
   1   7  -8   18.93    1.27
   1   7  -8   23.34    1.41
  -1  -7   8   17.78    2.23
  -1  -7   8   18.04    1.79
   0   7  -8   27.61    1.60
   0   7  -8   32.01    1.59
   0  -7   8   29.24    2.29
  -1   7  -8    7.43    1.01
  -1   7  -8    7.80    0.89
   1  -7   8    7.17    1.36
  -2   7  -8    1.48    0.46
  -2   7  -8    2.61    0.65
   2  -7   8    1.93    0.84
  -3   7  -8   62.40    2.55
  -3   7  -8   60.74    2.30
   3  -7   8   52.23    3.16
  -4   7  -8   17.40    1.06
  -5   7  -8   25.11    1.31
  -5   7  -8   27.57    1.58
  -6   7  -8    2.21    0.66
  -6   7  -8    1.39    0.50
  -7   7  -8   25.32    1.46
  -7   7  -8   22.38    1.38
   9   6  -8    0.39    0.81
  -9  -6   8    0.05    0.65
  -9  -6   8    0.45    0.78
   8   6  -8    1.61    0.81
  -8  -6   8    1.86    0.83
  -8  -6   8    0.70    0.73
   7   6  -8   68.42    3.58
   7   6  -8   59.30    3.01
  -7  -6   8   66.39    3.19
  -7  -6   8   66.21    3.16
   6   6  -8   82.79    3.78
   6   6  -8   85.51    3.58
  -6  -6   8   84.56    3.63
  -6  -6   8   84.70    3.65
   5   6  -8    1.58    0.62
   5   6  -8    3.09    0.97
  -5  -6   8    2.36    0.76
  -5  -6   8    2.13    0.70
   4   6  -8    2.47    0.70
  -4  -6   8    2.85    0.80
   3   6  -8   72.09    2.94
  -3  -6   8   71.43    3.76
  -3  -6   8   72.57    3.06
   2   6  -8   14.75    1.07
   2   6  -8   15.24    1.11
  -2  -6   8   16.42    1.25
  -2  -6   8   16.16    2.01
   1   6  -8   -0.11    0.29
   1   6  -8   -0.06    0.33
  -1  -6   8    0.43    0.71
  -1  -6   8    0.10    0.65
   0   6  -8    2.12    0.51
   0   6  -8    3.01    0.64
   0  -6   8    3.58    0.95
   0  -6   8    3.90    1.10
  -1   6  -8    1.40    0.42
  -1   6  -8    1.16    0.49
   1  -6   8    2.06    0.82
   1  -6   8    2.27    0.86
  -2   6  -8    0.74    0.33
  -2   6  -8    1.83    0.51
  -2   6  -8    1.43    0.54
   2  -6   8    1.40    0.81
   2  -6   8    0.40    0.72
  -3   6  -8    5.00    0.59
  -3   6  -8    8.00    0.90
  -3   6  -8    6.74    0.83
   3  -6   8    5.63    1.25
   3  -6   8    5.89    1.16
  -4   6  -8    7.73    0.89
  -4   6  -8    9.88    0.67
   4  -6   8    7.97    1.44
   4  -6   8    9.32    1.66
  -5   6  -8   18.96    0.96
  -5   6  -8   20.85    1.22
   5  -6   8   21.95    2.13
  -6   6  -8    4.94    0.56
  -6   6  -8    3.08    0.57
   6  -6   8    4.04    1.42
   7  -6   8    0.65    1.09
  10   5  -8    1.67    1.03
 -10  -5   8    2.98    0.98
 -10  -5   8    2.46    0.98
   9   5  -8    2.65    0.89
   9   5  -8    2.43    1.13
  -9  -5   8    1.86    0.80
  -9  -5   8    3.61    1.02
   8   5  -8   11.27    1.67
   8   5  -8    8.34    1.27
  -8  -5   8    8.92    1.33
  -8  -5   8   10.41    1.38
   7   5  -8   44.74    2.30
   7   5  -8   41.55    2.48
  -7  -5   8   41.13    2.28
  -7  -5   8   43.77    2.35
   6   5  -8   17.36    1.48
   6   5  -8   15.87    1.26
  -6  -5   8   14.23    1.53
  -6  -5   8   17.02    1.69
   5   5  -8    0.87    0.49
   5   5  -8    0.61    0.53
  -5  -5   8    0.83    0.50
  -5  -5   8    0.43    0.48
   4   5  -8   47.21    2.28
   4   5  -8   48.07    2.21
  -4  -5   8   52.53    2.33
  -4  -5   8   51.28    2.30
   3   5  -8  140.72    4.87
   3   5  -8  142.34    4.74
   3   5  -8  139.30    4.78
  -3  -5   8  140.86    5.58
  -3  -5   8  147.03    4.89
   2   5  -8    6.57    0.78
   2   5  -8    9.75    1.02
  -2  -5   8    5.37    1.08
  -2  -5   8    9.16    1.07
   1   5  -8   36.64    1.61
   1   5  -8   34.92    1.55
  -1  -5   8   33.43    2.09
  -1  -5   8   31.81    2.34
   0   5  -8   44.14    2.17
   0   5  -8   39.57    1.65
   0   5  -8   42.94    1.74
   0  -5   8   39.74    2.28
   0  -5   8   34.67    2.38
  -1   5  -8   14.56    0.84
  -1   5  -8   16.52    0.94
  -1   5  -8   15.08    0.99
   1  -5   8   15.19    1.96
   1  -5   8   12.90    1.59
  -2   5  -8   19.63    0.96
  -2   5  -8   21.31    1.18
  -2   5  -8   21.58    1.08
   2  -5   8   21.97    1.90
   2  -5   8   17.92    1.56
  -3   5  -8    0.40    0.22
  -3   5  -8    0.57    0.37
   3  -5   8    1.05    0.65
   3  -5   8    0.62    0.70
  -4   5  -8    2.77    0.34
  -4   5  -8    3.95    0.58
   4  -5   8    5.57    1.41
   4  -5   8    3.51    0.98
   5  -5   8    1.92    1.10
   6  -5   8    5.52    1.63
   7  -5   8    7.76    1.92
   8  -5   8    3.63    1.73
  11   4  -8   -0.21    0.94
 -11  -4   8    0.84    0.73
  10   4  -8   17.10    2.30
 -10  -4   8   13.85    1.72
 -10  -4   8   14.52    1.77
   9   4  -8   14.44    1.65
   9   4  -8   13.79    2.02
  -9  -4   8   12.81    1.59
  -9  -4   8    9.65    1.40
   8   4  -8    1.87    0.86
   8   4  -8    1.13    0.64
  -8  -4   8    0.42    0.59
  -8  -4   8    0.51    0.55
   7   4  -8    1.23    0.76
   7   4  -8    1.03    0.58
   7   4  -8    1.51    0.73
  -7  -4   8    1.25    0.61
  -7  -4   8    1.13    0.56
   6   4  -8    1.00    0.66
   6   4  -8    0.11    0.52
   6   4  -8    1.74    0.58
  -6  -4   8    1.36    0.55
  -6  -4   8    1.52    0.56
   5   4  -8    0.13    0.42
   5   4  -8    0.67    0.44
  -5  -4   8    0.49    0.41
  -5  -4   8    0.00    0.40
   4   4  -8    0.54    0.45
   4   4  -8    0.23    0.36
  -4  -4   8   -0.01    0.48
  -4  -4   8    0.42    0.41
  -4  -4   8    0.57    0.43
   3   4  -8    3.15    0.62
   3   4  -8    2.92    0.55
   3   4  -8    2.26    0.52
  -3  -4   8    1.61    0.61
  -3  -4   8    4.06    0.67
  -3  -4   8    2.76    0.59
   2   4  -8   54.64    2.31
   2   4  -8   55.95    2.20
   2   4  -8   59.65    2.21
  -2  -4   8   53.53    2.65
  -2  -4   8   60.61    2.29
   1   4  -8   19.69    1.09
   1   4  -8   17.80    1.09
   1   4  -8   18.58    1.02
   1   4  -8   19.47    1.03
  -1  -4   8   21.25    2.47
  -1  -4   8   17.89    1.39
   0   4  -8    5.41    0.67
   0   4  -8    6.62    0.71
   0   4  -8    5.03    0.54
   0   4  -8    6.19    0.70
   0  -4   8    6.68    1.03
   0  -4   8    6.32    1.47
  -1   4  -8   56.51    1.94
  -1   4  -8   55.74    1.99
  -1   4  -8   54.50    2.05
   1  -4   8   55.57    2.66
   1  -4   8   50.24    3.03
  -2   4  -8  197.86    5.87
  -2   4  -8  203.42    6.05
  -2   4  -8  209.68    5.98
   2  -4   8  198.24    6.91
   2  -4   8  191.39    7.51
  -3   4  -8    4.48    0.52
  -3   4  -8    4.44    0.36
   3  -4   8    5.94    1.12
   3  -4   8    3.87    1.22
   4  -4   8    3.31    1.24
   4  -4   8    2.48    0.77
   5  -4   8   39.14    3.06
   6  -4   8   28.82    2.82
   7  -4   8    0.09    1.07
   8  -4   8   -0.64    1.04
  11   3  -8    2.42    1.12
 -11  -3   8    3.21    0.99
 -11  -3   8    4.97    1.21
  10   3  -8   74.23    4.21
 -10  -3   8   79.46    3.60
 -10  -3   8   87.61    3.69
   9   3  -8    6.94    1.43
   9   3  -8    7.47    1.50
   9   3  -8    8.46    1.19
  -9  -3   8    9.67    1.29
  -9  -3   8    7.88    1.19
   8   3  -8   17.03    1.32
   8   3  -8   17.58    1.67
   8   3  -8   17.37    1.71
  -8  -3   8   17.38    1.37
  -8  -3   8   19.18    1.39
   7   3  -8    7.37    1.03
   7   3  -8    6.51    1.25
   7   3  -8    6.73    1.29
  -7  -3   8    9.93    1.20
  -7  -3   8    9.60    1.18
   6   3  -8   29.73    1.94
   6   3  -8   28.75    1.56
  -6  -3   8   26.29    1.53
  -6  -3   8   28.37    1.57
   5   3  -8    1.96    0.68
   5   3  -8    2.86    0.64
  -5  -3   8    2.74    0.64
  -5  -3   8    1.99    0.57
   4   3  -8    2.70    0.61
   4   3  -8    1.33    0.39
   4   3  -8    2.12    0.63
  -4  -3   8    1.22    0.43
  -4  -3   8    1.65    0.62
  -4  -3   8    1.25    0.45
   3   3  -8    4.36    0.67
   3   3  -8    2.88    0.52
   3   3  -8    3.13    0.54
  -3  -3   8    3.12    0.57
  -3  -3   8    4.19    0.82
  -3  -3   8    5.19    0.72
   2   3  -8    2.78    0.62
   2   3  -8    3.23    0.52
   2   3  -8    2.43    0.42
   2   3  -8    2.43    0.48
  -2  -3   8    2.70    0.65
  -2  -3   8    3.61    0.56
   1   3  -8   10.90    0.76
   1   3  -8   12.54    0.76
   1   3  -8   12.02    0.82
   1   3  -8   12.14    0.75
  -1  -3   8   10.12    1.78
  -1  -3   8   12.51    1.31
   0   3  -8   25.29    1.09
   0   3  -8   24.23    1.07
   0   3  -8   24.22    1.10
   0   3  -8   23.47    1.16
   0  -3   8   22.59    1.47
   0  -3   8   22.92    1.96
  -1   3  -8   37.01    1.50
  -1   3  -8   37.96    1.40
  -1   3  -8   38.12    1.42
  -1   3  -8   38.18    1.44
   1  -3   8   35.19    2.50
   1  -3   8   37.52    1.99
  -2   3  -8   30.57    1.20
  -2   3  -8   31.17    1.18
   2  -3   8   34.54    2.49
   2  -3   8   29.46    1.81
   3  -3   8    0.44    0.78
   3  -3   8    0.52    0.47
   4  -3   8    6.35    1.73
   4  -3   8    5.71    1.14
   5  -3   8   71.54    4.39
   6  -3   8    2.37    1.23
   6  -3   8    1.12    1.18
   7  -3   8   22.82    3.23
   7  -3   8   22.43    3.41
   8  -3   8    0.04    1.26
   8  -3   8    1.25    1.42
  12   2  -8    0.45    1.05
 -12  -2   8    0.20    0.68
  11   2  -8    0.57    0.92
 -11  -2   8    0.58    0.75
 -11  -2   8    0.15    0.63
  10   2  -8    2.79    0.81
  10   2  -8    1.93    1.08
  10   2  -8    2.45    1.17
 -10  -2   8    1.77    0.73
 -10  -2   8    1.89    0.72
   9   2  -8   12.51    1.89
   9   2  -8   15.22    1.23
   9   2  -8   12.11    1.83
  -9  -2   8   16.78    1.62
  -9  -2   8   13.92    1.51
   8   2  -8   30.25    1.73
   8   2  -8   33.29    2.36
   8   2  -8   33.55    2.34
  -8  -2   8   32.71    1.81
  -8  -2   8   29.75    1.75
   7   2  -8    8.36    1.55
   7   2  -8    7.90    1.33
   7   2  -8   10.38    1.14
  -7  -2   8    8.10    1.04
  -7  -2   8    7.50    0.99
   6   2  -8    2.50    0.80
   6   2  -8    1.86    0.52
  -6  -2   8    2.02    0.57
  -6  -2   8    2.15    0.60
   5   2  -8  252.31    8.34
   5   2  -8  236.23    7.61
  -5  -2   8  252.53    7.66
  -5  -2   8  246.01    7.65
  -5  -2   8  257.09    8.00
   4   2  -8   86.28    3.10
   4   2  -8   89.86    3.28
   4   2  -8   88.60    3.14
  -4  -2   8   89.89    3.40
  -4  -2   8   86.33    3.11
  -4  -2   8   90.53    3.14
   3   2  -8    6.84    0.75
   3   2  -8    5.32    0.62
   3   2  -8    5.08    0.67
  -3  -2   8    6.47    0.88
  -3  -2   8    7.80    0.80
  -3  -2   8    8.31    0.86
   2   2  -8   42.31    1.67
   2   2  -8   43.15    1.67
   2   2  -8   42.61    1.67
   2   2  -8   37.56    1.73
  -2  -2   8   42.93    1.65
  -2  -2   8   41.95    1.95
  -2  -2   8   40.90    1.64
   1   2  -8   85.12    2.97
   1   2  -8   87.36    2.87
   1   2  -8   85.83    2.87
   1   2  -8   87.35    2.87
  -1  -2   8   84.25    4.20
  -1  -2   8   89.14    3.30
   0   2  -8    4.54    0.51
   0   2  -8    4.99    0.54
   0   2  -8    4.23    0.48
   0  -2   8    6.86    1.48
   0  -2   8    5.50    0.83
  -1   2  -8    0.97    0.27
  -1   2  -8    1.39    0.28
  -1   2  -8    2.34    0.36
   1  -2   8    1.88    0.59
   1  -2   8    1.11    0.77
  -2   2  -8    5.02    0.42
  -2   2  -8    4.39    0.40
  -2   2  -8    4.95    0.39
   2  -2   8    5.84    0.97
   2  -2   8    5.13    1.40
   3  -2   8    1.01    0.56
   3  -2   8    1.55    1.01
   4  -2   8    1.01    0.93
   5  -2   8    1.36    1.07
   5  -2   8    1.65    1.13
   6  -2   8    7.39    2.02
   6  -2   8   18.91    2.96
   7  -2   8   14.15    2.97
   7  -2   8   14.55    2.83
  12   1  -8   -0.02    1.03
 -12  -1   8    0.84    0.72
 -12  -1   8    0.10    0.67
  11   1  -8    0.38    1.07
  11   1  -8    0.43    1.11
 -11  -1   8   -0.13    0.58
 -11  -1   8    0.80    0.64
  10   1  -8   -0.47    0.77
  10   1  -8    0.95    0.88
  10   1  -8    1.90    0.70
 -10  -1   8    1.72    0.70
 -10  -1   8    1.33    0.62
   9   1  -8    0.70    0.51
   9   1  -8    1.81    0.98
   9   1  -8    2.33    1.13
  -9  -1   8   -0.07    0.44
  -9  -1   8    0.83    0.57
   8   1  -8    3.43    0.98
   8   1  -8    2.66    1.11
   8   1  -8    2.94    0.71
  -8  -1   8    3.15    0.73
  -8  -1   8    2.99    0.75
   7   1  -8    5.70    1.19
   7   1  -8    6.27    0.88
  -7  -1   8    7.09    0.95
  -7  -1   8    6.37    0.91
   6   1  -8   33.39    2.16
   6   1  -8   30.66    1.57
  -6  -1   8   32.76    1.59
  -6  -1   8   30.24    1.55
   5   1  -8   94.23    3.33
   5   1  -8   93.91    3.31
  -5  -1   8   90.18    3.28
  -5  -1   8   94.85    3.32
  -5  -1   8   97.69    3.43
   4   1  -8    4.87    0.64
   4   1  -8    6.48    0.75
   4   1  -8    4.64    0.65
  -4  -1   8    4.32    0.65
  -4  -1   8    5.43    0.71
  -4  -1   8    7.47    0.81
   3   1  -8    0.44    0.33
   3   1  -8    0.66    0.31
   3   1  -8    0.21    0.24
   3   1  -8   -0.09    0.20
  -3  -1   8    0.30    0.30
  -3  -1   8    0.25    0.27
  -3  -1   8    0.14    0.29
   2   1  -8  182.14    5.58
   2   1  -8  178.13    5.55
   2   1  -8  189.72    5.56
   2   1  -8  178.96    5.68
  -2  -1   8  175.37    5.46
  -2  -1   8  187.12    5.83
  -2  -1   8  189.37    7.35
  -2  -1   8  179.39    5.48
   1   1  -8   97.20    3.22
   1   1  -8  104.07    3.23
   1   1  -8   98.17    3.34
  -1  -1   8  100.11    3.58
  -1  -1   8  103.75    4.66
   0   1  -8   44.69    1.54
   0   1  -8   40.00    1.62
   0   1  -8   41.54    1.61
   0   1  -8   40.04    1.55
   0  -1   8   45.11    2.78
   0  -1   8   41.87    1.96
  -1   1  -8    5.89    0.51
  -1   1  -8    6.72    0.60
  -1   1  -8    5.87    0.43
  -1   1  -8    6.41    0.49
   1  -1   8    8.84    1.63
   1  -1   8    5.69    0.89
  -2   1  -8   52.17    1.62
  -2   1  -8   49.96    1.74
  -2   1  -8   48.58    1.71
  -2   1  -8   50.25    1.71
   2  -1   8   49.28    2.40
   2  -1   8   43.99    3.01
   3  -1   8    1.95    1.06
   4  -1   8   13.27    2.43
   5  -1   8    1.91    1.15
   5  -1   8    2.32    1.40
   6  -1   8    1.34    1.32
   6  -1   8    2.02    1.30
   7  -1   8   -0.66    0.89
   7  -1   8   -1.37    0.89
  12   0  -8   32.43    3.08
 -12   0   8   27.91    1.98
 -12   0   8   26.79    1.95
  11   0  -8   48.00    3.53
  11   0  -8   42.24    3.33
 -11   0   8   52.45    2.59
 -11   0   8   52.76    2.60
  10   0  -8    1.07    1.18
  10   0  -8    0.01    0.83
  10   0  -8    0.13    0.50
 -10   0   8    0.22    0.52
 -10   0   8    0.42    0.57
   9   0  -8    2.54    0.70
   9   0  -8    3.52    1.36
   9   0  -8    5.86    1.42
  -9   0   8    4.79    0.86
  -9   0   8    4.21    0.84
   8   0  -8   37.02    2.60
   8   0  -8   37.95    1.87
   8   0  -8   35.10    2.84
  -8   0   8   38.84    1.90
  -8   0   8   40.05    1.93
   7   0  -8   10.44    1.62
   7   0  -8   12.75    0.98
  -7   0   8   11.02    0.92
  -7   0   8   13.02    0.96
   6   0  -8    6.27    0.80
   6   0  -8    6.25    1.23
  -6   0   8    5.57    0.78
  -6   0   8    6.29    0.76
  -6   0   8    5.69    0.78
   5   0  -8    4.38    0.62
   5   0  -8    4.34    0.67
  -5   0   8    4.42    0.66
  -5   0   8    4.58    0.59
  -5   0   8    4.09    0.62
   4   0  -8    1.48    0.41
   4   0  -8    0.96    0.37
   4   0  -8    1.25    0.39
  -4   0   8    1.18    0.38
  -4   0   8    1.49    0.42
  -4   0   8    1.14    0.36
   3   0  -8    1.14    0.34
   3   0  -8    0.42    0.27
   3   0  -8    0.95    0.32
  -3   0   8    0.96    0.33
  -3   0   8    0.59    0.28
  -3   0   8    0.91    0.33
   2   0  -8    0.23    0.23
   2   0  -8   -0.32    0.22
   2   0  -8    0.00    0.24
  -2   0   8    0.61    0.28
  -2   0   8    0.27    0.24
  -2   0   8    0.64    0.30
  -2   0   8    0.41    0.64
   1   0  -8   10.93    0.67
   1   0  -8   11.01    0.77
   1   0  -8   12.11    0.74
  -1   0   8   11.16    0.86
  -1   0   8   11.62    1.77
   0   0  -8   75.23    2.66
   0   0  -8   78.11    2.53
   0   0  -8   77.61    2.62
   0   0   8   84.23    4.01
   0   0   8   75.74    3.00
  -1   0  -8    1.56    0.30
  -1   0  -8    1.62    0.40
  -1   0  -8    1.46    0.36
  -1   0  -8    1.57    0.37
   1   0   8    1.69    0.55
   1   0   8    2.73    0.97
  -2   0  -8    2.41    0.44
  -2   0  -8    2.12    0.34
  -2   0  -8    2.54    0.48
   2   0   8    4.03    1.28
  -3   0  -8  107.63    3.15
  -3   0  -8   93.87    3.34
  -3   0  -8  103.65    3.29
   3   0   8  101.37    5.06
  -4   0  -8   95.76    3.22
  -4   0  -8   98.67    3.13
  -4   0  -8   99.38    3.04
   4   0   8   93.44    5.06
   4   0   8   87.24    4.97
  -5   0  -8    0.52    0.38
  -5   0  -8    0.27    0.40
   5   0   8    0.48    0.98
   5   0   8    0.34    1.00
  -6   0  -8    1.30    0.48
  -6   0  -8    1.24    0.49
   6   0   8    0.85    1.11
   6   0   8    0.74    1.06
  -7   0  -8   29.11    1.56
  -7   0  -8   26.09    1.75
   7   0   8   33.17    4.57
   7   0   8   27.08    3.91
  13  -1  -8    1.27    1.40
 -13   1   8    1.14    0.81
  12  -1  -8   46.91    3.69
 -12   1   8   39.85    2.38
 -12   1   8   43.57    2.46
  11  -1  -8   10.38    2.12
  11  -1  -8    8.64    2.06
 -11   1   8   14.22    1.51
 -11   1   8   11.83    1.36
  10  -1  -8    4.02    1.35
  10  -1  -8    2.46    0.73
  10  -1  -8    3.21    1.37
 -10   1   8    3.64    0.82
 -10   1   8    2.95    0.79
   9  -1  -8   31.43    2.56
   9  -1  -8   30.98    1.72
   9  -1  -8   33.48    2.92
  -9   1   8   31.00    1.75
  -9   1   8   34.09    1.80
   8  -1  -8  157.36    6.54
   8  -1  -8  152.79    5.33
  -8   1   8  164.24    5.40
  -8   1   8  164.80    5.39
   7  -1  -8    0.08    0.35
   7  -1  -8    0.11    0.60
  -7   1   8    0.73    0.40
  -7   1   8    0.40    0.30
  -7   1   8    0.40    0.36
   6  -1  -8   11.99    0.92
  -6   1   8   12.36    0.94
  -6   1   8   11.68    0.91
  -6   1   8   12.79    0.77
   5  -1  -8   38.63    1.71
   5  -1  -8   35.15    1.65
  -5   1   8   37.68    1.49
  -5   1   8   37.77    1.69
  -5   1   8   37.17    1.68
   4  -1  -8   15.97    1.01
   4  -1  -8   16.83    1.03
   4  -1  -8   18.02    1.05
  -4   1   8   16.71    0.99
  -4   1   8   17.19    0.91
  -4   1   8   16.45    0.99
   3  -1  -8    3.00    0.54
   3  -1  -8    4.37    0.69
  -3   1   8    3.56    0.57
  -3   1   8    4.03    0.59
  -3   1   8    3.52    0.54
   2  -1  -8    0.39    0.29
   2  -1  -8    0.52    0.25
  -2   1   8    1.73    0.85
  -2   1   8    0.52    0.26
  -2   1   8    0.52    0.29
  -2   1   8    0.27    0.26
   1  -1  -8    1.41    0.38
   1  -1  -8    1.29    0.38
   1  -1  -8    1.27    0.33
  -1   1   8    1.14    0.74
  -1   1   8    0.75    0.35
   0  -1  -8    2.03    0.39
   0  -1  -8    0.79    0.37
   0  -1  -8    1.21    0.38
   0  -1  -8    1.96    0.47
   0   1   8    1.61    0.84
  -1  -1  -8    7.59    0.83
  -1  -1  -8    8.13    0.61
  -1  -1  -8    9.32    0.90
  -1  -1  -8    7.56    0.82
   1   1   8    8.77    1.65
  -2  -1  -8   18.27    1.05
  -2  -1  -8   19.13    0.94
  -2  -1  -8   18.28    1.12
  -2  -1  -8   18.20    1.03
   2   1   8   23.14    2.70
  -3  -1  -8   36.61    1.60
  -3  -1  -8   33.58    1.65
  -3  -1  -8   36.79    1.49
   3   1   8   37.50    2.86
  -4  -1  -8   10.27    0.99
  -4  -1  -8    9.77    0.91
  -4  -1  -8    7.21    0.87
   4   1   8    8.78    1.99
  -5  -1  -8    0.84    0.53
  -5  -1  -8    2.00    0.55
  -5  -1  -8    1.56    0.58
   5   1   8   -0.35    0.73
   5   1   8    1.69    1.16
  -6  -1  -8   12.53    1.27
   6   1   8    9.58    2.34
   6   1   8   12.65    2.63
  -7  -1  -8   31.09    1.80
   7   1   8   29.52    4.16
   7   1   8   33.54    4.80
  13  -2  -8    0.09    1.41
 -13   2   8    0.51    0.77
  12  -2  -8    1.28    1.19
 -12   2   8    1.28    0.71
 -12   2   8    0.50    0.69
  11  -2  -8    0.30    1.07
  11  -2  -8   -0.26    0.80
 -11   2   8    1.14    0.59
 -11   2   8    0.53    0.58
  10  -2  -8    1.37    1.20
  10  -2  -8    0.10    0.86
  10  -2  -8    0.47    0.49
 -10   2   8    0.02    0.44
 -10   2   8    0.31    0.50
   9  -2  -8    3.78    1.35
   9  -2  -8    3.75    1.39
   9  -2  -8    4.46    0.82
  -9   2   8    3.76    0.78
  -9   2   8    3.29    0.74
   8  -2  -8    1.02    0.84
   8  -2  -8    1.57    0.58
  -8   2   8    0.88    0.47
  -8   2   8    0.80    0.45
   7  -2  -8   71.67    2.84
   7  -2  -8   68.30    3.74
  -7   2   8   75.24    2.86
  -7   2   8   73.41    2.85
   6  -2  -8   21.76    1.28
  -6   2   8   22.38    1.28
  -6   2   8   22.31    0.93
  -6   2   8   21.23    1.26
   5  -2  -8   28.26    1.51
   5  -2  -8   31.28    1.56
   5  -2  -8   31.23    1.53
  -5   2   8   29.42    1.50
  -5   2   8   32.02    1.51
  -5   2   8   33.63    1.23
   4  -2  -8   40.41    1.81
   4  -2  -8   38.12    1.79
  -4   2   8   42.01    1.56
  -4   2   8   43.18    1.79
  -4   2   8   40.72    1.74
   3  -2  -8  292.02    8.83
  -3   2   8  290.56    8.63
  -3   2   8  292.99    8.69
  -3   2   8  288.48    8.66
  -3   2   8  302.34   10.13
   2  -2  -8   24.46    1.29
   2  -2  -8   24.63    1.36
   2  -2  -8   28.33    1.26
   2  -2  -8   24.49    1.29
  -2   2   8   24.71    1.17
  -2   2   8   24.92    1.97
   1  -2  -8    0.38    0.35
   1  -2  -8    0.52    0.37
   1  -2  -8    0.54    0.31
   1  -2  -8    0.54    0.35
  -1   2   8    1.18    0.64
   0  -2  -8   57.38    2.36
   0  -2  -8   55.34    2.32
   0  -2  -8   56.99    2.31
   0  -2  -8   61.54    2.18
   0   2   8   61.68    3.31
  -1  -2  -8   35.88    1.66
  -1  -2  -8   39.87    1.59
  -1  -2  -8   34.06    1.70
  -1  -2  -8   38.51    1.79
   1   2   8   32.96    2.47
  -2  -2  -8    2.02    0.54
  -2  -2  -8    1.22    0.51
  -2  -2  -8    1.59    0.54
  -2  -2  -8    1.88    0.47
   2   2   8    1.81    1.01
  -3  -2  -8    3.13    0.71
  -3  -2  -8    3.29    0.66
  -3  -2  -8    1.88    0.61
  -3  -2  -8    2.60    0.59
   3   2   8    2.15    1.13
  -4  -2  -8    1.85    0.61
  -4  -2  -8    1.90    0.61
   4   2   8    1.08    0.97
  -5  -2  -8   -0.01    0.44
  -5  -2  -8    0.01    0.44
   5   2   8    0.11    0.82
   5   2   8    0.58    1.06
  -6  -2  -8    0.03    0.48
   6   2   8    0.67    1.17
   6   2   8    0.59    1.11
  13  -3  -8    3.94    1.99
 -13   3   8    0.71    0.76
  12  -3  -8    2.64    1.43
 -12   3   8    3.62    0.91
 -12   3   8    3.31    0.86
  11  -3  -8    3.96    1.69
  11  -3  -8    4.63    1.61
 -11   3   8    4.13    0.85
 -11   3   8    4.83    0.97
  10  -3  -8    1.32    1.30
  10  -3  -8   -0.38    0.70
  10  -3  -8   -0.24    0.52
 -10   3   8   -0.01    0.44
 -10   3   8   -0.27    0.46
   9  -3  -8    0.37    0.48
   9  -3  -8    0.12    1.03
   9  -3  -8    0.27    0.77
  -9   3   8   -0.40    0.40
  -9   3   8   -0.15    0.40
   8  -3  -8    1.91    0.59
   8  -3  -8    1.98    1.00
  -8   3   8    1.05    0.52
  -8   3   8    0.55    0.47
   7  -3  -8    1.16    0.51
  -7   3   8    1.38    0.49
  -7   3   8    0.91    0.45
   6  -3  -8    1.10    0.49
   6  -3  -8    1.91    0.56
  -6   3   8    1.78    0.51
  -6   3   8    2.21    0.55
   5  -3  -8    6.71    0.90
  -5   3   8    5.14    0.76
  -5   3   8    7.55    0.90
   4  -3  -8   69.45    2.71
  -4   3   8   69.07    2.61
   3  -3  -8   67.40    2.65
   3  -3  -8   66.74    2.64
   3  -3  -8   67.21    2.71
   3  -3  -8   71.44    2.69
  -3   3   8   72.32    3.48
  -3   3   8   65.84    2.50
   2  -3  -8    1.76    0.51
   2  -3  -8    2.11    0.54
   2  -3  -8    3.02    0.65
  -2   3   8    2.27    0.88
  -2   3   8    3.04    0.53
   1  -3  -8    5.69    0.85
   1  -3  -8    5.08    0.78
   1  -3  -8    5.60    0.83
  -1   3   8    5.97    1.25
   0  -3  -8  182.80    6.17
   0  -3  -8  185.87    6.17
   0  -3  -8  193.13    6.13
   0   3   8  195.00    7.21
  -1  -3  -8   19.81    1.29
  -1  -3  -8   18.95    1.35
  -1  -3  -8   19.89    1.31
   1   3   8   19.97    2.38
  -2  -3  -8   25.31    1.61
  -2  -3  -8   24.26    1.49
  -2  -3  -8   24.72    1.51
   2   3   8   24.92    2.26
  -3  -3  -8    1.91    0.71
  -3  -3  -8    2.60    0.72
  -3  -3  -8    0.05    0.55
   3   3   8    1.48    0.98
  -4  -3  -8   15.46    1.26
  -4  -3  -8   15.24    1.53
   4   3   8   18.23    2.74
  -5  -3  -8    1.52    0.75
  -5  -3  -8    1.61    0.70
   5   3   8    2.00    1.35
  -6  -3  -8    3.43    0.90
  -6  -3  -8    1.28    0.72
   6   3   8    3.15    1.66
  13  -4  -8    7.93    2.49
 -13   4   8   11.35    1.58
  12  -4  -8    0.50    1.25
 -12   4   8    3.85    0.95
 -12   4   8    3.42    0.87
  11  -4  -8    0.98    1.55
  11  -4  -8   -0.26    1.05
 -11   4   8    0.61    0.60
 -11   4   8    0.95    0.61
  10  -4  -8   71.44    4.49
  10  -4  -8   70.67    4.79
  10  -4  -8   72.01    3.06
 -10   4   8   72.31    3.12
 -10   4   8   70.63    3.12
   9  -4  -8   35.79    3.29
   9  -4  -8   40.45    3.19
   9  -4  -8   37.51    2.02
  -9   4   8   38.87    2.08
  -9   4   8   44.25    2.13
   8  -4  -8   -0.26    0.82
   8  -4  -8    0.39    0.48
  -8   4   8    0.34    0.44
  -8   4   8    0.51    0.46
   7  -4  -8   25.07    1.53
   7  -4  -8   24.82    1.53
  -7   4   8   26.48    1.53
   6  -4  -8   29.72    1.65
  -6   4   8   29.56    1.59
   5  -4  -8    6.56    0.96
  -5   4   8    5.49    0.83
   4  -4  -8    8.87    1.04
   4  -4  -8   11.67    1.21
  -4   4   8    8.06    0.94
  -4   4   8   10.88    1.58
   3  -4  -8    6.30    0.88
   3  -4  -8    4.17    0.77
   3  -4  -8    5.91    0.89
  -3   4   8    5.86    1.16
  -3   4   8    5.95    0.80
   2  -4  -8    1.09    0.50
   2  -4  -8    1.70    0.63
   2  -4  -8    0.97    0.49
  -2   4   8    0.98    0.44
  -2   4   8    1.67    0.83
   1  -4  -8    0.34    0.40
   1  -4  -8    2.23    0.69
   1  -4  -8    1.95    0.60
  -1   4   8    1.95    0.86
   0  -4  -8    0.51    0.49
   0  -4  -8    0.21    0.45
   0  -4  -8    0.08    0.41
   0   4   8    0.47    0.77
  -1  -4  -8   24.77    1.65
  -1  -4  -8   24.56    1.59
  -1  -4  -8   25.12    1.60
   1   4   8   24.80    2.17
  -2  -4  -8   28.33    1.76
  -2  -4  -8   28.14    1.83
  -2  -4  -8   30.41    1.80
   2   4   8   26.08    2.36
  -3  -4  -8    3.37    0.93
  -3  -4  -8    2.47    0.86
  -3  -4  -8    3.16    0.89
   3   4   8    1.21    1.04
  -4  -4  -8    0.17    0.57
  -4  -4  -8   -0.60    0.63
   4   4   8    0.43    0.95
  -5  -4  -8   58.53    2.83
  -5  -4  -8   62.04    3.06
   5   4   8   56.70    4.17
  13  -5  -8    1.35    1.61
 -13   5   8   -0.01    0.64
  12  -5  -8   -0.62    1.12
 -12   5   8    0.10    0.62
 -12   5   8    0.28    0.58
  11  -5  -8    9.80    2.36
  11  -5  -8    7.98    2.36
 -11   5   8    9.40    1.27
 -11   5   8    6.81    1.19
  10  -5  -8   75.26    3.17
  10  -5  -8   75.73    4.78
  10  -5  -8   65.66    4.68
 -10   5   8   73.31    3.18
 -10   5   8   71.29    3.20
   9  -5  -8    1.88    0.68
   9  -5  -8    3.80    1.42
   9  -5  -8    1.19    1.04
  -9   5   8    1.88    0.63
  -9   5   8    2.79    0.75
   8  -5  -8    1.61    1.14
   8  -5  -8    1.29    0.57
  -8   5   8    1.80    0.57
   7  -5  -8  102.25    3.92
  -7   5   8  103.66    3.88
   6  -5  -8  107.57    3.99
  -6   5   8  103.77    3.89
   5  -5  -8    3.61    0.75
   5  -5  -8    3.46    0.78
  -5   5   8    1.76    0.76
  -5   5   8    3.13    0.72
   4  -5  -8    0.40    0.44
   4  -5  -8    0.58    0.47
  -4   5   8    0.38    0.41
  -4   5   8    0.46    0.66
   3  -5  -8   23.36    1.53
   3  -5  -8   22.94    1.53
   3  -5  -8   25.69    1.65
  -3   5   8   22.54    1.34
  -3   5   8   24.79    1.88
   2  -5  -8    0.82    0.52
   2  -5  -8    1.02    0.57
   2  -5  -8    0.98    0.57
  -2   5   8    2.15    0.88
  -2   5   8    0.94    0.48
   1  -5  -8    0.75    0.54
   1  -5  -8    0.84    0.62
   1  -5  -8    0.71    0.56
  -1   5   8    0.80    0.69
   0  -5  -8    3.07    0.86
   0  -5  -8    1.60    0.65
   0  -5  -8    0.92    0.62
   0   5   8    1.71    0.90
  -1  -5  -8    0.31    0.58
  -1  -5  -8    0.72    0.70
  -1  -5  -8    0.12    0.52
   1   5   8    0.07    0.67
  -2  -5  -8   -0.26    0.60
  -2  -5  -8   -0.45    0.57
  -2  -5  -8   -0.16    0.47
   2   5   8   -0.07    0.79
  -3  -5  -8    0.14    0.64
  -3  -5  -8    0.14    0.56
  -3  -5  -8    1.09    0.80
   3   5   8    0.31    0.85
  -4  -5  -8   12.58    1.65
  -4  -5  -8   11.90    1.63
  -4  -5  -8   10.55    1.55
   4   5   8    8.11    1.90
  13  -6  -8    6.74    2.20
  12  -6  -8    2.71    1.65
 -12   6   8    3.25    0.97
 -12   6   8    1.93    0.90
  11  -6  -8    1.45    1.30
 -11   6   8    0.48    0.61
 -11   6   8    2.64    0.82
  10  -6  -8    1.04    1.08
  10  -6  -8    0.44    1.06
  10  -6  -8    2.17    0.77
 -10   6   8    2.73    0.81
 -10   6   8    1.17    0.62
   9  -6  -8    2.79    1.28
   9  -6  -8    3.56    1.39
   9  -6  -8    4.86    0.93
  -9   6   8    5.68    1.02
   8  -6  -8    0.34    0.52
   8  -6  -8   -0.17    0.45
   8  -6  -8   -0.46    0.88
  -8   6   8    0.03    0.49
   7  -6  -8   13.66    1.49
  -7   6   8   15.87    1.55
   6  -6  -8    1.13    0.58
  -6   6   8    0.97    0.68
  -6   6   8    1.98    0.69
   5  -6  -8   79.87    3.39
   5  -6  -8   83.46    3.42
  -5   6   8   80.77    3.26
  -5   6   8   86.66    3.80
   4  -6  -8    0.47    0.51
   4  -6  -8    0.58    0.55
  -4   6   8    0.40    0.50
  -4   6   8    0.07    0.60
   3  -6  -8   12.72    1.51
   3  -6  -8   11.94    1.43
  -3   6   8   15.39    1.82
  -3   6   8   15.68    1.14
   2  -6  -8   59.89    3.00
   2  -6  -8   63.40    2.99
  -2   6   8   65.38    3.29
   1  -6  -8  106.94    4.31
   1  -6  -8  104.44    4.33
   1  -6  -8  112.91    4.40
  -1   6   8  105.01    4.68
   0  -6  -8    1.68    0.78
   0  -6  -8    2.23    0.92
   0  -6  -8    0.89    0.63
   0   6   8    1.46    0.86
  -1  -6  -8    1.56    0.85
  -1  -6  -8    3.31    0.96
  -1  -6  -8    1.01    0.76
   1   6   8    3.16    1.18
  -2  -6  -8   22.87    1.86
  -2  -6  -8   25.30    1.92
  -2  -6  -8   22.41    2.23
   2   6   8   24.28    2.37
  -3  -6  -8    7.17    1.42
  -3  -6  -8    6.34    1.31
  -3  -6  -8    8.95    1.57
   3   6   8    5.87    1.59
  -4  -6  -8    1.41    0.94
  -4  -6  -8    1.03    0.92
   4   6   8    0.46    1.07
  12  -7  -8    1.00    1.46
 -12   7   8    1.49    0.77
 -12   7   8    2.82    0.86
  11  -7  -8    0.48    1.18
 -11   7   8   -0.44    0.48
 -11   7   8    0.17    0.58
  10  -7  -8    9.92    1.40
  10  -7  -8    9.51    2.11
  10  -7  -8    6.36    1.85
 -10   7   8    6.87    1.14
   9  -7  -8    2.47    0.83
   9  -7  -8    2.09    0.75
   9  -7  -8    3.18    1.32
   9  -7  -8    2.16    1.17
  -9   7   8    1.20    0.71
   8  -7  -8   -0.04    0.56
   8  -7  -8   -0.20    0.88
  -8   7   8    0.47    0.60
   7  -7  -8    0.66    0.63
  -7   7   8    0.54    0.62
   6  -7  -8    0.75    0.62
   6  -7  -8    1.31    0.70
  -6   7   8    0.23    0.74
  -6   7   8    1.42    0.66
   5  -7  -8    0.27    0.57
   5  -7  -8    0.69    0.59
  -5   7   8    0.13    0.67
  -5   7   8    1.05    0.58
   4  -7  -8    0.38    0.59
   4  -7  -8    0.21    0.52
  -4   7   8    0.02    0.61
  -4   7   8    0.44    0.53
   3  -7  -8    6.75    1.24
   3  -7  -8    4.98    1.10
  -3   7   8    5.03    1.14
  -3   7   8    7.83    1.10
   2  -7  -8   56.97    3.03
   2  -7  -8   66.28    3.12
  -2   7   8   57.06    3.11
   1  -7  -8   17.84    1.96
   1  -7  -8   13.62    1.70
  -1   7   8   15.50    1.95
   0  -7  -8    5.88    1.19
   0  -7  -8    6.50    1.36
   0   7   8    4.25    1.23
  -1  -7  -8   13.96    1.77
  -1  -7  -8   13.13    1.83
   1   7   8   14.18    2.07
  -2  -7  -8   58.87    3.26
  -2  -7  -8   66.63    3.36
   2   7   8   61.56    3.88
  -3  -7  -8   -0.37    0.84
   3   7   8    0.02    0.96
  12  -8  -8   11.52    2.40
 -12   8   8   10.78    1.48
 -12   8   8    9.05    1.39
  11  -8  -8    5.55    1.82
 -11   8   8    4.39    1.02
  10  -8  -8    8.93    1.99
  10  -8  -8   13.52    2.30
  10  -8  -8   14.68    1.70
 -10   8   8   11.87    1.54
   9  -8  -8    1.87    1.21
   9  -8  -8    3.22    0.93
   9  -8  -8    3.76    1.32
  -9   8   8    3.02    0.95
   8  -8  -8   65.11    3.19
   8  -8  -8   62.51    3.87
   8  -8  -8   69.83    4.11
  -8   8   8   67.07    3.12
   7  -8  -8    8.96    1.35
  -7   8   8   12.27    1.49
   6  -8  -8    2.71    0.87
   6  -8  -8    3.03    0.99
  -6   8   8    2.92    0.89
   5  -8  -8   32.23    2.12
   5  -8  -8   27.86    2.02
  -5   8   8   25.86    1.79
   4  -8  -8    9.37    1.50
   4  -8  -8   10.06    1.49
  -4   8   8   12.14    1.51
   3  -8  -8    2.53    0.93
   3  -8  -8    3.11    1.04
  -3   8   8    3.55    0.97
   2  -8  -8    4.90    1.19
   2  -8  -8    4.21    1.09
   1  -8  -8    3.24    1.07
   1  -8  -8    4.36    1.21
   0  -8  -8    0.76    0.88
   0  -8  -8    0.63    0.81
  -1  -8  -8    1.93    0.91
  -1  -8  -8    1.69    1.05
  -2  -8  -8   -0.19    0.91
 -11   9   8   -0.99    0.65
  10  -9  -8    1.61    0.94
  10  -9  -8   -0.48    0.89
 -10   9   8    0.53    0.59
   9  -9  -8   27.20    2.58
   9  -9  -8   30.50    2.17
   9  -9  -8   23.14    3.05
  -9   9   8   29.15    2.03
   8  -9  -8   42.91    2.63
   8  -9  -8   36.36    2.89
   8  -9  -8   49.27    3.34
  -8   9   8   44.68    2.51
   7  -9  -8    1.82    0.85
  -7   9   8    1.75    0.79
   6  -9  -8    1.35    0.83
   6  -9  -8    0.66    0.81
  -6   9   8    1.10    0.72
   5  -9  -8   86.77    4.13
   5  -9  -8   90.43    4.18
  -5   9   8   91.72    3.92
   4  -9  -8   17.98    2.15
   4  -9  -8   18.32    2.15
  -4   9   8   21.01    1.70
   3  -9  -8    0.87    0.83
   3  -9  -8   -0.05    0.68
   2  -9  -8    1.91    0.91
   2  -9  -8    1.33    0.89
   1  -9  -8    6.67    1.52
   1  -9  -8    2.98    1.15
   0  -9  -8    0.51    0.86
   0  -9  -8   -0.09    0.87
  -1  -9  -8   -0.16    0.91
 -11  10   8    3.53    1.09
 -10  10   8    2.07    1.01
   9 -10  -8    3.15    1.07
  -9  10   8    1.70    0.98
   8 -10  -8    2.01    0.94
  -8  10   8    3.12    0.97
   7 -10  -8    5.42    1.36
  -7  10   8    2.60    0.99
   6 -10  -8    1.64    1.00
   6 -10  -8    0.74    0.91
  -6  10   8    2.13    0.95
   5 -10  -8    5.51    1.37
   5 -10  -8    4.45    1.23
  -5  10   8    6.50    1.34
   4 -10  -8    6.00    1.31
   4 -10  -8    8.00    1.54
  -4  10   8    9.61    1.52
   3 -10  -8   29.45    2.34
   3 -10  -8   19.76    2.30
   2 -10  -8    2.81    1.11
   2 -10  -8    2.42    0.99
   1 -10  -8    1.03    0.92
   1 -10  -8    0.64    1.19
   9 -11  -8   -0.37    0.96
  -9  11   8    1.99    1.08
   8 -11  -8    4.17    1.20
  -8  11   8    3.45    1.11
   7 -11  -8   -0.38    0.86
  -7  11   8    0.09    0.82
   6 -11  -8   -0.10    0.92
  -6  11   8   -1.65    0.71
   5 -11  -8    1.96    1.10
   5 -11  -8    0.93    0.93
  -5  11   8    1.33    1.04
   4 -11  -8   -0.34    0.77
   4 -11  -8    0.21    0.95
   3 -11  -8    0.39    0.88
   3 -11  -8   -0.58    0.77
   3  11  -9    6.85    1.52
   2  11  -9    7.53    1.46
   1  11  -9    0.89    0.88
   0  11  -9    4.59    1.21
  -1  11  -9   68.42    3.43
  -2  11  -9   16.07    1.93
  -3  11  -9    6.89    1.31
   5  10  -9    3.16    1.22
  -5 -10   9    1.98    1.20
   4  10  -9    0.72    0.80
   3  10  -9    1.31    0.87
   2  10  -9    4.03    1.08
   1  10  -9    9.28    1.51
   0  10  -9    8.76    1.47
  -1  10  -9   11.18    1.58
  -2  10  -9    4.09    0.97
  -2  10  -9    6.31    1.17
  -3  10  -9    2.71    0.97
  -3  10  -9    1.53    0.69
  -4  10  -9   22.36    1.72
  -5  10  -9    6.33    1.16
   6   9  -9   34.30    2.46
  -6  -9   9   36.23    2.59
   5   9  -9   46.74    2.82
  -5  -9   9   53.24    3.05
   4   9  -9    1.43    0.83
  -4  -9   9    1.82    0.97
   3   9  -9    0.23    0.61
   2   9  -9   48.84    2.64
   1   9  -9    9.64    1.44
   0   9  -9    0.80    0.65
  -1   9  -9    1.15    0.66
  -1   9  -9    0.83    0.57
  -2   9  -9    0.86    0.72
  -2   9  -9    0.69    0.55
  -3   9  -9    1.31    0.71
  -3   9  -9    0.16    0.49
  -4   9  -9    2.54    0.69
  -5   9  -9    3.89    0.82
   7   8  -9    5.21    1.23
  -7  -8   9    6.53    1.39
   6   8  -9   21.40    2.23
  -6  -8   9   25.61    2.07
   5   8  -9   10.90    1.55
  -5  -8   9   13.46    1.78
   4   8  -9   -0.17    0.51
  -4  -8   9    0.22    0.63
   3   8  -9   27.72    1.84
   2   8  -9   76.57    3.31
   1   8  -9    3.13    0.81
   0   8  -9   20.49    1.48
   0   8  -9   20.88    1.42
  -1   8  -9   25.83    1.54
  -1   8  -9   23.80    1.61
  -2   8  -9   14.21    1.55
  -2   8  -9   15.13    1.16
  -3   8  -9   14.26    1.50
  -3   8  -9   13.12    1.08
  -4   8  -9    0.54    0.43
  -5   8  -9    4.30    0.77
  -6   8  -9    1.63    0.64
   8   7  -9    9.32    1.57
  -8  -7   9   13.46    1.90
   7   7  -9   -0.36    0.54
  -7  -7   9   -0.51    0.62
   6   7  -9    0.25    0.57
  -6  -7   9   -0.68    0.59
   5   7  -9    0.21    0.59
  -5  -7   9    1.28    0.79
   4   7  -9    0.50    0.54
  -4  -7   9    1.23    0.76
   3   7  -9    1.66    0.66
  -3  -7   9    1.77    0.77
  -3  -7   9    3.07    1.16
   2   7  -9    3.28    0.78
  -2  -7   9    3.86    1.27
  -2  -7   9    2.33    1.03
   1   7  -9   28.39    1.54
   1   7  -9   22.75    1.48
  -1  -7   9   19.86    2.35
  -1  -7   9   25.50    3.03
   0   7  -9   14.37    1.07
   0   7  -9   14.23    1.13
   0  -7   9   10.96    1.79
  -1   7  -9    1.20    0.46
  -1   7  -9    0.15    0.49
   1  -7   9    0.93    0.81
  -2   7  -9   28.64    1.47
  -2   7  -9   29.50    1.63
  -3   7  -9  109.37    4.04
  -3   7  -9  105.99    3.68
  -4   7  -9    2.96    0.56
  -5   7  -9    3.87    0.63
  -6   7  -9   24.45    1.33
   9   6  -9   51.49    2.98
  -9  -6   9   61.57    3.25
  -9  -6   9   61.99    3.30
   8   6  -9    7.65    1.32
  -8  -6   9    7.40    1.44
  -8  -6   9   10.06    1.54
   7   6  -9   16.30    1.80
  -7  -6   9   18.81    1.96
   6   6  -9    4.07    0.93
  -6  -6   9    4.97    1.03
   5   6  -9   28.71    1.77
  -5  -6   9   34.27    1.97
  -5  -6   9   21.18    2.50
   4   6  -9    1.68    0.60
  -4  -6   9    0.73    0.62
  -4  -6   9    0.63    0.88
   3   6  -9    3.28    0.76
  -3  -6   9    2.18    0.90
  -3  -6   9    3.54    0.88
   2   6  -9    5.43    0.87
   2   6  -9    4.44    0.73
  -2  -6   9    4.20    1.08
  -2  -6   9    3.95    1.30
   1   6  -9    6.04    0.89
   1   6  -9    4.25    0.69
  -1  -6   9    4.10    1.08
  -1  -6   9    3.73    1.18
   0   6  -9    7.65    0.85
   0   6  -9    7.75    0.94
   0  -6   9    6.33    1.34
   0  -6   9    7.05    1.27
  -1   6  -9   16.00    1.08
  -1   6  -9   19.45    1.07
   1  -6   9   13.85    1.78
   1  -6   9   15.58    2.00
  -2   6  -9   19.11    1.06
  -2   6  -9   20.82    1.22
   2  -6   9   17.48    2.01
   2  -6   9   19.86    1.91
  -3   6  -9   13.82    1.07
  -3   6  -9   17.83    0.97
   3  -6   9   15.39    2.08
  -4   6  -9    1.33    0.55
  -4   6  -9    1.89    0.42
   4  -6   9    1.11    0.88
  -5   6  -9    2.40    0.58
  -5   6  -9    3.77    0.53
   5  -6   9    3.52    1.29
  -6   6  -9   43.77    1.68
   6  -6   9   40.99    3.29
  10   5  -9    0.51    0.94
 -10  -5   9    0.11    0.72
 -10  -5   9    0.45    0.76
   9   5  -9    0.65    0.88
   9   5  -9   -0.23    0.59
  -9  -5   9    0.96    0.77
  -9  -5   9    1.47    0.75
   8   5  -9   10.39    1.62
   8   5  -9    6.53    1.17
  -8  -5   9    9.59    1.42
  -8  -5   9    8.21    1.25
   7   5  -9   19.77    1.72
   7   5  -9   20.49    1.54
  -7  -5   9   20.74    1.61
  -7  -5   9   21.43    1.60
   6   5  -9    2.69    0.73
   6   5  -9    5.16    1.08
  -6  -5   9    3.93    0.91
  -6  -5   9    3.63    0.86
   5   5  -9    1.44    0.63
   5   5  -9    1.04    0.53
  -5  -5   9    1.18    0.87
  -5  -5   9    1.72    0.68
   4   5  -9  161.20    5.52
   4   5  -9  161.26    5.70
  -4  -5   9  166.72    5.61
  -4  -5   9  167.78    6.36
   3   5  -9   62.96    2.51
   3   5  -9   61.55    2.54
   3   5  -9   59.32    2.68
  -3  -5   9   60.63    3.16
  -3  -5   9   64.32    2.65
   2   5  -9   11.05    0.88
   2   5  -9   10.58    0.88
  -2  -5   9    9.13    1.86
  -2  -5   9   10.06    1.41
   1   5  -9   17.66    1.09
   1   5  -9   20.29    1.13
  -1  -5   9   13.68    1.64
  -1  -5   9   20.70    2.59
   0   5  -9   71.68    2.61
   0   5  -9   72.56    2.57
   0  -5   9   69.08    3.31
   0  -5   9   64.27    3.62
  -1   5  -9    1.80    0.38
  -1   5  -9    1.68    0.46
  -1   5  -9    2.00    0.50
   1  -5   9    2.28    0.84
   1  -5   9    1.41    0.90
  -2   5  -9    0.40    0.35
  -2   5  -9    0.07    0.33
  -2   5  -9    0.10    0.24
   2  -5   9    0.44    0.55
   2  -5   9    0.14    0.77
  -3   5  -9    2.47    0.53
  -3   5  -9    2.53    0.39
   3  -5   9    4.16    1.32
   3  -5   9    2.75    0.91
  -4   5  -9    0.68    0.41
  -4   5  -9    0.62    0.25
   4  -5   9    1.57    1.04
   5  -5   9    1.33    1.14
   6  -5   9    1.82    1.26
   7  -5   9    4.39    1.76
  11   4  -9    0.85    1.03
 -11  -4   9    2.02    1.00
  10   4  -9   -0.18    0.87
  10   4  -9    0.26    0.73
 -10  -4   9    0.09    0.60
 -10  -4   9    0.24    0.63
   9   4  -9    1.74    1.02
   9   4  -9    1.54    0.75
  -9  -4   9    1.26    0.71
  -9  -4   9    0.67    0.59
   8   4  -9    1.47    0.68
   8   4  -9    1.78    0.94
  -8  -4   9    0.77    0.59
  -8  -4   9    1.59    0.69
   7   4  -9    5.86    1.19
   7   4  -9    3.92    0.89
  -7  -4   9    5.10    1.00
  -7  -4   9    4.80    1.00
   6   4  -9    8.61    1.29
   6   4  -9    8.77    1.13
  -6  -4   9    9.78    1.22
  -6  -4   9    7.49    1.05
   5   4  -9   27.70    1.80
   5   4  -9   26.62    1.53
  -5  -4   9   25.40    1.91
  -5  -4   9   26.37    1.57
  -5  -4   9   25.22    1.53
   4   4  -9   59.66    2.48
   4   4  -9   61.40    2.82
  -4  -4   9   62.14    2.55
  -4  -4   9   55.66    2.89
   3   4  -9   10.18    0.83
   3   4  -9    9.28    1.00
  -3  -4   9   11.13    1.12
  -3  -4   9    7.99    1.20
   2   4  -9    0.64    0.37
   2   4  -9    0.29    0.33
   2   4  -9    0.99    0.39
  -2  -4   9    1.16    1.01
  -2  -4   9    1.24    0.61
   1   4  -9  114.08    3.84
   1   4  -9  109.55    3.66
   1   4  -9  107.41    3.66
  -1  -4   9  104.33    5.09
  -1  -4   9  109.69    4.30
   0   4  -9   69.30    2.65
   0   4  -9   70.30    2.54
   0   4  -9   70.50    2.49
   0   4  -9   70.16    2.46
   0  -4   9   63.68    3.70
   0  -4   9   69.76    3.16
  -1   4  -9   29.01    1.33
  -1   4  -9   28.30    1.24
  -1   4  -9   30.04    1.30
   1  -4   9   28.60    1.86
   1  -4   9   25.99    2.28
  -2   4  -9    6.61    0.52
  -2   4  -9    6.72    0.67
  -2   4  -9    7.28    0.72
   2  -4   9    6.63    1.60
   2  -4   9    5.13    1.06
  -3   4  -9   39.17    1.51
  -3   4  -9   37.99    1.40
   3  -4   9   37.99    2.90
   3  -4   9   39.48    2.38
   4  -4   9    2.48    1.20
   5  -4   9   14.04    2.53
   6  -4   9   -0.34    0.97
   7  -4   9    1.40    1.39
  11   3  -9   29.20    2.62
 -11  -3   9   25.83    2.02
 -11  -3   9   22.39    1.88
  10   3  -9   49.62    2.67
  10   3  -9   55.49    3.47
 -10  -3   9   51.31    2.76
 -10  -3   9   56.19    2.84
   9   3  -9   -0.10    0.73
   9   3  -9    0.74    0.56
  -9  -3   9    0.08    0.51
  -9  -3   9    0.34    0.56
   8   3  -9    0.62    0.76
   8   3  -9    0.20    0.50
   8   3  -9    1.35    0.83
  -8  -3   9    2.35    0.76
  -8  -3   9    0.94    0.59
   7   3  -9   39.28    2.46
   7   3  -9   39.16    2.03
  -7  -3   9   39.64    2.06
  -7  -3   9   40.37    2.07
   6   3  -9   13.99    1.09
   6   3  -9   13.87    1.71
  -6  -3   9   15.27    1.15
  -6  -3   9   12.66    1.33
   5   3  -9    1.43    0.52
   5   3  -9    2.59    0.80
  -5  -3   9    2.96    0.68
  -5  -3   9    2.13    0.58
  -5  -3   9    0.88    0.62
   4   3  -9    3.17    0.63
   4   3  -9    2.91    0.56
  -4  -3   9    2.52    0.70
  -4  -3   9    2.90    0.67
  -4  -3   9    2.32    0.60
   3   3  -9    1.04    0.40
   3   3  -9    1.78    0.44
   3   3  -9    1.07    0.40
  -3  -3   9    0.26    0.39
  -3  -3   9    1.09    0.45
   2   3  -9    0.34    0.32
   2   3  -9    0.28    0.26
   2   3  -9    0.48    0.30
  -2  -3   9    0.07    0.74
  -2  -3   9    0.18    0.40
   1   3  -9    1.02    0.35
   1   3  -9    0.80    0.32
   1   3  -9    1.08    0.36
   1   3  -9    1.36    0.37
  -1  -3   9    0.22    0.77
  -1  -3   9    1.88    0.58
   0   3  -9    8.12    0.61
   0   3  -9    7.00    0.68
   0   3  -9    8.08    0.63
   0   3  -9    7.28    0.66
   0  -3   9    8.03    1.13
   0  -3   9    7.45    1.68
  -1   3  -9   40.01    1.56
  -1   3  -9   41.28    1.57
  -1   3  -9   41.77    1.67
  -1   3  -9   40.34    1.55
   1  -3   9   40.06    2.19
   1  -3   9   38.66    2.83
  -2   3  -9    3.71    0.46
   2  -3   9    2.36    1.07
   2  -3   9    1.83    0.64
  -3   3  -9    0.32    0.23
   3  -3   9    0.94    0.55
   3  -3   9    1.36    1.00
   4  -3   9   61.82    4.05
   5  -3   9   64.22    4.35
   6  -3   9    0.31    1.09
   7  -3   9   -0.07    1.18
  12   2  -9    2.33    1.43
 -12  -2   9    0.87    0.71
  11   2  -9   37.61    3.03
 -11  -2   9   36.75    2.32
 -11  -2   9   36.10    2.28
  10   2  -9   10.81    1.86
  10   2  -9    9.17    1.76
  10   2  -9   10.86    1.38
 -10  -2   9   13.76    1.57
 -10  -2   9   14.58    1.61
   9   2  -9    3.53    1.23
   9   2  -9    2.24    1.06
   9   2  -9    2.24    0.70
  -9  -2   9    1.40    0.68
  -9  -2   9    2.33    0.75
   8   2  -9   27.52    1.66
   8   2  -9   27.59    2.31
   8   2  -9   28.76    2.23
  -8  -2   9   26.33    1.67
  -8  -2   9   29.35    1.73
   7   2  -9  144.54    5.04
   7   2  -9  143.25    5.85
  -7  -2   9  146.71    5.07
  -7  -2   9  148.24    5.07
   6   2  -9   -0.23    0.50
   6   2  -9    0.02    0.34
  -6  -2   9    0.62    0.52
  -6  -2   9    1.10    0.48
  -6  -2   9    0.84    0.48
   5   2  -9   17.53    1.18
  -5  -2   9   22.89    1.30
  -5  -2   9   23.13    1.31
  -5  -2   9   22.41    1.43
   4   2  -9   32.94    1.59
   4   2  -9   34.38    1.61
  -4  -2   9   33.04    1.75
  -4  -2   9   33.80    1.59
  -4  -2   9   33.86    1.58
   3   2  -9   23.31    1.34
   3   2  -9   24.83    1.27
   3   2  -9   25.11    1.27
  -3  -2   9   25.90    1.26
  -3  -2   9   23.39    1.45
   2   2  -9    6.73    0.72
   2   2  -9    6.89    0.77
   2   2  -9    4.80    0.66
  -2  -2   9    5.20    0.83
  -2  -2   9    6.54    1.63
   1   2  -9    0.29    0.26
   1   2  -9   -0.12    0.23
   1   2  -9    0.14    0.25
   1   2  -9   -0.18    0.21
  -1  -2   9   -0.31    0.64
  -1  -2   9    0.36    0.38
   0   2  -9    2.50    0.45
   0   2  -9    3.44    0.49
   0   2  -9    2.04    0.38
   0   2  -9    2.35    0.44
   0  -2   9    3.81    0.78
   0  -2   9    2.50    0.99
  -1   2  -9    2.36    0.41
  -1   2  -9    3.11    0.47
  -1   2  -9    2.08    0.37
   1  -2   9    3.91    1.33
   1  -2   9    3.49    0.79
  -2   2  -9    8.97    0.60
  -2   2  -9    9.55    0.65
  -2   2  -9    9.39    0.56
   2  -2   9    8.83    1.28
   2  -2   9   10.84    2.05
   3  -2   9   19.30    2.71
   4  -2   9   26.65    3.35
   5  -2   9    8.97    2.15
   6  -2   9   -0.76    0.92
   7  -2   9   10.65    2.62
  12   1  -9   -0.83    1.13
 -12  -1   9   -0.19    0.69
 -12  -1   9    0.16    0.65
  11   1  -9    0.56    0.95
  11   1  -9    0.39    1.12
 -11  -1   9    0.25    0.66
 -11  -1   9    0.78    0.67
  10   1  -9    0.48    1.03
  10   1  -9    1.38    0.98
  10   1  -9    0.02    0.57
 -10  -1   9    0.38    0.54
 -10  -1   9    0.75    0.60
   9   1  -9    0.21    0.84
   9   1  -9    0.80    0.77
   9   1  -9    0.32    0.49
  -9  -1   9   -0.21    0.48
  -9  -1   9    0.64    0.54
   8   1  -9    2.89    1.29
   8   1  -9    1.64    0.88
   8   1  -9    1.58    0.60
  -8  -1   9    2.45    0.68
  -8  -1   9    2.42    0.69
   7   1  -9    0.87    0.45
   7   1  -9    0.87    0.65
  -7  -1   9    0.92    0.51
  -7  -1   9    0.64    0.46
  -7  -1   9    0.55    0.49
   6   1  -9   46.95    2.79
   6   1  -9   53.18    2.24
  -6  -1   9   49.03    2.17
  -6  -1   9   49.02    2.22
  -6  -1   9   54.11    2.23
   5   1  -9   20.86    1.22
   5   1  -9   20.53    1.48
  -5  -1   9   21.47    1.23
  -5  -1   9   20.81    1.20
  -5  -1   9   18.30    1.21
   4   1  -9   23.15    1.27
   4   1  -9   23.89    1.27
   4   1  -9   25.48    1.41
  -4  -1   9   22.98    1.32
  -4  -1   9   23.86    1.24
  -4  -1   9   22.10    1.21
   3   1  -9   32.97    1.50
   3   1  -9   30.89    1.46
   3   1  -9   31.49    1.57
  -3  -1   9   34.39    1.64
  -3  -1   9   29.27    1.40
   2   1  -9  277.33    7.94
   2   1  -9  261.95    8.07
   2   1  -9  262.57    7.93
   2   1  -9  261.96    7.97
  -2  -1   9  266.59    8.25
  -2  -1   9  264.66    9.83
   1   1  -9   21.69    1.17
   1   1  -9   22.23    1.10
   1   1  -9   24.86    1.11
  -1  -1   9   21.03    1.33
  -1  -1   9   23.17    2.11
   0   1  -9    3.52    0.47
   0   1  -9    3.90    0.53
   0   1  -9    3.29    0.48
   0  -1   9    2.81    1.05
   0  -1   9    3.57    0.70
  -1   1  -9   52.70    1.88
  -1   1  -9   51.69    1.94
  -1   1  -9   52.48    1.82
   1  -1   9   52.87    3.37
   1  -1   9   48.66    2.43
  -2   1  -9   42.52    1.64
  -2   1  -9   41.09    1.48
  -2   1  -9   41.77    1.55
   2  -1   9   42.81    3.09
  -3   1  -9   -0.10    0.28
  -3   1  -9    0.21    0.22
   3  -1   9    1.02    1.02
  -4   1  -9    0.83    0.26
   4  -1   9    1.51    1.03
   5  -1   9    1.80    1.23
   6  -1   9    0.89    1.28
  12   0  -9    2.81    1.48
 -12   0   9   -0.11    0.67
 -12   0   9    1.23    0.76
  11   0  -9    2.20    1.22
  11   0  -9    2.26    1.41
 -11   0   9    3.04    0.88
 -11   0   9    3.19    0.86
  10   0  -9   11.66    2.16
  10   0  -9    9.39    1.24
  10   0  -9   10.25    1.92
 -10   0   9   14.44    1.55
 -10   0   9   13.61    1.49
   9   0  -9    0.07    0.47
   9   0  -9   -0.01    0.67
   9   0  -9    0.56    0.85
  -9   0   9    0.37    0.52
  -9   0   9   -0.19    0.44
   8   0  -9   -0.26    0.60
   8   0  -9    0.23    0.40
  -8   0   9   -0.22    0.36
  -8   0   9    0.47    0.44
   7   0  -9    2.52    0.97
   7   0  -9    2.60    0.65
  -7   0   9    2.50    0.61
  -7   0   9    4.33    0.76
  -7   0   9    2.96    0.57
   6   0  -9    1.08    0.48
  -6   0   9    2.09    0.49
  -6   0   9    1.46    0.48
  -6   0   9    1.49    0.49
   5   0  -9    6.59    0.82
   5   0  -9    4.50    0.74
  -5   0   9    5.78    0.70
  -5   0   9    5.09    0.73
  -5   0   9    5.39    0.78
   4   0  -9   14.28    0.96
   4   0  -9   14.87    0.98
   4   0  -9   13.87    1.04
  -4   0   9   13.59    0.90
  -4   0   9   13.23    0.90
  -4   0   9   13.55    0.91
   3   0  -9   59.08    2.26
   3   0  -9   60.77    2.32
   3   0  -9   57.38    2.37
  -3   0   9   57.45    2.16
  -3   0   9   58.93    2.32
  -3   0   9   60.61    3.65
   2   0  -9   67.62    2.37
   2   0  -9   61.11    2.33
   2   0  -9   59.10    2.31
  -2   0   9   62.95    2.48
  -2   0   9   57.84    3.50
   1   0  -9   -0.06    0.26
   1   0  -9    0.21    0.27
  -1   0   9    0.08    0.31
  -1   0   9   -0.02    0.65
   0   0  -9    5.62    0.60
   0   0  -9    3.63    0.56
   0   0  -9    5.06    0.65
   0   0   9    6.11    1.46
   0   0   9    3.51    0.77
  -1   0  -9  164.29    4.80
  -1   0  -9  155.70    4.86
  -1   0  -9  155.29    4.95
   1   0   9  151.48    6.58
  -2   0  -9   19.70    1.18
  -2   0  -9   17.68    0.89
  -2   0  -9   18.16    1.05
   2   0   9   21.86    2.84
  -3   0  -9   27.83    1.41
  -3   0  -9   28.68    1.21
   3   0   9   29.62    2.68
  -4   0  -9    0.60    0.45
  -4   0  -9    1.40    0.40
   4   0   9    1.07    1.13
  -5   0  -9   18.18    1.08
  -5   0  -9   17.15    1.18
   5   0   9   21.90    3.36
  -6   0  -9    2.41    0.62
  -6   0  -9    1.24    0.61
   6   0   9    0.97    1.44
 -13   1   9    3.65    1.09
  12  -1  -9   15.43    2.66
 -12   1   9   18.07    1.82
 -12   1   9   18.43    1.93
  11  -1  -9    3.99    1.07
  11  -1  -9    3.41    1.44
  11  -1  -9    4.32    1.88
 -11   1   9    5.49    1.05
 -11   1   9    3.49    0.88
  10  -1  -9    1.50    0.65
  10  -1  -9    0.34    0.85
  10  -1  -9    0.23    1.03
 -10   1   9    0.90    0.58
 -10   1   9    0.84    0.59
   9  -1  -9   89.23    5.18
   9  -1  -9   88.62    3.55
   9  -1  -9   86.08    4.72
  -9   1   9   96.53    3.62
  -9   1   9   91.37    3.57
   8  -1  -9   53.26    3.36
   8  -1  -9   52.28    2.42
  -8   1   9   55.61    2.44
  -8   1   9   57.61    2.46
   7  -1  -9   -0.41    0.61
   7  -1  -9    0.18    0.42
  -7   1   9    0.30    0.38
  -7   1   9    0.18    0.38
   6  -1  -9   20.95    1.29
  -6   1   9   22.67    1.09
  -6   1   9   20.33    1.25
  -6   1   9   20.82    1.27
   5  -1  -9   44.74    1.96
   5  -1  -9   41.69    1.92
  -5   1   9   44.52    1.75
  -5   1   9   43.69    1.92
  -5   1   9   45.14    1.92
   4  -1  -9    6.24    0.80
   4  -1  -9    7.06    0.86
  -4   1   9    6.27    0.69
  -4   1   9    7.70    0.84
  -4   1   9    7.11    0.81
   3  -1  -9    7.75    0.87
  -3   1   9    7.23    0.77
  -3   1   9    6.60    0.75
  -3   1   9    5.92    1.41
   2  -1  -9    4.29    0.66
  -2   1   9    3.58    1.12
  -2   1   9    3.03    0.59
   1  -1  -9    0.36    0.33
   1  -1  -9    0.64    0.35
   1  -1  -9    0.80    0.33
  -1   1   9    1.15    0.46
  -1   1   9    1.43    0.79
   0  -1  -9    0.52    0.36
   0  -1  -9    0.69    0.34
   0  -1  -9    0.59    0.36
   0  -1  -9    0.54    0.34
   0   1   9    0.07    0.61
  -1  -1  -9    0.16    0.33
  -1  -1  -9    0.02    0.33
  -1  -1  -9    0.55    0.38
  -1  -1  -9    0.05    0.28
   1   1   9    0.64    0.83
  -2  -1  -9   16.58    1.01
  -2  -1  -9   16.35    1.12
  -2  -1  -9   16.55    0.94
  -2  -1  -9   14.35    0.97
   2   1   9   23.97    3.03
  -3  -1  -9   23.35    1.40
  -3  -1  -9   22.36    1.23
  -3  -1  -9   23.35    1.22
   3   1   9   26.38    3.30
  -4  -1  -9    0.63    0.55
  -4  -1  -9    1.25    0.49
  -4  -1  -9    0.89    0.47
   4   1   9    1.46    1.09
  -5  -1  -9    0.10    0.54
   5   1   9    0.46    1.12
  -6  -1  -9   56.00    2.56
   6   1   9   49.43    4.24
  13  -2  -9    0.48    1.28
 -13   2   9    1.93    0.91
  12  -2  -9    0.00    1.10
 -12   2   9    0.83    0.70
 -12   2   9    1.58    0.73
  11  -2  -9   -0.59    0.88
  11  -2  -9   -1.24    1.37
  11  -2  -9   -0.11    0.58
 -11   2   9    0.15    0.62
 -11   2   9    0.25    0.55
  10  -2  -9    6.60    1.73
  10  -2  -9    8.69    2.21
  10  -2  -9   11.03    1.31
 -10   2   9   13.62    1.44
 -10   2   9    8.64    1.17
   9  -2  -9   78.71    4.96
   9  -2  -9   74.66    3.17
   9  -2  -9   74.33    4.35
  -9   2   9   80.40    3.23
  -9   2   9   77.28    3.21
   8  -2  -9    4.08    0.81
   8  -2  -9    3.44    1.19
  -8   2   9    6.01    0.93
  -8   2   9    5.89    0.91
   7  -2  -9    1.48    0.55
  -7   2   9    1.84    0.55
  -7   2   9    1.27    0.51
   6  -2  -9  118.12    4.20
  -6   2   9  121.37    4.18
  -6   2   9  119.20    4.16
   5  -2  -9  129.88    4.66
   5  -2  -9  136.70    4.69
   5  -2  -9  140.24    4.96
  -5   2   9  133.61    4.56
  -5   2   9  137.31    4.59
  -5   2   9  145.71    4.28
   4  -2  -9    7.90    0.94
   4  -2  -9    7.05    0.90
  -4   2   9    7.99    0.88
  -4   2   9    6.48    0.69
  -4   2   9    7.95    0.87
   3  -2  -9    2.51    0.58
  -3   2   9    2.69    1.03
  -3   2   9    4.00    0.60
  -3   2   9    1.89    0.43
   2  -2  -9   39.99    1.83
   2  -2  -9   39.33    1.86
  -2   2   9   43.33    2.74
   1  -2  -9    2.87    0.59
   1  -2  -9    3.80    0.65
   1  -2  -9    3.29    0.67
  -1   2   9    3.22    1.06
   0  -2  -9    2.87    0.62
   0  -2  -9    1.36    0.57
   0  -2  -9    2.46    0.58
   0   2   9    1.89    0.98
  -1  -2  -9    2.94    0.70
  -1  -2  -9    2.39    0.59
  -1  -2  -9    1.32    0.52
   1   2   9    3.75    1.30
  -2  -2  -9    1.17    0.48
  -2  -2  -9    0.32    0.42
  -2  -2  -9    1.91    0.59
   2   2   9    1.50    0.94
  -3  -2  -9    0.14    0.50
  -3  -2  -9    0.42    0.44
   3   2   9   -0.12    0.69
  -4  -2  -9    2.27    0.75
  -4  -2  -9    2.77    0.70
   4   2   9    1.91    1.27
  -5  -2  -9    9.94    1.18
  -5  -2  -9    9.47    1.27
   5   2   9    9.28    2.23
  13  -3  -9    0.48    1.38
 -13   3   9    1.35    0.81
  12  -3  -9    9.39    2.23
 -12   3   9    9.63    1.35
 -12   3   9   12.68    1.54
  11  -3  -9    4.59    2.13
  11  -3  -9    2.38    0.74
  11  -3  -9    2.82    1.38
 -11   3   9    3.74    0.90
 -11   3   9    3.77    0.93
  10  -3  -9    1.36    0.65
  10  -3  -9    2.00    1.24
  10  -3  -9    1.55    1.50
 -10   3   9    1.09    0.64
 -10   3   9    1.62    0.65
   9  -3  -9    1.69    1.06
   9  -3  -9    2.24    0.71
  -9   3   9    1.57    0.58
  -9   3   9    1.86    0.63
   8  -3  -9    2.22    0.68
   8  -3  -9    2.04    1.15
  -8   3   9    2.43    0.71
  -8   3   9    1.80    0.63
   7  -3  -9    0.54    0.47
  -7   3   9    1.41    0.56
  -7   3   9   -0.03    0.44
   6  -3  -9    9.32    1.13
   6  -3  -9    8.37    1.06
  -6   3   9    9.36    1.06
  -6   3   9    9.40    1.09
   5  -3  -9    1.84    0.56
  -5   3   9    1.96    0.57
  -5   3   9    1.86    0.51
   4  -3  -9   82.64    3.22
  -4   3   9   87.09    3.84
  -4   3   9   82.47    3.10
  -4   3   9   88.29    4.23
   3  -3  -9    1.56    0.55
   3  -3  -9    2.09    0.58
   3  -3  -9    1.73    0.53
  -3   3   9    2.25    0.94
  -3   3   9    1.95    0.51
   2  -3  -9   15.72    1.13
   2  -3  -9   14.19    1.17
   2  -3  -9   14.52    1.09
  -2   3   9   19.21    2.24
   1  -3  -9   75.92    2.94
   1  -3  -9   75.71    3.01
   1  -3  -9   74.15    2.95
  -1   3   9   68.17    3.77
   0  -3  -9  133.51    4.69
   0  -3  -9  131.75    4.66
   0  -3  -9  130.09    4.62
   0   3   9  133.31    5.78
  -1  -3  -9    0.87    0.58
  -1  -3  -9    0.57    0.49
  -1  -3  -9    1.81    0.62
   1   3   9    0.26    0.80
  -2  -3  -9   -0.06    0.51
  -2  -3  -9    0.84    0.55
  -2  -3  -9    1.04    0.60
   2   3   9    1.19    0.92
  -3  -3  -9   32.85    1.96
  -3  -3  -9   27.94    1.73
   3   3   9   30.75    2.83
  -4  -3  -9    8.30    1.25
  -4  -3  -9   10.45    1.28
   4   3   9    5.84    1.72
  -5  -3  -9   -0.08    0.61
  -5  -3  -9   -0.09    0.65
   5   3   9    0.03    1.07
  13  -4  -9    7.26    2.45
 -13   4   9    8.96    1.41
  12  -4  -9   59.45    4.65
 -12   4   9   61.33    3.05
 -12   4   9   62.68    3.07
  11  -4  -9    3.02    0.87
  11  -4  -9    4.12    1.58
  11  -4  -9    6.03    2.31
 -11   4   9    1.49    0.71
 -11   4   9    3.13    0.88
  10  -4  -9    0.38    0.58
  10  -4  -9    1.59    1.36
  10  -4  -9    1.06    1.13
 -10   4   9    0.44    0.56
 -10   4   9    0.47    0.54
   9  -4  -9   17.98    1.36
   9  -4  -9   13.13    2.36
  -9   4   9   16.67    1.33
  -9   4   9   14.52    1.54
   8  -4  -9    7.97    1.10
   8  -4  -9    6.63    1.61
  -8   4   9    5.77    0.94
  -8   4   9    5.94    0.95
   7  -4  -9   -0.07    0.40
   7  -4  -9    0.13    0.44
  -7   4   9    0.15    0.38
  -7   4   9    0.55    0.44
   6  -4  -9    0.67    0.50
  -6   4   9    1.06    0.51
  -6   4   9    0.83    0.50
   5  -4  -9    1.01    0.52
  -5   4   9    0.37    0.67
  -5   4   9    1.29    0.52
   4  -4  -9    1.76    0.58
   4  -4  -9    0.30    0.45
  -4   4   9    2.11    0.91
  -4   4   9    0.94    0.50
   3  -4  -9    1.04    0.51
   3  -4  -9    1.81    0.60
   3  -4  -9    1.05    0.55
  -3   4   9    0.44    0.73
  -3   4   9    1.36    0.48
   2  -4  -9    7.08    0.98
   2  -4  -9   11.16    1.23
   2  -4  -9    9.82    1.15
  -2   4   9    9.55    1.60
   1  -4  -9   68.68    2.91
   1  -4  -9   59.60    2.74
   1  -4  -9   60.85    2.78
  -1   4   9   63.47    3.51
   0  -4  -9   18.05    1.35
   0  -4  -9   18.22    1.45
   0  -4  -9   19.11    1.41
   0   4   9   20.38    2.47
  -1  -4  -9    3.30    0.88
  -1  -4  -9    2.48    0.76
  -1  -4  -9    2.99    0.80
   1   4   9    2.96    1.23
  -2  -4  -9   16.89    1.70
  -2  -4  -9   15.73    1.64
  -2  -4  -9   17.06    1.74
   2   4   9   15.19    2.40
  -3  -4  -9   68.74    3.19
  -3  -4  -9   69.26    3.06
  -3  -4  -9   69.68    3.04
   3   4   9   59.84    4.11
  -4  -4  -9    0.00    0.61
  -4  -4  -9   -0.21    0.75
   4   4   9    0.17    0.99
  13  -5  -9    0.73    1.64
 -13   5   9    2.34    0.82
  12  -5  -9    5.01    1.87
 -12   5   9    1.97    0.84
 -12   5   9    3.39    0.95
  11  -5  -9   21.03    3.25
  11  -5  -9   20.08    1.63
 -11   5   9   21.40    1.69
 -11   5   9   22.38    1.70
  10  -5  -9    9.28    2.18
  10  -5  -9   10.44    1.35
  10  -5  -9    9.90    2.39
 -10   5   9   10.70    1.34
 -10   5   9    8.46    1.25
   9  -5  -9   21.23    2.95
   9  -5  -9   19.48    1.48
  -9   5   9   20.33    1.48
  -9   5   9   18.71    1.46
   8  -5  -9    3.39    0.84
  -8   5   9    5.08    0.96
  -8   5   9    3.91    0.83
   7  -5  -9  105.00    4.08
  -7   5   9  106.88    4.02
   6  -5  -9   19.35    1.43
  -6   5   9   20.65    1.39
   5  -5  -9    0.57    0.47
  -5   5   9    0.56    0.50
  -5   5   9    0.08    0.68
   4  -5  -9   36.83    1.96
   4  -5  -9   32.60    1.88
  -4   5   9   35.74    1.80
  -4   5   9   33.42    2.33
   3  -5  -9   19.70    1.44
   3  -5  -9   19.76    2.06
   3  -5  -9   19.48    1.43
  -3   5   9   16.63    1.19
  -3   5   9   20.23    1.81
   2  -5  -9    1.41    0.70
   2  -5  -9    1.26    0.63
   2  -5  -9    3.06    0.81
  -2   5   9    2.61    1.02
   1  -5  -9    3.43    0.86
   1  -5  -9    4.13    1.02
   1  -5  -9    3.16    0.84
  -1   5   9    4.50    1.24
   0  -5  -9    3.61    0.94
   0  -5  -9    1.77    0.75
   0  -5  -9    1.61    0.67
   0   5   9    3.71    1.23
  -1  -5  -9   -0.18    0.58
  -1  -5  -9   -0.10    0.58
  -1  -5  -9    0.62    0.70
   1   5   9    1.21    0.94
  -2  -5  -9    1.40    0.85
  -2  -5  -9    1.37    0.73
  -2  -5  -9    0.13    0.65
   2   5   9    1.92    1.18
  -3  -5  -9   -0.11    0.67
  -3  -5  -9    0.21    0.69
  -3  -5  -9    0.46    0.68
   3   5   9    0.07    1.02
  -4  -5  -9   16.73    1.86
   4   5   9   14.52    2.52
  13  -6  -9    1.02    1.67
 -13   6   9   -0.17    0.67
  12  -6  -9    1.04    1.55
 -12   6   9   -0.22    0.67
 -12   6   9    0.29    0.85
  11  -6  -9    1.92    1.09
  11  -6  -9    0.99    1.25
 -11   6   9    1.82    0.82
 -11   6   9    1.53    0.75
  10  -6  -9    0.42    1.06
  10  -6  -9    0.01    1.10
  10  -6  -9    0.45    0.69
 -10   6   9    0.66    0.58
 -10   6   9    0.33    0.61
   9  -6  -9    0.66    1.01
   9  -6  -9   -0.25    0.49
  -9   6   9    0.52    0.57
   8  -6  -9   32.30    1.99
   8  -6  -9   33.97    2.01
  -8   6   9   35.10    1.99
   7  -6  -9   65.71    2.97
  -7   6   9   62.15    2.86
   6  -6  -9    0.22    0.49
  -6   6   9    0.31    0.76
  -6   6   9    0.28    0.46
   5  -6  -9    0.86    0.58
   5  -6  -9    2.37    0.80
  -5   6   9    0.18    0.72
  -5   6   9    1.37    0.57
   4  -6  -9  144.88    5.34
   4  -6  -9  145.95    5.36
  -4   6   9  154.74    5.89
  -4   6   9  138.92    5.03
   3  -6  -9   36.07    2.17
   3  -6  -9   39.06    2.21
  -3   6   9   34.97    2.45
   2  -6  -9    6.77    1.21
   2  -6  -9    5.30    1.06
  -2   6   9    5.90    1.38
   1  -6  -9    2.09    0.81
   1  -6  -9    0.81    1.13
   1  -6  -9    2.93    0.86
  -1   6   9    1.49    0.93
   0  -6  -9   14.60    1.76
   0  -6  -9   13.20    1.66
   0  -6  -9   14.63    1.81
   0   6   9   14.03    2.06
  -1  -6  -9    0.48    0.76
  -1  -6  -9    1.06    0.77
  -1  -6  -9    0.08    0.69
   1   6   9    0.03    0.78
  -2  -6  -9    0.76    0.78
  -2  -6  -9    0.14    0.69
  -2  -6  -9    0.20    0.80
   2   6   9    0.87    1.06
  -3  -6  -9    1.05    1.00
  -3  -6  -9    1.42    1.09
   3   6   9    0.48    1.14
  12  -7  -9    0.80    1.47
 -12   7   9    0.30    0.68
 -12   7   9    0.29    0.77
  11  -7  -9    4.19    1.60
 -11   7   9    7.02    1.22
 -11   7   9    7.13    1.19
  10  -7  -9    9.08    2.12
  10  -7  -9    8.42    2.17
  10  -7  -9    8.76    1.34
 -10   7   9    7.74    1.30
   9  -7  -9    3.36    0.92
   9  -7  -9    2.11    1.27
   9  -7  -9    2.77    1.43
   9  -7  -9    2.37    0.87
  -9   7   9    2.71    0.86
   8  -7  -9    4.53    1.10
  -8   7   9    3.12    0.89
   7  -7  -9    2.16    0.78
  -7   7   9    2.88    1.03
  -7   7   9    2.23    0.72
   6  -7  -9    3.07    0.81
  -6   7   9    4.39    0.94
  -6   7   9    3.56    1.07
   5  -7  -9    2.03    0.79
   5  -7  -9    2.00    0.81
  -5   7   9    1.63    0.72
  -5   7   9    2.04    0.93
   4  -7  -9    7.08    1.29
   4  -7  -9    6.78    1.23
  -4   7   9    5.10    1.15
  -4   7   9    8.48    1.21
   3  -7  -9   10.33    1.50
   3  -7  -9    8.49    1.36
  -3   7   9   11.34    1.64
   2  -7  -9   34.49    2.28
   2  -7  -9   33.10    2.25
  -2   7   9   32.62    2.40
   1  -7  -9    4.07    1.12
   1  -7  -9    2.29    0.88
  -1   7   9    3.16    1.10
   0  -7  -9    1.28    0.89
   0  -7  -9    0.79    0.76
   0   7   9    0.74    0.97
  -1  -7  -9   48.97    2.92
  -1  -7  -9   55.78    3.08
   1   7   9   50.09    3.45
  -2  -7  -9   23.26    2.42
   2   7   9   24.34    3.04
  12  -8  -9   -0.05    1.36
 -12   8   9    0.04    0.65
  11  -8  -9   17.43    2.73
 -11   8   9   25.43    1.92
  10  -8  -9   46.60    3.69
  10  -8  -9   48.04    2.70
 -10   8   9   49.21    2.69
   9  -8  -9    0.36    0.68
   9  -8  -9    0.46    0.66
   9  -8  -9   -0.82    0.97
   9  -8  -9   -0.33    1.02
  -9   8   9    0.20    0.67
   8  -8  -9    0.28    0.69
  -8   8   9    0.89    0.73
   7  -8  -9    9.55    1.39
  -7   8   9   10.33    1.37
   6  -8  -9    1.33    0.78
   6  -8  -9    2.03    0.89
  -6   8   9    0.81    0.75
   5  -8  -9   -0.38    0.72
   5  -8  -9   -0.34    0.64
  -5   8   9    0.12    0.65
   4  -8  -9    1.62    0.91
   4  -8  -9    1.70    0.84
  -4   8   9    2.65    0.87
   3  -8  -9    1.16    0.77
   3  -8  -9    0.02    0.69
   2  -8  -9   -0.64    0.55
   2  -8  -9   -0.10    0.57
   1  -8  -9   -0.18    0.65
   1  -8  -9    0.48    0.79
   0  -8  -9    8.91    1.65
   0  -8  -9   10.25    1.66
  -1  -8  -9   29.32    2.34
 -11   9   9    9.69    1.50
  10  -9  -9    0.63    0.83
  10  -9  -9    1.06    0.95
  10  -9  -9    0.11    1.56
 -10   9   9    0.46    0.75
   9  -9  -9   29.95    2.22
   9  -9  -9   29.48    2.82
  -9   9   9   24.31    1.90
   8  -9  -9    0.07    0.76
  -8   9   9    0.22    0.70
   7  -9  -9   10.87    1.62
  -7   9   9   11.26    1.57
   6  -9  -9   15.33    1.87
   6  -9  -9   17.57    2.05
  -6   9   9   14.06    1.71
   5  -9  -9   51.61    3.02
   5  -9  -9   52.73    3.04
  -5   9   9   47.48    2.62
   4  -9  -9    1.91    0.97
   4  -9  -9    2.65    0.95
   3  -9  -9    0.90    0.91
   3  -9  -9    2.70    1.00
   2  -9  -9   10.23    1.68
   2  -9  -9    9.53    1.68
   1  -9  -9    5.06    1.32
   1  -9  -9    6.09    1.42
   0  -9  -9    0.68    0.88
  10 -10  -9    1.75    0.95
  10 -10  -9    2.71    1.18
 -10  10   9    1.98    0.92
   9 -10  -9    1.76    1.03
  -9  10   9    0.49    0.83
   8 -10  -9   -0.29    0.82
  -8  10   9    0.86    0.94
   7 -10  -9    1.13    0.86
  -7  10   9    0.26    0.87
   6 -10  -9   42.15    2.81
   6 -10  -9   48.80    2.95
  -6  10   9   41.53    2.55
   5 -10  -9   17.39    2.29
   5 -10  -9   17.90    2.17
  -5  10   9   14.96    1.82
   4 -10  -9    0.83    0.90
   4 -10  -9    4.64    1.32
   3 -10  -9    5.40    1.47
   3 -10  -9    3.70    1.25
   2 -10  -9   52.91    3.32
   8 -11  -9    2.64    1.14
  -8  11   9    3.88    1.27
   7 -11  -9   -0.03    0.78
  -7  11   9    2.17    1.11
   6 -11  -9    2.88    1.21
  -6  11   9    3.28    1.07
   5 -11  -9    2.86    1.35
   5 -11  -9    1.42    1.11
   2  11 -10    8.79    1.55
   1  11 -10   31.64    2.35
   0  11 -10    0.66    0.90
  -1  11 -10    9.61    1.59
   4  10 -10   -0.24    0.66
   3  10 -10    0.35    0.75
   2  10 -10    0.59    0.72
   1  10 -10    1.55    0.82
   0  10 -10   12.07    1.72
  -1  10 -10    5.73    1.18
  -2  10 -10   -0.03    0.66
  -2  10 -10    0.75    0.77
  -3  10 -10   12.25    1.64
  -3  10 -10   10.25    1.31
   6   9 -10   10.03    1.62
  -6  -9  10    8.27    1.56
   5   9 -10    2.05    0.95
   4   9 -10   24.30    1.95
   3   9 -10    1.21    0.74
   2   9 -10    2.99    0.90
   1   9 -10    3.75    1.01
   0   9 -10    4.59    1.07
  -1   9 -10    4.15    0.98
  -1   9 -10    4.53    0.89
  -2   9 -10   12.70    1.62
  -2   9 -10    8.55    1.14
  -3   9 -10    8.28    1.15
  -4   9 -10    6.69    1.04
   7   8 -10    5.45    1.30
  -7  -8  10    4.72    1.32
   6   8 -10    7.71    1.38
  -6  -8  10    7.95    1.51
   5   8 -10    0.71    0.78
  -5  -8  10    1.26    0.90
   4   8 -10    0.48    0.67
   3   8 -10   87.85    3.77
   2   8 -10   33.40    2.03
   1   8 -10   10.82    1.42
   0   8 -10    5.57    0.93
   0   8 -10    6.80    1.11
  -1   8 -10   46.72    2.25
  -1   8 -10   50.10    2.45
  -2   8 -10    0.82    0.48
  -2   8 -10    0.53    0.66
  -3   8 -10    1.45    0.58
  -4   8 -10    1.40    0.61
  -5   8 -10    1.22    0.59
   8   7 -10    0.70    0.79
  -8  -7  10    0.55    0.81
   7   7 -10    1.71    0.90
  -7  -7  10    2.26    1.01
   6   7 -10    3.73    1.02
  -6  -7  10    2.66    1.01
   5   7 -10   11.90    1.60
  -5  -7  10   11.66    1.61
   4   7 -10   18.09    1.44
  -4  -7  10   11.27    2.46
   3   7 -10   29.13    1.81
  -3  -7  10   31.55    2.69
   2   7 -10    9.56    1.24
  -2  -7  10    9.27    1.75
   1   7 -10    1.45    0.53
   1   7 -10    1.90    0.68
  -1  -7  10    0.94    1.53
   0   7 -10   57.77    2.47
   0   7 -10   57.71    2.56
  -1   7 -10   42.35    2.11
  -1   7 -10   44.42    2.01
  -2   7 -10   14.19    1.05
  -2   7 -10   14.06    1.40
  -3   7 -10    3.85    0.65
  -4   7 -10   30.66    1.53
  -5   7 -10    1.82    0.54
   9   6 -10   44.48    2.67
  -9  -6  10   41.05    2.68
   8   6 -10    0.13    0.66
  -8  -6  10    1.14    0.80
   7   6 -10   -0.21    0.56
  -7  -6  10    0.85    0.77
   6   6 -10   30.86    1.99
  -6  -6  10   34.93    2.13
   5   6 -10    8.80    1.21
  -5  -6  10   11.69    1.50
   4   6 -10   -0.08    0.42
  -4  -6  10   -0.30    0.53
  -4  -6  10    0.04    0.72
   3   6 -10    0.31    0.47
  -3  -6  10    0.09    0.63
   2   6 -10    0.49    0.46
   2   6 -10    0.40    0.46
  -2  -6  10    1.70    1.02
  -2  -6  10    1.40    0.81
   1   6 -10    0.59    0.46
   1   6 -10    0.51    0.40
  -1  -6  10    0.11    0.61
  -1  -6  10   -0.67    0.69
   0   6 -10    3.20    0.69
   0   6 -10    1.84    0.54
   0  -6  10    0.96    0.74
   0  -6  10    1.14    0.85
  -1   6 -10    7.09    0.92
  -1   6 -10    4.44    0.64
   1  -6  10    5.73    1.43
  -2   6 -10   18.32    1.09
  -2   6 -10   20.41    1.25
   2  -6  10   23.11    2.67
  -3   6 -10    3.41    0.58
   3  -6  10    4.94    1.50
  -4   6 -10    0.08    0.33
  -4   6 -10    0.12    0.41
   4  -6  10   -0.22    0.87
  -5   6 -10   34.05    1.47
   5  -6  10   34.72    3.04
  -6   6 -10   43.72    1.72
   6  -6  10   40.78    5.50
  10   5 -10   21.88    2.83
  10   5 -10   19.36    2.20
 -10  -5  10   22.74    2.38
   9   5 -10   11.95    1.66
   9   5 -10   13.52    2.04
  -9  -5  10   13.46    1.77
   8   5 -10    0.25    0.56
   8   5 -10    1.37    0.81
  -8  -5  10    0.29    0.59
   7   5 -10   20.74    1.82
   7   5 -10   20.76    1.58
  -7  -5  10   21.16    1.62
   6   5 -10  106.22    4.42
   6   5 -10  107.22    4.17
  -6  -5  10  102.72    4.16
  -6  -5  10  109.53    4.89
   5   5 -10    0.80    0.61
   5   5 -10    0.43    0.49
  -5  -5  10    0.19    0.53
  -5  -5  10   -0.04    0.67
   4   5 -10   22.26    1.43
   4   5 -10   21.89    1.59
  -4  -5  10   20.05    1.44
  -4  -5  10   22.79    1.90
   3   5 -10   24.68    1.44
   3   5 -10   24.64    1.45
  -3  -5  10   23.49    1.89
   2   5 -10   24.75    1.38
   2   5 -10   22.65    1.35
  -2  -5  10   23.03    2.99
   1   5 -10    9.10    1.04
   1   5 -10    7.66    0.86
  -1  -5  10    5.69    1.07
  -1  -5  10    5.63    1.47
   0   5 -10    0.34    0.32
   0   5 -10    0.48    0.39
   0  -5  10    0.03    0.56
   0  -5  10    0.92    0.84
  -1   5 -10    2.95    0.51
  -1   5 -10    4.06    0.66
   1  -5  10    2.56    1.14
   1  -5  10    3.06    0.88
  -2   5 -10    3.74    0.64
  -2   5 -10    2.24    0.44
   2  -5  10    2.73    1.27
  -3   5 -10    4.88    0.56
  -3   5 -10    6.79    0.75
   3  -5  10    5.54    1.59
  -4   5 -10   10.47    0.78
   4  -5  10   12.30    2.22
  -5   5 -10   12.58    0.71
  -5   5 -10   11.97    0.77
   5  -5  10   12.36    2.35
   6  -5  10    6.84    2.02
  10   4 -10    0.32    0.98
  10   4 -10    0.50    0.74
 -10  -4  10   -0.03    0.65
 -10  -4  10    0.32    0.69
   9   4 -10    1.73    0.94
   9   4 -10   -0.28    0.52
  -9  -4  10    0.22    0.67
  -9  -4  10    0.01    0.53
   8   4 -10   -0.37    0.47
   8   4 -10   -0.54    0.60
  -8  -4  10    0.20    0.55
  -8  -4  10   -0.28    0.47
   7   4 -10    0.68    0.68
   7   4 -10    0.18    0.46
  -7  -4  10    0.14    0.52
  -7  -4  10    1.46    0.92
   6   4 -10    0.16    0.41
   6   4 -10   -0.39    0.48
  -6  -4  10    0.03    0.40
  -6  -4  10    0.39    0.77
   5   4 -10   26.41    1.57
   5   4 -10   27.94    1.91
  -5  -4  10   27.71    1.62
  -5  -4  10   26.12    1.91
   4   4 -10   13.78    1.33
   4   4 -10   15.59    1.12
  -4  -4  10   12.97    1.56
  -4  -4  10   15.29    1.15
   3   4 -10   11.52    0.94
   3   4 -10   13.89    1.01
  -3  -4  10   10.54    1.35
   2   4 -10   18.18    1.14
   2   4 -10   19.62    1.17
  -2  -4  10   18.40    2.78
  -2  -4  10   15.99    1.69
   1   4 -10  167.00    5.40
   1   4 -10  173.72    5.42
   1   4 -10  173.01    5.58
  -1  -4  10  162.28    7.11
  -1  -4  10  168.57    6.10
   0   4 -10   13.71    0.88
   0   4 -10   14.19    0.92
   0   4 -10   14.22    1.03
   0  -4  10   13.38    1.62
   0  -4  10   13.33    2.15
  -1   4 -10    8.72    0.87
  -1   4 -10    6.70    0.76
  -1   4 -10    6.07    0.66
   1  -4  10    5.76    1.51
   1  -4  10    5.85    1.14
  -2   4 -10   29.02    1.29
  -2   4 -10   31.73    1.38
   2  -4  10   30.38    2.08
   2  -4  10   28.68    2.63
  -3   4 -10   33.96    1.33
  -3   4 -10   33.55    1.39
   3  -4  10   28.95    2.75
  -4   4 -10    0.19    0.29
  -4   4 -10    0.10    0.23
   4  -4  10    0.33    0.98
   5  -4  10   -0.22    1.01
   6  -4  10    2.46    1.52
  11   3 -10    3.74    1.55
 -11  -3  10    2.63    1.04
 -11  -3  10    2.57    1.00
  10   3 -10    2.76    0.89
  10   3 -10    1.99    1.19
 -10  -3  10    3.29    0.94
 -10  -3  10    3.63    0.98
   9   3 -10   13.57    1.57
   9   3 -10   16.41    2.20
  -9  -3  10   15.32    1.65
  -9  -3  10   10.92    1.42
   8   3 -10    0.41    0.69
   8   3 -10    0.66    0.57
   8   3 -10    0.47    0.74
  -8  -3  10   -0.75    0.44
  -8  -3  10    0.29    0.57
   7   3 -10    0.07    0.57
   7   3 -10   -0.21    0.41
  -7  -3  10    0.88    0.68
  -7  -3  10    0.30    0.55
  -7  -3  10   -0.39    0.42
   6   3 -10    4.04    0.80
   6   3 -10    5.60    1.22
  -6  -3  10    4.04    0.80
  -6  -3  10    5.40    1.07
   5   3 -10    2.93    0.70
   5   3 -10    2.31    0.89
  -5  -3  10    2.73    0.79
  -5  -3  10    1.74    0.61
   4   3 -10    7.76    0.91
   4   3 -10    6.15    0.89
  -4  -3  10    8.78    1.07
  -4  -3  10    6.51    1.05
   3   3 -10   19.98    1.20
   3   3 -10   18.96    1.16
  -3  -3  10   17.46    1.36
   2   3 -10   40.52    1.76
   2   3 -10   39.62    1.74
   2   3 -10   40.72    1.87
  -2  -3  10   35.85    3.02
  -2  -3  10   38.65    2.11
   1   3 -10   39.85    1.84
   1   3 -10   42.30    1.75
   1   3 -10   41.62    1.74
  -1  -3  10   38.92    3.00
  -1  -3  10   40.39    2.20
   0   3 -10    1.73    0.41
   0   3 -10    1.09    0.36
   0   3 -10    1.90    0.46
   0   3 -10    2.39    0.49
   0  -3  10    1.74    0.66
   0  -3  10    0.45    0.78
  -1   3 -10    4.92    0.58
  -1   3 -10    4.94    0.60
  -1   3 -10    5.45    0.65
  -1   3 -10    4.59    0.57
   1  -3  10    4.74    1.03
   1  -3  10    2.80    1.28
  -2   3 -10   97.84    3.17
  -2   3 -10  100.33    3.20
   2  -3  10  105.21    5.32
   2  -3  10   92.20    4.13
  -3   3 -10   13.79    0.74
   3  -3  10   21.14    3.13
   4  -3  10   29.03    3.71
   5  -3  10    1.58    1.31
   6  -3  10   20.94    3.64
  11   2 -10   14.56    2.27
  11   2 -10   13.00    1.73
 -11  -2  10   17.15    1.88
 -11  -2  10   13.33    1.65
  10   2 -10    3.11    1.27
  10   2 -10    6.48    1.74
  10   2 -10    2.75    0.89
 -10  -2  10    3.28    0.94
 -10  -2  10    3.57    0.95
   9   2 -10    1.32    0.89
   9   2 -10    1.24    0.66
   9   2 -10    0.96    0.99
  -9  -2  10    0.57    0.60
  -9  -2  10    1.32    0.66
   8   2 -10   85.61    4.24
   8   2 -10   85.77    3.47
  -8  -2  10   85.11    3.49
  -8  -2  10   92.84    3.56
  -8  -2  10   75.77    3.58
   7   2 -10   60.05    3.26
   7   2 -10   55.19    2.60
  -7  -2  10   57.64    2.60
  -7  -2  10   63.61    2.67
  -7  -2  10   56.48    2.73
   6   2 -10    1.84    0.57
   6   2 -10    2.15    0.90
  -6  -2  10    1.04    0.52
  -6  -2  10    1.75    0.58
  -6  -2  10    2.15    0.63
   5   2 -10   11.48    1.21
  -5  -2  10   11.41    1.25
  -5  -2  10   12.56    1.02
   4   2 -10   49.08    2.13
   4   2 -10   49.30    2.14
  -4  -2  10   51.08    2.13
  -4  -2  10   50.68    2.35
   3   2 -10    4.40    0.67
   3   2 -10    4.29    0.67
  -3  -2  10    4.83    1.62
  -3  -2  10    4.28    0.80
   2   2 -10    1.70    0.45
   2   2 -10    1.77    0.44
   2   2 -10    2.15    0.48
  -2  -2  10    2.18    1.19
  -2  -2  10    2.13    0.63
   1   2 -10    2.25    0.49
   1   2 -10    2.91    0.55
   1   2 -10    2.73    0.54
  -1  -2  10    2.88    0.70
  -1  -2  10    2.48    1.15
   0   2 -10    0.68    0.33
   0   2 -10    0.72    0.35
   0   2 -10    1.20    0.38
   0   2 -10    0.44    0.34
   0  -2  10    0.82    0.91
   0  -2  10    0.92    0.55
  -1   2 -10    0.13    0.29
  -1   2 -10    0.06    0.24
  -1   2 -10   -0.60    0.26
   1  -2  10    0.66    0.84
   1  -2  10    0.14    0.46
  -2   2 -10    0.62    0.30
   2  -2  10   -0.29    0.82
   2  -2  10   -0.34    0.47
  -3   2 -10    8.70    0.69
  -3   2 -10   10.00    0.61
   3  -2  10   11.55    2.39
  -4   2 -10   15.33    0.75
   4  -2  10   16.49    2.92
   5  -2  10    1.41    1.38
   6  -2  10    1.87    1.57
  12   1 -10    1.58    1.27
 -12  -1  10    0.95    0.81
 -12  -1  10    1.33    0.95
  11   1 -10    0.61    1.09
  11   1 -10    1.07    0.77
 -11  -1  10    2.31    0.92
 -11  -1  10    0.13    0.68
  10   1 -10    1.88    1.20
  10   1 -10    0.55    0.94
  10   1 -10    0.42    0.59
 -10  -1  10    0.33    0.58
 -10  -1  10    0.48    0.54
   9   1 -10   10.46    1.99
   9   1 -10   11.95    1.44
   9   1 -10    7.98    1.66
  -9  -1  10    8.51    1.19
  -9  -1  10   13.08    1.43
   8   1 -10   70.09    3.81
   8   1 -10   63.32    2.88
  -8  -1  10   69.94    2.92
  -8  -1  10   67.68    2.91
   7   1 -10    8.10    1.54
   7   1 -10   10.16    1.19
  -7  -1  10    8.37    1.05
  -7  -1  10    7.28    0.96
  -7  -1  10   11.62    1.24
   6   1 -10    1.05    0.50
  -6  -1  10    0.58    0.47
  -6  -1  10   -0.05    0.42
  -6  -1  10    0.78    0.49
   5   1 -10   98.21    3.54
  -5  -1  10   94.20    3.46
  -5  -1  10   97.68    3.58
   4   1 -10  127.53    4.33
   4   1 -10  122.54    4.29
  -4  -1  10  130.14    4.28
  -4  -1  10  127.96    4.42
   3   1 -10    8.22    0.91
   3   1 -10    9.83    0.82
   3   1 -10    9.13    0.94
  -3  -1  10    5.50    1.58
  -3  -1  10   10.35    1.09
   2   1 -10    6.87    0.79
   2   1 -10    7.69    0.83
   2   1 -10    4.73    0.70
  -2  -1  10    5.54    1.57
  -2  -1  10    5.30    0.82
   1   1 -10   43.24    1.79
   1   1 -10   47.46    2.04
   1   1 -10   45.80    1.93
  -1  -1  10   38.20    2.05
  -1  -1  10   44.85    3.19
   0   1 -10    8.10    0.81
   0   1 -10    5.19    0.68
   0   1 -10    6.99    0.72
   0  -1  10    7.62    1.69
   0  -1  10    5.63    0.95
  -1   1 -10    4.66    0.58
  -1   1 -10    4.11    0.56
  -1   1 -10    5.19    0.68
  -1   1 -10    5.90    0.68
   1  -1  10    4.23    1.49
   1  -1  10    5.68    1.05
  -2   1 -10    1.43    0.35
  -2   1 -10    1.70    0.39
  -2   1 -10    0.95    0.36
   2  -1  10    2.06    1.22
  -3   1 -10    2.15    0.50
  -3   1 -10    2.03    0.40
   3  -1  10    1.52    1.10
  -4   1 -10    0.99    0.41
  -4   1 -10    1.28    0.35
   4  -1  10    1.55    1.27
  -5   1 -10    3.45    0.62
  -5   1 -10    3.75    0.56
   5  -1  10    5.00    1.85
  -6   1 -10    8.61    0.90
  -6   1 -10    8.57    0.89
   6  -1  10    7.64    2.39
  12   0 -10    1.23    1.26
 -12   0  10    0.93    0.76
 -12   0  10    1.10    0.74
  11   0 -10   12.75    1.58
  11   0 -10   10.47    2.10
 -11   0  10   15.40    1.68
 -11   0  10   12.65    1.48
  10   0 -10    5.38    1.87
  10   0 -10    2.31    1.21
  10   0 -10    3.17    0.83
 -10   0  10    3.53    0.87
 -10   0  10    5.02    1.03
   9   0 -10    1.20    1.18
   9   0 -10    1.42    0.91
   9   0 -10    1.23    0.58
  -9   0  10    1.03    0.58
  -9   0  10    1.15    0.63
   8   0 -10    1.42    0.92
   8   0 -10    2.44    0.69
  -8   0  10    0.99    0.54
  -8   0  10    0.69    0.51
   7   0 -10    2.06    1.02
   7   0 -10    0.22    0.42
  -7   0  10    1.17    0.54
  -7   0  10    0.81    0.49
   6   0 -10    0.69    0.47
  -6   0  10    1.33    0.53
  -6   0  10    1.44    0.44
  -6   0  10    0.40    0.42
   5   0 -10    3.87    0.76
  -5   0  10    5.29    0.70
  -5   0  10    5.39    0.79
   4   0 -10    0.71    0.42
   4   0 -10    0.92    0.42
  -4   0  10    1.47    0.48
  -4   0  10    0.98    0.42
   3   0 -10   54.65    2.39
   3   0 -10   58.71    2.34
   3   0 -10   55.07    2.26
  -3   0  10   58.49    2.37
  -3   0  10   61.18    3.77
   2   0 -10    3.33    0.58
  -2   0  10    3.03    0.65
  -2   0  10    2.63    1.16
   1   0 -10   13.08    0.87
   1   0 -10   10.17    0.82
  -1   0  10   12.52    1.06
  -1   0  10   15.99    2.54
   0   0 -10   62.08    2.37
   0   0 -10   68.52    2.36
   0   0 -10   63.84    2.48
   0   0  10   58.32    3.81
   0   0  10   64.31    2.84
  -1   0 -10  123.80    4.07
  -1   0 -10  126.02    4.03
   1   0  10  132.12    6.11
  -2   0 -10    0.15    0.41
  -2   0 -10    0.03    0.33
   2   0  10    0.87    0.95
  -3   0 -10    0.13    0.39
  -3   0 -10    0.29    0.33
   3   0  10   -0.29    0.82
  -4   0 -10   29.27    1.43
  -4   0 -10   29.25    1.55
   4   0  10   31.44    3.94
  -5   0 -10    9.69    1.14
  -5   0 -10   10.23    1.07
   5   0  10    9.00    2.36
  12  -1 -10    4.49    1.66
 -12   1  10   10.06    1.44
 -12   1  10    9.18    1.42
  11  -1 -10   73.79    3.43
  11  -1 -10   78.17    4.78
 -11   1  10   81.19    3.54
 -11   1  10   85.94    3.62
  10  -1 -10    4.63    1.42
  10  -1 -10    2.84    1.49
  10  -1 -10    4.17    0.88
 -10   1  10    4.65    0.99
 -10   1  10    5.46    0.97
   9  -1 -10    2.66    0.74
   9  -1 -10    2.82    1.17
  -9   1  10    2.65    0.69
  -9   1  10    2.22    0.74
   8  -1 -10   15.51    2.31
   8  -1 -10   18.28    1.33
  -8   1  10   20.43    1.37
  -8   1  10   21.71    1.40
   7  -1 -10   14.98    1.18
  -7   1  10   13.25    1.34
  -7   1  10   17.11    1.20
   6  -1 -10    0.23    0.39
  -6   1  10    0.41    0.46
  -6   1  10    0.46    0.44
   5  -1 -10    0.24    0.42
  -5   1  10    0.87    0.45
  -5   1  10    0.82    0.34
   4  -1 -10    1.31    0.52
   4  -1 -10    1.96    0.53
  -4   1  10    3.62    0.63
  -4   1  10    2.39    0.53
  -4   1  10    2.18    1.06
   3  -1 -10    0.76    0.43
   3  -1 -10    1.51    0.50
  -3   1  10    1.34    0.42
  -3   1  10    2.09    1.03
   2  -1 -10    6.56    0.87
  -2   1  10    6.05    1.41
  -2   1  10    6.76    0.91
   1  -1 -10   16.06    1.03
   1  -1 -10   14.86    1.09
  -1   1  10   15.47    2.46
   0  -1 -10   50.28    2.05
   0  -1 -10   45.75    2.11
   0   1  10   52.76    3.44
  -1  -1 -10   18.93    1.12
  -1  -1 -10   17.77    1.21
   1   1  10   19.29    2.64
  -2  -1 -10    0.21    0.45
  -2  -1 -10    0.58    0.43
   2   1  10    0.91    1.06
  -3  -1 -10   12.24    1.24
  -3  -1 -10   11.28    0.88
   3   1  10   11.10    2.21
  -4  -1 -10   57.70    2.58
   4   1  10   62.43    4.43
  -5  -1 -10   -0.15    0.55
   5   1  10    1.01    1.39
 -13   2  10   -0.13    0.65
  12  -2 -10    2.61    1.44
 -12   2  10    3.98    1.00
 -12   2  10    3.35    0.95
  11  -2 -10    2.82    0.86
  11  -2 -10    2.08    1.30
 -11   2  10    4.20    0.94
 -11   2  10    2.85    0.81
  10  -2 -10   17.26    3.00
  10  -2 -10   18.70    1.47
  10  -2 -10   14.74    2.54
 -10   2  10   22.49    1.58
 -10   2  10   22.40    1.56
   9  -2 -10   15.70    1.58
   9  -2 -10   15.94    2.42
  -9   2  10   11.01    1.31
  -9   2  10   15.96    1.28
   8  -2 -10   21.43    2.78
   8  -2 -10   20.56    1.45
  -8   2  10   22.55    1.48
  -8   2  10   24.86    1.53
   7  -2 -10    5.00    0.87
  -7   2  10    4.55    0.85
  -7   2  10    4.87    0.83
   6  -2 -10  146.67    5.08
  -6   2  10  147.12    5.03
  -6   2  10  150.68    5.07
   5  -2 -10   26.27    1.53
   5  -2 -10   25.22    1.50
  -5   2  10   27.23    1.48
   4  -2 -10   -0.20    0.41
   4  -2 -10    0.15    0.36
  -4   2  10    0.74    0.46
  -4   2  10    0.61    0.97
  -4   2  10    0.39    0.29
   3  -2 -10   32.40    1.68
  -3   2  10   35.00    2.64
   2  -2 -10   26.59    1.55
   2  -2 -10   25.52    1.46
  -2   2  10   31.82    2.48
   1  -2 -10    1.43    0.49
   1  -2 -10    1.07    0.53
   1  -2 -10    0.72    0.47
  -1   2  10    1.65    0.97
   0  -2 -10    2.84    0.63
   0  -2 -10    2.81    0.66
   0  -2 -10    1.87    0.62
   0   2  10    2.56    1.16
  -1  -2 -10    1.28    0.51
  -1  -2 -10    2.65    0.69
  -1  -2 -10    1.07    0.59
   1   2  10    1.98    1.09
  -2  -2 -10    0.65    0.49
  -2  -2 -10    0.75    0.49
   2   2  10   -0.14    0.72
  -3  -2 -10    0.85    0.63
  -3  -2 -10    0.40    0.48
   3   2  10    0.73    1.10
  -4  -2 -10   -0.10    0.49
  -4  -2 -10   -0.20    0.57
   4   2  10    0.48    1.01
  13  -3 -10   -0.61    1.62
 -13   3  10    0.16    0.70
  12  -3 -10    0.57    1.13
 -12   3  10    0.44    0.70
 -12   3  10    0.67    0.70
  11  -3 -10    1.04    0.65
  11  -3 -10    0.58    1.06
 -11   3  10    1.20    0.71
 -11   3  10    1.12    0.66
  10  -3 -10    1.38    0.71
  10  -3 -10    0.77    1.00
  10  -3 -10    1.92    1.51
 -10   3  10    1.14    0.61
 -10   3  10    1.25    0.65
   9  -3 -10    0.84    0.64
   9  -3 -10    0.14    0.78
  -9   3  10    0.24    0.53
  -9   3  10    0.44    0.56
   8  -3 -10    0.59    0.99
   8  -3 -10    1.39    0.61
  -8   3  10    1.26    0.59
  -8   3  10    1.45    0.57
   7  -3 -10   37.00    1.98
  -7   3  10   38.75    1.98
  -7   3  10   40.07    1.99
   6  -3 -10   66.39    2.92
   6  -3 -10   69.81    2.95
  -6   3  10   70.01    2.86
  -6   3  10   72.11    2.86
   5  -3 -10   -0.12    0.39
  -5   3  10   -0.86    0.35
  -5   3  10    0.29    0.74
   4  -3 -10    1.23    0.57
  -4   3  10    0.94    0.51
  -4   3  10    0.89    0.85
   3  -3 -10  159.41    5.38
  -3   3  10  157.83    6.52
   2  -3 -10   47.94    2.23
   2  -3 -10   49.10    2.26
   2  -3 -10   50.84    2.37
  -2   3  10   49.63    3.20
   1  -3 -10   12.61    1.32
   1  -3 -10   15.36    1.46
  -1   3  10   10.22    1.85
   0  -3 -10    0.91    0.60
   0  -3 -10    0.77    0.56
   0  -3 -10    0.82    0.56
   0   3  10    0.99    0.96
  -1  -3 -10   19.29    1.39
  -1  -3 -10   24.01    1.62
  -1  -3 -10   21.75    1.42
   1   3  10   20.23    2.67
  -2  -3 -10    0.92    0.58
  -2  -3 -10   -0.22    0.47
  -2  -3 -10   -0.74    0.53
   2   3  10    0.47    0.96
  -3  -3 -10    0.68    0.56
  -3  -3 -10    0.95    0.76
   3   3  10    1.05    1.15
  -4  -3 -10    0.98    0.65
  -4  -3 -10    1.31    0.78
   4   3  10    1.96    1.35
  13  -4 -10   14.84    3.27
 -13   4  10   14.11    1.65
  12  -4 -10   14.08    2.89
 -12   4  10   13.33    1.61
 -12   4  10   12.04    1.59
  11  -4 -10    1.07    1.23
  11  -4 -10   -0.45    0.56
 -11   4  10    0.10    0.59
 -11   4  10   -0.38    0.53
  10  -4 -10    3.74    1.70
  10  -4 -10    7.42    1.21
  10  -4 -10    2.74    1.44
 -10   4  10    5.57    1.01
 -10   4  10    4.93    0.96
   9  -4 -10   14.30    1.55
   9  -4 -10   13.01    2.44
  -9   4  10   11.85    1.37
  -9   4  10   13.15    1.46
   8  -4 -10    2.51    0.79
  -8   4  10    1.79    0.69
  -8   4  10    2.85    0.78
   7  -4 -10    4.59    0.90
   7  -4 -10    3.75    0.83
  -7   4  10    5.09    0.94
  -7   4  10    3.19    0.78
   6  -4 -10    2.52    0.72
  -6   4  10    3.45    0.77
   5  -4 -10    1.81    0.68
  -5   4  10    2.36    1.08
  -5   4  10    0.99    0.52
   4  -4 -10    1.92    0.64
  -4   4  10    1.09    0.83
  -4   4  10    0.85    0.49
   3  -4 -10    4.95    0.91
   3  -4 -10    4.69    0.92
   3  -4 -10    4.74    0.92
  -3   4  10    5.78    1.34
   2  -4 -10   10.53    1.25
   2  -4 -10    8.43    1.18
   2  -4 -10   14.90    1.54
  -2   4  10   10.57    1.80
   1  -4 -10   34.52    1.94
   1  -4 -10   34.99    1.97
  -1   4  10   35.59    2.70
   0  -4 -10    3.48    0.87
   0  -4 -10    1.88    0.70
   0  -4 -10    3.12    0.84
   0   4  10    2.99    1.19
  -1  -4 -10    0.14    0.58
  -1  -4 -10    0.82    0.56
  -1  -4 -10    0.17    0.57
   1   4  10    1.17    1.08
  -2  -4 -10   62.44    3.02
  -2  -4 -10   62.77    2.84
  -2  -4 -10   56.71    2.80
   2   4  10   55.81    3.91
  -3  -4 -10   29.65    1.94
  -3  -4 -10   33.77    2.19
   3   4  10   35.03    3.18
  12  -5 -10    1.21    1.45
 -12   5  10    1.82    0.82
 -12   5  10    3.31    0.99
  11  -5 -10    0.07    0.65
  11  -5 -10    1.91    1.46
 -11   5  10    0.67    0.70
 -11   5  10    1.38    0.72
  10  -5 -10   46.11    3.74
  10  -5 -10   40.36    3.71
  10  -5 -10   44.64    2.45
 -10   5  10   43.17    2.43
 -10   5  10   45.31    2.43
   9  -5 -10   82.57    3.52
   9  -5 -10   88.38    5.07
  -9   5  10   80.50    3.45
  -9   5  10   75.20    3.44
   8  -5 -10   -0.12    0.51
  -8   5  10    0.22    0.47
  -8   5  10    0.40    0.53
   7  -5 -10   -0.20    0.42
  -7   5  10    1.02    0.58
  -7   5  10    0.19    0.46
   6  -5 -10   20.87    1.53
  -6   5  10   21.62    2.04
  -6   5  10   21.14    1.45
   5  -5 -10    3.50    0.81
  -5   5  10    4.47    0.84
  -5   5  10    3.69    1.15
   4  -5 -10    0.03    0.55
   4  -5 -10    0.12    0.57
  -4   5  10   -0.04    0.51
  -4   5  10   -0.49    0.67
   3  -5 -10    2.15    0.77
   3  -5 -10    1.67    0.69
  -3   5  10    1.23    0.87
   2  -5 -10    1.91    0.80
   2  -5 -10    1.50    0.70
   2  -5 -10    0.36    0.58
  -2   5  10    0.68    0.76
   1  -5 -10    0.17    0.58
   1  -5 -10    0.87    0.58
   1  -5 -10    0.06    0.50
  -1   5  10   -0.14    0.71
   0  -5 -10    0.55    0.64
   0  -5 -10    0.95    0.66
   0  -5 -10   -0.37    0.68
   0   5  10    1.06    1.02
  -1  -5 -10    8.58    1.32
  -1  -5 -10    8.85    1.40
  -1  -5 -10   10.43    1.46
   1   5  10   10.22    2.00
  -2  -5 -10   36.12    2.28
  -2  -5 -10   25.70    1.93
  -2  -5 -10   25.29    1.86
   2   5  10   24.86    3.19
  -3  -5 -10    0.46    0.85
   3   5  10    0.87    1.16
  12  -6 -10    2.21    1.60
 -12   6  10    2.61    1.00
 -12   6  10    1.01    0.84
  11  -6 -10   -0.02    0.65
  11  -6 -10    0.25    1.16
 -11   6  10    0.05    0.66
 -11   6  10    0.10    0.70
  10  -6 -10   11.75    1.56
  10  -6 -10    7.75    2.04
 -10   6  10    8.50    1.25
 -10   6  10    9.69    1.41
   9  -6 -10    0.28    0.62
   9  -6 -10    1.49    1.48
  -9   6  10    0.52    0.54
  -9   6  10    0.82    0.61
   8  -6 -10   39.44    2.29
   8  -6 -10   43.48    2.36
  -8   6  10   38.38    2.20
   7  -6 -10    1.90    0.74
  -7   6  10    0.61    0.80
  -7   6  10    0.59    0.52
   6  -6 -10   21.24    1.62
  -6   6  10   19.95    1.47
  -6   6  10   22.25    2.02
   5  -6 -10   20.59    1.64
   5  -6 -10   26.86    1.78
  -5   6  10   24.89    2.11
  -5   6  10   24.91    1.60
   4  -6 -10   83.52    3.59
   4  -6 -10   82.53    3.59
  -4   6  10   82.77    4.13
   3  -6 -10    3.35    0.92
   3  -6 -10    3.03    0.93
  -3   6  10    2.91    1.11
   2  -6 -10    1.17    0.71
   2  -6 -10    0.86    0.71
  -2   6  10    0.42    0.85
   1  -6 -10   16.73    1.91
   1  -6 -10   19.90    2.08
  -1   6  10   23.18    2.23
   0  -6 -10    6.39    1.27
   0  -6 -10    7.78    1.42
   0   6  10    8.73    1.75
  -1  -6 -10    0.43    0.69
  -1  -6 -10    0.36    0.69
   1   6  10   -0.32    0.98
  -2  -6 -10    1.58    0.95
   2   6  10    0.51    1.19
  12  -7 -10    1.64    1.58
 -12   7  10    2.53    1.02
 -12   7  10    1.60    0.96
  11  -7 -10    0.84    0.82
  11  -7 -10   -0.21    1.09
 -11   7  10    0.23    0.66
 -11   7  10   -0.02    0.61
  10  -7 -10    0.38    1.13
  10  -7 -10    0.73    0.73
 -10   7  10   -0.28    0.61
 -10   7  10    0.54    0.66
   9  -7 -10    1.09    0.73
   9  -7 -10    2.84    0.94
   9  -7 -10    1.52    1.47
  -9   7  10    1.84    0.80
   8  -7 -10    0.43    0.66
  -8   7  10   -0.12    0.80
  -8   7  10    0.48    0.67
   7  -7 -10   -0.39    0.56
  -7   7  10    0.39    0.86
  -7   7  10   -0.81    0.52
   6  -7 -10    1.85    0.72
  -6   7  10    1.93    0.98
  -6   7  10    1.30    0.69
   5  -7 -10   59.92    2.95
   5  -7 -10   56.54    2.88
  -5   7  10   50.13    2.58
  -5   7  10   54.28    3.14
   4  -7 -10   30.69    2.11
   4  -7 -10   29.03    2.08
  -4   7  10   29.50    2.31
   3  -7 -10    2.58    0.94
   3  -7 -10    0.26    0.70
  -3   7  10    0.98    0.90
   2  -7 -10    7.90    1.44
   2  -7 -10    9.17    1.53
  -2   7  10    9.27    1.69
   1  -7 -10   81.97    3.95
   1  -7 -10   82.12    3.95
  -1   7  10   84.02    4.40
   0  -7 -10    4.11    1.23
   0  -7 -10    4.48    1.16
   0   7  10    5.12    1.58
  -1  -7 -10    3.38    1.02
   1   7  10    3.57    1.43
  11  -8 -10   15.49    2.75
  11  -8 -10   21.44    2.26
 -11   8  10   23.32    1.87
  10  -8 -10    4.07    1.66
  10  -8 -10    6.90    1.30
 -10   8  10    4.77    1.08
   9  -8 -10    2.51    0.91
   9  -8 -10   -1.20    1.16
   9  -8 -10    0.16    0.70
  -9   8  10    1.17    0.80
   8  -8 -10   13.84    1.74
  -8   8  10   12.85    1.60
   7  -8 -10    6.39    1.28
  -7   8  10    7.36    1.25
   6  -8 -10    0.44    0.66
   6  -8 -10    1.24    0.87
  -6   8  10    1.47    0.68
   5  -8 -10    4.06    1.06
   5  -8 -10    4.02    1.11
  -5   8  10    2.83    0.97
   4  -8 -10    3.64    1.19
   4  -8 -10    2.08    0.96
   3  -8 -10    1.40    0.84
   3  -8 -10    0.60    0.78
   2  -8 -10    3.40    1.12
   2  -8 -10    4.02    1.15
   1  -8 -10    1.04    0.94
   1  -8 -10    0.96    0.82
   0  -8 -10   12.73    1.89
 -11   9  10   33.76    2.37
  10  -9 -10   -0.28    0.76
  10  -9 -10    0.10    1.26
  10  -9 -10    0.06    0.88
 -10   9  10    0.23    0.74
   9  -9 -10   -0.80    1.18
   9  -9 -10    0.69    0.88
  -9   9  10    0.04    0.79
   8  -9 -10   54.60    3.10
  -8   9  10   51.56    2.87
   7  -9 -10   34.45    2.40
  -7   9  10   32.33    2.22
   6  -9 -10   -0.11    0.77
   6  -9 -10   -0.46    0.75
  -6   9  10    0.28    0.73
   5  -9 -10    2.40    1.02
   5  -9 -10    3.10    1.13
   4  -9 -10    7.83    1.57
   4  -9 -10    6.86    1.50
   3  -9 -10    0.05    0.83
   3  -9 -10    0.64    0.80
   2  -9 -10    0.39    0.97
   9 -10 -10   -0.15    0.88
  -9  10  10    0.23    0.78
   8 -10 -10    8.12    1.55
  -8  10  10    8.73    1.44
   7 -10 -10    3.69    1.14
  -7  10  10    0.32    0.81
   6 -10 -10   18.00    2.17
   6 -10 -10   16.09    2.12
  -6  10  10   17.59    2.48
   5 -10 -10    0.91    1.02
   5 -10 -10    4.38    1.34
   4 -10 -10    7.21    2.66
   4 -10 -10    4.52    1.42
   3  10 -11    8.02    1.52
   2  10 -11   10.72    1.56
   1  10 -11    6.35    1.29
   0  10 -11    2.64    0.99
  -1  10 -11   23.52    1.93
  -2  10 -11   20.05    2.11
   5   9 -11   18.72    2.17
   4   9 -11    6.34    1.30
   3   9 -11    0.09    0.67
   2   9 -11    0.51    0.70
   1   9 -11    0.36    0.71
   0   9 -11    0.05    0.65
  -1   9 -11    1.06    0.66
  -1   9 -11    1.44    0.79
  -2   9 -11    2.28    0.72
  -2   9 -11    3.03    1.03
  -3   9 -11    5.93    1.03
   7   8 -11    0.13    0.76
  -7  -8  11   -0.19    0.89
   6   8 -11   13.60    1.83
   5   8 -11   61.76    3.19
   4   8 -11   -0.08    0.61
   3   8 -11   13.11    1.62
   2   8 -11   17.94    1.86
   1   8 -11   23.38    1.68
   0   8 -11    3.47    0.84
   0   8 -11    4.61    1.01
  -1   8 -11    0.42    0.57
  -1   8 -11    1.35    0.78
  -2   8 -11    5.67    1.18
  -2   8 -11    4.17    0.80
  -3   8 -11    1.59    0.63
  -4   8 -11    4.26    0.85
   8   7 -11   -0.76    0.78
  -8  -7  11    0.01    0.84
   7   7 -11   -0.04    0.68
  -7  -7  11    0.08    0.79
   6   7 -11    0.42    0.63
  -6  -7  11    0.67    0.87
   5   7 -11    1.30    0.76
   4   7 -11   12.11    1.50
   3   7 -11    8.79    1.28
  -3  -7  11    9.31    2.14
   2   7 -11    2.92    0.85
  -2  -7  11    6.72    2.55
   1   7 -11   10.51    1.22
   1   7 -11   11.94    1.37
   0   7 -11  102.28    3.86
   0   7 -11   97.39    3.71
  -1   7 -11    8.62    1.19
  -1   7 -11    7.81    0.98
  -2   7 -11    6.44    0.87
  -3   7 -11   17.01    1.17
  -4   7 -11   24.53    1.41
   9   6 -11    0.75    0.89
  -9  -6  11    1.60    0.96
   8   6 -11   15.81    1.91
  -8  -6  11   16.57    1.98
   7   6 -11    0.17    0.58
  -7  -6  11    0.44    0.75
   6   6 -11    0.88    0.67
  -6  -6  11    0.85    0.73
   5   6 -11    2.23    0.72
   4   6 -11    3.00    0.79
   3   6 -11    3.92    0.84
  -3  -6  11    8.52    2.06
   2   6 -11   17.41    1.24
   2   6 -11   14.72    1.19
  -2  -6  11   12.37    2.27
   1   6 -11   24.43    1.47
   1   6 -11   25.13    1.52
  -1  -6  11   25.23    2.97
   0   6 -11   25.96    1.50
   0   6 -11   24.31    1.41
   0  -6  11   17.39    2.44
  -1   6 -11    5.10    0.87
  -1   6 -11    3.50    0.64
   1  -6  11    3.51    1.38
  -2   6 -11    3.42    0.60
   2  -6  11    4.99    1.50
  -3   6 -11   51.93    2.10
   3  -6  11   52.58    3.59
  -4   6 -11    9.29    0.89
   4  -6  11   10.40    2.21
  -5   6 -11   15.03    0.98
   5  -6  11   14.54    3.47
   9   5 -11    2.05    0.91
  -9  -5  11    1.66    0.84
   8   5 -11    1.15    0.66
   8   5 -11    0.46    1.04
  -8  -5  11    1.22    0.71
   7   5 -11   57.84    2.93
   7   5 -11   62.29    3.38
  -7  -5  11   61.84    3.00
   6   5 -11   42.95    2.62
   6   5 -11   45.62    2.40
  -6  -5  11   47.34    2.44
   5   5 -11    4.27    0.90
   5   5 -11    3.52    0.98
  -5  -5  11    2.14    0.96
  -5  -5  11    4.44    0.99
   4   5 -11    3.57    0.80
   4   5 -11    4.19    1.21
  -4  -5  11    2.98    0.98
   3   5 -11   42.24    2.05
  -3  -5  11   40.81    3.44
  -3  -5  11   39.55    2.51
   2   5 -11    2.65    0.65
   2   5 -11    2.38    0.59
  -2  -5  11    2.95    0.91
  -2  -5  11    2.79    1.34
   1   5 -11    0.43    0.46
   1   5 -11    0.20    0.37
  -1  -5  11   -0.50    0.52
  -1  -5  11   -0.56    0.89
   0   5 -11    2.06    0.62
   0   5 -11    0.82    0.42
   0  -5  11    1.92    1.19
  -1   5 -11    0.59    0.48
  -1   5 -11    0.57    0.36
   1  -5  11    0.86    1.08
  -2   5 -11    0.07    0.30
   2  -5  11    1.62    1.22
  -3   5 -11    0.69    0.33
   3  -5  11    2.50    1.38
  -4   5 -11    4.52    0.60
  -4   5 -11    3.97    0.54
   4  -5  11    7.81    2.00
  -5   5 -11    8.40    0.63
  -5   5 -11    5.94    0.60
   5  -5  11    9.00    2.22
  10   4 -11    1.06    0.76
  10   4 -11    1.63    1.08
 -10  -4  11    1.49    0.87
   9   4 -11    4.14    1.10
   9   4 -11    2.29    1.10
  -9  -4  11    2.63    0.86
   8   4 -11   11.68    1.76
   8   4 -11    9.60    1.39
  -8  -4  11   11.91    1.54
   7   4 -11   43.43    2.70
   7   4 -11   45.45    2.36
  -7  -4  11   43.65    2.70
  -7  -4  11   44.77    2.39
   6   4 -11   11.32    1.66
   6   4 -11   10.47    1.29
  -6  -4  11   11.66    1.38
  -6  -4  11   10.30    1.52
   5   4 -11    0.16    0.43
   5   4 -11    0.08    0.56
  -5  -4  11   -0.10    0.58
  -5  -4  11    0.27    0.44
   4   4 -11   68.13    2.78
  -4  -4  11   61.61    3.08
   3   4 -11   93.47    3.43
   3   4 -11   94.95    3.42
  -3  -4  11   80.39    5.16
  -3  -4  11   88.06    3.87
   2   4 -11    5.64    0.78
   2   4 -11    5.84    0.87
  -2  -4  11    6.37    2.04
  -2  -4  11    4.07    0.95
   1   4 -11    4.62    0.66
   1   4 -11    7.74    0.96
  -1  -4  11    8.87    2.06
  -1  -4  11    5.04    1.08
   0   4 -11   35.41    1.60
   0   4 -11   37.21    1.82
   0   4 -11   37.57    1.67
   0  -4  11   32.63    2.93
   0  -4  11   30.97    2.11
  -1   4 -11    8.64    0.92
  -1   4 -11    6.72    0.75
   1  -4  11    5.49    1.53
  -2   4 -11    6.08    0.68
  -2   4 -11    7.06    0.79
   2  -4  11    6.36    1.79
  -3   4 -11    0.40    0.32
  -3   4 -11    0.30    0.31
   3  -4  11   -0.16    0.92
  -4   4 -11    2.85    0.45
  -4   4 -11    3.10    0.47
   4  -4  11    3.48    1.49
   5  -4  11    1.49    1.37
  11   3 -11    0.02    0.98
  11   3 -11   -0.62    0.61
 -11  -3  11   -0.16    0.72
  10   3 -11   11.22    2.05
  10   3 -11   11.13    1.57
 -10  -3  11   11.99    1.63
   9   3 -11    5.90    1.44
   9   3 -11    3.84    0.93
  -9  -3  11    4.06    0.99
   8   3 -11    0.59    0.77
   8   3 -11    0.90    0.66
  -8  -3  11    0.63    0.51
   7   3 -11    0.48    0.56
   7   3 -11    0.39    0.66
  -7  -3  11    0.33    0.56
  -7  -3  11    0.54    0.60
   6   3 -11    0.17    0.48
   6   3 -11    0.61    0.70
  -6  -3  11    0.57    0.61
  -6  -3  11    0.79    0.57
   5   3 -11    0.92    0.50
  -5  -3  11    0.77    0.57
  -5  -3  11    1.38    0.64
   4   3 -11    1.37    0.49
   4   3 -11    0.68    0.56
  -4  -3  11    1.53    0.64
   3   3 -11    1.02    0.41
   3   3 -11    0.82    0.44
  -3  -3  11    1.55    0.61
  -3  -3  11    0.00    1.18
   2   3 -11   31.26    1.55
   2   3 -11   30.30    1.54
  -2  -3  11   29.55    1.89
  -2  -3  11   32.08    3.01
   1   3 -11    3.47    0.63
   1   3 -11    2.99    0.63
   1   3 -11    3.98    0.64
  -1  -3  11    6.98    2.04
  -1  -3  11    3.42    0.84
   0   3 -11    6.31    0.78
   0   3 -11    4.53    0.68
   0   3 -11    5.04    0.67
   0  -3  11    4.24    1.51
   0  -3  11    4.95    1.09
  -1   3 -11   43.00    2.05
  -1   3 -11   40.32    1.78
  -1   3 -11   38.03    1.67
  -1   3 -11   43.47    1.94
   1  -3  11   33.43    2.53
   1  -3  11   41.46    3.33
  -2   3 -11   85.53    2.95
  -2   3 -11   87.09    2.93
   2  -3  11   89.03    5.13
  -3   3 -11    0.13    0.28
  -3   3 -11   -0.16    0.28
   3  -3  11    0.94    1.20
  -4   3 -11    0.30    0.29
   4  -3  11    0.52    1.06
   5  -3  11   25.74    3.76
  11   2 -11    5.90    1.23
  11   2 -11    2.96    1.36
 -11  -2  11    6.98    1.34
 -11  -2  11    8.87    1.48
  10   2 -11   77.47    4.34
  10   2 -11   64.09    4.22
  10   2 -11   70.65    3.33
 -10  -2  11   76.02    3.44
 -10  -2  11   75.92    3.44
   9   2 -11    4.91    1.05
   9   2 -11    6.94    1.73
   9   2 -11    4.96    1.35
  -9  -2  11    6.22    1.27
  -9  -2  11    4.80    1.04
   8   2 -11    7.80    1.22
   8   2 -11    6.37    1.47
  -8  -2  11    8.44    1.23
   7   2 -11   15.87    1.31
   7   2 -11   12.74    1.89
  -7  -2  11   16.12    1.36
  -7  -2  11   17.15    1.34
   6   2 -11   21.67    1.90
   6   2 -11   18.31    1.33
  -6  -2  11   21.43    1.47
  -6  -2  11   19.30    1.37
   5   2 -11    0.46    0.41
  -5  -2  11    0.30    0.50
  -5  -2  11    0.49    0.46
   4   2 -11    0.04    0.38
   4   2 -11    0.41    0.37
  -4  -2  11   -0.52    0.34
   3   2 -11    3.12    0.61
   3   2 -11    3.69    0.67
  -3  -2  11    3.33    1.58
  -3  -2  11    5.10    0.92
   2   2 -11    2.64    0.57
   2   2 -11    2.76    0.60
  -2  -2  11    3.78    1.54
  -2  -2  11    2.48    0.68
   1   2 -11    6.96    0.80
   1   2 -11   10.51    0.99
   1   2 -11    8.67    0.91
  -1  -2  11    8.21    1.20
  -1  -2  11    8.66    2.02
   0   2 -11   17.49    1.10
   0   2 -11   17.60    1.02
   0   2 -11   16.98    1.05
   0  -2  11   17.65    2.71
   0  -2  11   13.71    1.60
  -1   2 -11   37.23    1.53
  -1   2 -11   34.31    1.58
   1  -2  11   34.87    3.09
   1  -2  11   32.08    2.10
  -2   2 -11   15.83    0.90
   2  -2  11   13.15    2.45
  -3   2 -11    0.14    0.31
   3  -2  11   -0.10    1.01
  -4   2 -11    7.44    0.69
   4  -2  11    7.74    2.26
  -5   2 -11   42.46    1.71
  -5   2 -11   42.67    1.65
   5  -2  11   39.04    3.88
  12   1 -11    0.30    1.16
 -12  -1  11    0.31    0.76
 -12  -1  11    0.06    0.90
  11   1 -11    1.39    0.83
  11   1 -11    1.90    1.28
 -11  -1  11    2.39    0.94
 -11  -1  11    2.44    0.96
  10   1 -11    2.47    1.39
  10   1 -11    3.19    0.90
  10   1 -11    1.42    1.04
 -10  -1  11    2.98    0.85
 -10  -1  11    2.00    0.79
   9   1 -11   12.77    1.52
   9   1 -11   15.20    2.63
   9   1 -11   11.32    2.02
  -9  -1  11   14.23    1.51
  -9  -1  11   13.09    1.55
   8   1 -11   13.28    1.48
   8   1 -11   12.16    1.96
  -8  -1  11   13.05    1.69
  -8  -1  11   13.51    1.45
   7   1 -11   15.84    2.10
   7   1 -11   18.63    1.34
  -7  -1  11   16.39    1.26
   6   1 -11    2.69    0.65
  -6  -1  11    3.56    0.71
  -6  -1  11    2.52    0.66
   5   1 -11  141.89    4.91
  -5  -1  11  144.61    4.95
  -5  -1  11  143.92    4.88
   4   1 -11   26.34    1.48
   4   1 -11   26.38    1.46
  -4  -1  11   21.40    3.08
  -4  -1  11   27.51    1.57
   3   1 -11    1.86    0.52
   3   1 -11    3.66    0.64
  -3  -1  11    2.86    0.65
  -3  -1  11    4.94    1.76
   2   1 -11   26.57    1.38
   2   1 -11   29.62    1.47
   2   1 -11   25.63    1.75
  -2  -1  11   23.87    3.05
  -2  -1  11   24.47    1.57
   1   1 -11   35.83    1.75
   1   1 -11   35.00    1.68
   1   1 -11   34.93    1.61
  -1  -1  11   37.23    2.00
  -1  -1  11   31.48    2.91
   0   1 -11    0.25    0.36
   0   1 -11   -0.06    0.36
   0  -1  11   -0.04    0.86
   0  -1  11    0.45    0.44
  -1   1 -11    0.79    0.47
  -1   1 -11    0.57    0.34
   1  -1  11    0.72    1.02
   1  -1  11   -0.12    0.51
  -2   1 -11    0.97    0.38
  -2   1 -11    2.01    0.52
   2  -1  11    1.88    1.30
  -3   1 -11    0.19    0.36
  -3   1 -11    0.57    0.41
   3  -1  11   -0.44    0.97
  -4   1 -11   -0.22    0.36
  -4   1 -11    0.19    0.45
   4  -1  11   -0.15    1.11
  -5   1 -11    0.32    0.47
  -5   1 -11    0.41    0.45
   5  -1  11    1.02    1.44
  12   0 -11   -0.57    1.07
 -12   0  11   -0.29    0.64
 -12   0  11    0.21    0.78
  11   0 -11   -0.16    0.90
  11   0 -11   -0.53    0.54
 -11   0  11   -0.10    0.64
 -11   0  11   -0.29    0.67
  10   0 -11    0.67    0.99
  10   0 -11    2.76    1.55
  10   0 -11    1.72    0.80
 -10   0  11    1.88    0.81
 -10   0  11    1.64    0.75
   9   0 -11    1.17    0.95
   9   0 -11    1.55    0.64
  -9   0  11    2.13    0.75
  -9   0  11    3.20    0.87
   8   0 -11    1.08    0.91
   8   0 -11    1.72    0.64
  -8   0  11    2.87    0.78
  -8   0  11    2.76    0.76
   7   0 -11    3.46    0.79
  -7   0  11    3.86    0.77
   6   0 -11   32.07    1.80
  -6   0  11   37.99    1.85
   5   0 -11   63.89    2.66
  -5   0  11   61.44    2.54
  -5   0  11   63.58    2.55
   4   0 -11    0.24    0.39
   4   0 -11    1.20    0.49
  -4   0  11    1.54    0.49
  -4   0  11    1.11    1.06
   3   0 -11    2.23    0.58
   3   0 -11    1.60    0.51
  -3   0  11    1.44    1.28
  -3   0  11    1.76    0.55
   2   0 -11  131.83    4.47
   2   0 -11  138.98    4.62
  -2   0  11  131.55    4.75
  -2   0  11  136.43    6.40
   1   0 -11   43.09    1.92
   1   0 -11   48.03    2.10
  -1   0  11   47.70    3.51
  -1   0  11   45.91    2.29
   0   0 -11   15.14    1.02
   0   0 -11   15.43    1.02
   0   0 -11   16.59    1.12
   0   0  11   20.44    3.10
  -1   0 -11    0.50    0.42
  -1   0 -11    0.83    0.54
  -1   0 -11    1.45    0.56
  -1   0 -11    0.00    0.41
   1   0  11    0.68    1.06
   2   0  11   31.95    3.92
  -3   0 -11   -0.14    0.45
   3   0  11    0.49    1.08
  -4   0 -11    2.36    0.72
   4   0  11    1.70    1.44
  12  -1 -11   20.37    3.17
 -12   1  11   25.74    1.98
 -12   1  11   23.49    1.89
  11  -1 -11   23.92    1.84
  11  -1 -11   20.23    2.96
 -11   1  11   26.25    1.87
 -11   1  11   28.29    1.92
  10  -1 -11    0.53    1.25
  10  -1 -11    0.58    0.58
  10  -1 -11   -0.48    0.68
 -10   1  11   -0.21    0.56
 -10   1  11   -0.15    0.50
   9  -1 -11    4.25    1.41
   9  -1 -11    3.63    0.89
  -9   1  11    3.79    0.85
  -9   1  11    4.32    0.88
   8  -1 -11   17.05    2.45
   8  -1 -11   18.26    1.41
  -8   1  11   20.12    1.42
  -8   1  11   19.99    1.42
   7  -1 -11    1.68    0.67
  -7   1  11    2.79    0.71
   6  -1 -11    2.53    0.70
  -6   1  11    2.75    0.68
   5  -1 -11    1.31    0.61
  -5   1  11    1.99    0.60
   4  -1 -11    0.74    0.43
   4  -1 -11   -0.24    0.36
  -4   1  11    1.91    1.11
  -4   1  11    0.11    0.33
   3  -1 -11    1.96    0.56
   3  -1 -11    1.11    0.50
   3  -1 -11    0.94    0.47
  -3   1  11    1.29    1.06
  -3   1  11    1.78    0.52
   2  -1 -11    2.70    0.66
  -2   1  11    2.52    0.66
  -2   1  11    1.93    1.21
   1  -1 -11    7.64    0.95
  -1   1  11    5.56    1.53
   0  -1 -11   24.43    1.50
   0  -1 -11   26.82    1.41
   0   1  11   23.70    3.16
  -1  -1 -11    0.78    0.51
  -1  -1 -11    1.32    0.53
   1   1  11    1.35    1.16
  -2  -1 -11    0.42    0.50
   2   1  11    0.09    1.10
  -3  -1 -11   52.59    2.41
   3   1  11   51.30    4.05
  -4  -1 -11   33.63    1.89
   4   1  11   30.84    4.15
  12  -2 -11   38.69    3.58
 -12   2  11   41.43    2.44
 -12   2  11   37.26    2.35
  11  -2 -11    7.63    1.25
  11  -2 -11    5.07    1.64
 -11   2  11    7.07    1.24
 -11   2  11    5.54    1.03
  10  -2 -11    0.25    0.60
  10  -2 -11    0.76    1.09
  10  -2 -11    1.94    1.57
 -10   2  11    1.78    0.79
 -10   2  11    0.79    0.61
   9  -2 -11   45.30    2.38
   9  -2 -11   42.53    3.33
  -9   2  11   46.57    2.35
  -9   2  11   47.14    2.37
   8  -2 -11  111.74    5.38
   8  -2 -11   97.47    4.00
  -8   2  11  102.81    3.98
  -8   2  11  105.56    4.01
   7  -2 -11    0.23    0.44
  -7   2  11    0.00    0.43
   6  -2 -11    0.21    0.50
  -6   2  11    0.90    0.51
   5  -2 -11   26.25    1.60
  -5   2  11   29.60    2.66
  -5   2  11   29.33    1.57
   4  -2 -11    7.82    1.04
   4  -2 -11    8.43    1.04
   4  -2 -11   10.01    1.14
  -4   2  11    7.71    1.78
   3  -2 -11   -0.53    0.38
  -3   2  11   -0.29    0.69
   2  -2 -11    2.88    0.71
  -2   2  11    1.44    0.86
   1  -2 -11    1.49    0.60
   1  -2 -11    0.82    0.55
  -1   2  11    1.34    0.97
   0  -2 -11    1.74    0.57
   0  -2 -11    0.66    0.50
   0   2  11    0.28    0.95
  -1  -2 -11    2.99    0.77
  -1  -2 -11    3.43    0.70
   1   2  11    4.01    1.45
  -2  -2 -11   13.70    1.30
  -2  -2 -11   13.53    1.47
   2   2  11   10.61    2.23
  -3  -2 -11   27.47    1.80
   3   2  11   22.71    3.33
  -4  -2 -11    2.80    0.88
   4   2  11    1.36    1.30
  12  -3 -11    1.66    1.38
 -12   3  11   -0.14    0.62
 -12   3  11    0.08    0.75
  11  -3 -11    1.39    1.31
  11  -3 -11    0.80    0.67
 -11   3  11    0.71    0.65
 -11   3  11    0.64    0.68
  10  -3 -11   -0.15    0.57
  10  -3 -11    2.46    1.46
  10  -3 -11   -0.23    0.86
 -10   3  11    0.12    0.52
 -10   3  11    0.70    0.65
   9  -3 -11    9.00    1.26
   9  -3 -11    7.25    1.80
  -9   3  11    8.69    1.21
  -9   3  11    8.95    1.23
   8  -3 -11    0.32    0.52
  -8   3  11    0.29    0.64
  -8   3  11    0.07    0.48
   7  -3 -11   37.91    2.09
  -7   3  11   42.76    2.14
   6  -3 -11    3.17    0.78
   6  -3 -11    2.42    0.68
  -6   3  11    3.22    0.72
   5  -3 -11   23.19    1.53
  -5   3  11   23.72    1.44
  -5   3  11   23.43    2.30
   4  -3 -11   30.45    1.73
  -4   3  11   23.94    2.33
   3  -3 -11  110.20    4.10
  -3   3  11  108.95    5.28
   2  -3 -11    3.59    0.83
   2  -3 -11    3.06    0.73
  -2   3  11    4.33    1.34
   1  -3 -11    0.27    0.44
   1  -3 -11    0.12    0.47
   1  -3 -11   -0.25    0.49
  -1   3  11   -0.01    0.82
   0  -3 -11   22.51    1.51
   0  -3 -11   26.71    1.60
   0  -3 -11   26.03    1.77
   0   3  11   21.51    2.85
  -1  -3 -11   13.71    1.44
  -1  -3 -11   11.04    1.40
  -1  -3 -11   10.51    1.27
   1   3  11   12.44    2.32
  -2  -3 -11   -0.60    0.67
  -2  -3 -11    0.34    0.60
   2   3  11    0.77    1.02
  -3  -3 -11    0.47    0.76
  -3  -3 -11    0.39    0.64
   3   3  11    0.87    1.19
  12  -4 -11    6.72    2.01
 -12   4  11    6.63    1.26
 -12   4  11    6.59    1.26
  11  -4 -11    4.03    1.73
  11  -4 -11    2.93    0.90
 -11   4  11    4.68    1.00
 -11   4  11    4.25    0.99
  10  -4 -11    1.82    1.33
  10  -4 -11   -0.24    0.60
 -10   4  11   -0.24    0.60
 -10   4  11    0.09    0.59
   9  -4 -11    1.73    0.74
   9  -4 -11    0.23    1.14
  -9   4  11    0.74    0.62
  -9   4  11    1.14    0.65
   8  -4 -11    3.46    0.89
  -8   4  11    1.99    0.74
   7  -4 -11    0.78    0.56
   7  -4 -11    0.62    0.55
  -7   4  11    0.94    0.63
   6  -4 -11   -0.30    0.40
  -6   4  11    0.21    0.76
  -6   4  11    0.05    0.54
   5  -4 -11    4.09    0.90
  -5   4  11    3.70    0.82
  -5   4  11    5.05    1.33
   4  -4 -11   57.03    2.71
  -4   4  11   62.15    3.62
   3  -4 -11   33.49    2.21
   3  -4 -11   28.87    1.78
  -3   4  11   27.81    2.45
   2  -4 -11    0.70    0.63
   2  -4 -11    2.16    0.74
   2  -4 -11    1.31    0.65
  -2   4  11    0.66    0.89
   1  -4 -11    6.97    1.10
   1  -4 -11   11.87    1.42
   1  -4 -11    8.23    1.20
  -1   4  11   10.10    1.90
   0  -4 -11   87.80    3.73
   0  -4 -11   94.83    3.78
   0  -4 -11   99.75    4.01
   0   4  11   93.01    5.03
  -1  -4 -11    6.32    1.27
  -1  -4 -11    5.72    1.11
  -1  -4 -11    7.46    1.22
   1   4  11    4.21    1.45
  -2  -4 -11    5.91    1.13
  -2  -4 -11    5.94    1.25
   2   4  11    5.37    1.69
  12  -5 -11    5.51    2.06
 -12   5  11    7.19    1.31
 -12   5  11    6.45    1.23
  11  -5 -11   -0.68    0.63
  11  -5 -11    0.80    1.21
 -11   5  11    0.43    0.63
 -11   5  11   -0.25    0.56
  10  -5 -11   40.80    2.39
  10  -5 -11   35.59    3.43
 -10   5  11   42.38    2.40
 -10   5  11   42.19    2.41
   9  -5 -11    9.63    1.36
   9  -5 -11   10.48    2.19
  -9   5  11    9.21    1.36
   8  -5 -11    0.31    0.56
  -8   5  11    0.15    0.56
   7  -5 -11   13.68    1.51
   7  -5 -11   14.67    1.61
  -7   5  11   12.02    1.39
  -7   5  11   12.63    2.14
   6  -5 -11   11.00    1.39
  -6   5  11   12.80    1.97
  -6   5  11   11.68    1.37
   5  -5 -11    1.11    0.68
  -5   5  11    0.70    0.85
  -5   5  11    0.80    0.84
   4  -5 -11    1.66    0.66
  -4   5  11    2.35    0.99
   3  -5 -11    2.58    0.82
   3  -5 -11    1.03    0.69
  -3   5  11    1.08    0.87
   2  -5 -11   -0.09    0.53
   2  -5 -11    0.75    0.69
  -2   5  11    1.02    1.02
   1  -5 -11    1.92    0.83
   1  -5 -11    2.64    0.88
   1  -5 -11    1.42    0.71
  -1   5  11    3.28    1.26
   0  -5 -11    0.61    0.76
   0  -5 -11    0.78    0.70
   0  -5 -11    0.79    0.67
   0   5  11    0.22    0.98
  -1  -5 -11   10.32    1.46
  -1  -5 -11   13.02    1.83
  -1  -5 -11   12.42    1.57
   1   5  11   11.21    2.14
  -2  -5 -11    7.16    1.42
   2   5  11    4.95    1.60
  12  -6 -11    8.84    2.49
 -12   6  11   -0.44    0.60
 -12   6  11    0.82    0.82
  11  -6 -11   10.10    1.46
  11  -6 -11   10.85    2.49
 -11   6  11   10.49    1.57
 -11   6  11    9.18    1.49
  10  -6 -11   46.27    3.86
  10  -6 -11   48.21    2.68
 -10   6  11   44.74    2.73
 -10   6  11   42.83    2.54
   9  -6 -11    1.07    0.71
   9  -6 -11    0.07    1.06
  -9   6  11   -0.03    0.58
   8  -6 -11    0.39    0.63
   8  -6 -11    0.14    0.62
  -8   6  11   -0.39    0.73
  -8   6  11   -0.01    0.55
   7  -6 -11   81.08    3.62
  -7   6  11   84.92    4.28
  -7   6  11   74.49    3.38
   6  -6 -11   47.57    2.60
  -6   6  11   49.78    3.16
  -6   6  11   48.46    2.44
   5  -6 -11    0.12    0.58
  -5   6  11    0.27    0.94
   4  -6 -11    2.08    0.79
   4  -6 -11    2.37    0.89
  -4   6  11    0.86    0.94
   3  -6 -11   14.80    1.75
   3  -6 -11   14.65    1.68
  -3   6  11   10.67    1.84
   2  -6 -11   -0.34    0.61
   2  -6 -11    0.35    0.72
  -2   6  11    0.48    1.02
   1  -6 -11   -0.93    0.61
   1  -6 -11   -0.34    0.64
  -1   6  11   -0.17    0.96
   0  -6 -11    1.33    0.83
   0  -6 -11    1.26    0.88
   0   6  11    3.15    1.35
  -1  -6 -11    0.27    0.74
   1   6  11    0.44    1.07
  11  -7 -11    0.21    1.20
  11  -7 -11    0.53    0.81
 -11   7  11    0.08    0.73
 -11   7  11    1.16    1.08
  10  -7 -11    0.60    1.17
  10  -7 -11    0.03    0.68
 -10   7  11   -0.25    0.63
   9  -7 -11    2.99    0.97
   9  -7 -11    1.76    1.44
   9  -7 -11    2.38    0.93
  -9   7  11    1.32    1.05
  -9   7  11    1.16    0.74
   8  -7 -11    0.35    0.63
  -8   7  11    1.46    0.82
  -8   7  11    0.63    0.94
   7  -7 -11   12.61    1.64
  -7   7  11    9.15    1.27
  -7   7  11   11.09    1.78
   6  -7 -11    1.40    0.77
  -6   7  11    1.25    1.01
  -6   7  11    1.05    0.68
   5  -7 -11   30.01    2.12
   5  -7 -11   25.82    1.98
  -5   7  11   29.07    2.37
   4  -7 -11    2.25    0.87
   4  -7 -11    3.74    1.09
  -4   7  11    1.85    1.06
   3  -7 -11    7.76    1.42
   3  -7 -11    6.56    1.33
  -3   7  11    5.16    1.39
   2  -7 -11   32.20    2.32
   2  -7 -11   31.62    2.32
  -2   7  11   38.04    2.88
   1  -7 -11   33.22    2.34
   1  -7 -11   31.13    2.35
  -1   7  11   30.94    2.75
   0  -7 -11    0.54    0.80
   0   7  11   -1.02    1.02
  11  -8 -11    0.45    0.95
  11  -8 -11    1.21    1.32
 -11   8  11    0.21    0.69
  10  -8 -11    4.87    1.61
  10  -8 -11    6.90    1.30
 -10   8  11    4.10    1.04
   9  -8 -11    0.86    1.32
   9  -8 -11    1.82    0.92
   9  -8 -11    1.42    0.86
  -9   8  11    1.23    0.84
   8  -8 -11   -0.64    0.63
  -8   8  11   -0.58    0.63
   7  -8 -11    2.46    1.03
  -7   8  11    2.10    0.87
   6  -8 -11    2.24    0.91
   5  -8 -11    0.07    0.74
   5  -8 -11    0.22    0.77
   4  -8 -11    0.49    0.86
   4  -8 -11    0.62    0.82
   3  -8 -11    4.66    1.31
   3  -8 -11    3.57    1.21
   2  -8 -11   37.18    2.61
  10  -9 -11    6.82    1.44
  10  -9 -11    8.20    2.03
 -10   9  11    7.76    1.39
   9  -9 -11    2.29    1.03
   9  -9 -11    3.71    1.76
  -9   9  11    2.05    0.89
   8  -9 -11   25.02    2.55
  -8   9  11   27.67    2.06
   7  -9 -11    0.83    0.92
  -7   9  11    0.65    0.82
   6  -9 -11    1.86    0.91
   5  -9 -11   10.62    1.74
   5  -9 -11   10.09    1.76
   4  -9 -11    2.58    1.45
   4  -9 -11    3.79    1.24
   3  -9 -11    0.22    1.00
   4   9 -12    2.52    0.95
   3   9 -12    1.82    0.88
   2   9 -12    3.38    1.01
   1   9 -12   10.79    1.61
   0   9 -12   14.65    1.86
  -1   9 -12    9.11    1.39
  -1   9 -12   12.22    1.65
   6   8 -12   34.30    2.40
   5   8 -12   25.52    1.99
   4   8 -12    5.19    1.16
   3   8 -12    0.42    0.66
   2   8 -12   28.23    1.94
   1   8 -12    1.91    0.82
   0   8 -12    0.25    0.58
   0   8 -12    0.89    0.73
  -1   8 -12    0.57    0.62
  -1   8 -12    0.85    0.78
  -2   8 -12   -0.19    0.56
   7   7 -12    7.81    1.45
   6   7 -12   24.41    1.91
   5   7 -12    9.85    1.51
   4   7 -12    0.31    0.59
  -4  -7  12    0.23    1.57
   3   7 -12   34.96    2.07
   2   7 -12   54.92    2.66
   1   7 -12    3.42    0.80
   1   7 -12    2.90    0.83
   0   7 -12    4.73    0.99
   0   7 -12    3.73    0.80
  -1   7 -12   25.30    1.71
  -1   7 -12   25.92    1.56
  -2   7 -12    6.15    0.90
  -3   7 -12    5.68    0.85
   8   6 -12    4.47    1.17
  -8  -6  12    5.88    1.29
   7   6 -12   -0.43    0.56
  -7  -6  12    0.30    0.81
   6   6 -12    0.07    0.52
   5   6 -12   -0.15    0.55
   4   6 -12    1.09    0.66
  -4  -6  12    0.44    1.15
   3   6 -12    0.17    0.55
  -3  -6  12    0.85    1.21
   2   6 -12    1.56    0.64
   2   6 -12    1.56    0.63
  -2  -6  12    1.49    1.26
   1   6 -12   16.12    1.25
   1   6 -12   12.96    1.30
  -1  -6  12   11.69    2.25
   0   6 -12    2.62    0.64
   0   6 -12    2.30    0.70
   0  -6  12    1.45    1.19
  -1   6 -12    1.82    0.54
  -1   6 -12    1.99    1.18
   1  -6  12   -0.06    1.09
  -2   6 -12   20.61    1.27
   2  -6  12   21.78    2.98
  -3   6 -12   53.86    2.25
   3  -6  12   54.70    3.89
  -4   6 -12    0.52    0.43
   9   5 -12   47.57    2.86
  -9  -5  12   60.04    3.09
   8   5 -12    4.26    1.02
  -8  -5  12    4.50    1.12
   7   5 -12    7.97    1.30
  -7  -5  12    8.30    1.34
   6   5 -12    9.39    1.37
   5   5 -12   20.14    1.51
   4   5 -12    1.18    0.64
  -4  -5  12    0.51    1.35
   3   5 -12    0.21    0.47
  -3  -5  12   -0.17    1.16
   2   5 -12    3.35    0.67
   2   5 -12    5.50    0.94
  -2  -5  12    4.69    1.74
   1   5 -12    2.62    0.61
   1   5 -12    2.00    0.65
  -1  -5  12    1.58    1.09
   0   5 -12    6.00    0.82
   0   5 -12    7.89    1.05
   0  -5  12    4.40    1.62
   1  -5  12   12.67    2.43
  -2   5 -12   17.61    1.11
   2  -5  12   20.90    3.00
  -3   5 -12   10.13    0.83
   3  -5  12    8.55    2.10
  -4   5 -12    0.94    0.41
   4  -5  12    0.10    1.25
  10   4 -12    2.17    1.19
  10   4 -12    1.23    0.81
 -10  -4  12    1.71    0.84
   9   4 -12   -0.17    0.57
   9   4 -12    1.33    0.99
  -9  -4  12    1.11    0.77
   8   4 -12    7.69    1.57
   8   4 -12    8.00    1.32
  -8  -4  12    5.55    1.08
   7   4 -12    8.06    1.22
   7   4 -12    7.59    1.48
  -7  -4  12    7.17    1.20
   6   4 -12   10.62    1.70
   6   4 -12   10.43    1.38
  -6  -4  12   11.18    1.45
  -6  -4  12    9.68    1.53
   5   4 -12    1.16    0.87
   5   4 -12    1.14    0.59
  -5  -4  12    1.63    0.79
   4   4 -12   98.52    3.74
  -4  -4  12   89.83    5.85
  -4  -4  12   97.93    4.17
   3   4 -12   19.07    1.30
   3   4 -12   20.37    1.34
  -3  -4  12   14.54    1.74
  -3  -4  12   15.35    2.93
   2   4 -12    7.36    1.01
   2   4 -12    4.61    0.75
  -2  -4  12    7.08    1.98
  -2  -4  12    4.39    1.07
   1   4 -12   14.72    1.10
   1   4 -12   12.64    1.03
  -1  -4  12   12.56    2.48
   0   4 -12   28.51    1.52
   0   4 -12   29.85    1.50
   0  -4  12   26.84    3.53
  -1   4 -12    0.00    0.34
   1  -4  12    0.00    1.19
  -2   4 -12   -0.17    0.33
   2  -4  12    0.19    1.13
  -3   4 -12    1.16    0.45
   3  -4  12    0.49    1.09
  -4   4 -12    0.37    0.35
   4  -4  12    0.29    1.32
  10   3 -12   -0.20    0.94
  10   3 -12   -0.45    0.62
 -10  -3  12   -0.47    0.67
   9   3 -12    2.00    0.76
   9   3 -12    2.19    1.13
  -9  -3  12    1.41    0.75
   8   3 -12    1.78    0.72
   8   3 -12    2.07    1.08
  -8  -3  12    2.00    0.78
   7   3 -12    3.77    1.17
   7   3 -12    2.58    0.78
  -7  -3  12    2.58    0.83
  -7  -3  12    3.11    1.16
   6   3 -12    7.08    1.45
   6   3 -12    8.13    1.20
  -6  -3  12    9.59    1.29
  -6  -3  12    8.26    1.22
   5   3 -12   26.93    1.66
  -5  -3  12   28.11    1.86
   4   3 -12   41.74    2.08
  -4  -3  12   47.30    4.10
  -4  -3  12   42.77    2.36
   3   3 -12    2.75    0.61
   3   3 -12    3.24    0.70
  -3  -3  12    3.81    1.90
  -3  -3  12    2.68    0.83
   2   3 -12    2.79    0.62
   2   3 -12    2.50    0.62
  -2  -3  12    0.26    1.16
  -2  -3  12    1.61    0.71
   1   3 -12   96.05    3.35
   1   3 -12   92.82    3.34
  -1  -3  12   85.44    3.88
  -1  -3  12   85.06    5.29
   0   3 -12   37.71    1.91
   0   3 -12   33.40    1.65
   0   3 -12   36.03    1.67
   0  -3  12   32.49    3.21
  -1   3 -12   11.92    0.90
   1  -3  12   11.70    2.48
  -2   3 -12    0.49    0.38
   2  -3  12   -0.25    1.10
  -3   3 -12   22.58    1.19
   3  -3  12   22.94    3.51
  -4   3 -12    0.42    0.40
  -4   3 -12   -0.06    0.50
   4  -3  12   -0.83    1.14
  11   2 -12   13.96    2.42
  11   2 -12   22.77    1.86
 -11  -2  12   23.98    1.90
  10   2 -12   29.76    2.05
  10   2 -12   26.66    2.63
 -10  -2  12   28.69    2.02
   9   2 -12    1.49    1.33
   9   2 -12    1.27    1.01
   9   2 -12    0.48    0.59
  -9  -2  12   -0.15    0.57
   8   2 -12    1.58    1.00
   8   2 -12    1.16    0.68
  -8  -2  12    1.94    0.82
   7   2 -12   20.98    2.08
   7   2 -12   21.45    1.57
  -7  -2  12   23.58    1.61
   6   2 -12    2.88    0.77
  -6  -2  12    2.98    0.74
  -6  -2  12    2.00    0.67
   5   2 -12    2.13    0.68
  -5  -2  12    0.78    0.52
   4   2 -12    0.55    0.48
   4   2 -12    0.90    0.52
  -4  -2  12    0.74    0.55
  -4  -2  12    1.18    1.25
   3   2 -12    0.47    0.43
   3   2 -12   -0.09    0.42
  -3  -2  12   -0.40    1.02
  -3  -2  12    1.13    0.64
   2   2 -12    0.27    0.39
   2   2 -12    0.22    0.41
  -2  -2  12    0.62    1.21
  -2  -2  12    0.79    0.55
   1   2 -12    0.62    0.43
   1   2 -12   -0.52    0.34
  -1  -2  12   -0.53    0.89
  -1  -2  12    0.45    0.54
   0   2 -12    4.43    0.69
   0   2 -12    3.01    0.61
   0   2 -12    3.28    0.63
   0  -2  12    3.85    1.62
  -1   2 -12   14.53    1.04
   1  -2  12   17.12    3.05
   2  -2  12   -0.09    1.14
   3  -2  12    0.31    1.25
   4  -2  12   37.24    4.92
  11   1 -12   40.60    3.31
  11   1 -12   33.78    2.27
 -11  -1  12   33.15    2.26
  10   1 -12    6.31    1.70
  10   1 -12    7.17    1.25
 -10  -1  12    4.95    1.03
   9   1 -12    0.83    0.95
   9   1 -12    0.20    0.59
  -9  -1  12   -0.28    0.53
   8   1 -12   36.71    2.85
   8   1 -12   36.87    2.13
  -8  -1  12   39.91    2.17
   7   1 -12   96.98    3.94
   7   1 -12  100.84    4.89
  -7  -1  12  102.77    3.94
   6   1 -12    0.81    0.53
  -6  -1  12   -0.12    0.49
   5   1 -12    3.28    0.76
  -5  -1  12    3.13    0.75
   4   1 -12   28.61    1.59
   4   1 -12   27.66    1.60
  -4  -1  12   25.66    1.62
  -4  -1  12   27.80    3.76
   3   1 -12   12.64    1.23
   3   1 -12   10.75    1.12
  -3  -1  12   12.44    1.36
  -3  -1  12   13.19    2.74
   2   1 -12    1.32    0.55
   2   1 -12    1.31    0.51
  -2  -1  12    1.72    1.46
  -2  -1  12    2.00    0.68
   1   1 -12    2.05    0.53
   1   1 -12    1.29    0.57
  -1  -1  12    1.35    0.60
  -1  -1  12    1.63    1.21
   0   1 -12    3.27    0.66
   0   1 -12    2.54    0.58
   0  -1  12    4.42    1.76
   1  -1  12    1.43    1.38
   2  -1  12    6.30    2.04
   3  -1  12    8.64    2.35
  -4   1 -12   17.93    1.19
   4  -1  12   19.37    3.60
  11   0 -12    0.12    0.69
  11   0 -12    0.14    1.07
 -11   0  12    0.29    0.67
  10   0 -12    0.10    0.62
  10   0 -12   -0.21    0.88
 -10   0  12   -0.62    0.60
   9   0 -12    0.20    0.80
   9   0 -12    0.09    0.51
  -9   0  12    0.89    0.69
   8   0 -12    6.00    1.11
   8   0 -12    8.40    1.85
  -8   0  12    8.45    1.20
   7   0 -12    1.33    0.58
  -7   0  12    0.50    0.56
   6   0 -12   30.24    1.76
  -6   0  12   28.63    1.67
   5   0 -12    2.82    0.70
  -5   0  12    2.58    1.36
   4   0 -12   20.54    1.33
   4   0 -12   16.85    1.28
  -4   0  12   19.11    2.80
  -4   0  12   21.68    1.37
   3   0 -12   23.80    1.45
   3   0 -12   22.91    1.42
  -3   0  12   20.53    3.11
  -3   0  12   23.72    1.51
   2   0 -12  108.00    3.95
   2   0 -12  105.80    3.84
  -2   0  12  110.22    4.18
  -2   0  12  112.02    5.91
   1   0 -12    3.04    0.64
  -1   0  12    1.69    0.68
  -1   0  12    2.68    1.44
   0   0 -12    0.59    0.49
   0   0 -12    1.07    0.64
   0   0  12    3.03    1.50
   1   0  12   24.03    3.35
  -2   0 -12   11.06    1.17
   2   0  12   13.85    2.71
  -3   0 -12   -0.36    0.49
   3   0  12   -0.73    1.03
  12  -1 -12   -0.01    1.20
  12  -1 -12   -0.22    0.80
 -12   1  12    0.32    0.80
 -12   1  12    0.29    1.33
  11  -1 -12    7.40    1.37
  11  -1 -12    6.98    1.82
 -11   1  12    7.02    1.27
  10  -1 -12    6.55    1.19
  10  -1 -12    7.55    1.92
 -10   1  12    7.47    1.20
   9  -1 -12   -0.16    0.58
   9  -1 -12    0.05    0.92
  -9   1  12    1.19    0.65
   8  -1 -12    0.65    0.57
   8  -1 -12    1.46    1.13
  -8   1  12    0.51    0.56
   7  -1 -12    4.68    0.90
  -7   1  12    3.56    0.87
   6  -1 -12    1.61    0.65
  -6   1  12    1.21    0.60
   5  -1 -12    2.53    0.73
  -5   1  12    1.18    1.03
   4  -1 -12    7.99    1.03
   4  -1 -12   11.68    1.28
  -4   1  12    8.36    2.03
   3  -1 -12   47.39    2.26
   3  -1 -12   46.84    2.17
  -3   1  12   47.06    2.24
  -3   1  12   45.67    3.49
   2  -1 -12   26.70    1.57
   2  -1 -12   28.93    1.59
  -2   1  12   28.02    2.74
   1  -1 -12    0.25    0.45
   1  -1 -12    0.54    0.46
  -1   1  12   -0.02    0.87
   0  -1 -12    9.27    1.09
   0  -1 -12    8.71    1.13
   0   1  12    6.76    1.78
  -1  -1 -12   82.21    3.34
   1   1  12   83.42    5.10
  -2  -1 -12    3.79    0.83
   2   1  12    4.72    1.71
  -3  -1 -12    4.51    0.84
   3   1  12    8.13    2.30
  12  -2 -12    6.33    1.35
  12  -2 -12    6.05    1.97
 -12   2  12    7.33    1.39
 -12   2  12    8.24    1.77
  11  -2 -12    7.70    2.04
  11  -2 -12    6.64    1.20
 -11   2  12    8.68    1.38
  10  -2 -12   -0.16    0.98
  10  -2 -12   -0.13    0.60
 -10   2  12   -0.47    0.53
   9  -2 -12   50.62    2.66
   9  -2 -12   50.39    3.73
  -9   2  12   56.82    2.68
   8  -2 -12   21.21    1.57
  -8   2  12   17.74    1.41
   7  -2 -12    0.03    0.44
  -7   2  12   -0.12    0.49
   6  -2 -12   15.20    1.57
  -6   2  12   12.67    1.34
  -6   2  12    8.98    1.90
   5  -2 -12   18.08    1.35
  -5   2  12   17.40    2.61
   4  -2 -12   -0.01    0.44
   4  -2 -12    0.75    0.53
  -4   2  12    0.03    0.87
   3  -2 -12    1.34    0.62
  -3   2  12    1.29    1.05
   2  -2 -12    1.08    0.56
  -2   2  12    2.79    1.20
   1  -2 -12    0.50    0.55
   1  -2 -12   -0.25    0.48
  -1   2  12    0.09    0.93
   0  -2 -12    2.63    0.76
   0  -2 -12    1.57    0.66
   0   2  12    1.44    1.22
  -1  -2 -12   -0.15    0.57
   1   2  12    0.01    1.11
  -2  -2 -12    9.69    1.32
   2   2  12    9.04    2.14
  12  -3 -12    1.40    1.39
  12  -3 -12    0.18    0.68
 -12   3  12    0.66    0.77
 -12   3  12    2.01    1.12
  11  -3 -12    0.12    1.18
  11  -3 -12   -0.49    0.61
 -11   3  12    0.31    0.65
  10  -3 -12   12.02    1.53
  10  -3 -12   12.99    2.55
 -10   3  12   12.76    1.53
   9  -3 -12   54.29    3.95
   9  -3 -12   47.13    2.59
  -9   3  12   49.41    2.56
   8  -3 -12    1.30    0.73
  -8   3  12    0.88    0.56
   7  -3 -12    0.29    0.54
  -7   3  12    0.38    0.46
   6  -3 -12   87.76    3.61
  -6   3  12   86.75    4.87
  -6   3  12   87.88    3.49
   5  -3 -12   62.18    2.87
   5  -3 -12   64.17    2.90
  -5   3  12   66.83    4.07
   4  -3 -12    1.51    0.66
  -4   3  12    0.42    0.99
   3  -3 -12    0.45    0.53
  -3   3  12    0.60    0.80
   2  -3 -12   21.81    1.50
  -2   3  12   15.27    2.44
   1  -3 -12    1.54    0.69
   1  -3 -12    1.33    0.66
  -1   3  12    0.44    1.10
   0  -3 -12   -0.30    0.57
   0  -3 -12   -0.27    0.48
   0   3  12    0.30    1.04
  -1  -3 -12    1.92    0.74
   1   3  12    2.15    1.33
  -2  -3 -12    2.35    0.89
   2   3  12    1.86    1.43
  12  -4 -12    4.21    1.83
  12  -4 -12    4.83    1.18
 -12   4  12    5.22    1.10
  11  -4 -12    1.07    0.88
  11  -4 -12   -0.09    1.16
 -11   4  12    0.75    0.64
  10  -4 -12    0.78    0.78
  10  -4 -12    1.67    1.25
 -10   4  12    1.20    0.71
   9  -4 -12   -0.50    1.01
   9  -4 -12    0.88    0.70
  -9   4  12   -0.22    0.56
   8  -4 -12    0.86    0.71
  -8   4  12    1.41    0.66
   7  -4 -12    1.17    0.66
  -7   4  12    1.41    0.63
  -7   4  12    1.44    1.16
   6  -4 -12    9.39    1.31
   6  -4 -12   10.14    1.35
  -6   4  12   11.48    2.01
  -6   4  12    6.73    1.57
   5  -4 -12    0.43    0.57
  -5   4  12    1.55    0.97
   4  -4 -12   27.96    1.84
  -4   4  12   31.36    2.69
   3  -4 -12    0.70    0.61
  -3   4  12    0.67    0.92
   2  -4 -12    5.82    1.08
   2  -4 -12    5.56    1.04
  -2   4  12    5.26    1.62
   1  -4 -12   38.55    2.17
   1  -4 -12   37.33    2.36
   1  -4 -12   39.83    2.20
  -1   4  12   39.40    3.27
   0  -4 -12   39.76    2.21
   0  -4 -12   38.02    2.17
   0   4  12   43.17    3.45
  -1  -4 -12   -0.44    0.69
  -1  -4 -12    0.47    0.67
  -1  -4 -12   -0.69    0.78
   1   4  12   -0.09    1.02
  12  -5 -12   35.61    2.45
  12  -5 -12   46.15    4.45
 -12   5  12   41.50    2.54
  11  -5 -12    3.00    1.03
  11  -5 -12    1.02    1.47
 -11   5  12    1.08    0.78
  10  -5 -12    0.06    1.08
  10  -5 -12    1.07    0.74
 -10   5  12    0.78    0.68
   9  -5 -12   15.57    1.85
  -9   5  12   12.40    1.56
   8  -5 -12    5.01    1.08
  -8   5  12    3.54    0.90
  -8   5  12    3.31    1.26
   7  -5 -12   -0.16    0.53
   7  -5 -12    0.21    0.56
  -7   5  12    0.49    1.02
  -7   5  12   -0.95    0.57
   6  -5 -12    0.89    0.71
  -6   5  12    1.87    1.12
   5  -5 -12    1.89    0.81
  -5   5  12    1.37    1.04
   4  -5 -12   -0.47    0.57
  -4   5  12    0.36    0.78
   3  -5 -12    0.57    0.60
  -3   5  12   -0.60    0.74
   2  -5 -12    7.71    1.20
   2  -5 -12    7.33    1.28
  -2   5  12    7.12    1.72
   1  -5 -12   38.86    2.27
   1  -5 -12   36.36    2.24
  -1   5  12   39.53    3.18
   0  -5 -12    5.37    1.18
   0  -5 -12    5.55    1.14
   0   5  12    4.06    1.51
  11  -6 -12   11.18    1.62
  11  -6 -12   12.74    2.68
 -11   6  12    8.85    1.44
  10  -6 -12    1.44    0.94
  10  -6 -12    1.31    1.31
 -10   6  12    1.35    0.88
   9  -6 -12   14.11    1.68
  -9   6  12   14.47    1.68
  -9   6  12   10.71    2.02
   8  -6 -12    3.22    0.98
   8  -6 -12    5.12    1.18
  -8   6  12    3.23    1.26
  -8   6  12    3.57    0.98
   7  -6 -12   45.26    2.57
  -7   6  12   39.75    2.34
  -7   6  12   43.82    3.09
   6  -6 -12    2.68    0.90
  -6   6  12    3.99    1.27
   5  -6 -12    0.45    0.69
  -5   6  12    0.15    0.79
   4  -6 -12   11.49    1.57
  -4   6  12   12.89    2.08
   3  -6 -12    5.20    1.24
   3  -6 -12    5.50    1.18
  -3   6  12    4.82    1.42
   2  -6 -12    0.09    0.75
   2  -6 -12   -0.05    0.68
  -2   6  12    1.04    1.04
   1  -6 -12    0.45    0.77
   1  -6 -12    0.54    0.97
  -1   6  12    0.83    1.14
  11  -7 -12    2.22    1.58
  11  -7 -12    2.30    1.05
 -11   7  12    1.56    0.99
  10  -7 -12   -0.04    1.31
  10  -7 -12   -0.34    0.73
 -10   7  12    0.15    0.94
 -10   7  12   -0.23    0.78
   9  -7 -12    0.12    0.65
  -9   7  12    0.24    0.71
  -9   7  12    0.40    1.09
   8  -7 -12   27.54    2.08
   8  -7 -12   25.42    2.03
  -8   7  12   31.53    2.60
  -8   7  12   28.61    2.01
   7  -7 -12   24.20    2.00
  -7   7  12   31.57    2.54
  -7   7  12   26.04    3.19
   6  -7 -12    0.45    0.76
  -6   7  12   -0.29    0.74
   5  -7 -12    2.49    0.94
  -5   7  12    1.93    1.09
   4  -7 -12   66.88    3.54
   4  -7 -12   73.86    3.60
  -4   7  12   80.32    4.24
   3  -7 -12   13.37    1.90
   3  -7 -12   11.78    1.65
  -3   7  12    8.68    1.80
   2  -7 -12    0.97    0.86
  -2   7  12   -0.10    1.15
  10  -8 -12    3.60    1.10
  10  -8 -12    2.31    1.56
 -10   8  12    2.80    1.05
   9  -8 -12    0.23    0.82
   9  -8 -12    0.40    0.87
  -9   8  12    0.40    0.77
   8  -8 -12    1.19    0.90
  -8   8  12    0.92    0.77
   7  -8 -12    0.81    0.86
   6  -8 -12    0.41    0.78
   5  -8 -12    2.20    0.95
   4  -8 -12    4.06    1.23
   3  -8 -12    6.29    1.42
   7  -9 -12    4.53    1.30
   6  -9 -12    0.23    0.79
   5   8 -13    5.54    1.29
   4   8 -13   15.56    1.89
   3   8 -13    0.38    0.67
   2   8 -13   -0.36    0.63
   1   8 -13    4.23    1.13
   0   8 -13    3.88    1.01
   6   7 -13    5.20    1.18
   5   7 -13    3.74    1.02
   4   7 -13    0.79    0.72
   3   7 -13   55.23    2.79
   2   7 -13   13.15    1.57
   1   7 -13    7.25    1.23
   0   7 -13    8.80    1.33
   0   7 -13    5.84    0.99
  -1   7 -13   20.87    1.47
   7   6 -13    0.85    0.71
   6   6 -13    1.79    0.82
   5   6 -13    5.86    1.11
  -5  -6  13    4.01    1.79
   4   6 -13   15.63    1.69
  -4  -6  13   17.34    2.95
   3   6 -13   25.03    1.72
  -3  -6  13   24.78    3.46
   2   6 -13    5.04    0.97
  -2  -6  13    6.46    1.88
   1   6 -13    2.37    0.77
   1   6 -13    2.07    0.69
  -1  -6  13    1.29    1.24
   0   6 -13   52.23    2.37
   0   6 -13   53.43    2.48
   0  -6  13   46.36    3.65
  -1   6 -13   22.59    1.43
   1  -6  13   22.02    3.03
  -2   6 -13    8.20    1.01
   2  -6  13    8.44    2.17
   8   5 -13    0.99    0.75
  -8  -5  13    0.64    0.85
   7   5 -13    0.71    0.67
   6   5 -13   20.07    1.62
   5   5 -13    2.58    0.79
  -5  -5  13    2.34    1.64
   4   5 -13   -0.10    0.47
  -4  -5  13    0.75    1.35
   3   5 -13    0.60    0.62
  -3  -5  13    0.06    1.24
   2   5 -13    0.48    0.61
   2   5 -13    0.47    0.47
  -2  -5  13    0.06    1.22
   1   5 -13    0.43    0.47
   1   5 -13   -0.06    0.49
  -1  -5  13    0.38    1.14
   0   5 -13   -0.14    0.47
   0   5 -13    0.16    0.39
   0  -5  13    0.22    1.24
  -1   5 -13    1.75    0.54
   1  -5  13    2.41    1.56
  -2   5 -13    5.05    0.73
   2  -5  13    6.63    2.10
   9   4 -13   10.95    2.07
   9   4 -13    8.82    1.47
  -9  -4  13    7.85    1.42
   8   4 -13    0.02    0.82
   8   4 -13   -0.26    0.58
  -8  -4  13    0.55    0.67
   7   4 -13   26.39    1.85
   7   4 -13   24.88    2.25
   6   4 -13   71.07    3.21
   6   4 -13   70.86    3.79
   5   4 -13    0.54    0.90
   5   4 -13    0.22    0.50
  -5  -4  13    0.35    1.28
   4   4 -13    4.92    0.95
  -4  -4  13    4.41    1.95
   3   4 -13   25.47    1.60
  -3  -4  13   26.50    3.84
   2   4 -13   15.19    1.45
   2   4 -13   10.21    1.16
  -2  -4  13   13.38    2.89
   1   4 -13    2.15    0.71
   1   4 -13    0.92    0.49
  -1  -4  13    2.48    1.54
   0   4 -13    1.22    0.60
   0   4 -13    0.33    0.37
   0  -4  13    0.46    1.33
  -1   4 -13    2.73    0.60
   1  -4  13    1.92    1.44
  -2   4 -13    0.74    0.48
   2  -4  13    1.03    1.31
  -3   4 -13    3.57    0.63
   3  -4  13    5.31    1.99
  10   3 -13    0.16    0.72
  10   3 -13   -0.07    1.03
 -10  -3  13   -0.45    0.68
   9   3 -13    1.02    0.81
   9   3 -13    0.88    0.90
  -9  -3  13   -0.30    0.61
   8   3 -13    1.20    1.01
   8   3 -13    0.48    0.65
  -8  -3  13    1.08    0.78
   7   3 -13    2.78    1.08
   7   3 -13    1.96    0.80
   6   3 -13   -0.12    0.91
   6   3 -13    0.18    0.56
   5   3 -13   15.07    1.61
  -5  -3  13   13.60    1.56
   4   3 -13    3.31    0.80
  -4  -3  13    1.40    1.50
  -4  -3  13    2.55    0.85
   3   3 -13   10.57    1.17
   3   3 -13   12.80    1.32
  -3  -3  13   11.36    2.44
  -3  -3  13   14.09    2.81
   2   3 -13   13.87    1.12
   2   3 -13   13.82    1.13
  -2  -3  13   17.64    3.27
   1   3 -13   71.79    2.97
   1   3 -13   83.69    3.04
  -1  -3  13   66.76    4.95
   0   3 -13    0.97    0.50
   0  -3  13    0.21    1.28
  -1   3 -13    1.23    0.49
   1  -3  13    3.35    1.83
  -2   3 -13   13.09    1.01
   2  -3  13   12.45    2.72
  -3   3 -13    9.89    0.94
   3  -3  13    8.58    2.33
  10   2 -13    3.98    1.43
  10   2 -13    5.74    1.25
 -10  -2  13    5.35    1.21
   9   2 -13   11.32    1.52
   9   2 -13   11.53    2.14
  -9  -2  13   12.70    1.58
   8   2 -13    0.78    0.96
   8   2 -13   -0.32    0.59
  -8  -2  13    0.61    0.70
   7   2 -13   -0.23    0.80
   7   2 -13    0.49    0.51
  -7  -2  13    0.18    0.70
   6   2 -13    3.98    0.91
   5   2 -13    1.96    0.67
  -5  -2  13    3.00    1.78
  -5  -2  13    1.79    0.76
   4   2 -13    3.88    0.81
  -4  -2  13    4.50    0.96
  -4  -2  13    4.65    2.08
   3   2 -13   12.78    1.31
   3   2 -13   11.44    1.23
  -3  -2  13   10.06    1.33
  -3  -2  13   10.48    2.73
   2   2 -13   33.58    1.80
   2   2 -13   35.67    1.80
  -2  -2  13   39.71    4.76
   1   2 -13   22.59    1.43
   1   2 -13   22.99    1.38
  -1  -2  13   20.21    3.43
   0   2 -13   -0.01    0.40
   0  -2  13    1.54    1.39
  -1   2 -13    7.19    0.91
   1  -2  13    6.23    2.15
  -2   2 -13   57.11    2.37
   2  -2  13   57.22    4.66
  -3   2 -13    4.07    0.75
   3  -2  13    5.11    2.21
  11   1 -13    5.56    1.20
  11   1 -13    7.41    1.88
 -11  -1  13    3.89    1.12
  10   1 -13    7.94    1.38
  10   1 -13    6.58    1.74
 -10  -1  13    9.94    1.47
   9   1 -13    0.78    1.10
   9   1 -13    1.31    0.73
  -9  -1  13    0.20    0.65
   8   1 -13   53.90    2.73
   8   1 -13   52.62    3.59
  -8  -1  13   58.35    2.79
   7   1 -13   17.82    1.49
   7   1 -13   22.87    2.86
  -7  -1  13   22.63    1.66
   6   1 -13    1.22    0.66
   5   1 -13    5.89    0.97
  -5  -1  13    9.77    2.44
   4   1 -13   20.76    1.42
  -4  -1  13   20.86    1.52
  -4  -1  13   26.17    3.81
   3   1 -13   -0.21    0.43
   3   1 -13    0.56    0.50
  -3  -1  13    0.39    0.55
  -3  -1  13   -0.09    1.11
   2   1 -13    0.02    0.44
   2   1 -13   -0.25    0.42
  -2  -1  13    0.38    0.45
  -2  -1  13    0.73    1.23
   1   1 -13    0.81    0.55
   1   1 -13   -0.15    0.51
  -1  -1  13    0.57    1.29
   0   1 -13   -0.05    0.45
   0  -1  13    0.41    1.32
   1  -1  13    1.93    1.60
   2  -1  13    1.33    1.53
  11   0 -13   -0.31    0.68
  11   0 -13    1.02    1.12
 -11   0  13   -0.35    0.65
  10   0 -13    0.44    1.06
  10   0 -13    1.40    0.83
 -10   0  13    0.37    0.66
   9   0 -13    9.92    1.35
   9   0 -13    9.06    1.97
  -9   0  13   13.50    1.59
   8   0 -13   42.71    3.34
   8   0 -13   51.13    2.59
  -8   0  13   48.92    2.49
   7   0 -13    1.84    0.68
  -7   0  13    3.67    0.94
   6   0 -13   -0.26    0.52
   5   0 -13   85.86    3.43
  -5   0  13   79.45    5.19
   4   0 -13   63.20    2.78
  -4   0  13   66.54    4.63
   3   0 -13    4.27    0.82
   3   0 -13    3.26    0.77
  -3   0  13    4.41    1.89
  -3   0  13    2.89    0.77
   2   0 -13    0.56    0.51
   2   0 -13   -0.59    0.42
  -2   0  13   -0.03    0.53
  -2   0  13   -0.77    0.83
   1   0 -13   23.23    1.58
   1   0 -13   23.90    1.46
  -1   0  13   21.93    3.41
   0   0  13    2.70    1.65
   1   0  13    0.11    1.25
   2   0  13    1.28    1.47
  11  -1 -13    6.66    1.32
  11  -1 -13    6.90    1.93
 -11   1  13    6.95    1.32
  10  -1 -13    1.36    0.75
  10  -1 -13    0.11    0.99
 -10   1  13   -0.09    0.73
   9  -1 -13   -0.56    0.52
   9  -1 -13    0.39    1.03
  -9   1  13    0.48    0.64
   8  -1 -13    0.64    0.59
  -8   1  13    0.21    0.61
   7  -1 -13    0.57    0.60
  -7   1  13    0.06    0.57
   6  -1 -13    0.74    0.60
  -6   1  13    1.33    1.21
   5  -1 -13    7.55    1.12
  -5   1  13    6.12    1.85
   4  -1 -13    0.61    0.60
  -4   1  13    1.21    1.16
   3  -1 -13   19.71    1.39
   3  -1 -13   18.78    1.44
  -3   1  13   21.75    3.11
   2  -1 -13    0.93    0.53
  -2   1  13    0.42    0.91
   1  -1 -13    6.31    0.97
  -1   1  13    6.74    1.96
   0  -1 -13   33.04    2.15
   0   1  13   26.59    3.52
   1   1  13   43.50    3.87
  -2  -1 -13    1.37    0.65
   2   1  13    0.78    1.32
  11  -2 -13   52.31    2.89
  11  -2 -13   50.06    4.09
 -11   2  13   51.91    2.82
  10  -2 -13    1.15    1.22
  10  -2 -13    1.31    0.80
 -10   2  13    1.59    0.78
   9  -2 -13   -0.15    0.54
   9  -2 -13    0.07    1.12
  -9   2  13   -0.02    0.59
   8  -2 -13   19.66    1.55
  -8   2  13   12.41    1.45
   7  -2 -13    7.61    1.18
  -7   2  13    7.85    1.39
   6  -2 -13   -0.11    0.58
  -6   2  13    0.23    0.98
   5  -2 -13    1.80    0.74
  -5   2  13    0.33    0.92
   4  -2 -13    2.41    0.77
  -4   2  13    1.53    1.26
   3  -2 -13    0.32    0.56
   3  -2 -13    1.50    0.66
   3  -2 -13    1.34    0.63
  -3   2  13    0.86    0.91
   2  -2 -13    2.02    0.71
   2  -2 -13    2.11    0.69
  -2   2  13    0.62    0.94
   1  -2 -13   11.69    1.32
  -1   2  13    8.50    2.08
   0  -2 -13   33.93    2.05
   0  -2 -13   30.97    1.82
   0   2  13   26.85    3.51
  -1  -2 -13    5.82    1.04
   1   2  13    5.85    1.96
  11  -3 -13    2.54    1.01
  11  -3 -13    1.36    1.27
 -11   3  13    2.10    0.91
  10  -3 -13   11.67    1.57
  10  -3 -13    7.77    2.01
 -10   3  13   11.17    1.49
   9  -3 -13    4.72    1.78
   9  -3 -13    1.87    0.81
  -9   3  13    3.11    0.91
   8  -3 -13   19.59    1.61
  -8   3  13   20.02    1.56
   7  -3 -13    4.14    1.03
  -7   3  13    2.52    1.39
   6  -3 -13   57.20    2.79
  -6   3  13   59.50    3.99
   5  -3 -13    4.80    0.96
   5  -3 -13    2.98    0.83
  -5   3  13    2.60    1.32
   4  -3 -13    0.01    0.53
   4  -3 -13    0.23    0.58
  -4   3  13    0.44    1.05
   3  -3 -13   13.90    1.54
  -3   3  13    8.64    1.97
   2  -3 -13    9.45    1.32
  -2   3  13    7.42    1.92
   1  -3 -13   -0.03    0.59
  -1   3  13    0.14    1.14
   0  -3 -13    0.43    0.67
   0  -3 -13    0.61    0.70
   0   3  13    0.98    1.19
  -1  -3 -13    1.30    0.83
   1   3  13    1.08    1.18
  11  -4 -13    0.68    0.87
  11  -4 -13    1.65    1.44
 -11   4  13    0.92    0.78
  10  -4 -13    0.81    0.82
  10  -4 -13    3.21    1.63
 -10   4  13    0.62    0.73
   9  -4 -13    0.13    0.61
  -9   4  13    0.41    0.62
   8  -4 -13    1.38    0.85
  -8   4  13    1.48    0.75
  -8   4  13    0.86    1.06
   7  -4 -13   35.10    2.15
  -7   4  13   36.02    3.05
   6  -4 -13   32.23    2.09
   6  -4 -13   32.32    2.08
  -6   4  13   33.85    2.94
   5  -4 -13    0.29    0.57
  -5   4  13    0.16    1.03
   4  -4 -13    5.80    1.08
  -4   4  13    2.78    1.20
   3  -4 -13   78.94    3.47
  -3   4  13   78.55    4.71
   2  -4 -13   20.42    1.63
  -2   4  13   16.06    2.61
   1  -4 -13    1.81    0.84
   1  -4 -13    2.43    1.56
  -1   4  13    1.80    1.29
   0  -4 -13    2.67    0.99
   0  -4 -13    4.48    1.04
   0   4  13    3.73    1.62
  11  -5 -13   -0.40    0.71
  11  -5 -13    0.20    1.28
 -11   5  13    0.68    0.72
  10  -5 -13    3.43    1.05
  10  -5 -13    2.93    1.58
 -10   5  13    5.13    1.16
   9  -5 -13    4.26    1.10
  -9   5  13    3.31    1.39
  -9   5  13    6.92    1.27
   8  -5 -13    0.51    0.65
  -8   5  13    0.17    0.98
  -8   5  13    0.15    0.63
   7  -5 -13    0.54    0.69
   7  -5 -13    0.53    0.64
  -7   5  13    0.85    1.04
   6  -5 -13   -0.01    0.64
  -6   5  13    0.76    0.96
   5  -5 -13   -0.08    0.59
  -5   5  13    0.76    0.87
   4  -5 -13    2.67    0.88
  -4   5  13    2.28    1.26
   3  -5 -13    3.59    1.01
  -3   5  13    4.51    1.56
   2  -5 -13    5.67    1.16
  -2   5  13    7.02    1.84
   1  -5 -13    6.06    1.17
  -1   5  13    8.60    2.09
  10  -6 -13   40.97    2.55
  10  -6 -13   31.85    4.24
 -10   6  13   36.85    2.35
 -10   6  13   31.74    3.02
   9  -6 -13   43.75    2.62
  -9   6  13   41.50    2.48
  -9   6  13   39.66    3.23
   8  -6 -13    0.67    0.72
   8  -6 -13    0.51    0.66
  -8   6  13   -1.20    1.09
  -8   6  13   -0.39    0.93
   7  -6 -13    0.56    0.70
   7  -6 -13    1.58    0.77
  -7   6  13    0.58    1.03
   6  -6 -13   10.52    1.54
  -6   6  13   13.87    2.27
   5  -6 -13    0.50    0.81
  -5   6  13    0.69    0.98
   4  -6 -13   -0.06    0.66
  -4   6  13    0.22    0.99
   3  -6 -13    1.65    0.93
  -3   6  13    1.34    1.15
   2  -6 -13    1.63    0.87
  -2   6  13    2.95    1.34
 -10   7  13    5.93    2.75
   9  -7 -13    0.21    0.76
  -9   7  13   -0.13    1.07
  -9   7  13   -1.08    0.76
   8  -7 -13   11.73    1.66
   8  -7 -13   12.65    1.69
  -8   7  13   12.02    2.00
   7  -7 -13    0.35    0.76
  -7   7  13    0.77    1.09
   6  -7 -13   10.15    1.67
   5  -7 -13   12.32    1.86
  -5   7  13    8.31    1.78
   4  -7 -13   25.01    2.02
  -4   7  13   17.98    2.44
   7  -8 -13   -0.14    0.86
   5   7 -14   48.73    2.77
   4   7 -14    0.25    0.72
   3   7 -14    4.28    1.05
   2   7 -14   20.12    1.66
   1   7 -14   12.97    1.67
   6   6 -14    1.94    0.87
  -6  -6  14    0.95    1.57
   5   6 -14    0.19    0.63
  -5  -6  14    0.53    1.45
   4   6 -14    5.16    1.14
  -4  -6  14    8.89    2.43
   3   6 -14    2.85    0.89
  -3  -6  14    0.80    1.36
   2   6 -14    5.29    1.05
  -2  -6  14    3.57    1.69
   1   6 -14    4.48    0.96
   1   6 -14    7.14    1.19
  -1  -6  14    6.88    1.99
   0   6 -14   48.31    2.39
   0  -6  14   52.33    4.00
   7   5 -14   -0.08    0.66
   6   5 -14    0.27    0.63
  -6  -5  14    1.60    1.63
   5   5 -14    3.98    1.02
  -5  -5  14    3.81    1.89
   4   5 -14    2.19    0.75
  -4  -5  14    1.20    1.47
   3   5 -14    4.12    0.94
  -3  -5  14    4.14    1.83
   2   5 -14   10.31    1.30
   2   5 -14    7.17    1.54
  -2  -5  14    5.23    1.88
   1   5 -14   19.22    1.42
   1   5 -14   24.94    1.58
  -1  -5  14   14.95    2.90
   0   5 -14   12.02    1.24
   0  -5  14   12.41    2.67
  -1   5 -14    1.25    0.55
   1  -5  14    0.54    1.30
   8   4 -14    0.31    0.66
   7   4 -14   41.79    2.45
   6   4 -14   15.28    1.67
  -6  -4  14   10.83    2.85
   5   4 -14    3.39    0.85
  -5  -4  14    2.64    1.90
   4   4 -14    3.10    0.88
  -4  -4  14    5.14    2.17
   3   4 -14   19.70    1.47
  -3  -4  14   19.59    3.51
   2   4 -14   -0.04    0.57
   2   4 -14   -0.15    0.46
  -2  -4  14   -0.06    1.11
   1   4 -14   -0.02    0.53
   1   4 -14    0.26    0.48
  -1  -4  14    0.88    1.31
   0   4 -14    0.11    0.43
   0  -4  14   -0.80    1.24
  -1   4 -14    0.00    0.42
   1  -4  14   -0.57    1.33
   9   3 -14    1.18    1.10
   9   3 -14    1.80    0.87
  -9  -3  14    2.01    1.04
   8   3 -14    8.85    1.85
   8   3 -14    9.51    1.46
   7   3 -14   30.43    2.05
   7   3 -14   35.73    2.77
   6   3 -14    3.55    0.95
   6   3 -14    6.37    1.69
  -6  -3  14    4.54    2.16
   5   3 -14   -0.11    0.54
  -5  -3  14   -0.01    1.49
   4   3 -14   54.41    2.62
  -4  -3  14   55.95    4.79
   3   3 -14   54.80    2.55
  -3  -3  14   56.25    4.71
   2   3 -14    3.39    0.81
   2   3 -14    3.26    0.74
  -2  -3  14    3.80    1.84
   1   3 -14    0.32    0.53
   1   3 -14    0.33    0.49
  -1  -3  14    0.84    1.49
   0   3 -14   20.63    1.40
   0  -3  14   21.12    3.57
  -1   3 -14    2.05    0.64
   1  -3  14    2.87    1.79
  10   2 -14    4.86    1.57
  10   2 -14    8.07    1.50
 -10  -2  14    7.49    1.36
   9   2 -14    1.23    1.15
   9   2 -14   -0.24    0.57
  -9  -2  14    0.95    0.75
   8   2 -14   -1.01    0.76
   8   2 -14   -0.86    0.54
   7   2 -14    0.22    0.56
   7   2 -14    0.41    1.09
   6   2 -14   -0.24    0.48
  -6  -2  14   -0.96    1.18
   5   2 -14    2.02    0.75
  -5  -2  14    1.64    1.57
   4   2 -14    2.76    0.75
  -4  -2  14    0.79    1.51
   3   2 -14    0.21    0.48
   3   2 -14    0.56    0.52
  -3  -2  14    1.51    1.67
   2   2 -14   10.49    1.25
   2   2 -14    9.86    1.15
  -2  -2  14   10.87    2.72
   1   2 -14    0.00    0.48
   1   2 -14    0.31    0.46
  -1  -2  14    0.06    1.54
   0   2 -14    2.64    0.70
   0  -2  14    1.33    1.67
  -1   2 -14   20.48    1.36
   1  -2  14   18.10    3.47
  10   1 -14   50.03    2.90
  10   1 -14   56.46    4.02
 -10  -1  14   57.12    2.99
   9   1 -14    1.28    1.06
   9   1 -14    1.73    0.87
  -9  -1  14    1.82    0.94
   8   1 -14    1.40    1.08
   8   1 -14    0.35    0.64
   7   1 -14   13.44    1.54
   6   1 -14    9.15    1.31
  -6  -1  14   11.73    2.85
   5   1 -14   -0.09    0.47
  -5  -1  14   -1.44    1.04
   4   1 -14    1.51    0.72
  -4  -1  14    1.08    1.47
   3   1 -14    4.75    0.93
   3   1 -14    3.70    0.81
  -3  -1  14    1.80    1.65
   2   1 -14    1.48    0.68
   2   1 -14    0.37    0.54
  -2  -1  14    3.46    1.84
   1   1 -14    3.53    0.75
   1   1 -14    4.47    0.89
  -1  -1  14    2.25    1.63
   0   1 -14    8.62    1.12
   0  -1  14   13.81    3.01
  -1   1 -14   18.94    1.40
   1  -1  14   22.15    3.70
  10   0 -14    3.02    1.50
  10   0 -14    2.58    0.95
 -10   0  14    1.07    0.87
   9   0 -14    5.33    1.12
  -9   0  14    6.87    1.27
   8   0 -14    3.30    1.37
   8   0 -14    2.46    0.84
   7   0 -14   14.63    1.62
   6   0 -14    2.48    0.74
  -6   0  14    2.45    1.69
   5   0 -14   58.80    2.72
  -5   0  14   53.10    4.34
   4   0 -14    3.98    0.88
  -4   0  14    2.48    1.45
   3   0 -14    0.49    0.52
   3   0 -14    2.21    0.77
  -3   0  14    1.64    1.26
   2   0 -14   10.87    1.28
   2   0 -14   12.99    1.41
  -2   0  14    8.20    2.32
   1   0 -14   12.20    1.32
   1   0 -14   10.22    1.22
  -1   0  14    7.65    2.32
   0   0 -14   -0.73    0.51
   0   0  14    0.97    1.55
   1   0  14   -0.02    1.41
  10  -1 -14    1.72    1.24
  10  -1 -14    2.03    0.88
 -10   1  14    1.55    0.90
   9  -1 -14    1.64    0.85
   9  -1 -14    1.26    1.16
  -9   1  14    1.34    0.91
   8  -1 -14    0.80    0.65
   7  -1 -14    4.00    0.98
  -7   1  14    2.30    1.57
   6  -1 -14   28.85    1.86
  -6   1  14   25.46    3.50
   5  -1 -14   28.32    1.80
  -5   1  14   24.64    3.45
   4  -1 -14   -0.46    0.53
  -4   1  14   -0.36    1.25
   3  -1 -14    3.24    0.97
   3  -1 -14    4.85    0.97
  -3   1  14    3.79    1.74
   2  -1 -14   80.36    3.20
   2  -1 -14   73.85    3.26
  -2   1  14   67.79    4.93
   1  -1 -14   20.16    1.48
  -1   1  14   18.50    3.15
   0   1  14    2.43    1.67
  11  -2 -14    7.43    1.38
 -11   2  14    8.26    1.42
  10  -2 -14    0.20    0.71
  10  -2 -14    0.93    1.29
 -10   2  14    0.74    0.82
   9  -2 -14    3.48    1.74
   9  -2 -14    2.20    0.90
  -9   2  14    2.24    0.85
   8  -2 -14    8.92    1.45
   7  -2 -14    0.06    0.58
  -7   2  14    1.53    1.36
   6  -2 -14   -0.44    0.53
  -6   2  14    1.05    1.14
   5  -2 -14   -0.36    0.61
  -5   2  14    0.47    1.00
   4  -2 -14    0.83    0.71
  -4   2  14    0.68    1.16
   3  -2 -14    3.91    0.94
  -3   2  14    1.44    1.16
   2  -2 -14    2.99    0.83
  -2   2  14    1.08    1.28
   1  -2 -14    2.88    0.83
  -1   2  14    3.75    1.84
   0   2  14    5.47    1.91
  10  -3 -14   -0.12    0.70
  10  -3 -14    0.67    1.24
 -10   3  14   -0.07    0.72
   9  -3 -14   43.96    3.69
   9  -3 -14   40.47    2.50
  -9   3  14   40.19    2.38
   8  -3 -14   46.22    2.61
  -8   3  14   45.07    3.74
   7  -3 -14   -0.26    0.67
  -7   3  14    0.31    1.22
   6  -3 -14    1.27    0.79
  -6   3  14    0.73    1.09
   5  -3 -14   14.95    1.68
  -5   3  14   14.56    2.52
   4  -3 -14    3.53    0.94
   4  -3 -14    2.38    0.80
  -4   3  14    1.43    1.08
   3  -3 -14   -0.02    0.58
   3  -3 -14   -0.09    0.57
  -3   3  14   -0.12    0.98
   2  -3 -14    1.80    0.76
  -2   3  14    2.54    1.43
   1  -3 -14    2.45    0.86
  -1   3  14    1.77    1.32
  10  -4 -14   -0.59    0.71
  10  -4 -14    0.38    1.25
 -10   4  14    0.03    0.76
   9  -4 -14    7.01    1.27
  -9   4  14    7.38    1.87
  -9   4  14    9.65    1.63
   8  -4 -14    0.23    0.75
  -8   4  14    0.16    1.15
   7  -4 -14   13.52    1.69
  -7   4  14   12.07    2.30
   6  -4 -14    0.20    0.65
  -6   4  14   -0.27    0.99
   5  -4 -14   10.51    1.48
   5  -4 -14    9.54    1.41
  -5   4  14   12.56    2.34
   4  -4 -14   12.39    1.59
  -4   4  14   12.00    2.31
   3  -4 -14   32.95    2.07
  -3   4  14   23.92    3.20
   2  -4 -14   -0.10    0.64
  -2   4  14   -0.87    1.07
  10  -5 -14    1.11    1.91
  10  -5 -14   -0.16    0.74
 -10   5  14   -0.22    0.71
 -10   5  14   -0.08    1.03
   9  -5 -14   -0.28    0.76
  -9   5  14   -0.12    1.15
   8  -5 -14    2.34    0.96
  -8   5  14    0.28    1.10
   7  -5 -14    0.13    0.68
  -7   5  14    0.50    1.08
   6  -5 -14   -0.20    0.69
   6  -5 -14   -0.07    0.71
  -6   5  14    1.40    1.27
   5  -5 -14    3.73    1.06
  -5   5  14    2.34    1.18
   4  -5 -14   35.88    2.31
  -4   5  14   31.91    3.01
   3  -5 -14   13.89    1.76
  -3   5  14    8.75    2.07
   9  -6 -14    3.42    1.16
  -9   6  14    1.97    1.45
   8  -6 -14    1.05    0.85
  -8   6  14   -0.81    0.98
   7  -6 -14    3.51    1.05
   7  -6 -14    5.10    1.25
  -7   6  14    4.41    1.51
   6  -6 -14    2.61    1.07
  -6   6  14    3.77    1.40
   5  -6 -14    0.07    0.84
  -5   6  14    0.27    1.04
   4  -6 -14    0.54    0.84
  -4   6  14    0.48    1.12
   6   5 -15    0.00    0.69
  -6  -5  15   -0.19    1.48
   5   5 -15    0.43    0.63
  -5  -5  15    1.34    1.74
   4   5 -15    1.43    0.73
  -4  -5  15    2.15    1.65
   3   5 -15    0.74    0.67
  -3  -5  15    2.28    1.90
   2   5 -15    1.37    0.73
  -2  -5  15   -0.92    1.22
   7   4 -15    1.74    0.85
  -7  -4  15    2.49    1.95
   6   4 -15   11.58    1.58
  -6  -4  15   12.51    3.24
   5   4 -15    9.05    1.34
  -5  -4  15   10.40    3.11
   4   4 -15   -0.28    0.59
  -4  -4  15    0.42    1.44
   3   4 -15    0.02    0.55
  -3  -4  15    1.28    1.76
   2   4 -15    3.12    0.85
   2   4 -15    1.82    1.20
  -2  -4  15    1.97    1.71
   1   4 -15    0.84    0.59
  -1  -4  15    0.73    1.62
   8   3 -15    2.29    1.34
   8   3 -15    2.97    0.98
   7   3 -15    2.47    0.94
   7   3 -15    0.57    1.03
  -7  -3  15    0.28    1.49
   6   3 -15    9.33    1.39
   6   3 -15   12.47    2.04
  -6  -3  15   12.66    3.19
   5   3 -15    0.57    0.68
  -5  -3  15    2.08    1.84
   4   3 -15   47.81    2.51
  -4  -3  15   48.99    4.61
   3   3 -15    2.29    0.80
  -3  -3  15    6.97    2.76
   2   3 -15    2.56    0.89
   2   3 -15    2.10    0.70
  -2  -3  15    3.75    2.02
   1   3 -15    7.33    1.04
  -1  -3  15    5.92    2.16
   8   2 -15    0.96    0.75
   8   2 -15    2.20    1.17
   7   2 -15    0.67    1.19
   7   2 -15    1.57    0.81
  -7  -2  15    2.13    1.81
   6   2 -15    5.61    1.12
  -6  -2  15    3.45    2.31
   5   2 -15   19.74    1.54
  -5  -2  15   20.00    3.70
   4   2 -15   23.31    1.64
  -4  -2  15   20.15    3.76
   3   2 -15    0.16    0.54
  -3  -2  15    0.58    1.30
   2   2 -15    3.99    0.90
   2   2 -15    4.02    0.87
  -2  -2  15    1.82    1.79
   1   2 -15   54.67    2.55
  -1  -2  15   51.76    4.77
   9   1 -15    0.97    1.25
   9   1 -15    0.18    0.73
   8   1 -15    2.18    1.34
   8   1 -15    0.75    0.71
   7   1 -15    7.11    1.25
  -7  -1  15    8.63    2.57
   6   1 -15   -0.14    0.54
  -6  -1  15    2.02    1.60
   5   1 -15   -0.21    0.55
  -5  -1  15   -0.06    1.49
   4   1 -15    0.12    0.53
  -4  -1  15    0.54    1.63
   3   1 -15    0.59    0.63
  -3  -1  15    2.01    1.67
   2   1 -15    1.15    0.65
   2   1 -15    2.22    0.75
  -2  -1  15    0.70    1.62
   1   1 -15    0.10    0.55
  -1  -1  15    1.04    1.59
   9   0 -15    0.12    1.00
   9   0 -15   -0.32    0.59
   8   0 -15   35.69    2.30
   8   0 -15   40.61    3.36
   7   0 -15   51.20    2.72
  -7   0  15   49.36    4.41
   6   0 -15   -0.10    0.55
  -6   0  15   -0.61    1.31
   5   0 -15    0.87    0.68
  -5   0  15   -0.15    1.29
   4   0 -15   17.01    1.74
  -4   0  15   19.29    3.47
   3   0 -15    4.06    0.98
  -3   0  15    5.42    2.00
   2   0 -15    0.11    0.59
   2   0 -15   -0.39    0.62
  -2   0  15   -1.00    1.23
   1   0 -15    1.61    0.75
  -1   0  15    1.47    1.76
   9  -1 -15    0.56    1.26
   9  -1 -15    0.87    0.81
   8  -1 -15    7.61    1.32
  -8   1  15    5.66    1.99
   7  -1 -15    0.72    0.69
  -7   1  15    0.20    1.35
   6  -1 -15   10.56    1.49
  -6   1  15    7.71    2.21
   5  -1 -15   -0.10    0.53
  -5   1  15   -0.35    1.06
   4  -1 -15   10.98    1.42
  -4   1  15    6.34    1.84
   3  -1 -15   12.25    1.46
  -3   1  15   10.44    2.62
   2  -1 -15   31.76    2.11
   2  -1 -15   35.46    1.99
  -2   1  15   26.33    3.84
   9  -2 -15   -0.49    0.57
   9  -2 -15   -0.19    1.24
   8  -2 -15    1.48    0.84
  -8   2  15    1.38    1.51
   7  -2 -15    1.87    0.76
  -7   2  15    3.49    1.74
   6  -2 -15    0.59    0.66
  -6   2  15    0.81    1.24
   5  -2 -15    0.46    0.66
  -5   2  15    0.40    1.10
   4  -2 -15    6.25    1.24
  -4   2  15    3.50    1.50
   3  -2 -15   30.37    1.94
  -3   2  15   20.41    3.33
   2  -2 -15   12.59    1.45
  -2   2  15   10.38    2.46
   9  -3 -15   19.50    2.15
  -9   3  15   18.87    3.19
   8  -3 -15    2.79    0.97
  -8   3  15    1.88    1.48
   7  -3 -15    0.48    0.70
  -7   3  15   -0.10    1.07
   6  -3 -15    5.92    1.31
  -6   3  15    8.33    2.20
   5  -3 -15    5.30    1.16
  -5   3  15    3.81    1.56
   4  -3 -15   -0.28    0.61
  -4   3  15   -0.34    1.18
   3  -3 -15   -0.10    0.59
  -3   3  15    0.87    1.21
  -9   4  15   17.49    2.77
   8  -4 -15    0.03    0.64
  -8   4  15    0.18    1.22
   7  -4 -15    2.34    1.02
  -7   4  15    1.07    1.29
   6  -4 -15   56.42    2.99
  -6   4  15   55.42    4.05
   5  -4 -15   22.82    1.81
  -5   4  15   15.98    2.65
   4  -4 -15    0.78    0.74
   4  -4 -15    0.28    0.74
  -4   4  15   -0.01    1.14
   7  -5 -15    1.98    0.91
  -7   5  15    1.02    1.25
   5   3 -16   -0.19    0.64
  -5  -3  16    0.87    1.82
   4   3 -16    0.18    0.72
  -4  -3  16   -0.77    1.76
   6   2 -16    0.56    0.68
  -6  -2  16   -0.68    1.44
   5   2 -16    5.62    1.14
  -5  -2  16    2.20    1.88
   4   2 -16   -0.16    0.63
  -4  -2  16   -0.37    1.68
   3   2 -16    7.26    1.21
  -3  -2  16    6.07    2.48
   7   1 -16    0.69    0.73
  -7  -1  16    0.65    1.60
   6   1 -16    2.28    0.88
  -6  -1  16    5.49    2.23
   5   1 -16    1.28    0.77
  -5  -1  16    2.89    1.92
   4   1 -16    0.65    0.73
  -4  -1  16    2.22    1.59
   3   1 -16    7.42    1.24
  -3  -1  16    4.38    2.09
   7   0 -16    2.48    0.98
  -7   0  16    4.13    2.13
   6   0 -16    0.37    0.66
  -6   0  16    2.61    1.42
   5   0 -16    2.09    0.81
  -5   0  16    1.79    1.62
   4   0 -16    7.38    1.26
  -4   0  16    3.24    1.73
   7  -1 -16    0.59    0.81
  -7   1  16   -0.05    1.29
   6  -1 -16    0.27    0.74
  -6   1  16    0.52    1.32
   5  -1 -16   49.55    2.69
  -5   1  16   49.57    4.31
   4  -1 -16   26.36    1.86
  -4   1  16   18.81    3.50
   7  -2 -16   -0.29    0.74
  -7   2  16    0.43    1.19
   6  -2 -16    1.92    0.91
  -6   2  16    2.42    1.70
   0   0   0    0.00    0.00
;
_shelx_hkl_checksum              55566
loop_
_space_group_symop_operation_xyz
'x, y, z'
'-x, -y, -z'
loop_
_atom_site_label
_atom_site_type_symbol
_atom_site_fract_x
_atom_site_fract_y
_atom_site_fract_z
_atom_site_U_iso_or_equiv
_atom_site_adp_type
_atom_site_occupancy
_atom_site_site_symmetry_order
_atom_site_calc_flag
_atom_site_refinement_flags_posn
_atom_site_refinement_flags_adp
Pt1 Pt 0.49656(3) 0.25065(3) 0.76266(2) 0.01164(5) Uani 1 1 d . .
Pt2 Pt 0.23207(3) 0.36362(3) 0.36658(2) 0.01054(5) Uani 1 1 d . .
I1 I 0.29179(5) 0.09824(5) 0.46650(4) 0.01344(8) Uani 1 1 d . .
I2 I 0.43005(5) 0.53451(5) 0.65931(4) 0.01150(7) Uani 1 1 d . .
I3 I 0.17437(5) 0.63344(5) 0.27305(4) 0.01392(8) Uani 1 1 d . .
C1 C 0.5473(10) 0.0373(8) 0.8297(8) 0.0194(13) Uani 1 1 d . .
H1A H 0.664204 0.036799 0.829322 0.029 Uiso 1 1 calc R U
H1B H 0.445742 -0.059138 0.762076 0.029 Uiso 1 1 calc R U
H1C H 0.555939 0.033962 0.929217 0.029 Uiso 1 1 calc R U
C2 C 0.6406(9) 0.3598(8) 0.9817(6) 0.0171(12) Uani 1 1 d . .
H2A H 0.611943 0.459671 0.995886 0.026 Uiso 1 1 calc R U
H2B H 0.774025 0.388506 1.011240 0.026 Uiso 1 1 calc R U
H2C H 0.604069 0.282921 1.041772 0.026 Uiso 1 1 calc R U
C3 C 0.2608(8) 0.1796(8) 0.7995(7) 0.0145(11) Uani 1 1 d . .
H3A H 0.285156 0.127521 0.887052 0.022 Uiso 1 1 calc R U
H3B H 0.158251 0.101068 0.714216 0.022 Uiso 1 1 calc R U
H3C H 0.227650 0.276465 0.814669 0.022 Uiso 1 1 calc R U
C4 C -0.0182(8) 0.2954(8) 0.3816(8) 0.0180(12) Uani 1 1 d . .
H4A H -0.072130 0.175131 0.362100 0.027 Uiso 1 1 calc R U
H4B H -0.103395 0.340951 0.309184 0.027 Uiso 1 1 calc R U
H4C H 0.002581 0.337897 0.480579 0.027 Uiso 1 1 calc R U
C5 C 0.0952(9) 0.2325(8) 0.1548(7) 0.0185(12) Uani 1 1 d . .
H5A H 0.169673 0.171119 0.138914 0.028 Uiso 1 1 calc R U
H5B H 0.076324 0.308722 0.084782 0.028 Uiso 1 1 calc R U
H5C H -0.025211 0.155445 0.140133 0.028 Uiso 1 1 calc R U
loop_
_atom_site_aniso_label
_atom_site_aniso_U_11
_atom_site_aniso_U_22
_atom_site_aniso_U_33
_atom_site_aniso_U_23
_atom_site_aniso_U_13
_atom_site_aniso_U_12
Pt1 0.01254(9) 0.01052(11) 0.01107(10) 0.00263(8) 0.00469(8) 0.00326(8)
Pt2 0.00967(9) 0.00944(10) 0.01077(10) 0.00161(7) 0.00340(7) 0.00228(7)
I1 0.01573(16) 0.00861(17) 0.01328(17) 0.00161(13) 0.00469(13) 0.00262(13)
I2 0.01186(14) 0.01060(17) 0.01195(16) 0.00164(13) 0.00515(13) 0.00366(13)
I3 0.01283(15) 0.01299(18) 0.01673(17) 0.00501(14) 0.00593(13) 0.00577(13)
C1 0.031(3) 0.018(3) 0.025(3) 0.013(3) 0.022(3) 0.015(3)
C2 0.020(3) 0.018(3) 0.008(2) 0.001(2) 0.003(2) 0.003(2)
C3 0.014(2) 0.010(3) 0.021(3) 0.002(2) 0.008(2) 0.006(2)
C4 0.011(2) 0.015(3) 0.027(3) 0.002(2) 0.009(2) 0.003(2)
C5 0.016(3) 0.018(3) 0.013(3) -0.001(2) 0.000(2) 0.004(2)
loop_
_atom_type_symbol
_atom_type_description
_atom_type_scat_dispersion_real
_atom_type_scat_dispersion_imag
_atom_type_scat_source
C C 0.0033 0.0016 'International Tables Vol C Tables 4.2.6.8 and 6.1.1.4'
H H 0.0000 0.0000 'International Tables Vol C Tables 4.2.6.8 and 6.1.1.4'
I I -0.4742 1.8119 'International Tables Vol C Tables 4.2.6.8 and 6.1.1.4'
Pt Pt -1.7033 8.3905 'International Tables Vol C Tables 4.2.6.8 and 6.1.1.4'
loop_
_geom_angle_atom_site_label_1
_geom_angle_atom_site_label_2
_geom_angle_atom_site_label_3
_geom_angle
_geom_angle_site_symmetry_3
C2 Pt1 C3 86.8(3) .
C2 Pt1 C1 87.1(3) .
C3 Pt1 C1 89.0(3) .
C2 Pt1 I1 178.34(18) .
C3 Pt1 I1 91.56(18) .
C1 Pt1 I1 92.6(2) .
C2 Pt1 I2 95.26(19) .
C3 Pt1 I2 92.80(17) .
C1 Pt1 I2 177.10(18) .
I1 Pt1 I2 85.06(3) .
C2 Pt1 I3 89.92(18) 2_666
C3 Pt1 I3 176.10(18) 2_666
C1 Pt1 I3 92.91(18) 2_666
I1 Pt1 I3 91.73(3) 2_666
I2 Pt1 I3 85.40(2) 2_666
C5 Pt2 C4 89.0(3) .
C5 Pt2 I1 89.72(19) .
C4 Pt2 I1 90.05(19) .
C5 Pt2 I3 91.67(19) .
C4 Pt2 I3 89.61(19) .
I1 Pt2 I3 178.565(16) .
C5 Pt2 I2 177.41(19) .
C4 Pt2 I2 92.5(2) .
I1 Pt2 I2 88.15(3) .
I3 Pt2 I2 90.47(3) .
C5 Pt2 I2 90.71(19) 2_666
C4 Pt2 I2 177.98(19) 2_666
I1 Pt2 I2 91.95(2) 2_666
I3 Pt2 I2 88.40(2) 2_666
I2 Pt2 I2 87.89(3) 2_666
Pt2 I1 Pt1 95.50(3) .
Pt1 I2 Pt2 91.29(3) .
Pt1 I2 Pt2 91.16(2) 2_666
Pt2 I2 Pt2 92.10(3) 2_666
Pt2 I3 Pt1 95.03(2) 2_666
Pt1 C1 H1A 109.5 .
Pt1 C1 H1B 109.5 .
H1A C1 H1B 109.5 .
Pt1 C1 H1C 109.5 .
H1A C1 H1C 109.5 .
H1B C1 H1C 109.5 .
Pt1 C2 H2A 109.5 .
Pt1 C2 H2B 109.5 .
H2A C2 H2B 109.5 .
Pt1 C2 H2C 109.5 .
H2A C2 H2C 109.5 .
H2B C2 H2C 109.5 .
Pt1 C3 H3A 109.5 .
Pt1 C3 H3B 109.5 .
H3A C3 H3B 109.5 .
Pt1 C3 H3C 109.5 .
H3A C3 H3C 109.5 .
H3B C3 H3C 109.5 .
Pt2 C4 H4A 109.5 .
Pt2 C4 H4B 109.5 .
H4A C4 H4B 109.5 .
Pt2 C4 H4C 109.5 .
H4A C4 H4C 109.5 .
H4B C4 H4C 109.5 .
Pt2 C5 H5A 109.5 .
Pt2 C5 H5B 109.5 .
H5A C5 H5B 109.5 .
Pt2 C5 H5C 109.5 .
H5A C5 H5C 109.5 .
H5B C5 H5C 109.5 .
loop_
_geom_bond_atom_site_label_1
_geom_bond_atom_site_label_2
_geom_bond_distance
_geom_bond_site_symmetry_2
Pt1 C2 2.067(6) .
Pt1 C3 2.074(6) .
Pt1 C1 2.083(6) .
Pt1 I1 2.8078(12) .
Pt1 I2 2.8117(12) .
Pt1 I3 2.8138(10) 2_666
Pt2 C5 2.065(6) .
Pt2 C4 2.071(6) .
Pt2 I1 2.6336(12) .
Pt2 I3 2.6438(12) .
Pt2 I2 2.8238(12) .
Pt2 I2 2.8254(10) 2_666
C1 H1A 0.9800 .
C1 H1B 0.9800 .
C1 H1C 0.9800 .
C2 H2A 0.9800 .
C2 H2B 0.9800 .
C2 H2C 0.9800 .
C3 H3A 0.9800 .
C3 H3B 0.9800 .
C3 H3C 0.9800 .
C4 H4A 0.9800 .
C4 H4B 0.9800 .
C4 H4C 0.9800 .
C5 H5A 0.9800 .
C5 H5B 0.9800 .
C5 H5C 0.9800 .
