#------------------------------------------------------------------------------
#$Date: 2019-11-10 19:09:22 +0200 (Sun, 10 Nov 2019) $
#$Revision: 225999 $
#$URL: file:///home/coder/svn-repositories/cod/cif/4/51/59/4515919.cif $
#------------------------------------------------------------------------------
#
# This file is available in the Crystallography Open Database (COD),
# http://www.crystallography.net/
#
# All data on this site have been placed in the public domain by the
# contributors.
#
data_4515919
loop_
_publ_author_name
'Pilia, Luca'
'Shuku, Yoshiaki'
'Dalgleish, Simon'
'Awaga, Kunio'
'Robertson, Neil'
_publ_section_title
;
 Structural and Electronic Effects Due to Fluorine Atoms on
 Dibenzotetraaza-Annulenes Complexes.
;
_journal_issue                   8
_journal_name_full               'ACS omega'
_journal_page_first              10074
_journal_page_last               10083
_journal_paper_doi               10.1021/acsomega.8b01442
_journal_volume                  3
_journal_year                    2018
_chemical_formula_moiety         'C18 H6 F8 N4 Ni'
_chemical_formula_sum            'C18 H6 F8 N4 Ni'
_chemical_formula_weight         488.96
_space_group_crystal_system      monoclinic
_space_group_IT_number           14
_space_group_name_Hall           '-P 2yn'
_space_group_name_H-M_alt        'P 1 21/n 1'
_atom_sites_solution_hydrogens   geom
_atom_sites_solution_primary     direct
_atom_sites_solution_secondary   difmap
_cell_angle_alpha                90.0000
_cell_angle_beta                 100.4400(19)
_cell_angle_gamma                90.0000
_cell_formula_units_Z            2
_cell_length_a                   9.3936(17)
_cell_length_b                   4.6798(8)
_cell_length_c                   17.703(3)
_cell_measurement_reflns_used    2159
_cell_measurement_temperature    123
_cell_measurement_theta_max      27.50
_cell_measurement_theta_min      3.50
_cell_volume                     765.3(2)
_computing_cell_refinement       'CrystalClear-SM Expert 2.0 r4'
_computing_data_collection
'CrystalClear-SM Expert 2.0 r4 (Rigaku, 2009)'
_computing_data_reduction        'CrystalClear-SM Expert 2.0 r4'
_computing_molecular_graphics    'CrystalStructure 4.2.2'
_computing_publication_material  'CrystalStructure 4.2.2 (Rigaku, 2016)'
_computing_structure_refinement  'SHELXL Version 2016/4 (Sheldrick, 2008)'
_computing_structure_solution    'SIR92 (Altomare, et al., 1994)'
_diffrn_ambient_temperature      123
_diffrn_detector_area_resol_mean 7.314
_diffrn_measured_fraction_theta_full 0.964
_diffrn_measured_fraction_theta_max 0.970
_diffrn_measurement_device_type  'Rigaku Saturn70'
_diffrn_measurement_method       \w
_diffrn_radiation_type           'Mo K\a'
_diffrn_radiation_wavelength     0.71075
_diffrn_reflns_av_R_equivalents  0.0185
_diffrn_reflns_Laue_measured_fraction_full 0.964
_diffrn_reflns_Laue_measured_fraction_max 0.970
_diffrn_reflns_limit_h_max       12
_diffrn_reflns_limit_h_min       -8
_diffrn_reflns_limit_k_max       6
_diffrn_reflns_limit_k_min       -4
_diffrn_reflns_limit_l_max       22
_diffrn_reflns_limit_l_min       -22
_diffrn_reflns_number            5275
_diffrn_reflns_point_group_measured_fraction_full 0.964
_diffrn_reflns_point_group_measured_fraction_max 0.970
_diffrn_reflns_theta_full        25.242
_diffrn_reflns_theta_max         27.496
_diffrn_reflns_theta_min         3.793
_diffrn_standards_number         0
_exptl_absorpt_coefficient_mu    1.378
_exptl_absorpt_correction_T_max  0.908
_exptl_absorpt_correction_T_min  0.784
_exptl_absorpt_correction_type   multi-scan
_exptl_absorpt_process_details   'REQAB (Rigaku, 1998)'
_exptl_crystal_colour            orange
_exptl_crystal_density_diffrn    2.122
_exptl_crystal_density_method    'not measured'
_exptl_crystal_description       prism
_exptl_crystal_F_000             484.00
_exptl_crystal_size_max          0.100
_exptl_crystal_size_mid          0.090
_exptl_crystal_size_min          0.070
_refine_diff_density_max         0.33
_refine_diff_density_min         -0.31
_refine_ls_extinction_method     none
_refine_ls_goodness_of_fit_ref   1.105
_refine_ls_hydrogen_treatment    constr
_refine_ls_number_parameters     142
_refine_ls_number_reflns         1696
_refine_ls_number_restraints     0
_refine_ls_R_factor_all          0.0280
_refine_ls_R_factor_gt           0.0252
_refine_ls_shift/su_max          0.000
_refine_ls_structure_factor_coef Fsqd
_refine_ls_weighting_details
'w = 1/[\s^2^(Fo^2^)+(0.0342P)^2^+0.5027P] where P=(Fo^2^+2Fc^2^)/3'
_refine_ls_weighting_scheme      calc
_refine_ls_wR_factor_gt          0.0686
_refine_ls_wR_factor_ref         0.0696
_reflns_Friedel_coverage         0.000
_reflns_number_gt                1530
_reflns_number_total             1696
_reflns_threshold_expression     F^2^>2.0\s(F^2^)
_cod_data_source_file            ao8b01442_si_002.cif
_cod_data_source_block           NiLF
_cod_database_code               4515919
_shelx_res_file
;
TITL LP01
 shelxl.res created by SHELXL-2016/4 at 21:01:48 on 03-Mar-2017
CELL  0.71075 9.39360 4.67980 17.70300 90.00000 100.44000 90.00000
ZERR  2 0.00170 0.00080 0.00300 0.00000 0.00190 0.00000
LATT 1
SYMM .50-X, .50+Y, .50-Z
SFAC NI H C N F
UNIT 2 12 36 8 16
L.S. 5
FMAP 2
PLAN 10
WPDB -2
HTAB
BOND $H
CONF
LIST 4
TEMP -150.0
ACTA
SIZE 0.070 0.090 0.100
WGHT    0.034200    0.502700
FVAR       1.29964
NI1   1    0.500000    0.000000    0.500000    10.50000    0.00950    0.01216 =
         0.01158   -0.00072    0.00085    0.00023
F1    5    0.318979    0.656206    0.292794    11.00000    0.01764    0.02707 =
         0.02555    0.00928   -0.00361    0.00023
F2    5    0.518628    0.970634    0.245853    11.00000    0.02885    0.02251 =
         0.01997    0.00837    0.00109   -0.00164
F3    5    0.802324    0.922189    0.312710    11.00000    0.02378    0.02456 =
         0.02747    0.00559    0.00955   -0.00573
F4    5    0.888040    0.543507    0.421276    11.00000    0.01176    0.03085 =
         0.02924    0.00723    0.00315   -0.00291
N1    4    0.332471   -0.183465    0.518980    11.00000    0.01291    0.01338 =
         0.01480   -0.00170    0.00159    0.00033
N2    4    0.403900    0.231729    0.420160    11.00000    0.01298    0.01322 =
         0.01390   -0.00136    0.00177    0.00052
C1    3    0.198492   -0.137990    0.480240    11.00000    0.01291    0.02052 =
         0.02122    0.00015    0.00185   -0.00189
AFIX  43
H1    2    0.122184   -0.248436    0.493918    11.00000   -1.20000
AFIX   0
C2    3    0.163524    0.058812    0.421649    11.00000    0.01109    0.02654 =
         0.02267    0.00349   -0.00128    0.00009
AFIX  43
H2    2    0.064426    0.075480    0.398479    11.00000   -1.20000
AFIX   0
C3    3    0.261207    0.233452    0.394033    11.00000    0.01501    0.01987 =
         0.01647    0.00159   -0.00041    0.00251
AFIX  43
H3    2    0.224529    0.363027    0.353899    11.00000   -1.20000
AFIX   0
C4    3    0.494902    0.415846    0.387778    11.00000    0.01445    0.01320 =
         0.01355   -0.00283    0.00234   -0.00026
C5    3    0.457028    0.613921    0.328450    11.00000    0.01614    0.01638 =
         0.01515   -0.00158    0.00012    0.00153
C6    3    0.558829    0.781404    0.303101    11.00000    0.02376    0.01363 =
         0.01344    0.00119    0.00231    0.00089
C7    3    0.702541    0.755080    0.336275    11.00000    0.01955    0.01563 =
         0.01827   -0.00216    0.00758   -0.00406
C8    3    0.743904    0.558967    0.393859    11.00000    0.01267    0.01777 =
         0.01834   -0.00249    0.00284    0.00000
C9    3    0.643073    0.387846    0.421670    11.00000    0.01458    0.01276 =
         0.01436   -0.00239    0.00290    0.00083
HKLF 4




REM  LP01
REM R1 =  0.0252 for    1530 Fo > 4sig(Fo)  and  0.0280 for all    1696 data
REM    142 parameters refined using      0 restraints

END

WGHT      0.0342      0.5027

REM Instructions for potential hydrogen bonds
EQIV $1 x-1, y-1,
HTAB C1 F4_$1
EQIV $2 -x+1, -y, -z+
HTAB C1 F4_$2
HTAB C3 F1

REM Highest difference peak  0.333,  deepest hole -0.306,  1-sigma level  0.058
Q1    1   0.5620  0.3984  0.4031  11.00000  0.05    0.33
Q2    1   0.7156  0.7043  0.3791  11.00000  0.05    0.29
Q3    1   0.6358  0.7569  0.3174  11.00000  0.05    0.28
Q4    1   0.4791  0.4669  0.3418  11.00000  0.05    0.28
Q5    1   0.7208  0.6265  0.3560  11.00000  0.05    0.28
Q6    1   0.6975  0.4410  0.4043  11.00000  0.05    0.27
Q7    1   0.3554  0.2466  0.4203  11.00000  0.05    0.27
Q8    1   0.4763  0.5808  0.3758  11.00000  0.05    0.26
Q9    1   0.6889  0.5246  0.4193  11.00000  0.05    0.25
Q10   1   0.2178  0.1599  0.4191  11.00000  0.05    0.25
;
_shelx_res_checksum              13880
_shelx_hkl_file
;
   0   0  -3    0.13    2.35
   0   0   3    0.79    2.97
   0   0   3    1.86    2.28
   0   0  -3    0.27    2.30
   0   0  -4 1342.66   22.55
   0   0   4 1385.28   22.83
   0   0  -5    1.51    2.91
   0   0   5    0.83    2.94
   0   0   5    2.25    2.72
   0   0  -5    2.62    4.41
   0   0   6   16.46    5.60
   0   0   6   28.22    5.60
   0   0  -6   27.74    5.55
   0   0   7    3.50    4.62
   0   0   7   19.03    5.82
   0   0  -8   44.35    8.43
   0   0   8   45.70    6.96
   0   0  -9   -1.90    5.00
   0   0   9   -0.00    4.63
   0   0 -11   -3.39    9.15
   0   0  11   -0.17    7.94
   0   0 -12 9526.48  177.47
   0   0 -13    0.12    6.46
   0   0  13   -1.06    7.10
   0   0 -14  384.89   19.45
   0   0  14  394.63   18.80
   0   0 -15    2.87    5.24
   0   0  15    3.54    6.87
   0   0 -16 1292.79   38.91
   0   0 -17   -1.89    5.02
   0   0  17    3.87    9.84
   0   0 -18    9.48    8.42
   0   0  18    4.05    6.69
   0   0 -19    1.74    5.73
   0   0  19    3.36    8.52
   0   0 -20  169.75   18.22
   0   0  20  175.96   20.18
   0   0 -21    2.38    5.87
   0   0  21    0.65    7.88
   0   0 -22  130.15   18.00
   0   0  22  127.43   17.77
   0   1   0    1.54    3.64
   0  -1   0    2.60    3.81
   0   1  -1 1224.06   20.58
   0   1   1 1191.14   19.92
   0   1   1 1210.98   16.72
   0  -1   1 1218.74   20.20
   0  -1  -1 1204.97   19.62
   0   1  -2   86.88    6.37
   0   1  -2   89.06    3.53
   0   1   2   84.43    5.95
   0   1   2   86.80    3.96
   0  -1   2   77.61    7.23
   0  -1  -2   88.55    3.04
   0  -1   2   86.49    5.34
   0   1  -6 3733.13   57.11
   0   1   6 3825.85   44.20
   0  -1  -6 3616.81   55.76
   0  -1   6 3773.36   44.84
   0   1   8  539.93   15.09
   0   1  -8  570.71   16.40
   0  -1  -8  567.33   17.31
   0  -1   8  575.11   15.75
   0   1  -9  594.97   17.46
   0   1   9  602.18   16.06
   0  -1  -9  595.77   17.41
   0  -1   9  599.69   16.37
   0   1  10  122.71    9.24
   0   1 -10  124.42   11.24
   0  -1 -10  117.87   14.24
   0  -1  10  125.14    9.93
   0   1  11 2310.77   40.48
   0   1 -11 2457.82   44.68
   0  -1 -11 2312.16   42.48
   0  -1  11 2361.75   41.28
   0   1  12   98.97   10.21
   0   1 -12   98.98   11.93
   0  -1 -12   83.95   10.67
   0  -1  12  101.44   10.27
   0   1 -13  382.50   18.82
   0   1  13  382.89   17.57
   0  -1 -13  380.88   18.72
   0  -1  13  379.99   17.38
   0   1  14  534.60   22.02
   0   1 -14  534.72   22.42
   0  -1 -14  517.06   22.21
   0  -1  14  536.12   22.70
   0   1  15 1925.55   45.35
   0   1 -15 1866.78   46.83
   0  -1 -15 1802.69   45.19
   0  -1  15 1794.93   43.72
   0   1  16    2.92    9.16
   0   1 -16    1.20    5.83
   0  -1 -16   -2.02    6.35
   0  -1  16    3.20    8.48
   0   1  17  474.60   22.57
   0   1 -17  477.36   24.36
   0  -1 -17  474.29   23.96
   0  -1  17  497.63   22.98
   0   1 -18  128.17   16.06
   0   1  18  123.97   15.30
   0  -1 -18  124.99   15.33
   0  -1  18  123.26   15.76
   0   1  19  153.68   16.76
   0   1 -19  138.47   15.43
   0  -1 -19  142.74   15.68
   0  -1  19  153.72   17.43
   0   1  20   33.28   14.32
   0   1 -20   23.01   12.82
   0  -1 -20   17.84   11.83
   0  -1  20   19.29    9.46
   0   1  21  787.08   31.00
   0   1 -21  816.62   34.94
   0  -1 -21  796.74   32.88
   0  -1  21  798.43   33.36
   0   1 -22    5.42    9.65
   0   1  22    3.01   10.57
   0  -1 -22    1.80    6.03
   0  -1  22    7.48   13.17
   0   2   0 4049.59   46.08
   0  -2   0 4315.38   48.10
   0   2  -1   26.15    6.18
   0   2   1   41.65    6.58
   0  -2   1   28.15    5.24
   0  -2  -1   41.23    5.86
   0   2  -2 1107.94   22.47
   0   2   2 1101.71   16.12
   0   2   2 1127.80   22.55
   0   2   2 1137.57   16.23
   0  -2  -2 1169.78   23.04
   0  -2   2 1175.72   17.39
   0  -2   2 1138.20   23.21
   0  -2   2 1169.66   17.53
   0   2  -3  329.13   11.68
   0   2   3  339.18   11.71
   0   2   3  341.07    7.60
   0   2   3  325.25    7.13
   0  -2   3  344.31    7.72
   0  -2   3  343.95    7.67
   0   2  -4 2331.69   32.74
   0   2   4 2351.91   32.74
   0   2   4 2381.02   26.39
   0   2   4 2406.51   26.63
   0  -2   4 2459.28   27.79
   0  -2   4 2386.48   27.08
   0   2  -5   62.45    8.51
   0   2   5   58.93    7.92
   0   2   5   57.81    4.53
   0  -2   5   58.89    6.06
   0  -2   5   60.47    5.86
   0   2  -6  152.63   10.35
   0   2   6  159.33   10.88
   0   2   6  158.39    7.25
   0  -2   6  169.90    8.00
   0  -2   6  163.69    7.95
   0   2  -7    0.41    4.82
   0   2   7   -0.45    4.52
   0   2   7    2.68    4.02
   0  -2   7   -0.19    4.49
   0   2  -8 3299.82   53.23
   0   2   8 3293.99   48.37
   0  -2   8 3358.19   50.08
   0   2   9  236.86   10.87
   0   2  -9  250.97   14.54
   0  -2  -9  259.20   14.71
   0  -2   9  224.19   12.71
   0   2  10  341.10   13.20
   0   2 -10  338.47   16.00
   0  -2 -10  357.54   16.13
   0  -2  10  342.96   13.29
   0   2  11   -1.52    4.26
   0   2 -11   -0.73    4.94
   0  -2 -11   -0.45    2.56
   0  -2  11   -1.90    4.92
   0   2  12 3196.29   67.54
   0   2 -12 3150.98   69.56
   0  -2 -12 3244.06   70.97
   0  -2  12 3317.09   70.59
   0   2  13   49.96    9.67
   0   2 -13   58.33   13.23
   0  -2 -13   62.75   26.59
   0  -2  13   53.48    9.82
   0   2 -14  306.36   18.00
   0   2  14  296.19   16.55
   0  -2 -14  293.85   19.23
   0  -2  14  308.61   17.48
   0   2  15  386.84   20.51
   0   2 -15  371.56   21.19
   0  -2 -15  408.89   24.78
   0  -2  15  383.73   20.31
   0   2  16 2029.17   41.26
   0   2 -16 2050.70   45.10
   0  -2 -16 1879.95   49.26
   0  -2  16 2084.04   44.03
   0   2  17  144.43   15.56
   0   2 -17  149.11   15.50
   0  -2 -17  145.30   24.20
   0  -2  17  149.78   15.47
   0   2 -18  344.17   23.23
   0   2  18  321.26   19.32
   0  -2 -18  311.35   38.70
   0  -2  18  315.38   19.93
   0   2  19   58.17   11.72
   0   2 -19   46.78   13.32
   0  -2 -19   33.32   27.08
   0  -2  19   50.91   11.22
   0   2 -20  394.80   24.05
   0   2  20  380.32   22.66
   0  -2 -20  368.48   34.21
   0  -2  20  382.68   22.93
   0   2  21    2.78    6.72
   0   2 -21   -0.49    6.56
   0  -2 -21    0.65    5.28
   0  -2  21    0.50    5.63
   0   3   0    2.93    4.07
   0   3  -1  190.38   11.29
   0   3   1  208.81   12.13
   0   3  -2  455.23   16.38
   0   3   2  468.26   16.12
   0   3  -3   87.12    9.32
   0   3   3   97.32   10.35
   0  -3   3   84.16    3.73
   0   3  -4   34.08    8.25
   0   3   4   35.58    7.76
   0   3   4   31.12    2.90
   0   3   4   32.11    3.70
   0  -3   4   16.12    2.36
   0  -3   4   42.78    4.63
   0   3  -5 2479.25   37.52
   0   3   5 2504.41   37.54
   0   3   5 2385.10   23.58
   0   3   5 2392.82   24.18
   0  -3   5 2284.42   23.81
   0  -3   5 2513.74   26.29
   0   3  -6  136.55   10.71
   0   3   6  127.18   12.11
   0   3   6  107.91    7.57
   0   3   6  117.21    6.30
   0  -3   6  112.85    5.46
   0  -3   6  112.08    6.44
   0   3  -7  521.74   20.27
   0   3   7  527.49   20.33
   0   3   7  504.24   14.02
   0   3   7  508.10   14.75
   0  -3   7  534.54   15.92
   0   3  -8   18.48    8.00
   0   3   8   21.63    7.73
   0   3   8   21.19    5.29
   0  -3   8   17.45    5.53
   0   3  -9  525.20   22.73
   0   3   9  528.96   22.58
   0   3   9  533.18   16.25
   0  -3   9  539.59   17.25
   0   3 -10   64.64   12.60
   0   3  10   56.09   10.75
   0   3  10   56.36    7.08
   0  -3  10   57.67    7.25
   0   3 -11  560.78   23.12
   0   3  11  574.69   23.31
   0   3  11  559.64   19.48
   0  -3  11  566.07   20.45
   0   3 -12  412.16   22.16
   0   3  12  449.49   23.86
   0   3  12  454.97   20.23
   0  -3  12  397.85   18.40
   0   3 -13  622.22   24.34
   0   3  13  664.35   24.63
   0   3  13  644.61   20.48
   0  -3  13  658.04   22.79
   0   3 -14   10.47    7.85
   0   3  14    8.78   10.28
   0   3  14    6.31    6.76
   0  -3  14    7.22    6.18
   0   3 -15 1143.25   38.61
   0   3  15 1154.48   38.32
   0   3  15 1153.94   33.72
   0  -3  15 1155.57   35.73
   0   3 -16    0.87    6.26
   0   3  16   -0.07    7.35
   0   3  16    1.51    5.31
   0  -3  16    1.72    5.48
   0   3 -17  544.72   28.41
   0   3  17  533.32   27.02
   0   3  17  533.97   24.61
   0  -3  17  564.87   26.58
   0   3 -18    8.89    8.88
   0   3  18    3.38    8.18
   0   3  18    6.88    6.54
   0  -3  18    3.12    7.82
   0   3 -19  825.00   34.79
   0   3  19  810.04   33.36
   0   3  19  807.84   31.06
   0  -3  19  802.96   31.89
   0   4   0 1361.16   35.14
   0   4  -1  300.27   16.59
   0   4   1  285.71   15.99
   0   4  -2  792.67   26.24
   0   4   2  777.70   26.08
   0   4  -3  440.08   18.79
   0   4   3  430.34   17.81
   0   4  -4  550.49   22.42
   0   4   4  566.46   22.76
   0   4  -5   10.19    6.58
   0   4   5    9.81    6.67
   0   4  -6   71.07   10.51
   0   4   6   75.73   11.38
   0  -4   6   74.90    5.02
   0   4  -7   11.80    8.15
   0   4   7    8.06    7.27
   0  -4   7    5.53    3.14
   0   4  -8 1221.44   38.45
   0   4   8 1284.77   39.95
   0  -4   8 1225.07   28.97
   0   4  -9  125.23   14.35
   0   4   9  125.92   14.46
   0  -4   9  109.15    8.43
   0   4 -10  291.40   18.11
   0   4  10  306.15   18.95
   0  -4  10  280.69   12.34
   0   4 -11  168.54   15.75
   0   4  11  167.93   16.06
   0  -4  11  141.75   11.21
   0   4 -12 1514.65   45.57
   0   4  12 1535.16   45.14
   0  -4  12 1492.66   35.63
   0   4 -13   29.68   12.33
   0   4  13   32.10   12.54
   0  -4  13   13.46    5.33
   0   4 -14  255.75   19.22
   0   4  14  248.48   19.90
   0  -4  14  237.26   15.36
   0   4 -15   57.25   13.05
   0   4  15   65.87   13.61
   0   4 -16  407.96   25.24
   0   4  16  401.00   24.79
   0   4 -17   35.29   12.47
   0   4  17   30.44   12.98
   0   5   0    6.10    7.81
   0   5  -1 2087.66   53.10
   0   5   1 2065.28   53.33
   0   5  -2    3.93    5.53
   0   5   2   15.64    9.17
   0   5  -3  428.97   22.89
   0   5   3  431.52   23.73
   0   5  -4   28.15   10.07
   0   5   4   30.11   10.78
   0   5  -5  217.59   17.34
   0   5   5  220.97   17.29
   0   5  -6    5.29    7.32
   0   5   6    4.56    7.68
   0   5  -7  484.82   24.16
   0   5   7  479.92   24.93
   0   5  -8  101.14   14.63
   0   5   8  108.29   14.46
   0   5  -9  691.30   32.41
   0   5   9  670.58   31.36
   0   5 -10  124.87   15.43
   0   5  10  112.89   15.31
   0   5 -11  749.61   31.65
   0   5  11  764.73   31.22
   0   5 -12    8.44   10.85
   0   5  12    8.69   11.16
   0   6   0    5.42    6.24
   0   6  -1   28.15    9.53
   0   6   1   15.62    8.96
   0   6  -2  399.89   24.36
   0   6   2  362.39   23.14
   0   6  -3 1054.00   38.86
   0   6   3 1027.73   38.28
   1   0 -22    4.69    9.24
  -1   0  22    2.30    6.88
   1   0 -21   89.35   17.71
  -1   0  21   85.27   15.41
   1   0 -20    2.72    9.35
  -1   0  20    1.90    7.48
   1   0 -19 1325.47   41.15
  -1   0  19 1343.68   41.94
   1   0 -18    0.67    5.52
  -1   0  18    1.62    7.01
   1   0 -17  209.63   17.52
  -1   0  17  222.29   16.52
   1   0 -16    0.23    5.60
  -1   0  16    1.69    6.98
   1   0 -15 2393.75   52.14
   1   0 -14    0.20    5.35
  -1   0  14   -0.84    6.10
   1   0 -13   55.68    9.46
  -1   0  13   58.48    8.62
   1   0 -12    1.01    5.25
  -1   0  12    0.36    5.60
   1   0 -11 6260.00   88.51
   1   0 -10   -0.36    4.36
  -1   0  10    0.70    4.62
   1   0  -9 4058.09   49.92
   1   0  -8    1.19    3.67
  -1   0   8    0.35    4.04
   1   0  -7  706.91   17.13
  -1   0   7  755.48   17.06
  -1   0   7  796.98   17.46
  -1   0   7  838.54   19.52
   1   0  -6    0.33    3.29
  -1   0   6   -0.24    2.61
  -1   0   6    0.55    1.22
  -1   0   6    1.54    4.60
   1   0  -4   -0.19    2.69
  -1   0   4   -0.35    2.61
   1   0  -4    0.31    1.51
  -1   0   4    1.32    1.44
   1   0  -3   10.95    3.70
  -1   0   3   10.44    3.81
   1   0  -3   14.47    7.93
  -1   0   3    9.42    3.11
  -1   0  -2    4.36    3.13
   1   0   2    2.37    2.87
   1   0   2    6.97    5.10
  -1   0  -2    1.10    3.74
  -1   0  -3  270.08    8.41
   1   0   3  271.19    7.83
   1   0   3  257.96    9.01
  -1   0  -3  289.74    8.68
  -1   0  -4    1.17    4.19
   1   0   4   -0.21    2.04
   1   0   4    1.70    3.22
  -1   0  -4   -0.02    2.79
  -1   0  -6   -0.94    7.39
   1   0   6    0.11    2.79
   1   0   6    0.71    4.10
  -1   0  -6    1.37    2.55
  -1   0  -8   -2.06    6.78
   1   0   8   -4.36   16.06
  -1   0  -9 2176.89   33.47
  -1   0 -10   -0.47    4.95
   1   0  10   -1.17    6.70
  -1   0 -11 1322.80   29.63
  -1   0 -12   -0.64    5.16
   1   0  12   12.62    5.93
  -1   0 -13 1801.69   45.46
  -1   0 -14   -1.73    5.24
  -1   0 -15  363.56   19.30
   1   0  15  362.84   19.71
  -1   0 -16    2.44    5.70
  -1   0 -17 1189.73   35.02
   1   0  17 1200.05   33.41
  -1   0 -18    1.22    6.22
   1   0  18   -0.81    8.46
  -1   0 -19 1343.36   39.15
   1   0  19 1388.60   40.19
  -1   0 -20   -0.09    6.38
   1   0  20    2.12    8.42
  -1   0 -21   34.81   14.83
   1   0  21   30.59   11.54
  -1   0 -22    6.02   10.83
   1   0  22   -0.26    7.66
  -1   1  22  160.03   17.72
   1   1 -22  152.12   18.33
   1  -1 -22  157.23   19.01
  -1  -1  22  152.12   19.45
   1   1 -21  200.84   19.93
  -1   1  21  200.10   18.94
   1  -1 -21  200.63   20.55
  -1  -1  21  201.54   19.36
  -1   1  20 1109.37   40.89
   1   1 -20 1099.30   42.03
   1  -1 -20 1105.72   41.28
  -1  -1  20 1134.72   41.91
   1   1 -19    4.36    8.45
  -1   1  19    6.39    8.85
   1  -1 -19    0.77    5.99
  -1  -1  19   -0.63    6.25
  -1   1  18  113.05   14.12
   1   1 -18  107.81   15.51
   1  -1 -18  118.98   14.79
  -1  -1  18  112.93   13.62
   1   1 -17    0.72    5.09
  -1   1  17    4.73    6.23
   1  -1 -17    0.26    5.69
  -1  -1  17    5.16    6.25
  -1   1  16 1947.46   51.42
   1   1 -16 1934.06   53.25
   1  -1 -16 1955.76   52.23
  -1  -1  16 1982.98   52.16
  -1   1  15  664.06   24.29
   1   1 -15  655.86   26.29
   1  -1 -15  649.12   26.44
  -1  -1  15  679.92   25.48
   1   1 -14 3638.58   70.18
  -1   1  14 3387.31   62.26
   1  -1 -14 3737.51   48.44
  -1  -1  14 3144.93   59.17
  -1   1  13  125.15   11.59
   1   1 -13  124.32   14.16
   1  -1 -13  117.25   12.72
  -1  -1  13  129.80   11.96
  -1   1  11  522.75   18.15
   1   1 -11  537.86   18.95
   1  -1 -11  508.01   17.25
  -1  -1  11  547.94   17.67
  -1   1  10   12.51    5.53
   1   1 -10   11.06    8.18
   1  -1 -10    3.10    3.96
  -1  -1  10   11.23    5.53
   1   1  -9  605.46   18.04
  -1   1   9  606.75   16.47
   1  -1  -9  594.24   17.28
  -1  -1   9  638.45   16.69
   1   1  -7  131.98   10.55
  -1   1   7  123.16    7.83
  -1   1   7  146.25    7.84
  -1   1   7  130.79    9.60
   1  -1  -7  125.86    8.30
  -1  -1   7  147.20    8.36
  -1  -1   7  136.00    8.03
  -1   1   6  960.81   21.59
  -1   1   6  892.51   18.78
   1   1  -6  942.55   21.29
  -1   1   6  959.16   20.03
  -1  -1   6  974.03   19.56
  -1  -1   6  956.99   20.68
  -1  -1   6  956.93   19.86
   1  -1  -6  908.48   19.91
   1   1  -1 1712.29   27.76
   1   1  -1 1679.40   24.41
  -1   1   1 1620.33   24.08
  -1   1   1 1671.25   23.80
   1  -1  -1 1635.08   23.44
  -1  -1   1 1741.10   28.00
  -1  -1   1 1679.88   24.35
   1  -1  -1 1672.24   24.47
   1  -1   0 3059.60   42.23
   1  -1   0 3036.00   41.44
  -1   1  -1  205.50    6.75
  -1   1  -1  202.77    5.57
   1   1   1  212.94    8.76
   1   1   1  209.43    6.53
   1  -1   1  200.51    5.98
  -1  -1  -1  212.59    8.29
  -1  -1  -1  203.41    5.75
   1  -1   1  199.23    6.53
  -1   1  -2  216.79    7.10
  -1   1  -2  239.14    6.52
   1   1   2  228.69    8.74
   1   1   2  231.83    7.49
   1  -1   2  227.51    6.97
  -1  -1  -2  232.41    8.54
  -1  -1  -2  232.34    6.39
   1  -1   2  234.06    7.16
   1   1   3   54.18    8.42
  -1   1  -3   50.86    5.38
  -1   1  -3   53.81    3.86
   1   1   3   50.49    6.54
   1   1   3   50.33    5.28
   1  -1   3   51.04    4.96
  -1  -1  -3   52.55    4.09
   1  -1   3   51.30    4.58
  -1   1  -4   12.85    5.10
   1   1   4   30.84    6.82
   1   1   4   13.16    4.91
  -1   1  -4   18.66    3.59
  -1  -1  -4   31.69   14.16
   1  -1   4   14.04    3.44
  -1  -1  -4   14.32    3.03
   1  -1   4   12.97    4.12
  -1   1  -5 1229.53   23.36
   1   1   5 1264.53   23.90
   1   1   5 1243.40   23.13
  -1   1  -5 1305.88   23.42
  -1  -1  -5 1264.13   24.45
   1  -1   5 1253.48   23.26
  -1  -1  -5 1262.90   22.25
   1  -1   5 1246.23   23.44
  -1   1  -6 2256.23   36.03
  -1   1  -6 2133.70   35.90
   1   1   6 2152.02   35.39
  -1  -1  -6 2149.31   37.02
   1  -1   6 2252.57   37.30
  -1  -1  -6 2282.03   36.42
   1  -1   6 2210.63   36.78
  -1   1  -7 1192.53   23.14
   1   1   7 1186.33   21.86
  -1  -1  -7 1198.53   27.70
   1  -1   7 1180.97   25.39
   1   1   9  367.52   17.45
  -1   1  -9  385.62   14.91
  -1  -1  -9  359.26   17.37
   1  -1   9  357.46   48.38
   1   1  10  571.40   18.33
  -1   1 -10  568.25   18.75
  -1  -1 -10  568.20   19.14
   1  -1  10  543.91   17.22
   1   1  11  329.72   15.25
  -1   1 -11  323.99   15.77
  -1  -1 -11  315.22   21.25
   1  -1  11  312.65   22.63
   1   1  12 4899.02   96.85
  -1   1 -12 5004.18   99.98
  -1  -1 -12 4870.51   97.41
   1  -1  12 4967.10   98.09
  -1   1 -13   70.49   10.58
   1   1  13   60.86    8.75
  -1  -1 -13   55.39   10.83
   1  -1  13   58.68    9.25
  -1   1 -14  113.68   12.69
   1   1  14  109.68   12.44
  -1  -1 -14  108.50   12.21
   1  -1  14  119.90   14.23
   1   1  15    4.96    6.99
  -1   1 -15    3.67    5.83
  -1  -1 -15    0.75    5.74
   1  -1  15    8.88    8.55
   1   1  16  954.02   34.05
  -1   1 -16  890.93   33.21
  -1  -1 -16  908.76   32.81
   1  -1  16  924.98   33.51
  -1   1 -17  383.15   21.86
   1   1  17  392.74   22.13
  -1  -1 -17  381.16   20.78
   1  -1  17  411.98   22.64
   1   1  18   26.25    9.06
  -1   1 -18   30.82   10.72
  -1  -1 -18   20.26    9.50
   1  -1  18   29.04   10.21
   1   1  19  162.93   17.02
  -1   1 -19  171.32   19.21
  -1  -1 -19  157.63   20.89
   1  -1  19  171.79   18.05
   1   1  20 1008.69   43.34
  -1   1 -20  991.15   42.67
  -1  -1 -20  979.65   41.15
   1  -1  20 1014.33   43.25
  -1   1 -21    2.88    6.34
   1   1  21    6.02    9.93
  -1  -1 -21    1.54    4.93
   1  -1  21    8.14    9.48
  -1   2  21  290.15   20.34
   1   2 -21  301.42   23.43
   1  -2 -21  282.38   35.42
  -1  -2  21  292.23   20.56
   1   2 -20    2.26    6.73
  -1   2  20    2.24    6.14
   1  -2 -20    1.38    5.63
  -1  -2  20    4.96    8.92
   1   2 -19 1995.04   60.21
  -1   2  19 2009.61   56.64
   1  -2 -19 2102.58   54.25
  -1  -2  19 2091.89   49.06
  -1   2  18   77.92   12.20
   1   2 -18   88.73   15.10
   1  -2 -18   74.81   25.94
  -1  -2  18   81.76   13.38
  -1   2  17 1316.80   34.30
   1   2 -17 1295.50   38.47
   1  -2 -17 1310.40   41.44
  -1  -2  17 1308.32   34.49
   1   2 -16  168.58   16.99
  -1   2  16  162.37   14.46
   1  -2 -16  157.48   26.06
  -1  -2  16  152.39   13.82
  -1   2  15  838.49   29.39
   1   2 -15  858.03   32.52
   1  -2 -15  825.66   35.34
  -1  -2  15  840.47   29.43
  -1   2  14    3.72    6.16
   1   2 -14    1.75    5.17
   1  -2 -14    0.40    1.74
  -1  -2  14    0.14    5.01
  -1   2  13  200.49   11.89
   1   2 -13  208.65   16.12
   1  -2 -13  210.83   27.66
  -1  -2  13  203.74   13.28
  -1   2  12   89.64    8.60
   1   2 -12   85.15   11.35
   1  -2 -12   88.69   21.08
  -1  -2  12   88.66   10.18
  -1   2  11   44.64    6.57
   1   2 -11   46.81   10.22
   1  -2 -11   52.87   11.60
  -1  -2  11   45.92    6.54
  -1   2  10   25.56    6.14
   1   2 -10   33.30    9.73
   1  -2 -10   35.92   20.79
  -1  -2  10   32.04    7.19
   1   2  -9 6608.57   94.37
   1  -2  -9 6716.17   94.09
  -1  -2   9 6711.34   90.68
   1   2  -8 5567.26   81.14
   1  -2  -8 5539.28   81.31
   1   2  -6 1345.20   26.23
  -1   2   6 1378.13   24.79
  -1   2   6 1413.21   20.73
  -1   2   6 1417.24   21.32
  -1  -2   6 1445.68   22.28
   1   2  -5 1003.61   21.41
  -1   2   5  973.59   19.38
  -1   2   5 1037.14   15.67
  -1   2   5 1013.19   15.33
  -1  -2   5 1010.34   15.90
  -1   2   4 1284.04   20.33
   1   2  -4 1260.00   23.32
  -1   2   4 1237.89   21.28
  -1   2   4 1280.46   16.72
  -1  -2   4 1258.98   17.37
  -1  -2   4 1401.77   18.89
   1   2  -3 1433.50   24.55
  -1   2   3 1439.16   22.43
  -1   2   3 1504.66   17.53
  -1  -2   3 1483.71   18.39
  -1  -2   3 1473.97   17.86
   1   2  -2 3013.86   39.21
  -1   2   2 2963.66   35.66
  -1   2   2 2957.83   28.74
  -1  -2   2 2955.45   30.06
   1  -2  -2 2976.23   34.85
   1   2  -1  683.89   17.97
  -1   2   1  683.69   15.91
   1   2  -1  676.22   11.37
   1  -2  -1  695.87   15.33
  -1  -2   1  688.81   11.73
  -1   2   0 1093.14   21.22
   1   2   0 1125.88   23.64
   1   2   0 1112.25   16.78
  -1   2   0 1171.01   16.52
   1  -2   0 1159.53   21.80
  -1  -2   0 1117.44   16.79
  -1   2  -1 1657.10   24.27
  -1   2  -1 1802.26   18.51
   1   2   1 1717.26   27.38
   1   2   1 1682.05   18.70
   1  -2   1 1699.77   18.47
  -1  -2  -1 1701.67   18.22
   1  -2   1 1697.73   24.26
   1   2   2 5364.68   59.70
   1  -2   2 5544.87   58.31
   1  -2   2 5280.54   50.42
   1  -2   3 8353.46  106.48
  -1   2  -4 2971.23   38.42
   1   2   4 3054.76   41.24
   1   2   4 3013.55   34.67
   1  -2   4 2974.07   33.82
  -1  -2  -4 2929.60   31.99
  -1   2  -6  360.25   13.71
   1   2   6  371.89   14.66
   1   2   6  349.57   11.69
  -1   2  -6  427.99   11.94
  -1  -2  -6  369.14   10.71
   1  -2   6  357.18   12.06
  -1   2  -7 2980.88   47.43
   1   2   7 3002.02   49.04
   1   2   7 2970.00   44.48
   1  -2   7 3025.97   45.73
  -1   2  -8  583.61   18.26
   1   2   8  575.58   19.04
   1   2   8  580.93   16.40
   1  -2   8  578.60   16.49
  -1   2  -9  176.28   12.02
   1   2   9  172.83   10.29
   1  -2   9  166.25   10.60
   1   2  10  599.62   17.79
  -1   2 -10  603.50   19.90
  -1  -2 -10  610.42   20.18
   1  -2  10  579.15   17.41
   1   2  11  896.10   26.59
  -1   2 -11  879.98   28.03
  -1  -2 -11  898.58   29.48
   1  -2  11  870.90   25.86
   1   2  12    9.53    7.09
  -1   2 -12   10.33    8.48
  -1  -2 -12    7.81    5.03
   1  -2  12    6.77    7.86
   1   2  13  488.88   21.23
  -1   2 -13  482.84   21.23
  -1  -2 -13  471.40   22.43
   1  -2  13  496.91   22.28
   1   2  14  237.17   14.71
  -1   2 -14  237.33   15.87
  -1  -2 -14  235.75   35.15
   1  -2  14  239.59   15.95
   1   2  15  154.37   12.83
  -1   2 -15  159.24   14.86
  -1  -2 -15  165.69   40.88
   1  -2  15  165.55   13.71
   1   2  16    8.03    7.27
  -1   2 -16    9.24   10.02
  -1  -2 -16   10.74    9.35
   1  -2  16    5.28    8.43
  -1   2 -17 1371.16   42.93
   1   2  17 1354.34   40.73
  -1  -2 -17 1323.67   44.93
   1  -2  17 1366.85   42.95
   1   2  18    3.83    8.83
  -1   2 -18    4.09    8.83
  -1  -2 -18    1.59    3.81
   1  -2  18    3.91    6.98
   1   2  19  844.20   36.59
  -1   2 -19  814.06   36.21
  -1  -2 -19  826.85   46.58
   1  -2  19  853.38   37.55
   1   2  20    3.72    7.04
  -1   2 -20    5.42    9.54
  -1  -2 -20    4.98    7.31
   1  -2  20    6.95    9.58
   1   3 -19   38.97   11.36
  -1   3  19   31.34    9.44
  -1  -3  19   39.51   10.32
   1   3 -18  162.28   17.53
  -1   3  18  150.74   14.37
  -1  -3  18  156.03   14.72
   1   3 -17    7.03    9.15
  -1   3  17    1.86    6.11
  -1   3  17    3.26    6.66
  -1  -3  17    0.21    5.00
   1   3 -16 1293.39   38.54
  -1   3  16 1298.87   35.85
  -1   3  16 1320.12   33.27
  -1  -3  16 1287.13   33.15
   1   3 -15  164.09   16.84
  -1   3  15  133.16   14.88
  -1   3  15  145.89   11.64
  -1  -3  15  161.97   13.76
   1   3 -14  423.16   23.83
  -1   3  14  418.35   20.56
  -1   3  14  434.79   18.03
  -1  -3  14  417.98   19.49
   1   3 -13   12.81    8.77
  -1   3  13   19.06   12.12
  -1   3  13    7.70    5.57
  -1  -3  13   15.55    7.98
   1   3 -12 2343.57   60.34
  -1   3  12 2301.89   57.32
  -1   3  12 2325.51   53.09
  -1  -3  12 2401.88   56.80
   1   3 -11  154.87   14.38
  -1   3  11  142.16   12.70
  -1   3  11  153.13   10.43
  -1  -3  11  141.89   10.36
   1   3 -10  724.71   27.05
  -1   3  10  696.13   23.70
  -1   3  10  712.44   19.03
  -1  -3  10  697.45   19.64
   1   3  -9  194.52   13.79
  -1   3   9  197.67   12.64
  -1   3   9  201.80    8.87
  -1  -3   9  190.57   10.16
   1   3  -8  778.83   26.46
  -1   3   8  775.91   24.96
  -1   3   8  788.12   20.01
  -1  -3   8  782.19   21.22
   1   3  -7  171.91   12.95
  -1   3   7  173.26   12.06
  -1   3   7  171.77    7.64
  -1   3   7  157.74    8.63
  -1  -3   7  167.04    8.50
   1   3  -6 1131.57   26.54
  -1   3   6 1116.61   24.02
  -1   3   6 1167.31   16.36
  -1   3   6 1125.66   15.95
  -1  -3   6 1063.78   16.27
  -1  -3   6 1134.83   16.88
   1   3  -5  229.97   13.51
  -1   3   5  241.60   13.62
  -1   3   5  228.76    7.06
  -1   3   5  230.69    7.21
  -1  -3   5  220.36    7.49
  -1  -3   5  195.69    6.38
   1   3  -4 1594.48   30.58
  -1   3   4 1579.86   28.09
  -1   3   4 1556.90   15.75
  -1   3   4 1544.60   16.08
  -1  -3   4 1587.85   18.31
  -1  -3   4 1571.61   17.25
   1   3  -3  200.68   13.32
  -1   3   3  206.70   12.05
  -1  -3   3  199.87    5.83
  -1  -3   3  181.39    5.02
   1   3  -2 1470.11   32.01
  -1   3   2 1509.94   30.21
   1   3  -1   15.41    8.23
  -1   3   1   25.35    7.13
  -1   3   0 4882.48   70.12
   1   3   0 4827.52   72.14
  -1   3  -1   13.80    6.29
   1   3   1   34.13    9.67
  -1   3  -2   11.85    5.25
   1   3   2   17.94    8.47
   1   3   2   16.95    2.48
   1  -3   2    3.45    0.90
  -1   3  -3  215.10   12.77
   1   3   3  209.04   14.17
   1   3   3  194.68    6.44
   1  -3   3  216.46    7.09
  -1  -3  -3  168.26    4.49
  -1   3  -4 3828.10   46.33
   1   3   4 3898.66   49.49
   1   3   4 3892.75   34.77
   1  -3   4 3929.22   35.05
   1  -3   4 3936.03   35.51
  -1  -3  -4 3894.77   33.01
  -1   3  -5   83.06   10.00
   1   3   5  108.94   13.22
   1   3   5  122.99    8.42
   1  -3   5   80.72    6.09
   1  -3   5   77.72    5.77
  -1  -3  -5   28.58    9.49
  -1   3  -6    8.42    6.66
   1   3   6    8.51    6.48
   1   3   6    6.45    4.03
   1  -3   6    3.69    1.78
   1  -3   6    7.34    4.22
  -1  -3  -6    6.01    2.26
  -1   3  -7   -0.60    4.10
   1   3   7   -1.28    5.30
   1   3   7   -1.03    2.58
   1  -3   7    0.94    3.33
  -1   3  -8 2696.98   59.75
   1   3   8 2880.74   64.61
   1   3   8 2720.64   55.40
   1  -3   8 2674.24   55.17
  -1   3  -9  207.84   14.37
   1   3   9  205.59   15.09
   1   3   9  197.42   10.69
   1  -3   9  201.28   11.13
  -1   3 -10  379.07   17.98
   1   3  10  367.77   18.42
   1   3  10  358.30   14.78
   1  -3  10  369.25   14.42
  -1   3 -11  572.77   23.22
   1   3  11  569.78   24.46
   1   3  11  554.63   20.37
   1  -3  11  539.69   19.78
  -1   3 -12 1430.67   42.35
   1   3  12 1302.96   39.96
   1   3  12 1387.43   37.15
   1  -3  12 1383.77   38.62
  -1   3 -13  343.96   19.12
   1   3  13  334.10   20.31
   1   3  13  305.05   15.57
   1  -3  13  303.44   15.31
  -1   3 -14  473.14   22.45
   1   3  14  479.56   22.89
   1   3  14  443.17   18.43
   1  -3  14  461.32   19.62
  -1   3 -15   14.81    9.11
   1   3  15    9.95    8.57
   1   3  15   13.81    7.58
   1  -3  15   12.51    7.15
  -1   3 -16  375.56   22.34
   1   3  16  347.40   22.55
   1   3  16  347.03   18.88
   1  -3  16  367.92   20.10
  -1   3 -17   16.25    8.82
   1   3  17   22.12   11.47
   1   3  17   14.48    7.49
   1  -3  17   16.13    8.61
  -1   3 -18  604.99   29.60
   1   3  18  592.54   26.76
   1   3  18  586.38   26.97
   1  -3  18  607.18   27.55
  -1   3 -19   48.63   13.04
   1   3  19   40.01   12.58
   1   3  19   30.14    9.07
   1  -3  19   43.29   12.45
   1   4 -17  307.30   22.92
  -1   4  17  290.14   20.93
   1   4 -16  212.17   20.37
  -1   4  16  177.37   17.11
   1   4 -15  610.41   32.06
  -1   4  15  584.91   29.54
  -1  -4  15  589.40   25.87
   1   4 -14   21.91   10.36
  -1   4  14   13.15    9.50
  -1  -4  14   11.74    6.38
   1   4 -13  405.79   23.71
  -1   4  13  404.54   21.69
  -1  -4  13  403.37   16.74
   1   4 -12   98.56   15.48
  -1   4  12   88.48   13.79
  -1  -4  12   78.75    9.36
   1   4 -11  516.66   24.01
  -1   4  11  493.53   21.87
  -1  -4  11  514.73   17.05
   1   4 -10   65.06   12.34
  -1   4  10   62.88   10.45
  -1  -4  10   58.09    7.15
   1   4  -9  221.70   16.35
  -1   4   9  223.63   15.11
  -1  -4   9  215.99    9.55
   1   4  -8  110.67   13.50
  -1   4   8  102.68   12.38
  -1  -4   8   97.69    6.62
   1   4  -7  181.57   15.05
  -1   4   7  189.32   14.54
  -1  -4   7  174.38    7.51
   1   4  -6  136.59   13.30
  -1   4   6  152.87   13.81
  -1  -4   6  139.25    5.99
   1   4  -5 1680.34   42.95
  -1   4   5 1720.14   42.79
   1   4  -4 1913.27   47.06
  -1   4   4 1856.37   44.35
   1   4  -3 2805.64   58.41
  -1   4   3 2804.74   56.14
   1   4  -2  456.19   22.35
  -1   4   2  437.31   17.94
   1   4  -1  437.30   20.18
  -1   4   1  443.24   19.82
  -1   4   0    5.85    8.10
   1   4   0    6.63    9.83
  -1   4  -1 1323.27   33.62
   1   4   1 1380.66   37.42
  -1   4  -2   67.59    9.58
   1   4   2   81.56   12.23
  -1   4  -3  402.26   17.67
   1   4   3  391.22   18.91
  -1   4  -4  131.13   11.93
   1   4   4  127.50   13.15
  -1   4  -5  925.45   29.06
   1   4   5  939.57   30.78
  -1   4  -6  528.63   23.09
   1   4   6  540.94   24.88
  -1   4  -7 1989.15   51.77
   1   4   7 2120.34   56.28
   1  -4   7 2059.48   43.63
  -1   4  -8   61.38   10.69
   1   4   8   68.01   13.60
   1  -4   8   62.88    7.25
  -1   4  -9 1320.73   33.16
   1   4   9 1335.14   35.47
   1  -4   9 1298.65   23.86
  -1   4 -10   17.82    7.83
   1   4  10   23.05   12.30
   1  -4  10   16.61    6.22
  -1   4 -11  700.37   28.54
   1   4  11  728.03   29.70
   1  -4  11  689.60   22.33
  -1   4 -12   43.16   12.38
   1   4  12   35.53   11.46
   1  -4  12   33.55    8.64
  -1   4 -13  395.62   22.84
   1   4  13  414.40   24.58
   1  -4  13  390.10   19.28
  -1   4 -14   39.61   10.21
   1   4  14   30.98   12.56
   1  -4  14   30.38    8.65
  -1   4 -15 1003.41   35.28
   1   4  15 1005.18   35.90
  -1   4 -16   20.45    9.67
   1   4  16   14.29   11.85
   1   5 -13   22.67   11.02
  -1   5  13   20.89    9.71
   1   5 -12  874.08   35.97
  -1   5  12  853.81   33.23
   1   5 -11  264.56   21.88
  -1   5  11  260.52   20.77
   1   5 -10  537.68   29.49
  -1   5  10  530.60   28.72
   1   5  -9  324.02   23.58
  -1   5   9  301.41   20.38
   1   5  -8  237.34   18.32
  -1   5   8  237.51   17.70
   1   5  -7  131.61   14.72
  -1   5   7  140.25   13.73
   1   5  -6  178.21   16.68
  -1   5   6  192.05   15.90
   1   5  -5   22.94    9.32
  -1   5   5   25.55    9.93
   1   5  -4  206.37   17.39
  -1   5   4  186.35   16.44
   1   5  -3  609.81   27.33
  -1   5   3  628.83   26.85
   1   5  -2  408.84   22.49
  -1   5   2  424.74   22.69
  -1   5   1 1227.98   38.27
   1   5  -1 1212.39   40.47
  -1   5   0 3521.98   54.27
   1   5   0 3727.09   60.89
  -1   5  -1 1211.18   37.66
   1   5   1 1298.33   41.22
  -1   5  -2  457.64   22.02
   1   5   2  493.15   24.92
  -1   5  -3    8.44    9.82
   1   5   3   10.80   10.91
  -1   5  -4  853.89   30.85
   1   5   4  882.59   32.74
  -1   5  -5   24.28    9.01
   1   5   5   31.34   11.92
  -1   5  -6  564.60   23.94
   1   5   6  541.56   25.71
  -1   5  -7  128.18   13.83
   1   5   7  115.41   14.85
  -1   5  -8  512.67   25.77
   1   5   8  525.56   27.30
  -1   5  -9   50.28   12.05
   1   5   9   51.95   12.90
  -1   5 -10  983.73   34.62
   1   5  10  994.09   35.58
  -1   5 -11  350.25   21.26
   1   5  11  365.37   25.09
  -1   5 -12  878.13   34.32
   1   5  12  836.61   35.07
   1   6  -3  284.35   21.48
  -1   6   3  269.51   19.37
   1   6  -2   15.28    9.48
  -1   6   2   13.95    7.83
   1   6  -1  527.64   27.60
  -1   6   1  518.49   26.32
  -1   6   0    8.09   10.84
   1   6   0   13.59   10.76
  -1   6  -1    7.63    7.13
   1   6   1    7.23    8.50
  -1   6  -2   41.30   10.26
   1   6   2   43.45   12.43
   2   0 -22  217.39   20.08
  -2   0  22  217.94   20.46
   2   0 -21    3.27    8.68
  -2   0  21    3.38    7.57
   2   0 -20  280.85   21.49
  -2   0  20  279.33   20.42
   2   0 -19    4.43    9.00
  -2   0  19    1.54    6.76
   2   0 -18  248.11   18.89
  -2   0  18  239.69   16.63
   2   0 -17    0.21    5.16
  -2   0  17    1.53    6.73
   2   0 -16 2279.88   53.62
  -2   0  16 2323.24   53.02
   2   0 -15   -1.20    5.55
  -2   0  15    3.01    6.37
   2   0 -14  150.49   13.02
  -2   0  14  148.50   11.71
   2   0 -13   -0.95    4.35
  -2   0  13    3.64    9.17
   2   0 -12 2495.94   38.63
   2   0 -11    0.31    3.95
  -2   0  11   -0.27    4.27
   2   0 -10 1475.85   27.11
   2   0  -9   -0.41    3.69
  -2   0   9    0.94    4.18
   2   0  -8  643.56   15.92
   2   0  -8  656.06   16.50
   2   0  -7    0.40    3.11
  -2   0   7   -0.24    2.67
   2   0  -7    1.23    2.34
   2   0  -6  214.33    9.40
  -2   0   6  222.03    8.46
   2   0  -6  228.07   10.74
  -2   0   6  233.58    9.68
   2   0  -5   -0.64    2.42
  -2   0   5    1.17    2.33
   2   0  -5   -0.88    2.93
  -2   0   5    1.47    4.11
   2   0  -3    0.90    2.52
  -2   0   3    0.67    2.37
   2   0  -3    1.12    3.08
  -2   0   3   -0.09    2.84
   2   0  -1    1.06    2.19
  -2   0   1    2.27    2.07
   2   0  -1    2.69    4.41
  -2   0   1    2.54    3.74
   2   0   0   34.73    3.61
  -2   0   0   38.40    3.02
   2   0   0   34.56    5.94
  -2   0   0   35.27    5.13
   2   0   1    0.13    0.72
   2   0   1    0.33    3.45
  -2   0  -1   -1.59    2.88
  -2   0  -2  209.85    8.60
   2   0   2  206.61    6.65
   2   0   2  205.11    8.93
  -2   0  -2  208.72    9.21
  -2   0  -3    0.65    2.30
   2   0   3    0.55    1.90
   2   0   3    2.83    4.92
  -2   0  -3   -1.25    3.09
  -2   0  -5   -0.85    3.38
   2   0   5   -0.41    2.20
   2   0   5   -0.12    3.80
  -2   0  -5   -0.20    2.74
  -2   0  -6   62.11    6.50
   2   0   6   61.89    6.10
   2   0   6   58.39    7.45
  -2   0  -7   -0.49    4.90
   2   0   7    3.62    4.58
  -2   0  -9   -3.14   30.18
   2   0   9   -0.75    7.03
  -2   0 -10  684.82   20.57
   2   0  10  648.26   19.98
  -2   0 -11    1.17    4.83
   2   0  11   -2.46    8.75
  -2   0 -12 4335.00   88.17
  -2   0 -13   -2.37    6.73
   2   0  13   -6.53    8.76
  -2   0 -14 1565.97   40.46
  -2   0 -15    0.23    6.71
   2   0  15   -2.07    9.48
  -2   0 -16 3074.84   51.68
  -2   0 -17    6.10    8.98
   2   0  17   -1.65    8.71
  -2   0 -18  622.28   28.86
   2   0  18  635.87   29.58
  -2   0 -19    0.61    6.46
   2   0  19    2.11    8.48
  -2   0 -20  944.45   40.19
   2   0  20  975.52   42.15
  -2   0 -21   -1.85    6.66
   2   0  21   -3.07    7.89
   2   1 -22   15.17    8.75
  -2   1  22   14.60    8.33
   2  -1 -22   14.47   10.56
  -2  -1  22   22.39    9.77
   2   1 -21  419.96   28.53
  -2   1  21  409.89   25.16
   2  -1 -21  437.81   27.41
  -2  -1  21  435.20   25.77
  -2   1  20    5.12    7.27
   2   1 -20    2.02    7.11
   2  -1 -20   10.82   11.67
  -2  -1  20    4.32    8.96
   2   1 -19 1374.56   42.44
  -2   1  19 1394.82   41.43
   2  -1 -19 1409.51   43.53
  -2  -1  19 1393.61   42.13
   2   1 -18    9.56    7.13
  -2   1  18   16.42    8.44
   2  -1 -18   10.96    8.18
  -2  -1  18    6.22    6.44
   2   1 -17   52.54   12.68
  -2   1  17   57.43   11.84
   2  -1 -17   58.63   12.86
  -2  -1  17   52.03   10.29
   2   1 -16    2.28    5.49
  -2   1  16    2.45    5.03
   2  -1 -16    0.34    5.64
  -2  -1  16    2.20    7.35
  -2   1  15  407.21   17.68
   2   1 -15  422.37   20.48
   2  -1 -15  407.09   19.19
  -2  -1  15  411.31   19.86
  -2   1  14   81.05   11.25
   2   1 -14   69.67   11.96
   2  -1 -14   70.62   11.04
  -2  -1  14   75.80    9.91
  -2   1  13 1035.70   30.22
   2   1 -13  973.83   30.55
   2  -1 -13  981.52   29.71
   2   1 -12  123.35   11.80
  -2   1  12  138.15   11.16
   2  -1 -12  120.75   11.44
  -2  -1  12  138.51   12.24
  -2   1  11 1089.48   27.01
   2   1 -11  950.93   25.82
   2  -1 -11  955.63   23.88
  -2  -1  11 1135.30   27.83
   2   1 -10  181.85   12.61
  -2   1  10  190.60   10.11
   2  -1 -10  159.08   10.11
  -2  -1  10  191.51   10.23
   2   1  -9 3816.42   49.48
   2  -1  -9 3934.15   48.07
  -2   1   8  219.13    9.30
   2   1  -8  224.26   11.75
   2  -1  -8  222.06   11.64
   2   1  -7 3038.11   40.03
  -2   1   7 3054.47   36.72
   2   1  -7 3078.67   38.55
   2  -1  -7 3019.32   37.40
   2  -1  -7 2879.17   35.28
   2   1  -6  245.17   11.50
  -2   1   6  229.47    8.42
  -2   1   6  249.42    9.97
   2   1  -6  242.75   11.09
   2  -1  -6  240.75    9.84
  -2  -1   6  245.26    9.86
   2  -1  -6  239.52   11.01
   2   1  -5   78.02    6.40
  -2   1   5   73.80    5.15
   2   1  -5   74.49    7.51
  -2   1   5   78.82    5.77
   2  -1  -5   78.02    7.18
  -2  -1   5   90.22    6.49
  -2  -1   5   81.77    5.58
   2  -1  -5   76.21    5.84
   2   1  -4   12.68    5.18
  -2   1   4    2.79    4.32
   2   1  -4   -0.61    2.68
  -2   1   4   -0.28    2.05
  -2  -1   4    3.10    4.36
   2  -1  -4    0.94    3.47
   2  -1  -4   -0.06    1.82
  -2  -1   4    0.22    2.04
  -2   1   3 2112.73   32.23
  -2   1   3 2108.79   30.55
   2   1  -3 2086.33   34.15
  -2  -1   3 2271.04   35.91
   2  -1  -3 2083.35   31.76
   2  -1  -3 2141.49   30.89
  -2  -1   3 2192.55   33.69
  -2   1   2  150.30    4.73
   2   1  -2  157.75    8.80
  -2   1   2  153.33    6.31
  -2   1   2  147.61    4.41
   2   1  -2  146.53    6.90
   2  -1  -2  153.94    6.55
  -2  -1   2  157.32    6.72
  -2  -1   2  156.46    7.24
  -2   1   1  101.22    3.36
   2   1  -1  107.27    7.62
  -2   1   1  110.44    5.61
   2   1  -1  106.63    6.21
   2  -1  -1  105.15    3.31
   2  -1  -1  107.51    5.89
  -2  -1   1  104.95    5.84
  -2  -1   1  113.45    6.59
  -2   1   0  657.87   10.68
  -2   1   0  658.86   13.22
   2   1   0  683.15   15.92
   2   1   0  640.99   13.69
   2  -1   0  620.16   10.36
  -2  -1   0  692.71   14.79
  -2  -1   0  683.66   14.04
   2  -1   0  656.02   13.55
  -2   1  -1 3457.21   49.27
  -2   1  -2  294.81    7.95
  -2   1  -2  280.35    8.63
   2   1   2  282.42   10.62
   2   1   2  289.76   10.31
   2  -1   2  279.72    7.57
  -2  -1  -2  305.32    9.64
  -2  -1  -2  286.21    8.90
   2  -1   2  278.57    9.93
   2   1   4 1218.69   23.55
  -2   1  -4 1237.80   22.67
  -2   1  -4 1267.28   23.50
   2   1   4 1267.97   24.60
   2   1   4 1247.23   23.84
   2  -1   4 1233.12   24.09
  -2  -1  -4 1275.61   23.26
   2  -1   4 1261.08   22.43
   2  -1   5 4792.27   51.27
   2  -1   5 4593.62   51.03
  -2  -1  -5 4858.08   52.76
   2   1   6   60.75    7.19
  -2   1  -6   63.82    7.26
  -2  -1  -6   68.41   11.08
   2  -1   6   58.86    7.47
   2  -1   6   62.86    5.61
   2   1   7 1299.76   23.94
  -2   1  -7 1248.66   22.74
  -2  -1  -7 1308.02   26.31
   2  -1   7 1289.40   24.53
   2   1   8   38.32    7.35
  -2   1  -8   38.49    6.62
  -2  -1  -8   40.51   10.48
   2  -1   8   38.20    8.48
   2   1   9 2556.15   43.59
  -2   1  -9 2585.21   43.47
  -2  -1  -9 2579.53   44.28
   2  -1   9 2586.31   44.04
   2   1  10   44.51    9.41
  -2   1 -10   39.30    8.68
  -2  -1 -10   43.09   17.60
   2  -1  10   31.74    8.44
   2   1  11  444.20   17.30
  -2   1 -11  443.62   17.25
  -2  -1 -11  440.91   19.89
   2  -1  11  437.68   17.59
   2   1  12    0.59    5.44
  -2   1 -12    3.65    6.31
  -2  -1 -12    9.40    5.50
   2  -1  12    5.25    9.63
   2   1  13 1565.03   39.64
  -2   1 -13 1523.88   37.95
  -2  -1 -13 1571.98   44.21
   2  -1  13 1590.30   39.67
   2   1  14   10.30    7.57
  -2   1 -14   16.54    8.37
  -2  -1 -14   10.71    9.99
   2  -1  14   15.57   16.48
   2   1  15 3022.50   72.64
  -2   1 -15 3006.16   72.10
  -2  -1 -15 2959.69   70.35
   2  -1  15 2882.66   68.28
   2   1  16   -2.50    7.05
  -2   1 -16    0.77    6.00
  -2  -1 -16   -2.09    6.47
   2  -1  16    0.23    7.14
  -2   1 -17  355.28   21.44
   2   1  17  338.78   20.85
  -2  -1 -17  337.78   27.54
   2  -1  17  340.01   23.04
   2   1  18   -1.53    7.05
  -2   1 -18   -3.20    6.55
  -2  -1 -18   -0.95    5.45
   2  -1  18   -1.44    7.17
  -2   1 -19 1764.26   54.36
   2   1  19 1685.74   54.39
  -2  -1 -19 1707.91   59.02
   2  -1  19 1737.32   54.59
  -2   1 -20   72.69   13.76
   2   1  20   66.06   14.64
  -2  -1 -20   69.49   37.36
   2  -1  20   76.15   14.25
   2   1  21  589.51   30.32
  -2   1 -21  634.11   31.22
  -2  -1 -21  579.60   51.34
   2  -1  21  600.96   30.80
  -2   2  21   33.53   10.69
   2   2 -21   38.56   14.47
   2  -2 -21   21.09   21.04
  -2  -2  21   24.95   10.06
  -2   2  20  774.05   34.80
   2   2 -20  743.74   35.50
   2  -2 -20  787.84   44.51
  -2  -2  20  772.81   34.51
  -2   2  19   14.22    8.60
   2   2 -19    8.83    7.29
   2  -2 -19   10.97   13.38
  -2  -2  19   16.04    9.57
  -2   2  18 1467.38   41.95
   2   2 -18 1488.79   40.92
   2  -2 -18 1467.81   51.13
  -2  -2  18 1445.38   41.94
   2   2 -17  337.16   21.92
  -2   2  17  329.11   18.27
   2  -2 -17  341.64   32.88
  -2  -2  17  346.73   19.33
  -2   2  16  482.37   19.39
   2   2 -16  511.63   24.77
   2  -2 -16  505.18   31.82
  -2  -2  16  504.15   21.59
  -2   2  15   20.11    8.11
   2   2 -15   18.25   10.64
   2  -2 -15   19.08   12.95
  -2  -2  15   19.91    6.24
  -2   2  14  348.40   16.31
   2   2 -14  371.52   21.03
   2  -2 -14  374.46   21.90
  -2  -2  14  359.00   16.56
  -2   2  13   28.20    7.79
   2   2 -13   21.17    9.51
   2  -2 -13   21.60   15.00
  -2  -2  13   23.45    7.48
   2   2 -12 3720.67   81.12
  -2   2  12 3618.60   73.12
   2  -2 -12 3741.09   83.82
  -2  -2  12 3130.46   65.26
  -2   2  11  510.25   18.20
   2   2 -11  508.52   22.50
   2  -2 -11  516.31   19.94
  -2  -2  11  591.79   21.74
  -2   2  10  307.51   13.20
   2   2 -10  273.25   14.95
   2  -2 -10  281.76   16.20
  -2  -2  10  322.69   14.75
  -2   2   9   21.04    5.21
   2   2  -9   19.91    7.78
   2  -2  -9   19.37   11.67
  -2  -2   9   20.14    5.75
   2   2  -7 5982.75   86.19
   2   2  -6 2306.50   36.80
  -2   2   6 2267.43   30.66
   2   2  -6 2316.40   32.92
  -2   2   6 2307.23   28.82
  -2   2   6 2339.41   29.43
  -2  -2   6 2283.36   29.97
  -2   2   5  128.42    6.58
   2   2  -5  130.62   10.38
  -2   2   5  124.16    7.05
  -2   2   5  128.30    6.25
   2   2  -5  134.03    8.34
   2  -2  -5  125.73    7.24
  -2  -2   5  125.73    6.48
  -2   2   4 2074.95   26.58
   2   2  -4 2043.30   32.29
  -2   2   4 1987.29   26.06
   2   2  -4 2094.53   27.68
  -2   2   4 2096.21   25.46
   2  -2  -4 2097.02   25.28
  -2  -2   4 2094.76   26.46
  -2   2   3  116.75   11.79
   2   2  -3  110.57    9.89
  -2   2   3  111.88    6.28
   2   2  -3  110.62    5.84
  -2   2   3  121.42    5.58
  -2  -2   3  108.47    5.61
   2  -2  -3  116.92    6.37
   2   2  -2 2201.75   33.16
  -2   2   2 2206.39   27.20
   2   2  -2 2223.02   26.02
  -2   2   2 2247.51   25.30
   2  -2  -2 2251.90   25.32
  -2  -2   2 2300.34   27.11
   2  -2  -2 2233.62   26.99
  -2   2   1 1279.56   18.88
   2   2  -1 1272.79   23.74
   2   2  -1 1351.30   18.29
  -2   2   1 1335.73   17.23
   2  -2  -1 1298.27   17.14
  -2  -2   1 1346.58   18.55
   2  -2  -1 1309.42   18.76
   2  -2   0 7716.36   74.06
  -2   2  -1   49.31    5.05
   2   2   1   80.04    9.55
  -2   2  -1   47.38    3.78
   2   2   1   84.57    6.42
   2  -2   1   48.76    4.50
  -2  -2  -1   93.07    6.28
   2  -2   1   46.31    4.99
  -2   2  -2  618.82   13.19
  -2   2  -2  664.41   11.80
   2   2   2  628.01   17.13
   2   2   2  634.17   12.94
   2  -2   2  610.94   12.59
  -2  -2  -2  607.96   11.46
   2  -2   2  618.15   12.98
  -2   2  -3  193.45    8.77
  -2   2  -3  201.10    7.11
   2   2   3  203.51   12.08
   2   2   3  200.72    8.65
   2  -2   3  194.52    8.42
  -2  -2  -3  197.65    7.08
   2  -2   3  196.67    8.24
   2   2   4 7153.17   77.75
   2  -2   4 7192.49   73.74
   2  -2   4 7144.02   72.00
  -2   2  -5  482.72   13.68
   2   2   5  486.07   17.14
   2   2   5  489.70   14.26
  -2   2  -5  506.91   12.29
  -2  -2  -5  487.14   12.37
   2  -2   5  473.13   13.39
  -2   2  -6  399.83   13.34
   2   2   6  406.29   16.02
   2   2   6  386.63   12.72
   2  -2   6  393.86   13.70
  -2   2  -7  237.88   11.57
   2   2   7  246.45   13.78
   2   2   7  239.42   11.61
   2  -2   7  229.87   11.28
  -2   2  -8 3425.06   42.90
   2   2   8 3479.34   46.09
   2   2   8 3405.53   41.21
   2  -2   8 3362.96   41.00
  -2   2  -9   29.00    8.42
   2   2   9   26.64    9.61
   2   2   9   23.30    6.44
   2  -2   9   26.38    7.26
  -2   2 -10  220.65   13.01
   2   2  10  236.92   13.91
   2  -2  10  221.30   12.78
   2   2  11  225.26   14.26
  -2   2 -11  246.33   14.63
  -2  -2 -11  245.06   15.65
   2  -2  11  248.43   14.94
  -2   2 -12 1141.43   30.93
   2   2  12 1163.75   32.22
  -2  -2 -12 1144.85   32.68
   2  -2  12 1155.81   32.55
  -2   2 -13  375.99   17.21
   2   2  13  342.97   15.97
  -2  -2 -13  384.37   19.92
   2  -2  13  372.81   17.19
  -2   2 -14  157.28   14.98
   2   2  14  135.02   12.17
  -2  -2 -14  133.78   25.55
   2  -2  14  133.40   11.78
  -2   2 -15   82.05   12.29
   2   2  15   76.67   10.57
  -2  -2 -15   86.39   32.61
   2  -2  15   79.03   11.33
   2   2  16  653.64   27.01
  -2   2 -16  685.68   27.97
  -2  -2 -16  660.87   30.11
   2  -2  16  678.76   28.75
   2   2  17   -2.05    6.41
  -2   2 -17    0.89    5.86
  -2  -2 -17   -1.54    5.61
   2  -2  17   -1.09    6.73
   2   2  18  641.36   29.55
  -2   2 -18  618.02   30.01
  -2  -2 -18  578.22   30.26
   2  -2  18  623.20   29.42
   2   2  19   23.21    9.37
  -2   2 -19   33.31   11.88
  -2  -2 -19   22.59   18.58
   2  -2  19   26.78   10.23
   2   2  20  354.58   23.18
  -2   2 -20  413.03   27.35
  -2  -2 -20  336.18   55.21
   2  -2  20  368.56   25.44
   2   3 -20   69.35   13.54
  -2   3  20   55.26   10.52
   2  -3 -20   62.84   14.41
  -2  -3  20   70.59   12.64
  -2   3  19  776.13   28.83
   2   3 -19  802.81   34.46
   2  -3 -19  773.41   32.67
  -2  -3  19  766.23   28.96
   2   3 -18  178.57   18.83
  -2   3  18  166.75   15.13
  -2  -3  18  154.88   14.67
   2   3 -17  648.46   31.60
  -2   3  17  638.54   26.81
  -2  -3  17  638.09   27.27
   2   3 -16   56.24   12.89
  -2   3  16   57.49   10.87
  -2  -3  16   58.20   10.69
   2   3 -15  132.45   15.55
  -2   3  15  135.93   14.14
  -2   3  15  128.29   11.13
  -2  -3  15  121.20   10.79
   2   3 -14   -0.08    6.15
  -2   3  14    0.16    4.85
  -2   3  14    0.24    3.41
  -2  -3  14    0.64    4.09
   2   3 -13  614.77   26.14
  -2   3  13  602.77   22.46
  -2   3  13  592.51   19.15
  -2  -3  13  639.58   21.80
   2   3 -12 3349.03   52.60
  -2   3  12 3262.70   75.37
  -2   3  12 3249.05   69.31
  -2  -3  12 3384.57   45.23
   2   3 -11 4805.23   93.83
  -2   3  11 4925.94   90.72
  -2   3  11 4730.17   83.07
  -2  -3  11 4824.80   87.67
   2   3 -10 1955.72   48.99
  -2   3  10 1686.05   38.45
  -2   3  10 1875.77   37.40
  -2  -3  10 1949.44   39.21
   2   3  -9 2385.96   52.50
  -2   3   9 2311.37   47.07
  -2   3   9 2400.84   42.94
  -2  -3   9 2452.57   45.90
   2   3  -8 4738.42   98.92
  -2   3   8 4875.28   98.20
  -2   3   8 4590.29   87.19
  -2  -3   8 5552.85  107.17
   2   3  -6  415.44   20.13
  -2   3   6  383.34   14.77
  -2   3   6  375.80    9.74
  -2   3   6  366.87   10.00
  -2  -3   6  371.57   10.89
  -2  -3   6  386.37   10.96
   2   3  -5  532.96   20.49
  -2   3   5  523.24   15.66
  -2   3   5  551.14   10.29
  -2   3   5  538.24   11.18
  -2  -3   5  554.44   12.46
  -2  -3   5  566.17   12.00
   2   3  -4  964.29   24.83
  -2   3   4  971.04   20.74
  -2   3   4  980.59   14.20
  -2  -3   4  977.47   15.64
  -2  -3   4  972.86   14.25
   2   3  -3  990.00   24.81
  -2   3   3 1012.66   20.56
   2   3  -3  961.11   15.85
  -2   3   3 1030.34   12.11
  -2   3   3 1000.76   12.64
  -2  -3   3  993.42   14.82
   2   3  -2  494.26   19.12
  -2   3   2  529.13   16.53
   2   3  -2  487.50   11.97
  -2   3   2  527.70    9.78
  -2  -3   2  516.39   11.22
  -2   3   1 3386.29   51.22
   2   3  -1 3362.37   56.67
   2   3  -1 3323.40   43.33
  -2  -3   1 3401.33   44.47
  -2   3   0 4264.94   61.50
   2   3   0 4515.50   69.98
   2   3   0 4199.36   53.52
  -2   3   0 4135.82   51.08
  -2  -3   0 4311.49   54.75
  -2   3  -1 1939.50   28.74
   2   3   1 1982.39   34.77
   2   3   1 1939.70   20.74
  -2   3  -1 1860.85   17.90
  -2  -3  -1 2005.50   20.60
   2  -3   1 1931.63   19.48
  -2   3  -2  509.15   15.65
   2   3   2  517.14   19.60
   2   3   2  512.48   11.08
  -2  -3  -2  507.31   10.27
  -2   3  -3 6980.81   66.09
   2   3   3 6941.83   73.61
   2   3   3 6978.11   57.45
  -2   3  -3 7073.16  126.08
  -2  -3  -3 7018.51  125.44
   2  -3   3 7017.44  125.78
  -2   3  -4  341.00   13.99
   2   3   4  388.10   19.67
   2   3   4  393.73   12.46
  -2   3  -4  348.07    9.07
  -2  -3  -4  334.67    9.17
   2  -3   4  342.92   10.91
  -2   3  -5 1699.90   39.41
   2   3   5 1693.27   42.62
   2   3   5 1686.57   36.05
  -2   3  -5 1821.83   37.50
   2  -3   5 1685.52   36.02
  -2   3  -6  330.99   14.80
   2   3   6  361.54   18.82
   2   3   6  343.88   13.45
   2  -3   6  340.57   13.77
  -2   3  -7  937.09   27.07
   2   3   7  986.02   31.44
   2   3   7  971.10   25.13
   2  -3   7  971.92   26.01
  -2   3  -8  309.02   15.08
   2   3   8  330.83   18.05
   2   3   8  317.52   13.53
   2  -3   8  303.62   12.93
  -2   3  -9  439.25   19.23
   2   3   9  447.79   21.89
   2   3   9  443.21   17.54
   2  -3   9  471.53   17.64
  -2   3 -10  190.79   13.87
   2   3  10  195.04   15.46
   2   3  10  181.91   12.84
   2  -3  10  174.70   11.88
  -2   3 -11   36.32    8.71
   2   3  11   35.38   10.48
   2   3  11   33.05    7.37
   2  -3  11   34.93    9.57
  -2   3 -12   31.61    9.72
   2   3  12   26.63    9.71
   2   3  12   31.63    8.30
   2  -3  12   33.74    9.23
  -2   3 -13  523.86   21.44
   2   3  13  525.85   24.24
   2   3  13  501.27   19.65
   2  -3  13  488.59   19.89
  -2   3 -14  692.79   28.85
   2   3  14  691.11   28.88
   2   3  14  683.45   25.68
   2  -3  14  699.19   26.99
  -2   3 -15   87.31   13.20
   2   3  15   79.68   13.95
   2   3  15   74.64   11.20
   2  -3  15   84.12   12.36
  -2   3 -16  105.37   13.84
   2   3  16   93.18   14.24
   2   3  16   92.85   12.28
   2  -3  16   98.94   13.42
  -2   3 -17  837.66   37.22
   2   3  17  803.32   37.25
   2   3  17  833.00   35.38
   2  -3  17  799.28   35.19
  -2   3 -18   85.05   14.44
   2   3  18   82.85   14.14
   2   3  18   82.25   13.74
   2  -3  18   86.65   14.39
   2   4 -17   65.64   13.93
  -2   4  17   53.19   11.36
   2   4 -16 1864.52   49.11
  -2   4  16 1742.75   43.87
   2   4 -15   95.50   15.80
  -2   4  15   77.00   16.02
  -2  -4  15   83.52   11.78
   2   4 -14 1865.11   55.88
  -2   4  14 2302.14   45.67
  -2  -4  14 2301.19   40.50
   2   4 -13  258.39   20.82
  -2   4  13  216.86   15.79
  -2  -4  13  217.13   13.60
   2   4 -12  303.01   20.48
  -2   4  12  278.31   17.67
  -2  -4  12  279.40   14.45
   2   4 -11  149.87   15.16
  -2   4  11  132.10   13.29
  -2  -4  11  130.60   10.19
   2   4 -10  435.24   22.43
  -2   4  10  442.69   19.53
  -2  -4  10  416.13   13.89
   2   4  -9  203.40   18.06
  -2   4   9  193.35   14.15
  -2  -4   9  174.02    8.97
   2   4  -8  332.62   20.69
  -2   4   8  318.43   16.42
  -2  -4   8  292.79    9.83
   2   4  -7  407.25   22.75
  -2   4   7  379.12   18.50
  -2  -4   7  366.23   11.85
   2   4  -6  176.04   15.29
  -2   4   6  171.47   12.45
  -2  -4   6  164.72    6.48
   2   4  -5    5.74    6.13
  -2  -4   5   -2.57    2.59
   2   4  -410216.82   89.51
  -2   4   4 9781.77   71.14
   2   4  -3 1099.95   36.22
  -2   4   3 1074.86   30.89
   2   4  -2  932.04   33.82
  -2   4   2  840.93   25.62
   2   4  -1    7.91    7.39
  -2   4   1    4.58    6.16
  -2   4   0 1665.08   38.64
   2   4   0 1749.40   45.07
  -2   4  -1   18.71    6.66
   2   4   1   25.83    9.48
  -2   4  -2  401.68   16.39
   2   4   2  412.69   21.37
  -2   4  -3   78.42    8.96
   2   4   3   86.99   12.63
  -2   4  -4  518.39   19.99
   2   4   4  562.15   24.36
  -2   4  -5  296.95   15.02
   2   4   5  286.79   17.92
  -2   4  -6  658.72   25.11
   2   4   6  692.15   29.38
  -2   4  -7 1693.45   35.00
   2   4   7 1713.51   41.02
  -2   4  -8 1238.01   30.64
   2   4   8 1241.77   36.47
  -2   4  -9  180.89   14.46
   2   4   9  188.16   18.10
   2  -4   9  182.41   11.88
  -2   4 -10  948.56   31.64
   2   4  10  951.81   34.21
   2  -4  10  994.44   27.63
  -2   4 -11   30.81    9.86
   2   4  11   29.50   12.33
   2  -4  11   26.29    8.48
  -2   4 -12  587.55   25.87
   2   4  12  575.17   29.79
  -2   4 -13    2.51    5.20
   2   4  13    2.71    9.88
   2  -4  13   -0.64    4.21
  -2   4 -14  432.49   25.41
   2   4  14  426.47   26.30
   2   4  15    0.62    6.57
   2   5 -13   53.27   13.18
   2   5 -12   11.99   10.67
  -2   5  12    4.83    6.71
   2   5 -11  396.88   25.43
  -2   5  11  379.51   21.94
   2   5 -10   74.05   14.09
  -2   5  10   43.01   10.41
   2   5  -9  513.57   28.35
  -2   5   9  545.49   27.01
   2   5  -8   23.34    9.77
  -2   5   8   24.87    9.01
   2   5  -7  157.33   16.43
  -2   5   7  168.25   14.93
   2   5  -6  109.15   14.94
  -2   5   6  114.04   14.14
   2   5  -5  856.60   33.39
  -2   5   5  803.51   26.63
   2   5  -4   53.98   12.81
  -2   5   4   53.28   10.87
   2   5  -3  131.34   16.77
  -2   5   3  150.02   13.36
   2   5  -2  308.29   22.11
  -2   5   2  326.41   18.60
  -2   5   1  417.10   20.03
   2   5  -1  421.53   24.89
  -2   5   0   95.90   11.72
   2   5   0   79.54   14.77
  -2   5  -1 1385.91   38.43
   2   5   1 1371.21   43.75
  -2   5  -2    0.27    4.72
   2   5   2    6.14    6.51
  -2   5  -3   81.05   11.55
   2   5   3   70.22   12.53
  -2   5  -4    6.34    7.19
   2   5   4    8.08   11.47
  -2   5  -5 1207.93   32.86
   2   5   5 1191.01   37.74
  -2   5  -6   11.59    7.42
   2   5   6    9.52    9.64
  -2   5  -7  518.29   24.43
   2   5   7  514.69   28.01
  -2   5  -8   21.49    8.51
   2   5   8   19.13   10.59
  -2   5  -9  171.05   15.73
   2   5   9  195.84   20.08
  -2   5 -10    3.56    5.15
   2   5  10   10.21   12.98
  -2   5 -11 1107.96   35.70
   2   5  11 1064.92   40.30
   3   0 -22   -1.35    5.71
  -3   0  22    5.31   11.49
   3   0 -21  258.90   21.49
  -3   0  21  263.14   20.28
   3   0 -20    1.62    6.17
  -3   0  20    4.26   10.29
   3   0 -19  678.03   29.26
  -3   0  19  686.25   27.99
   3   0 -18   -0.52    5.49
  -3   0  18    1.52    7.02
   3   0 -17  716.97   29.88
  -3   0  17  706.95   27.38
   3   0 -16    7.22    9.78
  -3   0  16    2.70    7.54
   3   0 -15  706.23   25.70
  -3   0  15  823.98   28.53
   3   0 -14    1.20    4.30
  -3   0  14   -0.67    5.86
   3   0 -13  764.84   25.75
  -3   0  13  835.99   26.50
   3   0 -12    0.09    3.96
  -3   0  12   -0.11    4.55
   3   0 -11 3685.76   57.49
   3   0 -10   -0.35    3.80
   3   0 -10    0.48    1.88
   3   0  -9  408.99   13.78
   3   0  -9  428.37   21.41
   3   0  -8    2.01    4.12
   3   0  -8    1.04    2.88
   3   0  -6   -0.36    2.79
   3   0  -6    1.25    3.62
   3   0  -5  400.15   11.01
  -3   0   5  419.20   11.38
   3   0  -5  397.80   13.41
  -3   0   5  431.74   13.41
   3   0  -4    0.62    1.94
  -3   0   4    0.43    2.29
   3   0  -4   -0.97    3.34
  -3   0   4    1.85    4.04
   3   0  -3 2364.24   38.54
  -3   0   3 2363.35   38.09
   3   0  -2   -0.58    1.49
  -3   0   2    1.39    2.47
   3   0  -2    0.34    3.29
  -3   0   2    0.74    3.32
   3   0   0    0.08    1.56
  -3   0   0    1.45    2.92
   3   0   0   -0.52    3.27
  -3   0   0    0.53    3.32
  -3   0  -2   -0.19    1.57
   3   0   2   -0.08    1.49
   3   0   2   -0.21    3.75
  -3   0  -2    0.30    3.07
  -3   0  -3 1223.21   22.45
   3   0   3 1211.87   21.60
   3   0   3 1263.44   26.64
  -3   0  -4   -0.14    2.21
   3   0   4    1.59    3.50
   3   0   4    1.83    4.31
  -3   0  -6    2.10    4.83
   3   0   6    2.32    4.66
  -3   0  -7 1090.39   21.63
  -3   0  -8   -0.48    3.16
   3   0   8   -1.09    4.72
  -3   0  -9  575.58   18.08
   3   0   9  584.43   19.42
  -3   0 -10   -0.10    5.05
  -3   0 -11 5358.04  105.24
  -3   0 -12   -3.94    6.43
   3   0  12    0.41    8.15
  -3   0 -13   50.66   10.15
   3   0  13   46.69   10.10
  -3   0 -14    1.44    5.17
   3   0  14    1.67    7.93
  -3   0 -15 1674.90   38.95
   3   0  15 1674.58   39.28
  -3   0 -16   -2.42    6.91
   3   0  16   -5.33    8.93
  -3   0 -17 2591.31   60.83
   3   0  17 2760.46   52.72
  -3   0 -18    1.25    6.90
   3   0  18   10.69    9.57
  -3   0 -19   19.90    9.92
   3   0  19   18.65   10.98
  -3   0 -20    2.82    6.52
   3   0  20    2.71    7.41
   3   1 -22  138.12   17.67
  -3   1  22  124.22   15.49
   3  -1 -22  141.50   17.56
  -3  -1  22  130.81   15.45
   3   1 -21   25.64   10.66
  -3   1  21   27.62    9.71
   3  -1 -21   23.95   10.70
  -3  -1  21   24.69   11.11
  -3   1  20  205.39   16.61
   3   1 -20  221.31   19.48
   3  -1 -20  212.43   18.50
  -3  -1  20  215.61   19.26
   3   1 -19  139.94   16.94
  -3   1  19  131.58   13.96
   3  -1 -19  131.83   15.00
  -3  -1  19  150.75   15.82
  -3   1  18   78.02   10.99
   3   1 -18   91.71   14.87
   3  -1 -18   87.36   13.27
  -3  -1  18   90.21   12.32
  -3   1  17   53.12   10.48
   3   1 -17   55.77   12.42
   3  -1 -17   45.40   11.24
  -3  -1  17   51.50   10.76
   3   1 -16 3928.60   55.95
  -3   1  16 3571.73   47.09
   3  -1 -16 3879.91   54.10
  -3  -1  16 3919.61   52.17
   3   1 -15  881.66   31.43
  -3   1  15 1053.54   33.76
   3  -1 -15  878.87   30.62
  -3  -1  15  991.37   33.28
   3   1 -14 1206.43   34.54
  -3   1  14 1383.60   37.41
   3  -1 -14 1228.61   34.02
  -3  -1  14 1401.18   37.62
   3   1 -13 1257.67   35.88
  -3   1  13 1307.31   35.66
   3  -1 -13 1267.83   34.36
  -3  -1  13 1342.05   36.45
   3   1 -12 1189.35   27.99
   3  -1 -12 1193.39   25.51
   3   1 -11    1.74    5.40
  -3   1  11    4.70    5.99
   3  -1 -11    1.81    4.62
  -3  -1  11    2.36    3.13
   3   1 -10  176.06   11.61
   3   1 -10  176.71   11.99
   3  -1 -10  167.14   10.21
   3  -1 -10  172.63   11.02
   3   1  -9  101.10   10.31
   3   1  -9   97.29    9.93
   3  -1  -9   90.10    8.04
   3  -1  -9   97.39   14.10
   3   1  -8  141.77   10.68
  -3   1   8  135.96    7.08
   3   1  -8  146.19   18.35
   3  -1  -8  138.64   11.21
   3  -1  -8  136.57    8.67
   3   1  -7  228.39   11.94
  -3   1   7  246.13    8.19
   3   1  -7  237.74   19.76
   3  -1  -7  239.58   11.75
   3  -1  -7  237.31    9.55
   3   1  -6 2791.27   37.27
  -3   1   6 2858.70   32.59
   3   1  -6 2865.40   36.63
   3  -1  -6 2829.51   32.63
   3  -1  -6 2928.73   36.99
  -3   1   5 1613.55   24.38
  -3   1   5 1606.85   20.15
   3   1  -5 1559.18   29.18
   3   1  -5 1579.75   24.29
   3  -1  -5 1534.25   23.63
   3  -1  -5 1540.74   20.29
  -3  -1   5 1639.41   24.99
  -3   1   3 2617.42   41.20
   3   1  -3 2568.96   41.08
   3   1  -3 2536.06   40.20
   3  -1  -3 2482.13   39.23
  -3  -1   3 2659.31   41.79
   3  -1  -3 2503.69   34.40
  -3  -1   3 2639.85   41.48
  -3   1   2  511.61    7.72
   3   1  -2  482.37   13.35
  -3   1   2  503.60   13.44
  -3   1   2  480.83    7.27
   3   1  -2  482.20   13.76
   3  -1  -2  490.57   13.85
  -3  -1   2  522.37   13.30
  -3  -1   2  505.46   13.16
   3   1  -1   29.19    5.77
   3   1  -1   30.88    5.84
  -3   1   1   46.06    6.40
  -3  -1   1   32.08    4.64
   3  -1  -1   48.13    7.12
  -3  -1   1   32.91    5.11
  -3   1  -1    8.70    2.29
  -3   1  -1    8.09    3.90
   3  -1   1    8.80    2.19
   3  -1   1    9.53    5.00
  -3  -1  -1    9.14    3.64
  -3   1  -2  159.78    5.76
  -3   1  -2  160.59    8.83
   3   1   2  153.90    8.29
   3   1   2  153.36    8.74
   3  -1   2  156.98    9.54
  -3  -1  -2  165.60    8.30
   3  -1   2  157.22    5.49
   3   1   3   15.24    8.58
  -3   1  -3    4.71    4.70
  -3   1  -3   10.29    4.33
   3   1   3    8.56    4.17
   3   1   3    6.41    4.73
   3  -1   3   10.54    5.54
  -3  -1  -3    9.31    3.94
   3  -1   3    8.68    2.73
  -3   1  -5  240.75    9.44
   3   1   5  255.61   12.27
   3   1   5  246.14   11.81
   3  -1   5  256.18    9.04
   3  -1   5  248.29   11.67
   3   1   6   33.28    7.82
  -3   1  -6   30.68    5.20
  -3  -1  -6   34.60    7.76
   3  -1   6   33.01    7.69
   3  -1   6   31.47    4.81
   3   1   7 2287.37   40.51
  -3   1  -7 2127.48   35.05
  -3  -1  -7 2254.27   38.83
   3  -1   7 2244.46   39.86
   3   1   8 2551.73   44.18
  -3   1  -8 2434.37   40.78
  -3  -1  -8 2530.80   44.22
   3  -1   8 2547.83   44.87
   3   1   9   48.45   10.16
  -3   1  -9   41.55    9.21
  -3  -1  -9   60.98   21.15
   3  -1   9   49.77    9.76
  -3   1 -10 3436.98   44.26
   3   1  10 3462.60   47.28
  -3  -1 -10 3246.16   44.11
   3  -1  10 3579.50   49.11
  -3   1 -11   -1.14    5.88
   3   1  11    0.21    9.07
  -3  -1 -11   -2.08    5.01
   3  -1  11   -1.68    9.35
   3   1  12 3250.53   62.73
  -3   1 -12 3357.09   62.71
  -3  -1 -12 3311.24   63.50
   3  -1  12 3305.58   65.04
  -3   1 -13  291.96   16.71
   3   1  13  264.41   20.50
  -3  -1 -13  276.30   21.01
   3  -1  13  282.43   18.99
   3   1  14 1018.30   34.35
  -3   1 -14 1041.48   34.38
  -3  -1 -14 1022.65   35.85
   3  -1  14  996.79   32.63
   3   1  15  286.55   18.85
  -3   1 -15  313.01   18.55
  -3  -1 -15  280.20   24.85
   3  -1  15  282.37   16.75
   3   1  16  351.07   20.06
  -3   1 -16  352.77   20.50
  -3  -1 -16  348.43   34.65
   3  -1  16  332.33   20.20
  -3   1 -17 1474.76   38.91
   3   1  17 1446.23   38.42
  -3  -1 -17 1440.74   52.96
   3  -1  17 1466.54   39.98
  -3   1 -18   19.95   10.41
   3   1  18   24.42   12.12
  -3  -1 -18   30.46   26.20
   3  -1  18   18.79   11.06
  -3   1 -19  219.28   19.44
   3   1  19  219.13   20.79
  -3  -1 -19  212.29   31.44
   3  -1  19  224.17   21.57
  -3   1 -20 1288.96   43.50
   3   1  20 1239.70   39.84
  -3  -1 -20 1241.58   55.29
   3  -1  20 1229.73   42.69
  -3   2  21  503.85   25.48
   3   2 -21  499.97   28.14
   3  -2 -21  507.44   29.29
  -3  -2  21  500.22   24.79
   3   2 -20   78.82   15.01
  -3   2  20   85.08   14.01
   3  -2 -20   73.41   26.65
  -3  -2  20   76.38   11.73
  -3   2  19  287.78   17.89
   3   2 -19  288.58   23.28
   3  -2 -19  286.43   39.73
  -3  -2  19  302.44   20.65
   3   2 -18    9.65    9.73
  -3   2  18   11.14    6.75
   3  -2 -18   11.30    8.72
  -3  -2  18   14.29    8.30
   3   2 -17  113.55   14.84
  -3   2  17  101.93   12.69
   3  -2 -17   96.52   24.64
  -3  -2  17  100.29   12.32
  -3   2  16    4.51    5.60
   3   2 -16    4.08    7.60
   3  -2 -16    2.37    5.00
  -3  -2  16    1.26    4.98
  -3   2  15   39.09    8.49
   3   2 -15   39.37   12.24
   3  -2 -15   41.66   17.01
  -3  -2  15   39.54    8.32
  -3   2  14  483.06   19.75
   3   2 -14  480.01   23.15
   3  -2 -14  490.11   24.53
  -3  -2  14  540.39   23.01
  -3   2  13 1178.67   32.64
   3   2 -13 1036.91   31.79
   3  -2 -13 1029.39   34.60
  -3  -2  13 1171.00   33.29
   3   2 -12 2177.69   50.61
   3  -2 -12 2188.93   51.66
  -3  -2  12 2312.77   47.69
   3   2 -1111005.87  206.94
   3  -2 -1111059.49   72.64
  -3   2  10 1266.28   32.03
   3   2 -10 1272.97   35.88
   3  -2 -10 1301.02   26.29
  -3  -2  10 1282.14   33.37
   3   2  -9  892.27   20.72
   3   2  -9  881.55   23.69
  -3   2   9  778.35   16.65
   3  -2  -9  900.47   20.70
   3   2  -8  287.38   15.75
   3   2  -8  273.98   19.95
   3  -2  -8  266.38   11.85
   3  -2  -8  278.68   14.55
   3   2  -7 1703.06   34.57
   3   2  -7 1779.01   30.72
   3  -2  -7 1729.42   32.79
  -3   2   6  767.73   15.97
   3   2  -6  780.99   21.86
  -3   2   6  781.26   17.10
   3   2  -6  753.68   23.34
   3  -2  -6  791.88   21.14
  -3   2   5  237.11    7.86
   3   2  -5  234.41   12.30
  -3   2   5  235.68    9.05
  -3   2   5  241.61    8.80
   3   2  -5  245.25    9.66
   3  -2  -5  237.97    9.43
  -3   2   4 1627.47   21.31
   3   2  -4 1616.25   29.05
  -3   2   4 1630.53   21.93
   3   2  -4 1636.65   24.14
  -3   2   4 1665.85   23.78
  -3  -2   4 1647.21   24.73
   3  -2  -4 1603.44   23.19
  -3   2   3  216.82    8.52
   3   2  -3  202.68   11.12
  -3   2   3  216.70    7.26
   3   2  -3  202.25    8.80
  -3   2   3  232.11    8.84
   3  -2  -3  214.48    9.22
  -3  -2   3  217.29    9.17
  -3   2   2  573.14   13.22
   3   2  -2  511.12   16.02
  -3   2   2  526.73   10.24
   3   2  -2  527.02   13.15
  -3   2   2  575.03   12.97
   3  -2  -2  589.84   13.68
  -3  -2   2  553.05   13.09
  -3   2   0  276.21    8.40
   3   2   0  295.02   13.87
  -3   2   0  293.17    9.79
   3   2   0  302.75   10.95
   3  -2   0  275.30    7.84
  -3  -2   0  332.41   11.15
   3  -2   0  300.78   10.74
  -3   2  -1 8071.55  101.60
   3  -2   1 8063.14   79.93
   3  -2   1 8214.26  101.60
  -3   2  -2   17.51    4.36
  -3   2  -2   17.79    3.91
   3  -2   2   20.97    5.59
   3  -2   2   14.78    3.02
  -3   2  -3 2081.71   27.34
   3   2   3 2112.85   30.18
   3   2   3 2080.94   33.18
  -3   2  -3 2178.51   29.06
   3  -2   3 2166.76   30.80
   3  -2   3 2106.33   27.49
  -3   2  -4  940.07   19.33
   3   2   4  956.12   20.97
   3   2   4  918.76   23.55
   3  -2   4  926.94   19.28
   3  -2   4  942.30   21.08
  -3   2  -5 4657.25   64.02
   3   2   5 4718.62   69.93
   3   2   5 4747.56   66.90
   3  -2   5 4730.06   66.85
  -3   2  -6  415.36   13.88
   3   2   6  412.67   17.12
   3   2   6  430.83   15.05
   3  -2   6  425.10   15.02
  -3   2  -7  653.46   16.57
   3   2   7  683.55   20.94
   3   2   7  681.31   18.98
   3  -2   7  683.51   18.71
  -3   2  -8   44.36    7.11
   3   2   8   47.79   10.73
   3   2   8   47.47    8.75
   3  -2   8   43.16    8.87
  -3   2  -9 1025.41   28.13
   3   2   9 1095.99   32.84
   3   2   9 1041.62   30.26
   3  -2   9 1044.86   30.81
  -3   2 -10 1580.31   36.06
   3   2  10 1636.95   39.50
   3   2  10 1566.75   37.56
   3  -2  10 1587.06   37.46
  -3   2 -11  112.26   11.86
   3   2  11  121.46   13.39
   3   2  11  123.42   13.66
   3  -2  11  129.64   13.52
  -3   2 -12  544.17   22.05
   3   2  12  546.25   23.48
   3   2  12  547.43   23.04
   3  -2  12  518.11   22.03
  -3   2 -13 1077.67   34.25
   3   2  13 1107.25   35.83
   3  -2  13 1094.48   34.71
   3   2  14   36.47   11.06
  -3   2 -14   37.94   10.60
  -3  -2 -14   44.36   13.85
   3  -2  14   33.73   12.99
   3   2  15 2018.02   43.67
  -3   2 -15 1957.88   40.53
  -3  -2 -15 1976.06   42.82
   3  -2  15 1973.78   43.77
   3   2  16   58.21   12.90
  -3   2 -16   65.31   14.24
  -3  -2 -16   62.63   13.14
   3  -2  16   63.33   12.92
   3   2  17  856.80   34.56
  -3   2 -17  847.60   33.28
  -3  -2 -17  847.55   34.96
   3  -2  17  832.18   34.63
   3   2  18   33.06    9.36
  -3   2 -18   38.17   10.25
  -3  -2 -18   37.01   12.73
   3  -2  18   41.39   12.21
   3   2  19  451.15   26.18
  -3   2 -19  460.23   25.86
  -3  -2 -19  475.49   26.72
   3  -2  19  461.78   25.83
  -3   3  19   64.06   11.85
   3   3 -19   75.32   15.43
   3  -3 -19   71.04   13.80
  -3  -3  19   62.24   10.74
  -3   3  18  738.37   31.47
   3   3 -18  729.38   35.51
   3  -3 -18  734.68   33.26
  -3  -3  18  684.84   29.78
   3   3 -17   67.54   15.06
  -3   3  17   66.51   11.04
  -3  -3  17   65.67   10.69
   3   3 -16  946.24   34.21
  -3   3  16  933.40   26.91
  -3  -3  16  930.19   27.55
   3   3 -15  112.45   16.41
  -3   3  15   91.83   11.99
  -3   3  15  104.68   11.32
  -3  -3  15  105.26   11.68
   3   3 -14   97.69   15.23
  -3   3  14   84.98    9.93
  -3   3  14   99.09    8.98
  -3  -3  14  101.66   11.81
   3   3 -13  449.49   22.96
  -3   3  13  423.00   18.97
  -3   3  13  422.75   16.57
  -3  -3  13  417.15   17.69
  -3   3  12 3064.87   69.87
  -3   3  12 3023.05   65.49
   3   3 -11 1208.54   37.60
  -3   3  11 1323.27   31.41
   3   3 -10   58.86   12.50
  -3   3  10   55.66    8.09
  -3   3  10   65.93    7.61
  -3  -3  10   54.25    7.45
   3   3  -9   24.29    9.27
  -3   3   9   52.25   10.55
  -3   3   9   41.51    6.76
  -3  -3   9   45.70    7.10
   3   3  -7 1318.55   38.48
  -3   3   7 1300.30   32.45
  -3   3   7 1280.88   29.03
   3   3  -6 1680.72   44.24
  -3   3   6 1723.30   38.57
   3   3  -6 1666.44   40.37
  -3   3   6 1692.83   35.91
   3   3  -5  196.74   14.60
  -3   3   5  197.52   10.94
   3   3  -5  179.10   11.17
  -3   3   5  194.82    8.49
   3  -3  -5  188.79   10.00
   3   3  -4 2148.61   38.36
  -3   3   4 2114.11   28.94
   3   3  -4 2181.52   27.94
  -3   3   4 2137.60   25.00
   3  -3  -4 2137.24   25.40
  -3  -3   4 2110.41   26.78
  -3   3   3   11.20    4.84
  -3   3   3   12.25    3.34
  -3  -3   3    7.42    3.44
   3  -3  -3   18.98    4.46
   3   3  -2 2362.58   39.22
  -3   3   2 2232.44   28.54
   3   3  -2 2299.55   26.31
  -3   3   2 2339.75   25.23
  -3  -3   2 2399.16   27.74
   3  -3  -2 2282.60   24.16
  -3   3   1  241.95   10.00
   3   3  -1  245.29   14.62
   3   3  -1  251.93    8.73
  -3   3   1  243.18    7.73
  -3  -3   1  248.43    8.86
   3  -3  -1  253.54    8.13
  -3   3   0 1620.11   23.95
   3   3   0 1661.75   32.39
   3   3   0 1733.22   22.58
  -3   3   0 1690.14   20.38
  -3  -3   0 1708.28   21.97
   3  -3   0 1677.48   20.94
  -3   3  -1  591.18   14.91
   3   3   1  591.91   20.71
   3   3   1  601.72   13.46
   3  -3   1  585.10   12.51
  -3  -3  -1  594.36   12.39
  -3   3  -2 1032.93   19.72
   3   3   2 1068.69   27.15
   3   3   2 1067.61   18.49
  -3   3  -2 1065.54   16.33
  -3  -3  -2 1039.04   16.85
   3  -3   2 1047.98   17.92
  -3   3  -3 1071.56   27.22
   3   3   3 1058.40   31.56
   3   3   3 1035.73   25.12
  -3   3  -3 1138.18   25.38
  -3  -3  -3 1044.67   24.07
   3  -3   3 1054.08   25.33
  -3   3  -4 2135.08   46.06
   3   3   4 2113.64   51.33
   3   3   4 2067.98   43.77
   3  -3   4 2064.11   43.28
  -3   3  -5   57.20    7.38
   3   3   5   69.79   12.15
   3   3   5   61.95    8.07
   3  -3   5   57.06    7.26
  -3   3  -6  803.04   22.33
   3   3   6  818.97   26.73
   3   3   6  803.65   21.10
   3  -3   6  793.06   21.52
  -3   3  -7   48.69    7.90
   3   3   7   49.79   11.51
   3   3   7   44.60    8.64
   3  -3   7   48.44    8.17
  -3   3  -8 2388.04   49.17
   3   3   8 2414.03   54.63
   3   3   8 2461.61   49.61
   3  -3   8 2460.91   49.36
  -3   3  -9   21.21    5.96
   3   3   9   27.40   12.15
   3   3   9   19.96    7.54
   3  -3   9   21.69    7.87
  -3   3 -10  195.12   12.93
   3   3  10  204.36   16.50
   3   3  10  197.99   13.43
   3  -3  10  207.00   15.32
  -3   3 -11  116.30   11.26
   3   3  11  121.72   14.81
   3   3  11  118.19   12.63
   3  -3  11  116.88   12.78
  -3   3 -12 1589.58   33.56
   3   3  12 1606.70   38.56
   3   3  12 1606.18   33.12
   3  -3  12 1586.89   33.03
  -3   3 -13   46.09    9.35
   3   3  13   41.73   13.10
   3   3  13   41.49   10.70
   3  -3  13   39.60    9.39
  -3   3 -14   14.03    7.58
   3   3  14   15.40   11.02
   3   3  14   15.27    7.71
   3  -3  14   14.47    8.83
   3   3  15    4.02    8.79
   3   3  15    8.14    6.47
   3  -3  15    4.93    7.60
  -3   3 -16  689.38   32.03
   3   3  16  724.01   35.40
   3   3  16  724.28   33.81
   3  -3  16  702.74   32.60
  -3   3 -17   17.80    7.60
   3   3  17   20.40   11.54
   3   3  17   21.28   10.22
   3  -3  17   19.66   10.45
   3   4 -17  102.06   16.17
  -3   4  17   79.90   11.19
   3   4 -16  758.01   34.08
  -3   4  16  694.84   27.42
   3   4 -15 2258.29   53.69
  -3   4  15 2540.39   49.40
   3   4 -14  649.77   32.73
  -3   4  14  604.95   25.95
  -3  -4  14  625.38   25.50
   3   4 -13  627.21   29.82
  -3   4  13  600.48   25.17
  -3  -4  13  605.32   22.43
   3   4 -12    5.91   10.12
  -3   4  12   -1.14    4.34
  -3  -4  12    1.43    4.25
   3   4 -11  156.10   16.97
  -3   4  11  161.39   12.40
  -3  -4  11  171.88   11.57
   3   4 -10   11.72    8.83
  -3   4  10    8.05    5.36
  -3  -4  10   19.20    6.41
   3   4  -9 1297.36   36.11
  -3   4   9 1237.69   28.20
  -3  -4   9 1278.31   22.79
   3   4  -8  605.68   26.07
  -3   4   8  580.65   21.06
  -3  -4   8  572.35   14.71
   3   4  -7  170.40   15.74
  -3   4   7  167.04   11.75
  -3  -4   7  186.45    8.79
   3   4  -6  564.70   25.67
  -3   4   6  552.13   21.09
  -3  -4   6  598.34   17.37
   3   4  -5  970.64   34.11
  -3   4   5  975.28   29.09
  -3  -4   5  997.44   23.62
   3   4  -4  297.38   19.21
  -3   4   4  313.65   14.75
  -3  -4   4  284.59    8.12
   3   4  -3 2077.67   51.74
  -3   4   3 2039.92   43.40
  -3   4   2  107.71    9.44
   3   4  -2  114.63   13.72
  -3   4   1  299.74   13.53
   3   4  -1  308.34   18.69
  -3   4   0   39.86    7.06
   3   4   0   36.39   10.29
  -3   4  -1  968.97   26.29
   3   4   1  980.84   31.61
  -3   4  -2   28.75    6.71
   3   4   2   29.55    9.78
  -3   4  -3  764.66   24.83
   3   4   3  763.33   29.55
  -3   4  -4   75.89    9.27
   3   4   4   77.60   13.14
   3  -4   4   68.81    5.72
  -3   4  -5  361.78   16.53
   3   4   5  364.80   21.58
  -3   4  -6  216.54   13.92
   3   4   6  205.90   17.20
   3  -4   6  201.73    9.58
  -3   4  -7   45.60    8.91
   3   4   7   49.64   13.78
   3  -4   7   42.45    6.50
  -3   4  -8  125.88   11.63
   3   4   8  134.90   16.18
   3  -4   8  115.45    9.73
  -3   4  -9  856.83   28.47
   3   4   9  861.65   33.93
   3   4  10   -2.16    5.98
   3  -4  10    0.83    3.36
  -3   4 -11  654.70   26.95
   3   4  11  673.52   31.16
  -3   4 -12   27.63    7.89
   3   4  12   28.15   12.39
  -3   4 -13  818.87   34.08
   3   4  13  813.47   38.99
  -3   4 -14   16.37    8.22
   3   4  14   17.82   11.41
  -3   4 -15  300.80   19.97
   3   4  15  284.49   21.62
   3   5 -12  120.80   17.82
  -3   5  12  102.63   12.68
   3   5 -11    2.38    9.31
   3   5 -10  177.79   18.15
  -3   5  10  178.17   15.21
   3   5  -9  334.11   24.39
  -3   5   9  323.31   20.19
   3   5  -8 1132.61   47.45
  -3   5   8 1107.16   39.79
   3   5  -7  368.15   25.46
  -3   5   7  335.20   19.29
   3   5  -6  224.20   20.38
  -3   5   6  225.60   15.77
   3   5  -5   -0.66    6.64
  -3   5   5    2.53    6.12
   3   5  -4  559.44   28.96
  -3   5   4  558.92   21.20
   3   5  -3  144.07   16.28
  -3   5   3  145.86   12.78
  -3   5   2   81.13   10.65
   3   5  -2   85.64   15.34
  -3   5   1   52.06    9.40
   3   5  -1   45.89   12.90
  -3   5   0  326.06   16.63
   3   5   0  347.04   22.68
  -3   5  -1   78.80   10.19
   3   5   1   83.35   14.54
  -3   5  -2   61.02    9.89
   3   5   2   62.41   14.50
  -3   5  -3  509.19   20.44
   3   5   3  496.93   26.34
  -3   5  -4  219.35   15.22
   3   5   4  208.58   18.54
  -3   5  -5   93.84   11.68
   3   5   5  102.71   16.87
  -3   5  -6  500.50   24.37
   3   5   6  501.04   29.98
  -3   5  -7   26.89    8.68
   3   5   7   18.76   11.15
  -3   5  -8  520.76   22.53
   3   5   8  536.03   26.82
  -3   5  -9    1.31    4.23
   3   5   9    5.34   10.19
  -3   5 -10  303.87   18.52
   3   5  10  318.58   23.90
   4   0 -22   74.82   14.62
  -4   0  22   84.98   14.21
   4   0 -21   -0.63    6.47
  -4   0  21    0.38    7.62
   4   0 -20 3419.59   61.33
   4   0 -19    0.62    7.63
  -4   0  19    2.67    8.48
   4   0 -18 6559.20   80.61
   4   0 -17   -1.33    5.94
  -4   0  17    0.56    7.91
   4   0 -16 1816.26   48.52
  -4   0  16 1861.72   50.43
   4   0 -15   -0.33    5.01
  -4   0  15    4.13    9.99
   4   0 -14 1035.77   30.98
  -4   0  14 1035.97   29.26
   4   0 -13   -0.55    3.51
   4   0 -12    6.39    5.70
   4   0 -12    6.65    4.60
   4   0 -11    2.41    4.19
   4   0 -11   -0.84    2.74
   4   0 -10  543.21   16.92
   4   0  -9   -0.42    3.66
   4   0  -9    1.80    5.04
   4   0  -7    0.73    3.11
  -4   0   7    0.72    2.19
   4   0  -7    0.62    5.99
   4   0  -6 2240.17   28.96
  -4   0   6 2456.71   30.33
   4   0  -5   -0.92    2.00
  -4   0   5    0.76    1.71
   4   0  -5    0.41    3.66
   4   0  -3    2.03    2.83
  -4   0   3    1.42    2.44
   4   0  -3    1.46    5.58
   4   0  -2   64.97    4.89
  -4   0   2   65.73    4.24
   4   0  -2   64.16    8.84
   4   0  -1    1.04    2.17
  -4   0   1   -0.05    1.36
   4   0  -1   -0.53    4.03
  -4   0   1    0.23    2.74
   4   0   1    0.34    1.02
   4   0   1    0.54    2.48
   4   0   1    0.94    5.87
   4   0   2 2014.61   24.56
   4   0   2 2022.65   24.93
   4   0   2 1978.27   31.74
   4   0   3    0.17    1.63
  -4   0  -4 2014.07   27.38
   4   0   4 2137.68   28.30
   4   0   4 1960.34   31.65
  -4   0  -5    4.40    5.55
   4   0   5    0.45    5.31
  -4   0  -7    0.18    1.76
   4   0   7   -0.65    5.68
  -4   0  -8 4077.23   47.15
  -4   0  -9    3.57    5.83
   4   0   9    2.70    7.68
  -4   0 -11    0.05    5.44
   4   0  11    4.07    7.85
  -4   0 -12  767.11   25.41
   4   0  12  736.65   28.37
  -4   0 -13   -0.28    6.74
   4   0  13   -0.15   12.80
  -4   0 -14 6181.81   67.52
  -4   0 -15   -1.52    7.23
   4   0  15   -9.81   13.35
  -4   0 -16  954.12   33.61
   4   0  16  933.65   36.09
  -4   0 -17    0.92    6.48
   4   0  17    5.21   12.96
  -4   0 -18  758.27   34.66
   4   0  18  730.82   35.03
  -4   0 -19   -0.69    6.93
   4   0  19   -0.13    8.38
   4   1 -22  158.98   18.69
  -4   1  22  153.82   16.14
   4  -1 -22  149.18   17.96
  -4  -1  22  170.67   19.12
   4   1 -21  558.80   28.48
  -4   1  21  550.97   26.38
   4  -1 -21  576.28   28.11
  -4  -1  21  537.22   25.65
   4   1 -20   -0.04    6.17
  -4   1  20    1.08    9.20
   4  -1 -20   -1.78    5.19
  -4  -1  20    2.96    9.25
   4   1 -19  249.69   19.37
  -4   1  19  238.67   17.04
   4  -1 -19  246.65   17.93
  -4  -1  19  235.14   18.06
  -4   1  18  317.99   19.06
   4   1 -18  315.14   21.02
   4  -1 -18  309.30   20.08
  -4  -1  18  353.22   22.38
   4   1 -17   41.88   11.50
  -4   1  17   57.59   12.68
   4  -1 -17   45.59   11.35
  -4  -1  17   50.11   11.53
  -4   1  16  802.05   31.36
   4   1 -16  720.38   29.82
   4  -1 -16  718.74   28.03
  -4  -1  16  757.96   28.93
  -4   1  15 6395.25   64.72
   4   1 -15 5838.23   67.54
   4  -1 -15 6235.42   66.27
   4   1 -14 1063.50   31.95
  -4   1  14 1058.87   30.19
   4  -1 -14 1037.32   30.34
  -4  -1  14 1057.06   31.47
  -4   1  13 1312.04   33.24
   4   1 -13 1304.21   34.22
   4  -1 -13 1305.98   32.83
   4   1 -12  374.22   16.94
   4   1 -12  368.42   18.64
   4  -1 -12  347.73   17.14
   4  -1 -12  380.65   18.58
   4   1 -11 4868.35   59.99
   4   1 -11 4995.07   58.64
   4  -1 -11 4903.26   53.49
   4   1 -10  233.10   14.68
   4   1 -10  241.52   13.73
   4  -1 -10  230.46   11.13
   4  -1 -10  247.99   23.43
   4   1  -9 1164.54   31.05
   4   1  -9 1169.64   27.04
   4  -1  -9 1154.32   23.28
   4  -1  -9 1120.61   27.52
   4   1  -8  218.36   12.65
  -4   1   8  224.44    8.45
   4   1  -8  223.20   17.88
   4  -1  -8  206.79    9.29
   4  -1  -8  221.28   15.36
   4   1  -7  357.24   13.99
  -4   1   7  356.24    9.44
   4   1  -7  346.67   13.83
   4  -1  -7  350.88   10.21
   4  -1  -7  351.58   13.29
   4   1  -6    4.04    4.03
  -4   1   6    5.19    2.22
   4   1  -6    7.87    4.84
   4  -1  -6    3.61    3.15
   4  -1  -6    5.54    4.39
   4   1  -5 5422.17   59.69
   4   1  -4 1345.35   23.02
  -4   1   4 1328.98   15.19
   4   1  -4 1277.62   23.37
   4  -1  -4 1288.04   23.27
   4  -1  -4 1241.56   14.55
   4   1  -2   43.51    6.42
   4   1  -2   48.28    7.74
   4  -1  -2   47.05    7.08
  -4  -1   2   43.68    5.26
   4   1  -1  416.39   12.20
   4   1  -1  427.66   13.84
   4  -1  -1  428.07   14.06
  -4  -1   1  432.03   11.73
   4   1   0 2826.50   36.01
   4   1   0 2788.11   37.53
  -4  -1   0 2916.69   35.60
   4  -1   0 2778.45   37.56
  -4   1  -2  766.34   11.94
   4   1   2  729.84   16.36
   4   1   2  720.11   18.47
   4  -1   2  733.62   11.32
   4  -1   2  720.42   18.10
  -4   1  -3 2794.09   31.16
   4   1   3 2649.77   35.46
   4   1   3 2716.21   38.91
   4  -1   3 2767.75   30.96
   4  -1   3 2717.92   38.39
  -4   1  -4  320.85    9.72
   4   1   4  310.02   12.15
   4   1   4  313.23   14.32
   4  -1   4  316.70    9.23
   4  -1   4  318.53   13.70
  -4   1  -5 1063.63   20.73
   4   1   5 1058.85   23.65
   4   1   5 1044.09   25.40
   4  -1   5 1035.74   20.31
   4  -1   5 1040.23   25.13
  -4   1  -6  910.79   19.57
   4   1   6  878.80   21.82
   4   1   6  930.66   24.86
   4  -1   6  888.36   23.40
  -4   1  -7  286.42   11.45
   4   1   7  296.08   14.00
   4   1   7  296.63   16.05
   4  -1   7  285.61   14.76
   4   1   8 1362.63   29.95
  -4   1  -8 1311.47   24.19
  -4  -1  -8 1276.24   26.75
   4  -1   8 1329.27   29.52
  -4   1  -9   78.54    8.49
   4   1   9   81.12   11.17
  -4  -1  -9   79.95   14.44
   4  -1   9   71.17   10.57
  -4   1 -10 2122.13   48.59
   4   1  10 2215.03   54.09
  -4  -1 -10 2225.17   57.67
   4  -1  10 2192.81   53.72
   4   1  11  550.00   23.82
  -4   1 -11  567.96   21.17
  -4  -1 -11  589.63   24.83
   4  -1  11  568.44   26.41
   4   1  12  160.85   17.61
  -4   1 -12  146.57   13.42
  -4  -1 -12  153.90   23.14
   4  -1  12  145.86   17.19
  -4   1 -13 3128.95   71.66
   4   1  13 3109.52   74.69
  -4  -1 -13 3165.22   74.16
   4  -1  13 3196.45   75.56
  -4   1 -14   12.79    8.80
   4   1  14   13.00   13.73
  -4  -1 -14   15.45   11.04
   4  -1  14   13.40   11.59
   4   1  15  357.34   21.14
  -4   1 -15  369.17   20.06
  -4  -1 -15  341.37   39.84
   4  -1  15  368.81   23.91
  -4   1 -16   55.97   13.03
   4   1  16   37.34   11.04
  -4  -1 -16   43.33   23.71
   4  -1  16   45.37   14.22
  -4   1 -17  124.90   15.68
   4   1  17  133.74   17.99
  -4  -1 -17  117.72   32.40
   4  -1  17  127.99   16.00
   4   1  18  865.42   39.04
  -4   1 -18  926.93   39.29
  -4  -1 -18  869.51   53.64
   4  -1  18  911.89   40.39
  -4   1 -19   47.28   12.08
   4   1  19   42.32   13.10
  -4  -1 -19   35.40   29.26
   4  -1  19   43.71   13.72
  -4   2  21   50.00   11.68
   4   2 -21   57.59   14.39
   4  -2 -21   34.11   35.98
  -4  -2  21   55.47   12.66
   4   2 -20  460.90   26.67
  -4   2  20  467.14   24.68
   4  -2 -20  451.21   25.38
  -4  -2  20  456.44   23.61
  -4   2  19   95.19   12.02
   4   2 -19   85.51   14.33
   4  -2 -19   91.14   22.27
  -4  -2  19   90.98   12.61
   4   2 -18  131.91   16.25
  -4   2  18  118.69   13.19
   4  -2 -18  115.43   33.47
  -4  -2  18  136.34   14.91
  -4   2  17  403.81   21.08
   4   2 -17  418.87   24.80
   4  -2 -17  394.48   27.54
  -4  -2  17  450.93   23.18
   4   2 -16 1823.82   42.69
  -4   2  16 2041.43   41.74
   4  -2 -16 1823.80   46.21
  -4  -2  16 2058.21   42.66
  -4   2  15    4.30    7.41
   4   2 -15    3.07    8.09
   4  -2 -15    2.08    5.70
  -4  -2  15    0.87    5.13
   4   2 -14    5.83    7.33
  -4   2  14    6.50    5.44
   4  -2 -14    4.36    3.80
  -4  -2  14    9.62    6.14
  -4   2  13    9.00    5.29
   4   2 -13   18.27   10.20
   4  -2 -13   14.33    9.55
  -4  -2  13   12.44    5.83
   4   2 -12  790.41   27.95
  -4   2  12  787.97   24.31
   4  -2 -12  804.64   24.64
  -4  -2  12  776.49   24.41
   4   2 -11  795.05   24.32
   4   2 -11  777.00   26.67
   4  -2 -11  782.95   28.28
   4   2 -10 1133.43   33.34
   4   2 -10 1126.76   47.40
   4  -2 -10 1194.74   33.72
   4  -2 -10 1161.70   35.74
   4   2  -9  354.67   19.99
   4   2  -9  361.85   17.96
   4  -2  -9  364.25   15.32
   4  -2  -9  368.50   21.57
   4   2  -8 1119.57   27.39
   4   2  -8 1149.31   26.42
   4  -2  -8 1125.78   20.52
   4  -2  -8 1167.97   26.26
  -4   2   7    2.20    2.35
   4   2  -7    2.59    4.63
  -4   2   7    3.06    2.65
   4   2  -7    5.94    4.67
   4  -2  -7    2.99    2.21
  -4   2   6 1823.44   28.25
   4   2  -6 1789.95   35.46
  -4   2   6 1733.00   26.95
   4   2  -6 1812.26   32.89
   4  -2  -6 1780.13   31.96
  -4   2   5  390.15    9.74
   4   2  -5  386.92   15.53
  -4   2   5  410.64   10.85
   4   2  -5  393.36   13.79
   4  -2  -5  398.21   13.62
  -4   2   4 5267.50   66.05
   4   2  -4 5342.88   77.33
  -4   2   4 5146.40   64.89
   4   2  -4 5208.22   71.96
   4  -2  -4 5264.59   71.88
  -4   2   3  224.90    6.31
   4   2  -3  217.23   13.26
  -4   2   3  208.97    5.94
   4   2  -3  239.48   12.02
   4  -2  -3  212.74   10.24
  -4   2   2  588.62   10.04
  -4   2   2  581.51    9.95
   4   2  -2  588.21   18.56
   4   2  -2  587.32   16.04
   4  -2  -2  593.74   16.13
  -4   2   1  694.50   11.36
   4   2  -1  697.27   19.91
   4   2  -1  670.11   16.95
   4  -2  -1  703.73   17.98
  -4   2   0 3655.23   46.29
   4   2   0 3728.51   57.21
   4   2   0 3652.66   53.64
   4  -2   0 3628.48   53.28
   4  -2   0 3542.28   44.80
  -4   2  -1   18.57    3.15
   4   2   1   38.68    7.02
   4   2   1   36.39    8.75
   4  -2   1   15.57    2.49
   4  -2   1   16.92    5.93
  -4   2  -2  537.66   11.44
   4   2   2  541.56   16.43
   4   2   2  532.73   17.90
   4  -2   2  531.66   11.44
   4  -2   2  527.43   16.06
  -4   2  -3  119.84    6.43
   4   2   3  125.06    9.44
   4   2   3  121.14   10.50
   4  -2   3  113.18    5.95
   4  -2   3  120.68    9.69
  -4   2  -4 4278.84   57.85
   4   2   4 4277.68   63.57
   4   2   4 4330.04   65.83
   4  -2   4 4304.81   58.59
   4  -2   4 4342.33   63.85
  -4   2  -5  191.74    9.01
   4   2   5  201.42   12.60
   4   2   5  212.30   12.95
   4  -2   5  208.49   12.70
  -4   2  -6 1121.67   20.44
   4   2   6 1151.86   26.20
   4   2   6 1181.05   25.66
   4  -2   6 1136.08   25.19
  -4   2  -7   32.42    7.77
   4   2   7   34.40   10.03
   4   2   7   39.41    8.52
   4  -2   7   36.60   10.38
  -4   2  -8 6759.61  127.12
   4   2   8 6836.06  132.81
   4   2   8 7022.03  135.63
   4  -2   8 7072.80  135.88
  -4   2  -9  644.85   21.49
   4   2   9  702.82   26.08
   4   2   9  659.65   24.48
   4  -2   9  686.31   25.63
  -4   2 -10  514.94   19.10
   4   2  10  570.34   23.79
   4   2  10  560.00   22.64
   4  -2  10  544.66   23.23
  -4   2 -11  190.43   12.63
   4   2  11  218.37   16.47
   4   2  11  215.21   15.70
   4  -2  11  210.80   15.48
  -4   2 -12  961.67   25.26
   4   2  12  973.68   28.89
   4   2  12  981.25   30.09
   4  -2  12 1005.42   29.39
  -4   2 -13    6.59    7.29
   4   2  13    5.21    9.35
   4   2  13    2.01    7.22
   4  -2  13    8.02    9.35
  -4   2 -14  711.12   26.84
   4   2  14  721.30   30.04
   4   2  14  755.97   30.55
   4  -2  14  752.52   31.53
  -4   2 -15   13.96    8.61
   4   2  15   15.54    9.86
   4   2  15   11.58    9.39
   4  -2  15   12.80   10.85
  -4   2 -16  745.46   30.38
   4   2  16  773.53   33.01
   4   2  16  780.12   33.56
   4  -2  16  752.19   33.00
  -4   2 -17    0.49    5.69
   4   2  17   -1.77    6.80
   4   2  17    1.29    7.23
   4  -2  17    0.26    5.66
  -4   2 -18  542.29   26.58
   4   2  18  552.45   29.62
   4   2  18  528.03   28.46
   4  -2  18  524.64   27.26
  -4   3  19  123.10   13.02
   4   3 -19  123.49   16.02
   4  -3 -19  130.79   16.08
  -4  -3  19  124.17   14.06
   4   3 -18    1.28    6.36
  -4   3  18   -0.25    4.47
   4  -3 -18    1.34    4.91
  -4  -3  18    5.80    7.95
   4   3 -17  129.95   16.83
  -4   3  17  113.12   11.91
  -4  -3  17  111.31   12.84
   4   3 -16    3.51    6.72
  -4   3  16    7.97    6.25
  -4  -3  16    0.47    4.39
   4   3 -15  195.32   18.40
  -4   3  15  194.63   12.97
  -4   3  15  197.05   13.48
  -4  -3  15  227.37   16.22
   4   3 -14   51.51   12.66
  -4   3  14   46.45    8.20
  -4   3  14   54.64    7.39
  -4  -3  14   58.69   10.98
   4   3 -13  588.86   26.08
  -4   3  13  586.90   19.34
  -4   3  13  672.46   21.49
  -4  -3  13  612.34   21.09
   4   3 -12  265.36   19.17
  -4   3  12  247.74   13.66
  -4   3  12  290.29   14.53
  -4  -3  12  265.82   14.38
   4   3 -11  413.06   22.61
  -4   3  11  395.34   16.56
  -4   3  11  439.04   17.46
  -4  -3  11  394.19   17.20
   4   3 -10   24.84   10.66
  -4   3  10   20.23    5.60
  -4   3  10   26.32    5.63
  -4  -3  10   21.46    5.69
   4   3  -9  132.65   13.60
  -4   3   9  124.34    8.66
   4   3  -9  132.88   13.61
  -4   3   9  126.48    8.08
   4   3  -8   22.74    9.15
  -4   3   8   27.19    5.75
   4   3  -8   26.99    9.46
   4  -3  -8    9.84    5.04
   4   3  -7  990.77   30.33
  -4   3   7  945.42   22.03
   4   3  -7  985.53   32.79
   4  -3  -7  975.33   27.14
   4   3  -6   25.46    9.23
  -4   3   6   21.92    4.68
   4   3  -6   21.84    8.24
   4  -3  -6   14.90    9.38
   4   3  -5  359.94   19.30
  -4   3   5  344.46   12.51
   4   3  -5  361.02   13.93
   4  -3  -5  344.82   15.83
  -4   3   4  140.96    7.64
   4   3  -4  109.91   13.27
  -4   3   4  112.78    7.25
   4   3  -4  115.23    8.99
   4  -3  -4  128.21    8.75
  -4   3   3 2189.84   43.32
  -4   3   3 2084.62   42.14
   4   3  -3 2118.12   52.02
   4   3  -3 2227.27   46.62
   4  -3  -3 2193.30   44.72
  -4   3   2  342.61   14.21
  -4   3   2  338.91   11.78
   4   3  -2  353.73   19.25
   4   3  -2  355.51   13.73
  -4   3   2  355.11   12.52
   4  -3  -2  357.38   12.82
  -4   3   1  639.74   17.00
   4   3  -1  645.74   24.83
   4   3  -1  662.12   19.20
  -4   3   1  668.87   18.04
   4  -3  -1  659.13   16.70
   4  -3  -1  660.06   18.30
  -4   3   0   95.48    7.35
   4   3   0   96.45   12.86
   4   3   0   92.52    8.11
  -4   3   0  103.12    7.10
   4  -3   0   94.92    5.99
   4  -3   0  108.37    8.16
  -4   3  -1 3132.10   60.65
   4   3   1 3114.56   69.19
   4   3   1 3115.04   62.19
   4  -3   1 3134.24   62.11
   4  -3   1 3050.93   58.79
  -4   3  -2  375.35   13.47
   4   3   2  396.64   20.93
   4   3   2  398.05   15.64
   4  -3   2  377.39   14.74
  -4   3  -3 1091.90   26.34
   4   3   3 1128.88   34.76
   4   3   3 1116.65   28.51
   4  -3   3 1109.76   28.23
   4   3   4    7.99    9.55
   4   3   4    6.10    4.99
   4  -3   4    2.14    3.76
  -4   3  -5 2914.74   50.64
   4   3   5 2899.80   58.89
   4   3   5 2933.76   53.49
   4  -3   5 2796.61   50.96
  -4   3  -6    0.53    3.74
   4   3   6    3.60    8.05
   4   3   6    3.37    5.96
   4  -3   6    7.65    7.79
  -4   3  -7 1457.37   33.20
   4   3   7 1462.78   40.14
   4   3   7 1502.48   36.56
   4  -3   7 1467.93   35.17
  -4   3  -8    3.16    4.36
   4   3   8    4.61    6.40
   4   3   8    2.56    6.49
   4  -3   8    3.29    5.13
  -4   3  -9  951.93   28.98
   4   3   9  947.78   35.18
   4   3   9  963.17   30.87
   4  -3   9  983.44   32.04
  -4   3 -10    0.75    4.92
   4   3  10    3.36   10.47
   4   3  10   -0.03    5.04
   4  -3  10    0.69    5.41
  -4   3 -11 1978.78   34.53
   4   3  11 1996.71   43.43
   4   3  11 2020.28   38.10
   4  -3  11 2023.55   38.24
  -4   3 -12   42.92    9.25
   4   3  12   45.02   14.91
   4   3  12   48.90   13.12
   4  -3  12   43.78   11.62
  -4   3 -13 1079.53   30.14
   4   3  13 1058.25   34.51
   4   3  13 1111.62   32.49
   4  -3  13 1082.01   31.63
  -4   3 -14    0.00    5.35
   4   3  14    0.82    7.74
   4   3  14   -0.20    6.20
   4  -3  14    0.38    5.95
  -4   3 -15 1202.39   43.25
   4   3  15 1239.15   48.03
   4   3  15 1280.14   47.77
   4  -3  15 1273.10   48.08
  -4   3 -16   18.81    9.33
   4   3  16   10.39   10.66
   4   3  16   12.15   10.18
   4  -3  16   12.98   10.05
   4   4 -16  521.83   30.77
  -4   4  16  467.37   21.25
   4   4 -15   28.48   12.56
  -4   4  15   24.65    7.90
  -4  -4  15   26.82    7.48
   4   4 -14  274.47   22.77
  -4   4  14  264.70   16.40
  -4  -4  14  274.66   16.77
   4   4 -13   13.98   10.95
  -4   4  13   16.81    7.13
  -4  -4  13   15.74    5.70
   4   4 -12  221.94   19.44
  -4   4  12  225.46   13.53
  -4  -4  12  237.59   13.26
   4   4 -11    5.98    9.43
  -4   4  11    4.32    5.41
  -4  -4  11    6.03    4.84
   4   4 -10  156.64   16.91
  -4   4  10  172.10   11.76
  -4  -4  10  192.90   12.19
   4   4  -9  105.14   15.51
  -4   4   9  110.92   10.06
  -4  -4   9  108.92    8.76
   4   4  -8  612.63   26.61
  -4   4   8  577.76   18.29
  -4  -4   8  612.68   16.44
   4   4  -7  455.03   23.25
  -4   4   7  443.94   16.16
  -4  -4   7  435.58   13.12
   4   4  -6  530.29   24.79
  -4   4   6  513.48   15.90
   4   4  -5   77.69   14.15
  -4   4   5   69.75    7.38
   4   4  -5   61.41   13.19
   4   4  -4  837.10   32.12
  -4   4   4  851.60   24.54
  -4   4   3  249.95   11.53
   4   4  -3  264.03   19.04
  -4   4   2  533.14   18.21
   4   4  -2  534.06   26.27
  -4   4   1  202.47   10.60
   4   4  -1  200.06   16.49
  -4   4   0 1119.80   29.51
   4   4   0 1133.74   38.61
  -4   4  -1   46.18    6.98
   4   4   1   53.03   12.60
  -4   4  -2  241.51   11.84
   4   4   2  244.84   18.60
  -4   4  -3  275.13   12.56
   4   4   3  273.72   19.60
  -4   4  -4 1510.53   27.36
   4   4   4 1458.25   38.35
  -4   4  -5    9.79    5.53
   4   4   5   12.70    9.09
   4  -4   5    6.97    4.16
  -4   4  -6  351.97   15.37
   4   4   6  336.16   20.99
  -4   4  -7    1.19    2.57
   4   4   7    3.26    9.59
   4  -4   7    0.52    3.03
  -4   4  -8 1658.04   39.90
   4   4   8 1653.64   49.59
  -4   4  -9   10.67    6.47
   4   4   9   13.36   11.70
   4  -4   9   10.72    6.16
  -4   4 -10  509.72   23.12
   4   4  10  493.24   27.79
  -4   4 -11  207.71   16.20
   4   4  11  204.33   20.15
  -4   4 -12 1067.51   29.84
   4   4  12 1086.42   37.73
  -4   4 -13    2.33    5.97
   4   4  13    5.93   11.29
   4   5 -11  302.54   23.48
   4   5 -10   26.54   11.60
   4   5  -9  527.23   29.31
   4   5  -8    4.53   11.20
   4   5  -7 1362.89   53.75
   4   5  -6   10.25   11.03
   4   5  -5  151.78   17.94
   4   5  -4    4.61   10.19
   4   5  -3  334.15   23.05
   4   5  -2    6.00    9.75
   4   5  -1  864.72   35.95
   4   5   0   24.78   11.21
   4   5   1  234.06   19.51
   4   5   2    9.93    8.68
   4   5   3   46.19   12.19
   4   5   4   60.92   14.66
   4   5   5  387.58   26.64
   4   5   6    7.49    6.55
   4   5   7  257.49   22.31
   4   5   8    0.55    6.26
   4   5   9  836.95   35.75
   5   0 -22    2.25    8.27
  -5   0  22    5.26    9.93
   5   0 -21   70.68   12.98
  -5   0  21   80.84   14.30
   5   0 -20    2.86    6.04
  -5   0  20    3.26    9.21
   5   0 -19 5271.88   77.55
   5   0 -18   -0.23    6.43
  -5   0  18    5.19   12.85
   5   0 -17  705.44   26.02
  -5   0  17  714.65   26.61
   5   0 -16   -0.40    4.93
  -5   0  16    2.71    8.79
   5   0 -15  974.41   32.17
  -5   0  15  935.30   30.85
   5   0 -14    0.46    4.03
   5   0 -14    0.89    4.17
   5   0 -13 2895.11   55.01
   5   0 -13 2337.03   49.81
   5   0 -12   -0.97    3.87
   5   0 -12    1.24    3.83
   5   0 -11  373.49   16.50
   5   0 -11  387.93   27.18
   5   0 -10    1.09    3.27
   5   0 -10    0.88    3.10
   5   0  -9 3854.54   56.80
   5   0  -8    1.16    2.98
   5   0  -8    1.09    4.35
   5   0  -7 4688.17   64.28
  -5   0   7 4897.94   66.07
   5   0  -6    1.30    3.71
  -5   0   6    1.54    3.82
   5   0  -6    0.70    5.73
   5   0  -5  218.56    8.32
  -5   0   5  237.81    7.91
   5   0  -5  219.22   12.58
   5   0  -4    2.04    3.00
  -5   0   4    4.01    3.45
   5   0  -4   17.48    6.07
   5   0  -2    0.61    1.60
  -5   0   2    1.18    2.46
   5   0  -2   -0.49    4.25
   5   0  -1 2470.98   28.60
  -5   0   1 2561.45   28.59
   5   0  -1 2498.64   37.47
   5   0   0    3.74    1.86
   5   0   0    2.30    3.44
   5   0   0    1.37    4.62
   5   0   2    0.85    2.04
   5   0   2    5.17    5.71
   5   0   2    1.39    4.86
   5   0   3  220.66    8.71
   5   0   3  219.70    9.01
   5   0   3  218.47   13.58
   5   0   4    0.35    1.79
   5   0   4    3.56    3.09
   5   0   4    0.35    5.19
  -5   0  -5 1374.27   25.47
   5   0   5 1105.60   25.98
  -5   0  -6    0.92    2.14
   5   0   6   -0.02    5.86
  -5   0  -7  971.13   28.74
   5   0   7  968.95   26.29
  -5   0  -8    0.55    2.19
   5   0   8   -0.79    7.23
  -5   0 -10    0.48    3.07
   5   0  10    0.99    7.73
  -5   0 -11 1152.00   40.44
   5   0  11 1174.51   36.71
  -5   0 -12    1.35    2.38
   5   0  12    5.58    8.29
  -5   0 -13   58.68   22.27
   5   0  13   65.48   11.95
  -5   0 -14    1.15    3.64
   5   0  14    7.32   11.71
  -5   0 -15   96.62   26.63
   5   0  15  115.84   16.98
  -5   0 -16   -0.94    5.92
   5   0  16    3.69   12.12
  -5   0 -17  631.24   43.08
   5   0  17  640.49   32.97
  -5   0 -18    1.05    4.82
   5   0  18    2.25    8.10
  -5   1  22 1269.28   41.79
   5   1 -22 1267.51   44.27
   5  -1 -22 1240.04   41.63
  -5  -1  22 1227.60   40.74
   5   1 -21   83.67   14.43
  -5   1  21   98.45   13.81
   5  -1 -21   95.50   14.61
  -5  -1  21   89.69   15.06
  -5   1  20 1407.65   50.10
   5   1 -20 1423.43   52.93
   5  -1 -20 1508.32   52.44
  -5  -1  20 1583.68   56.76
   5   1 -19    8.62    8.82
  -5   1  19    8.79    9.08
   5  -1 -19    5.87    5.27
  -5  -1  19   11.72   10.70
  -5   1  18  300.79   21.22
   5   1 -18  253.95   19.30
   5  -1 -18  264.69   17.41
  -5  -1  18  267.73   19.49
   5   1 -17  311.66   19.51
  -5   1  17  309.49   19.30
   5  -1 -17  315.68   19.26
  -5  -1  17  293.29   17.19
  -5   1  16  226.21   15.90
   5   1 -16  229.75   16.80
   5  -1 -16  221.33   16.26
  -5  -1  16  224.27   15.29
   5   1 -15  464.99   22.41
  -5   1  15  426.19   20.51
   5  -1 -15  454.31   20.55
  -5  -1  15  445.98   20.68
   5   1 -14  312.86   17.38
   5   1 -14  314.41   17.75
   5  -1 -14  322.15   15.77
   5  -1 -14  323.96   18.15
   5   1 -13  551.58   22.25
   5   1 -13  579.00   35.57
   5  -1 -13  546.35   20.15
   5  -1 -13  557.54   31.59
   5   1 -12 2354.49   46.98
   5   1 -11  806.33   37.16
   5   1 -11  808.54   26.32
   5  -1 -11  780.52   22.61
   5  -1 -11  601.26   31.73
   5   1 -10 1078.27   32.97
   5   1 -10 1073.93   30.30
   5  -1 -10 1066.68   27.70
   5  -1 -10 1076.55   40.31
   5   1  -9   22.00    7.61
   5   1  -9   18.06    6.66
   5  -1  -9   10.14    7.37
   5  -1  -9   19.62    7.00
  -5   1   8 7187.32   60.10
   5   1  -8 7045.26   96.55
   5   1  -8 7184.54   72.42
   5  -1  -8 7136.21   70.07
   5  -1  -8 6993.61   90.05
   5   1  -7  361.45   14.62
  -5   1   7  391.51   10.25
   5   1  -7  385.95   16.29
   5  -1  -7  371.95   15.47
   5  -1  -7  368.28   11.07
  -5   1   6 1175.78   18.67
   5   1  -6 1137.91   24.34
   5   1  -6 1183.88   26.53
   5  -1  -6 1155.07   26.02
   5  -1  -6 1177.21   19.27
  -5   1   5  160.34    5.21
   5   1  -5  150.35    9.30
   5   1  -5  148.93   11.45
   5  -1  -5  150.22   10.88
   5  -1  -5  154.41    5.58
   5   1  -4 3922.46   56.85
  -5   1   4 3965.76   48.09
   5   1  -4 3937.01   59.81
   5  -1  -4 3881.41   58.37
   5   1  -3    2.61    5.93
   5   1  -2  314.29   12.13
   5   1  -2  303.24   14.05
   5  -1  -2  321.51   13.75
   5   1  -1 3584.81   44.07
   5   1  -1 3525.58   47.34
   5  -1  -1 3555.27   47.18
   5   1   0  197.58   10.26
   5   1   0  204.13   13.35
   5  -1   0  193.14   11.58
   5   1   1   96.77    9.89
   5   1   1   99.86    8.00
   5  -1   1   97.03    3.59
   5  -1   1   93.46    9.86
   5  -1   1   98.19    3.69
   5   1   2 2069.25   35.28
   5   1   2 2031.97   37.68
   5  -1   2 2129.90   29.34
   5  -1   2 2079.07   37.87
  -5   1  -3   42.41    5.15
   5   1   3   44.29    7.51
   5   1   3   46.27    8.85
   5  -1   3   41.14    3.82
   5  -1   3   40.15    8.37
   5   1   4 6916.70   97.98
   5  -1   4 7350.78   73.35
   5  -1   4 7294.95   60.49
  -5   1  -5    2.41    2.88
   5   1   5    2.61    7.81
   5   1   5    3.52    4.35
   5  -1   5    0.52    2.45
   5  -1   5    1.47    7.34
  -5   1  -6 1564.03   23.69
   5   1   6 1496.59   27.27
   5   1   6 1469.86   31.17
   5  -1   6 1546.08   31.89
  -5   1  -7    8.25    4.88
   5   1   7   11.10    6.61
   5   1   7    8.60    6.67
   5  -1   7    8.73    6.29
  -5   1  -8 5010.29   96.21
   5   1   8 5167.59  102.09
   5   1   8 5028.61  102.50
   5  -1   8 5165.47  105.40
  -5   1  -9 1994.13   40.85
   5   1   9 2133.32   46.54
   5   1   9 2092.57   49.74
   5  -1   9 2155.26   49.54
  -5   1 -10  815.51   23.97
   5   1  10  841.70   31.24
   5  -1  10  827.60   32.28
   5   1  11 1225.26   41.79
  -5   1 -11 1192.72   32.86
  -5  -1 -11 1230.59   37.50
   5  -1  11 1234.38   41.88
  -5   1 -12  588.58   20.84
   5   1  12  582.87   27.32
  -5  -1 -12  583.50   23.57
   5  -1  12  608.98   25.91
   5   1  13    1.81    7.33
  -5   1 -13    2.10    8.25
  -5  -1 -13    9.68   13.82
   5  -1  13   -1.51    7.49
   5   1  14  648.16   30.57
  -5   1 -14  636.75   25.17
  -5  -1 -14  613.49   31.72
   5  -1  14  637.60   30.16
  -5   1 -15   59.54   10.77
   5   1  15   53.45   14.46
  -5  -1 -15   46.01   24.67
   5  -1  15   50.61   13.67
  -5   1 -16 1209.07   40.03
   5   1  16 1194.68   43.65
  -5  -1 -16 1139.89   58.37
   5  -1  16 1208.59   43.92
  -5   1 -17   48.51   11.69
   5   1  17   43.30   12.81
  -5  -1 -17   42.44   23.14
   5  -1  17   38.00   12.24
  -5   1 -18  774.74   30.81
   5   1  18  783.81   35.53
  -5  -1 -18  755.85   41.85
   5  -1  18  797.98   36.57
   5   2 -20    2.42    8.34
  -5   2  20    5.27   10.27
   5  -2 -20    0.09    5.01
  -5  -2  20   -0.55    5.48
  -5   2  19   91.75   13.12
   5   2 -19   83.41   14.67
   5  -2 -19   73.69   26.63
  -5  -2  19   95.15   14.36
   5   2 -18   29.00   11.10
  -5   2  18   37.83    9.74
   5  -2 -18   23.72   18.99
  -5  -2  18   31.91   10.61
  -5   2  17  425.23   22.58
   5   2 -17  385.32   22.71
   5  -2 -17  387.33   18.78
  -5  -2  17  391.38   20.29
   5   2 -16  222.28   19.70
  -5   2  16  218.05   16.20
   5  -2 -16  190.99   26.43
  -5  -2  16  226.91   16.57
  -5   2  15 1705.98   35.31
   5   2 -15 1454.77   36.41
   5  -2 -15 1639.46   38.95
  -5  -2  15 1565.78   34.01
   5   2 -14  285.91   18.90
  -5   2  14  272.21   15.25
   5  -2 -14  293.88   26.50
  -5  -2  14  282.72   15.35
   5   2 -13  384.35   19.27
   5   2 -13  375.31   21.92
   5  -2 -13  393.82   25.11
   5   2 -12   55.51   11.55
   5   2 -12   53.42   14.02
   5  -2 -12   48.99   13.64
   5  -2 -12   47.88   13.79
   5   2 -11 1216.26   50.73
   5   2 -11 1247.97   34.93
   5  -2 -11 1283.38   31.35
   5  -2 -11 1303.34   37.60
   5   2 -10  102.29   13.34
   5   2 -10   97.67   11.40
   5  -2 -10  103.15   19.86
   5  -2 -10  101.33   17.22
   5   2  -9  521.05   29.60
   5   2  -9  534.66   22.03
   5  -2  -9  529.59   17.73
   5  -2  -9  539.29   23.84
  -5   2   8   37.22    4.33
   5   2  -8   34.32   10.07
   5   2  -8   36.37    6.83
   5  -2  -8   42.96    8.60
  -5   2   7 1931.68   38.13
   5   2  -7 1790.75   43.81
  -5   2   7 1854.58   36.96
   5   2  -7 1925.81   44.91
   5  -2  -7 1905.59   43.81
  -5   2   6  338.75    8.37
   5   2  -6  330.21   15.59
  -5   2   6  314.98    7.93
   5   2  -6  329.41   14.56
   5  -2  -6  327.07   13.36
  -5   2   5  256.12    6.16
   5   2  -5  243.04   13.94
  -5   2   5  249.81    6.31
   5   2  -5  255.12   12.39
   5  -2  -5  251.04   11.61
   5   2  -4 1202.75   26.08
   5   2  -4 1177.31   24.44
   5  -2  -4 1198.36   23.80
   5   2  -3 1951.20   32.50
   5   2  -3 2034.62   31.75
   5  -2  -3 1981.97   29.87
   5   2  -2  638.07   19.59
   5   2  -2  650.49   18.83
   5  -2  -2  640.25   17.59
   5   2  -1 2025.63   33.45
   5   2  -1 2052.29   31.91
   5  -2  -1 2065.01   30.86
   5   2   0   25.50    8.41
   5   2   0   22.84    7.52
   5  -2   0   28.87    6.55
   5   2   1 3165.21   43.45
   5   2   1 3177.84   42.03
   5  -2   1 3225.00   41.02
   5  -2   1 3062.83   24.48
  -5   2  -2  450.49    9.73
   5   2   2  444.20   17.70
   5   2   2  488.66   18.65
   5  -2   2  434.30    8.46
   5  -2   2  491.88   18.70
  -5   2  -3 4996.32   42.40
   5   2   3 4945.67   57.10
   5   2   3 5140.35   58.00
   5  -2   3 4920.96   42.60
   5  -2   3 4927.35   55.12
  -5   2  -4   15.00    6.61
   5   2   4   43.07    9.39
   5  -2   4   36.58    4.10
   5  -2   4   36.80    8.57
  -5   2  -5  143.20    7.37
   5   2   5  154.55   12.36
   5   2   5  156.96   12.96
   5  -2   5  147.44    7.66
   5  -2   5  154.61   13.18
  -5   2  -6 3453.00   56.72
   5   2   6 3318.98   62.64
   5   2   6 3444.19   64.01
   5  -2   6 3401.69   63.85
  -5   2  -7   13.12    6.74
   5   2   7   15.98    8.82
   5   2   7   10.80    7.01
   5  -2   7   18.53    7.97
  -5   2  -8   44.41    7.27
   5   2   8   45.51    9.97
   5   2   8   43.64    8.68
   5  -2   8   45.33   10.71
  -5   2  -9 2369.37   47.82
   5   2   9 2409.84   54.17
   5   2   9 2366.09   52.76
   5  -2   9 2416.95   54.56
  -5   2 -10   43.66    8.86
   5   2  10   49.12   14.18
   5   2  10   46.30   10.42
   5  -2  10   50.54   10.94
  -5   2 -11 1125.57   27.12
   5   2  11 1143.03   32.14
   5   2  11 1160.78   32.90
   5  -2  11 1142.52   32.04
  -5   2 -12  223.88   15.70
   5   2  12  227.40   18.42
   5   2  12  228.01   18.61
   5  -2  12  215.17   19.92
  -5   2 -13 2500.13   54.26
   5   2  13 2530.07   60.52
   5   2  13 2500.63   60.27
   5  -2  13 2570.75   61.55
  -5   2 -14   50.17   11.48
   5   2  14   50.06   14.75
   5   2  14   48.12   13.69
   5  -2  14   44.98   12.48
  -5   2 -15  773.30   28.76
   5   2  15  798.56   34.56
   5   2  15  798.15   35.48
   5  -2  15  777.05   33.03
  -5   2 -16  313.01   20.56
   5   2  16  289.48   21.61
   5   2  16  313.67   22.62
   5  -2  16  300.84   22.07
  -5   2 -17  119.22   15.20
   5   2  17  107.56   15.11
   5   2  17  103.01   16.75
   5  -2  17  104.08   16.84
  -5   3  19    3.15    6.19
   5   3 -19    0.23    6.91
   5  -3 -19    0.69    3.29
  -5  -3  19    3.04    5.03
   5   3 -18  240.53   21.75
  -5   3  18  238.97   17.53
  -5  -3  18  224.19   16.65
   5   3 -17    2.44    6.55
  -5   3  17    0.15    3.99
  -5  -3  17    2.55    8.57
   5   3 -16  223.19   19.84
  -5   3  16  217.55   14.38
  -5   3  16  254.78   17.21
  -5  -3  16  257.39   17.30
   5   3 -15   28.21   12.35
  -5   3  15   33.09    8.21
  -5   3  15   39.04    9.36
  -5  -3  15   38.95   10.06
   5   3 -14  321.06   21.68
  -5   3  14  307.30   15.39
  -5   3  14  326.82   16.55
  -5  -3  14  323.94   17.50
   5   3 -13   75.45   13.12
  -5   3  13   77.08    9.34
  -5   3  13   76.18    8.10
  -5  -3  13   75.15    9.18
   5   3 -12  293.09   20.02
  -5   3  12  275.15   13.02
  -5   3  12  274.91   13.61
  -5  -3  12  267.25   14.70
   5   3 -11  275.46   18.46
  -5   3  11  261.57   11.66
   5   3 -11  265.30   18.22
   5   3 -10  318.74   18.76
  -5   3  10  340.39   14.32
   5   3 -10  319.53   17.87
   5  -3 -10  348.02   17.73
   5   3  -9  155.09   14.15
  -5   3   9  137.47    8.86
   5   3  -9  144.22   20.55
   5  -3  -9  147.27   21.63
   5   3  -8 1388.04   39.69
  -5   3   8 1353.08   28.86
   5   3  -8 1399.31   39.08
   5  -3  -8 1412.64   36.70
   5   3  -7  200.45   15.57
  -5   3   7  197.64    8.84
   5   3  -7  188.04   21.43
   5  -3  -7  199.59   17.26
   5   3  -6  610.87   25.62
  -5   3   6  587.74   15.12
   5   3  -6  608.48   20.44
   5  -3  -6  615.57   18.85
   5   3  -5   85.27   13.20
  -5   3   5   98.18    6.37
   5   3  -5   88.16    9.22
   5  -3  -5  108.24    9.95
  -5   3   4 2356.14   38.30
   5   3  -4 2377.86   52.28
   5   3  -4 2495.47   47.17
   5  -3  -4 2383.93   43.55
  -5   3   3   22.70    3.98
   5   3  -3   16.30   10.15
   5   3  -3   19.96    5.92
   5  -3  -3   13.99    5.77
  -5   3   2  138.08    6.23
   5   3  -2  143.69   14.03
   5   3  -2  140.00   10.23
   5  -3  -2  149.08    9.74
  -5   3   1  451.22   11.27
   5   3  -1  435.00   20.16
   5   3  -1  436.29   15.08
   5  -3  -1  445.96   16.30
  -5   3   0 2231.80   36.51
   5   3   0 2200.85   48.92
   5   3   0 2256.34   43.58
   5  -3   0 2177.70   41.62
  -5   3  -1    4.30    3.10
   5   3   1    6.14    8.71
   5   3   1   14.60    6.70
   5  -3   1    3.49    3.72
   5  -3   1    6.26    2.80
  -5   3  -2  168.60    7.84
   5   3   2  177.99   15.39
   5   3   2  169.67   11.93
   5  -3   2  169.87   11.30
  -5   3  -3  164.10    8.49
   5   3   3  157.40   14.73
   5   3   3  159.91   12.04
   5  -3   3  171.99   12.22
  -5   3  -4 3223.47   56.26
   5   3   4 3191.04   67.06
   5   3   4 3276.42   63.25
   5  -3   4 3265.96   62.30
  -5   3  -5  789.03   21.27
   5   3   5  906.88   34.37
   5   3   5  820.26   26.62
   5  -3   5  810.21   25.85
  -5   3  -6 1344.23   32.87
   5   3   6 1370.23   41.93
   5   3   6 1345.76   37.51
   5  -3   6 1335.48   37.45
  -5   3  -7  300.75   12.53
   5   3   7  300.05   19.20
   5   3   7  316.86   16.47
   5  -3   7  296.72   17.38
  -5   3  -8 1055.06   22.85
   5   3   8 1079.83   32.66
   5   3   8 1059.63   27.34
   5  -3   8 1057.28   29.01
  -5   3  -9    7.89    5.06
   5   3   9    8.98    9.39
   5   3   9    6.07    6.29
   5  -3   9    5.69    6.28
  -5   3 -10 1225.49   32.20
   5   3  10 1216.28   38.88
   5   3  10 1234.32   36.33
   5  -3  10 1250.74   35.31
  -5   3 -11    3.73    6.13
   5   3  11    3.07    7.24
   5   3  11    1.17    5.44
   5  -3  11   -0.54    4.95
  -5   3 -12  408.56   19.78
   5   3  12  413.21   25.04
   5   3  12  424.20   23.55
   5  -3  12  418.05   23.21
  -5   3 -13   48.61    9.69
   5   3  13   44.39   12.19
   5   3  13   43.07   11.47
   5  -3  13   40.37   12.16
  -5   3 -14  490.57   21.00
   5   3  14  520.48   28.30
   5   3  14  510.23   26.71
   5  -3  14  504.78   26.23
  -5   3 -15    2.62    6.23
   5   3  15    6.68   12.14
   5   3  15    2.25    6.13
   5  -3  15    6.26    9.46
   5   4 -16    8.18    9.31
   5   4 -15  236.71   20.62
  -5  -4  15  245.75   15.82
   5   4 -14   -0.69    6.29
  -5  -4  14    3.95    5.82
   5   4 -13  239.82   21.90
  -5  -4  13  276.71   17.22
   5   4 -12   69.45   13.62
  -5  -4  12   74.15    9.12
   5   4 -11 1557.99   44.05
  -5  -4  11 1670.80   31.98
   5   4 -10   31.15   11.52
  -5  -4  10   28.01    6.62
   5   4  -9  426.52   24.03
   5   4  -8    6.97   10.55
   5   4  -8    0.46    1.90
   5   4  -7  899.37   32.32
   5   4  -6    9.16    8.73
   5   4  -6    1.43    3.63
   5   4  -5 1037.89   32.57
   5   4  -4   46.21   13.36
   5   4  -4   46.93    6.02
   5   4  -3 1023.83   33.95
   5   4  -2  379.90   23.11
   5   4  -1  508.24   24.61
   5   4   0  242.80   19.27
   5   4   1 1894.31   42.79
   5   4   2  120.28   16.15
   5   4   3  708.42   28.70
   5   4   4   48.75   12.55
   5   4   5  930.59   35.19
   5   4   6   23.03   11.29
   5   4   7 1916.18   46.35
   5   4   8   15.37   11.72
   5   4   9  144.06   18.50
   5   4  10  948.21   43.77
   5   4  11  192.14   19.61
   5   4  12   62.26   14.76
   5   5 -10  270.88   22.78
   5   5  -9   90.69   16.56
   5   5  -8 1103.95   40.70
   5   5  -7   23.83   11.81
   5   5  -6  770.23   37.72
   5   5  -5   43.76   14.16
   5   5  -4 1117.45   46.59
   5   5  -3    9.95   11.14
   5   5  -2  756.77   36.10
   5   5  -1    9.91   11.92
   5   5   0 1185.04   47.86
   5   5   1   18.38   12.15
   5   5   2   93.27   15.97
   5   5   3  382.15   25.00
   5   5   4  237.84   21.72
   5   5   5  246.64   22.32
   5   5   6  570.05   31.06
   5   5   7   62.77   16.27
   6   0 -21    2.28    5.52
  -6   0  21    3.45    7.25
   6   0 -20   30.59   10.26
  -6   0  20   46.56   12.98
   6   0 -19    2.83    6.26
   6   0 -18  337.69   19.26
  -6   0  18  325.18   19.89
   6   0 -17    1.18    4.82
  -6   0  17    3.57    6.68
   6   0 -16  286.11   18.13
   6   0 -16  275.12   17.64
   6   0 -15    0.84    4.24
   6   0 -15    0.91    4.39
   6   0 -14  159.87   12.77
   6   0 -14  170.49   25.28
   6   0 -13    0.28    3.71
   6   0 -13   -0.56    4.02
   6   0 -12 1693.56   37.33
   6   0 -12 1686.08   47.60
   6   0 -11    2.07    5.57
   6   0 -11    4.58    4.32
   6   0 -10  758.04   22.88
   6   0 -10  773.50   27.21
   6   0  -9    1.03    3.19
   6   0  -9    5.04    9.02
   6   0  -8 1624.62   25.45
   6   0  -7   -0.17    2.44
  -6   0   7    0.95    1.77
   6   0  -7    0.66    4.51
   6   0  -6 4857.85   65.52
  -6   0   6 5164.17   68.48
   6   0  -5    2.00    3.12
  -6   0   5    1.75    3.18
   6   0  -5    3.32    4.70
   6   0  -4 2550.34   36.86
  -6   0   4 2671.54   38.01
   6   0  -4 2556.54   45.49
   6   0  -3    0.59    1.66
  -6   0   3    3.33    2.92
   6   0  -3   -0.37    4.48
   6   0  -2  498.78   11.79
  -6   0   2  519.47   11.50
   6   0  -2  488.59   18.47
   6   0  -1    0.67    1.31
   6   0  -1    5.58    4.08
   6   0  -1    2.37    5.01
   6   0   1    3.69    2.28
   6   0   1    6.35    5.64
   6   0   1    3.46    6.77
   6   0   2  564.34   13.38
   6   0   2  586.68   13.04
   6   0   2  589.89   19.81
   6   0   5   25.10   13.71
   6   0   7   -1.26    7.70
  -6   0  -8 2178.80   43.56
  -6   0  -9    0.34    2.39
   6   0   9    0.16    8.14
  -6   0 -10  706.65   30.53
   6   0  10  686.68   30.08
  -6   0 -11    0.90    3.13
   6   0  11    2.35    7.87
  -6   0 -12  507.32   32.54
   6   0  12  508.01   26.15
  -6   0 -13    0.46    2.29
   6   0  13    0.96    9.16
  -6   0 -14 1525.33   45.92
   6   0  14 1548.84   42.98
  -6   0 -15   -0.14    2.64
   6   0  15   -4.06   10.83
  -6   0 -16 1619.56   69.14
   6   0  16 1663.33   46.38
  -6   0 -17   -0.25    4.49
   6   0  17    0.19    8.60
   6   1 -21  149.05   16.26
  -6   1  21  180.78   19.34
   6  -1 -21  152.66   17.76
  -6  -1  21  168.16   18.26
  -6   1  20   -0.13    6.83
   6   1 -20    0.16    5.15
   6  -1 -20    1.67    5.09
   6   1 -19  113.94   14.36
  -6   1  19  101.74   13.94
   6  -1 -19  111.13   14.03
  -6  -1  19  110.82   14.72
   6   1 -18   89.38   14.72
  -6   1  18   98.58   13.96
   6  -1 -18   88.14   12.28
  -6  -1  18   89.22   12.58
   6   1 -17  510.74   25.47
  -6   1  17  504.95   23.07
   6  -1 -17  513.41   22.08
  -6  -1  17  508.32   24.03
   6   1 -16   42.08   11.65
   6  -1 -16   38.35    9.36
   6   1 -15  565.30   40.08
   6   1 -15  614.54   24.28
   6  -1 -15  620.13   22.80
   6  -1 -15  581.09   42.01
   6   1 -14   26.03   14.31
   6   1 -14   14.99    7.43
   6  -1 -14   17.98    8.03
   6  -1 -14   17.72   15.44
   6   1 -13  728.79   38.53
   6   1 -13  778.35   26.48
   6  -1 -13  774.10   23.47
   6  -1 -13  742.67   38.78
   6   1 -12    3.69    4.87
   6   1 -12    4.47    6.40
   6  -1 -12    5.35    6.82
   6  -1 -12    8.40    5.96
   6   1 -11 2664.90   57.35
   6   1 -11 2641.68   52.41
   6  -1 -11 2721.36   48.99
   6  -1 -11 2587.53   53.62
   6   1 -10  176.93   15.02
   6   1 -10  162.02   12.55
   6  -1 -10  154.95    8.59
   6  -1 -10  163.98   12.58
  -6   1   9   10.92    2.83
   6   1  -9   13.55    6.87
   6   1  -9   13.64    6.63
   6  -1  -9   14.62    8.37
   6  -1  -9   12.43    4.34
  -6   1   8   18.70    3.29
   6   1  -8   15.09    6.68
   6   1  -8   18.41    6.22
   6  -1  -8   16.56    4.34
   6  -1  -8   19.34    7.37
  -6   1   7 2300.38   24.54
   6   1  -7 2186.03   33.25
   6   1  -7 2244.43   36.77
   6  -1  -7 2254.27   37.35
   6  -1  -7 2154.70   23.59
  -6   1   6   10.21    2.72
   6   1  -6    8.94    4.75
   6   1  -6   12.60    5.83
   6  -1  -6    7.37    7.15
   6  -1  -6    8.23    2.77
  -6   1   5  573.82    7.88
   6   1  -5  553.46   15.98
   6   1  -5  535.06   18.77
   6  -1  -5  549.13   18.55
   6  -1  -5  568.91    7.89
   6   1  -4  333.26   12.54
   6   1  -4  335.19   15.93
   6  -1  -4  344.98   16.31
   6   1  -3 5722.97   78.69
   6   1  -3 5737.09   83.71
   6  -1  -3 5587.61   81.17
   6   1  -2  525.15   16.20
   6   1  -2  523.01   19.77
   6  -1  -2  513.22   19.04
   6   1  -1 3086.62   47.70
   6   1  -1 3087.39   53.03
   6  -1  -1 3244.54   54.26
   6   1   0  137.43    9.22
   6   1   0  127.01   11.67
   6  -1   0  147.17   12.67
   6   1   1 4249.52   53.03
   6   1   1 4219.75   46.32
   6  -1   1 4236.68   32.90
   6  -1   1 4231.33   53.05
   6  -1   1 4186.13   32.52
   6   1   2   19.78    7.42
   6   1   2   22.25    6.61
   6  -1   2   18.45    2.69
   6  -1   2   22.32    8.16
   6  -1   2   20.65    3.05
   6   1   3 1022.69   26.04
   6   1   3 1034.49   22.03
   6  -1   3 1002.53   15.01
   6  -1   3 1028.41   26.20
   6  -1   3 1060.35   15.37
  -6   1  -4   86.39    7.40
   6   1   4   87.41    9.26
   6   1   4   93.37   11.37
   6  -1   4   83.93    5.57
   6  -1   4   84.56   12.81
  -6   1  -5 1230.04   27.23
   6   1   5 1371.34   34.59
   6   1   5 1342.33   37.66
   6  -1   5 1391.67   38.63
  -6   1  -6   58.47    6.66
   6   1   6   61.53    8.60
   6   1   6   62.09   11.64
   6  -1   6   55.50   10.29
  -6   1  -7 1140.52   28.86
   6   1   7 1106.64   29.04
   6   1   7 1140.95   33.97
   6  -1   7 1163.55   34.62
  -6   1  -8  392.27   24.39
   6   1   8  400.83   17.77
   6   1   8  421.94   22.32
   6  -1   8  420.78   23.06
  -6   1  -9 1892.87   51.34
   6   1   9 1895.13   47.90
   6   1   9 1865.51   51.69
   6  -1   9 1907.16   52.83
  -6   1 -10    9.79    7.12
   6   1  10   11.45    7.02
   6   1  10    7.19    7.83
   6  -1  10    4.33    8.97
  -6   1 -11 1750.45   45.50
   6   1  11 1734.99   36.84
   6   1  11 1719.10   42.36
   6  -1  11 1729.95   42.35
  -6   1 -12   54.93   16.72
   6   1  12   50.64   12.15
   6   1  12   47.99   12.48
   6  -1  12   55.84   13.91
  -6   1 -13 1387.67   36.44
   6   1  13 1438.54   41.96
   6   1  13 1411.59   44.66
   6  -1  13 1406.17   44.98
  -6   1 -14   -0.60    5.56
   6   1  14    0.51    7.19
   6   1  14    8.26   14.24
   6  -1  14   -3.09    7.31
  -6   1 -15  423.25   32.29
   6   1  15  455.22   29.20
   6  -1  15  448.74   28.10
  -6   1 -16    1.09    4.51
   6   1  16   -0.09    6.77
   6  -1  16    0.95    7.57
  -6   1 -17  219.13   25.26
   6   1  17  236.00   22.57
   6  -1  17  244.57   26.56
   6   2 -20  366.29   23.75
  -6   2  20  406.21   23.41
   6  -2 -20  390.15   22.30
  -6  -2  20  414.96   24.09
   6   2 -19  151.47   18.52
  -6   2  19  173.94   17.41
   6  -2 -19  135.29   21.77
  -6  -2  19  162.66   16.00
   6   2 -18  323.65   22.99
  -6   2  18  315.62   20.86
   6  -2 -18  337.82   21.94
  -6  -2  18  338.47   22.04
  -6   2  17   24.60    7.48
   6   2 -17   29.93   11.87
   6  -2 -17   12.22   10.27
  -6  -2  17   33.82   10.96
   6   2 -16  997.96   33.08
  -6   2  16  977.21   30.01
   6  -2 -16  989.56   32.46
  -6  -2  16  997.82   30.61
   6   2 -15  526.47   24.54
   6   2 -15  528.12   25.25
  -6   2  15  524.61   23.11
   6  -2 -15  498.19   28.74
   6   2 -14  482.87   25.33
   6   2 -14  482.91   23.61
   6  -2 -14  485.01   19.10
   6  -2 -14  493.65   23.00
   6   2 -13   59.87   17.21
   6   2 -13   56.72   11.46
   6  -2 -13   55.44   14.02
   6  -2 -13   55.94   18.70
   6   2 -12 1947.62   51.81
   6   2 -12 1935.04   52.52
   6  -2 -12 1947.83   44.30
   6  -2 -12 1953.32   69.81
   6   2 -11  218.27   22.72
   6   2 -11  214.17   15.46
   6  -2 -11  224.63   11.49
   6  -2 -11  224.28   16.72
   6   2 -10  456.87   30.51
   6   2 -10  454.72   21.31
   6  -2 -10  466.00   16.01
   6  -2 -10  466.66   32.60
   6   2  -9    3.43    7.51
   6   2  -9    1.13    4.56
   6  -2  -9    1.04    4.40
   6   2  -8 2424.13   50.70
  -6   2   8 2368.35   38.48
   6   2  -8 2489.29   51.03
   6  -2  -8 2436.76   49.30
  -6   2   7    8.39    2.15
   6   2  -7   11.96    8.53
  -6   2   7    6.79    2.57
   6   2  -7   12.63    6.78
   6  -2  -7   13.60    6.83
  -6   2   6  440.03    9.11
   6   2  -6  407.16   18.51
  -6   2   6  408.77    8.62
   6   2  -6  406.90   18.41
   6  -2  -6  404.51   18.48
   6   2  -5  325.65   16.79
   6   2  -5  302.17   15.96
   6  -2  -5  311.90   15.37
   6   2  -4   22.80    7.52
   6   2  -4   18.56    6.55
   6  -2  -4   26.46    8.36
   6   2  -3  537.72   21.00
   6   2  -3  503.66   20.10
   6  -2  -3  524.71   21.04
   6   2  -2 1185.95   32.77
   6   2  -2 1150.41   32.17
   6  -2  -2 1155.14   32.32
   6   2  -1    8.05    6.17
   6   2  -1   11.64    7.04
   6  -2  -1   27.28    9.64
   6   2   0 3152.72   67.51
   6   2   0 3069.90   65.25
   6  -2   0 3183.85   67.91
   6   2   1  146.85   12.93
   6   2   1  160.12   14.89
   6  -2   1  137.91   12.93
   6   2   2  310.62   16.21
   6   2   2  314.02   17.03
   6  -2   2  296.34    7.22
   6  -2   2  307.91   16.89
  -6   2  -3  383.81    8.65
   6   2   3  386.09   18.15
   6   2   3  378.97   17.87
   6  -2   3  367.74    7.85
   6  -2   3  372.02   17.74
  -6   2  -4 2733.92   43.78
   6   2   4 2706.73   54.50
   6   2   4 2713.05   55.30
   6  -2   4 2738.19   54.94
  -6   2  -5  684.72   17.04
   6   2   5  688.65   25.35
   6   2   5  653.60   24.15
   6  -2   5  644.67   23.92
  -6   2  -6    4.55    3.64
   6   2   6    6.27    6.73
   6   2   6    6.94    5.88
   6  -2   6    7.29    7.50
  -6   2  -7 1147.89   28.81
   6   2   7 1157.22   35.91
   6   2   7 1137.53   35.95
   6  -2   7 1132.63   36.08
  -6   2  -8  351.17   13.97
   6   2   8  340.03   19.18
   6   2   8  348.55   19.85
   6  -2   8  366.89   20.03
  -6   2  -9    5.32    5.15
   6   2   9    7.95    8.30
   6   2   9    5.71    6.27
   6  -2   9    7.05    8.23
  -6   2 -10 1098.84   25.06
   6   2  10 1064.32   30.59
   6   2  10 1083.70   32.26
   6  -2  10 1082.23   33.57
  -6   2 -11   -1.93    4.74
   6   2  11   -0.26    5.60
   6   2  11   -0.22    7.26
   6  -2  11    3.85   13.66
  -6   2 -12 1064.44   26.85
   6   2  12 1083.56   33.04
   6   2  12 1082.42   36.00
   6  -2  12 1071.04   36.37
  -6   2 -13  261.97   17.40
   6   2  13  252.76   20.56
   6   2  13  254.74   21.59
   6  -2  13  276.20   22.27
  -6   2 -14  253.35   17.43
   6   2  14  255.39   20.21
   6   2  14  258.49   22.72
   6  -2  14  256.15   21.49
  -6   2 -15   60.47    9.68
   6   2  15   58.91   12.97
   6   2  15   55.23   14.06
   6  -2  15   59.65   12.89
  -6   2 -16  761.47   28.14
   6   2  16  810.52   33.63
   6   2  16  763.12   35.54
   6  -2  16  823.01   36.12
   6   3 -18  181.38   18.98
  -6   3  18  197.14   15.89
  -6  -3  18  189.67   17.04
   6   3 -17  374.18   24.85
  -6   3  17  421.32   22.28
  -6  -3  17  390.06   21.13
   6   3 -16   24.59   11.49
  -6   3  16   23.28    6.60
  -6  -3  16   26.37    8.31
   6   3 -15 1881.30   57.80
  -6   3  15 2020.21   55.33
  -6  -3  15 1888.97   52.03
   6   3 -14   21.11   10.42
  -6   3  14   18.78    5.97
  -6  -3  14   21.34    7.47
   6   3 -13  758.91   31.57
   6   3 -13  770.45   28.32
  -6   3  13  761.01   25.68
   6   3 -12   63.94   13.19
   6   3 -12   59.59    9.18
   6  -3 -12   33.73   23.82
   6   3 -11 1579.65   39.96
   6   3 -11 1556.69   50.32
   6  -3 -11 1602.70   58.65
   6   3 -10   23.64   11.34
   6   3 -10   26.73   16.03
   6  -3 -10   16.64    8.39
   6   3  -9  123.23   14.47
   6   3  -9  122.63   18.85
   6  -3  -9  132.88   22.22
   6   3  -8 1591.65   47.17
   6   3  -8 1627.89   49.84
   6  -3  -8 1620.84   51.42
   6   3  -7  308.71   19.78
   6   3  -7  314.71   15.59
   6  -3  -7  302.01   14.99
   6   3  -6  275.54   17.84
   6   3  -6  263.94   13.87
   6  -3  -6  284.40   14.49
   6   3  -5  428.12   22.08
   6   3  -5  426.03   17.90
   6  -3  -5  422.09   17.04
   6   3  -4  623.14   25.59
   6   3  -4  648.38   22.03
   6  -3  -4  649.94   21.13
   6   3  -3  774.86   28.65
   6   3  -3  736.34   23.89
   6  -3  -3  756.60   23.20
   6   3  -2   19.16   10.46
   6   3  -2   11.45    6.11
   6  -3  -2   30.11    7.09
   6   3  -1 2810.61   61.16
   6   3  -1 2837.10   56.69
   6  -3  -1 2818.25   55.12
   6   3   0   29.61   10.67
   6   3   0   40.12    8.99
   6  -3   0   17.25    6.79
   6   3   1  610.46   26.43
   6   3   1  601.65   23.78
   6  -3   1  618.24   22.16
   6   3   2 3261.34   76.51
   6   3   2 3373.59   43.03
   6  -3   2 3365.73   43.04
   6  -3   3    7.89    6.45
   6   3   4 1236.21   40.46
   6   3   4 1174.19   35.38
   6  -3   4 1230.48   37.24
   6   3   5  233.45   18.11
   6   3   5  227.74   15.87
   6  -3   5  251.78   17.85
   6   3   6 2631.95   49.85
   6   3   6 2643.91   44.48
   6  -3   6 2681.35   44.63
   6   3   7  106.32   14.32
   6   3   7   96.45   11.88
   6  -3   7   99.80   11.65
   6   3   8  154.95   17.53
   6   3   8  148.43   13.97
   6  -3   8  144.09   14.51
   6   3   9 1908.20   44.71
   6   3   9 1916.46   41.35
   6  -3   9 1919.25   39.92
   6   3  10  156.39   17.88
   6   3  10  145.04   15.79
   6  -3  10  153.68   15.48
   6   3  11  590.24   29.04
   6   3  11  552.90   26.54
   6  -3  11  535.80   26.31
   6   3  12   50.44   12.17
   6   3  12   57.96   13.00
   6  -3  12   62.18   13.24
   6   3  13  307.49   21.66
   6   3  13  299.69   22.15
   6  -3  13  320.60   22.90
   6   3  14  521.59   28.38
   6   3  14  501.83   25.82
   6  -3  14  528.31   29.79
   6   4 -14  114.60   16.35
   6   4 -13  159.99   18.80
  -6  -4  13  173.77   14.25
   6   4 -12  721.82   36.25
  -6  -4  12  719.52   28.77
   6   4 -11   97.31   16.46
   6   4 -10  582.88   30.46
   6   4  -9    6.96   11.91
   6   4  -9    0.34    1.49
   6   4  -8 1457.05   40.00
   6   4  -7  129.29   16.41
   6   4  -7  110.09   16.29
   6   4  -6  679.40   29.04
   6   4  -6  677.24   27.77
   6   4  -5   31.76   11.71
   6   4  -5   26.84    6.49
   6   4  -4 2128.34   55.80
   6   4  -3   73.67   14.81
   6   4  -3   72.43    9.44
   6   4  -2   15.05    9.92
   6   4  -2   11.14    4.91
   6   4  -1   32.63   11.90
   6   4  -1   29.39    6.24
   6   4   0    9.41   12.09
   6   4   0    4.87    4.89
   6   4   1  936.22   35.16
   6   4   2 1381.35   43.29
   6   4   3  159.57   18.08
   6   4   4  531.08   26.93
   6   4   5   63.40   14.67
   6   4   6 1469.89   49.30
   6   4   7  115.67   17.16
   6   4   8  603.73   33.41
   6   4   9   24.00   11.69
   6   4  10  364.64   26.03
   6   5  -8   57.75   13.64
   6   5  -7  548.30   28.65
   6   5  -6   33.47   12.34
   6   5  -5  204.54   19.39
   6   5  -4    7.36    8.79
   6   5  -3 1279.45   42.05
   6   5  -2  246.66   21.35
   6   5  -1  388.82   25.06
   6   5   0  118.81   16.51
   6   5   1  610.94   28.05
   6   5   2   17.85    9.86
   6   5   3  322.62   24.39
   6   5   4   46.97   12.05
   7   0 -20    4.44    7.27
  -7   0  20    5.86   14.01
   7   0 -19  399.47   24.23
  -7   0  19  390.34   24.26
   7   0 -18    2.14    4.69
  -7   0  18    4.31   10.21
   7   0 -17  192.91   14.85
   7   0 -17  197.08   17.12
   7   0 -16   -1.99    4.14
   7   0 -16    1.40    3.54
   7   0 -15 1990.63   37.54
   7   0 -15 1948.06   54.06
   7   0 -14    1.33    4.35
   7   0 -14    2.84    7.71
   7   0 -13    4.43    5.44
   7   0 -13    7.05    7.44
   7   0 -12    2.40    4.57
   7   0 -12   -0.79    5.65
   7   0 -11 1294.36   30.78
   7   0 -11 1300.49   36.60
   7   0 -10    0.09    2.74
   7   0 -10    2.43    7.94
   7   0  -9  424.58   13.94
   7   0  -9  431.52   19.97
   7   0  -8    1.89    3.47
   7   0  -8   -0.05    5.52
   7   0  -7 2058.70   43.05
   7   0  -6    2.51    4.17
  -7   0   6    0.37    1.63
   7   0  -6    2.77    7.82
   7   0  -5 2387.44   47.52
   7   0  -4    0.64    2.60
  -7   0   4    3.18    2.94
   7   0  -4   -0.13    7.66
   7   0  -3 6056.29  109.98
  -7   0   3 6413.94  115.63
   7   0  -3 5843.21  114.91
   7   0  -2    0.46    1.35
   7   0  -2    2.08    3.28
   7   0  -2    9.16   10.85
   7   0  -1 2383.14   48.00
   7   0  -1 2412.97   47.29
   7   0  -1 2399.20   56.53
   7   0   0    1.34    1.80
   7   0   0    1.87    2.91
   7   0   0    2.13    9.43
   7   0   1 1542.32   32.24
   7   0   1 1610.26   34.52
   7   0   1 1523.83   41.84
   7   0   2   -0.34    2.47
   7   0   2    5.15    8.17
   7   0   3 1052.94   26.24
   7   0   3 1000.94   32.54
   7   0   4    0.51    2.83
   7   0   4    3.74    8.19
   7   0   5 1779.20   35.48
   7   0   5 1779.86   44.76
   7   0   6    0.58    3.32
   7   0   6    1.06    7.33
   7   0   7 1990.17   42.36
   7   0   7 1983.41   51.67
   7   0   8    2.49    6.83
   7   0   8    7.22   14.56
   7   0   9 3278.04   45.63
   7   0  10   -0.20    5.24
   7   0  10    4.70   11.77
   7   0  11  510.48   28.71
  -7   0 -12    0.27    3.99
   7   0  12   13.92   14.61
  -7   0 -13  635.70   26.02
   7   0  13  648.68   31.97
  -7   0 -14    2.20    3.79
   7   0  14   10.35    9.14
  -7   0 -15  155.72   24.10
   7   0  15  182.02   22.00
  -7   0 -16    1.54    2.30
   7   0  16    2.27    8.00
   7   1 -20  330.35   23.08
  -7   1  20  368.03   23.22
   7  -1 -20  342.69   20.72
  -7  -1  20  333.76   22.06
   7   1 -19    4.68    9.62
  -7   1  19    4.82   11.36
   7  -1 -19    2.23    6.19
  -7  -1  19    6.58    7.14
   7   1 -18  273.24   19.77
  -7   1  18  274.32   21.05
   7  -1 -18  281.22   18.91
  -7  -1  18  261.34   19.74
   7   1 -17  116.74   15.28
   7   1 -17  109.35   13.39
   7  -1 -17  104.06   12.72
   7  -1 -17  108.48   14.63
   7   1 -16  857.93   38.53
   7   1 -16  938.98   32.39
   7  -1 -16  900.13   28.52
   7  -1 -16  860.69   49.23
   7   1 -15   11.28    6.16
   7   1 -15    9.61    7.13
   7  -1 -15    7.97    6.24
   7  -1 -15    9.18   11.55
   7   1 -14  231.86   17.05
   7   1 -14  209.22   40.70
   7  -1 -14  235.71   13.80
   7  -1 -14  236.30   32.39
   7   1 -13   16.91   11.68
   7   1 -13   17.19    8.35
   7  -1 -13   15.22    6.21
   7  -1 -13   18.37   12.73
   7   1 -12  338.27   23.48
   7   1 -12  341.42   17.92
   7  -1 -12  328.90   13.49
   7  -1 -12  329.57   24.54
   7   1 -11   26.06    9.14
   7   1 -11   22.33    8.62
   7  -1 -11   20.33    5.47
   7  -1 -11   24.77    9.62
   7   1 -10 1655.21   42.15
   7   1 -10 1672.39   39.39
   7  -1 -10 1619.75   32.18
   7  -1 -10 1619.16   41.49
   7   1  -9  235.58   17.01
   7   1  -9  234.05   13.35
   7  -1  -9  216.85    8.84
   7  -1  -9  224.85   14.92
   7   1  -8 2680.70   55.45
   7   1  -8 2596.18   49.57
   7  -1  -8 2585.30   42.06
   7  -1  -8 2640.56   54.38
   7   1  -7    4.53    5.10
  -7   1   7    4.28    2.24
   7   1  -7    9.58    7.90
   7  -1  -7    4.66    6.35
  -7   1   6 1810.50   33.69
   7   1  -6 1748.54   40.70
   7   1  -6 1738.40   44.28
   7  -1  -6 1720.14   43.73
   7  -1  -6 1793.96   33.49
   7   1  -5  161.02   10.97
   7   1  -5  155.15   12.90
   7  -1  -5  166.29   13.77
   7   1  -4 4732.23   91.32
   7   1  -4 4649.70   94.32
   7  -1  -4 4657.50   94.83
   7   1  -3   51.23    7.40
   7   1  -3   55.73   10.46
   7  -1  -3   48.81   10.31
   7   1  -2  189.37   11.68
   7   1  -2  183.14   13.82
   7  -1  -2  186.54   14.41
   7   1  -1 1746.18   40.09
   7   1  -1 1725.62   43.82
   7  -1  -1 1715.82   44.25
   7   1   0 2705.09   56.66
   7   1   0 2693.03   61.48
   7  -1   0 2686.68   61.29
   7   1   1  467.23   18.10
   7   1   1  457.51   21.50
   7  -1   1  435.30   10.15
   7  -1   1  466.93   22.06
   7  -1   1  434.25   10.12
   7   1   2 2963.84   53.66
   7   1   2 2863.33   58.44
   7  -1   2 2874.76   44.02
   7  -1   2 3006.10   45.87
   7  -1   2 2911.29   58.47
   7   1   3   11.25    8.44
   7   1   3   11.23    5.28
   7  -1   3    9.63    2.70
   7  -1   3    9.47    7.15
   7  -1   3   11.17    3.51
   7   1   4 2142.41   42.98
   7   1   4 2171.19   49.59
   7  -1   4 2136.07   49.05
   7  -1   4 2242.00   38.08
   7   1   5   45.70    7.97
   7   1   5   42.60   11.28
   7  -1   5   46.30    5.38
   7  -1   5   46.31   11.17
   7   1   6 2471.42   51.46
   7   1   6 2482.93   57.04
   7  -1   6 2515.98   57.94
  -7   1  -7  227.97   14.21
   7   1   7  233.11   14.20
   7   1   7  238.21   18.54
   7  -1   7  246.21   17.54
  -7   1  -8  495.55   20.87
   7   1   8  491.62   19.97
   7   1   8  525.58   25.28
   7  -1   8  512.39   22.56
  -7   1  -9  281.30   16.79
   7   1   9  280.11   16.77
   7   1   9  276.46   20.31
   7  -1   9  271.51   19.34
  -7   1 -10  193.78   21.17
   7   1  10  192.78   14.99
   7   1  10  194.98   18.41
   7  -1  10  206.46   18.56
  -7   1 -11   37.50   13.56
   7   1  11   42.55   10.20
   7   1  11   33.48   12.61
   7  -1  11   37.32   13.10
  -7   1 -12 1656.57   40.16
   7   1  12 1664.07   37.43
   7   1  12 1654.26   45.20
   7  -1  12 1634.28   42.61
  -7   1 -13    7.24    7.41
   7   1  13   10.81    8.46
   7   1  13   12.62   10.34
   7  -1  13   11.67   10.55
  -7   1 -14   94.03   14.83
   7   1  14  108.82   14.80
   7   1  14   90.42   15.95
   7  -1  14   90.65   15.17
  -7   1 -15   14.46   15.38
   7   1  15   26.76   11.80
   7   1  15   21.48   12.40
   7  -1  15   28.12   15.29
   7   2 -19 1072.21   39.14
  -7   2  19 1120.47   38.15
  -7  -2  19 1099.43   38.00
   7   2 -18   67.62   13.14
  -7   2  18   70.25   12.05
  -7  -2  18   64.27   12.03
   7   2 -17  463.83   26.64
  -7   2  17  460.08   24.10
  -7  -2  17  457.76   25.16
   7   2 -16   67.60   12.95
   7   2 -16   73.10   14.03
   7   2 -15 1762.11   42.21
   7   2 -15 1712.52   47.40
   7  -2 -15 1744.19   46.33
   7   2 -14    5.95    7.76
   7   2 -14    1.16    5.87
   7  -2 -14   -0.41    3.91
   7  -2 -14    3.11    6.26
   7   2 -13  728.41   27.64
   7   2 -13  731.12   37.69
   7  -2 -13  728.37   30.59
   7   2 -12  132.62   21.06
   7   2 -12  137.64   14.32
   7  -2 -12  122.50   11.40
   7  -2 -12  144.95   27.23
   7   2 -11 1462.38   34.50
   7   2 -11 1529.87   52.54
   7  -2 -11 1552.33   49.56
   7   2 -10    6.74    6.30
   7   2 -10    7.68    7.11
   7  -2 -10    6.59    6.23
   7   2  -9   39.38    9.04
   7   2  -9   43.63    9.48
   7  -2  -9   42.09    9.91
   7   2  -8 1118.78   32.25
   7   2  -8 1110.89   32.46
   7  -2  -8 1099.05   32.09
   7   2  -7  459.62   20.51
   7   2  -7  446.55   19.55
   7  -2  -7  476.68   21.40
   7   2  -6   39.80    9.26
   7   2  -6   37.29    8.88
   7  -2  -6   36.41    9.01
   7   2  -5 1731.53   40.21
   7   2  -5 1710.47   40.57
   7  -2  -5 1682.60   39.71
   7   2  -4   11.88   10.02
   7   2  -3 3705.28   67.78
   7   2  -3 3702.44   68.59
   7  -2  -3 3714.02   45.55
   7   2  -2   28.67   10.07
   7   2  -2   35.28   10.14
   7  -2  -2   32.38    9.87
   7   2  -1 2724.52   54.10
   7   2  -1 2690.09   54.66
   7  -2  -1 2820.39   56.14
   7   2   0 1084.47   30.25
   7   2   0 1104.22   32.90
   7  -2   0 1037.45   30.77
   7   2   1  897.80   27.93
   7   2   1  892.03   29.05
   7  -2   1  919.78   30.72
   7   2   2 2909.24   60.24
   7   2   2 2794.50   59.27
   7  -2   2 2975.21   61.94
   7   2   3 1161.06   33.24
   7   2   3 1118.96   33.50
   7  -2   3 1133.04   34.18
   7   2   4  258.66   16.02
   7   2   4  268.19   17.55
   7  -2   4  269.79   17.18
   7   2   5  894.02   30.18
   7   2   5  893.20   32.72
   7  -2   5  874.44   31.46
   7   2   6   49.64   10.34
   7   2   6   56.64   12.26
   7  -2   6   52.26   11.63
   7   2   7 1186.44   31.94
   7   2   7 1138.96   32.87
   7  -2   7 1177.96   33.16
   7   2   8  183.24   16.48
   7   2   8  180.49   17.76
   7  -2   8  173.46   17.39
   7   2   9 1807.28   47.57
   7   2   9 1812.87   49.47
   7  -2   9 1805.35   49.89
   7   2  10  217.33   19.47
   7   2  10  214.09   19.12
   7  -2  10  232.28   20.69
   7   2  11  907.86   34.52
   7   2  11  903.40   36.68
   7  -2  11  922.57   36.90
   7   2  12   14.53    8.48
   7   2  12   12.27    8.51
   7  -2  12   14.63   10.38
   7   2  13   11.57    9.85
   7   2  13   21.73   11.77
   7  -2  13   16.94   10.05
   7   2  14    6.45   11.05
   7   2  14    1.26    7.08
   7  -2  14    6.38   10.46
   7   3 -17    7.49    8.38
  -7   3  17   11.64    6.35
  -7  -3  17   10.19    7.46
   7   3 -16 1010.20   36.61
  -7   3  16 1120.91   33.21
  -7  -3  16 1033.81   32.06
   7   3 -15   25.29   11.59
  -7   3  15   27.98    7.68
   7   3 -14  347.40   25.59
   7   3 -14  327.25   23.91
   7  -3 -14  347.06   20.52
   7   3 -13    5.33    7.14
   7   3 -13    2.87    4.76
   7  -3 -13    3.30    3.66
   7   3 -12 1021.77   33.45
   7   3 -12 1060.13   42.07
   7  -3 -12 1058.54   32.63
   7   3 -11    5.75    8.44
   7   3 -11    6.93    7.50
   7  -3 -11    5.44    5.61
   7   3 -10  713.36   28.76
   7   3 -10  732.48   38.15
   7  -3 -10  758.92   35.84
   7   3  -9   36.39   11.36
   7   3  -9   34.20   11.71
   7  -3  -9   27.73   16.51
   7   3  -8  431.19   21.78
   7   3  -8  441.19   19.06
   7  -3  -8  441.32   19.99
   7   3  -7  388.86   20.92
   7   3  -7  374.53   17.87
   7  -3  -7  378.53   18.28
   7   3  -6  839.25   29.10
   7   3  -6  820.98   25.03
   7  -3  -6  825.62   24.51
   7   3  -5   84.39   11.96
   7   3  -5   92.07   11.61
   7  -3  -5   77.67   11.05
   7   3  -4  102.21   12.53
   7   3  -4   94.34   10.50
   7  -3  -4  102.48   11.56
   7   3  -3  364.06   20.08
   7   3  -3  357.39   16.70
   7  -3  -3  361.13   17.40
   7   3  -2  533.14   23.43
   7   3  -2  543.96   19.93
   7  -3  -2  562.13   21.51
   7   3  -1   40.68   10.27
   7   3  -1   36.56    8.55
   7  -3  -1   47.43   10.94
   7   3   0 1176.72   32.72
   7   3   0 1181.19   29.03
   7  -3   0 1172.64   29.73
   7   3   1   24.44    9.83
   7   3   1   29.89    8.53
   7  -3   1   23.91    9.90
   7   3   2   68.90   12.48
   7   3   2   72.48   11.67
   7  -3   2   78.10   12.18
   7   3   3  734.75   26.67
   7   3   3  720.41   24.25
   7  -3   3  732.86   25.02
   7   3   4 1361.80   34.71
   7   3   4 1319.33   31.88
   7  -3   4 1348.72   32.21
   7   3   5   42.51   11.23
   7   3   5   43.26   10.25
   7  -3   5   41.01    9.36
   7   3   6    2.65    7.58
   7   3   6    3.19    5.19
   7  -3   6    5.55    6.75
   7   3   7  602.71   26.99
   7   3   7  591.75   25.12
   7  -3   7  601.19   24.10
   7   3   8  507.48   27.46
   7   3   8  511.85   25.74
   7  -3   8  502.41   25.53
   7   3   9    6.26    8.92
   7   3   9    3.69    7.50
   7  -3   9    2.74    4.05
   7   3  10  254.80   20.70
   7   3  10  249.33   19.95
   7  -3  10  250.49   20.33
   7   3  11   31.53   11.57
   7   3  11   33.82   11.09
   7  -3  11   27.45   11.53
   7   3  12  430.10   26.32
   7   3  12  376.34   22.87
   7  -3  12  407.33   24.60
   7   4 -13   59.69   14.00
   7   4 -12  768.18   33.76
   7   4 -11  112.32   16.23
   7   4 -10   12.98   12.20
   7   4  -9  349.48   24.25
   7   4  -8   13.79   10.68
   7   4  -8    7.85    7.17
   7   4  -7  726.60   33.43
   7   4  -6   91.98   14.66
   7   4  -5  643.96   31.43
   7   4  -4   27.38   10.52
   7   4  -4   33.37    7.76
   7   4  -3  810.89   31.68
   7   4  -2  845.17   31.66
   7   4  -1  191.60   18.92
   7   4   0  708.17   31.89
   7   4   1  499.47   27.52
   7   4   3  629.96   29.85
   7   4   4    6.05    7.01
   7   4   5  716.68   35.28
   7   4   6  161.66   18.94
   7   4   7  684.74   31.56
   7   4   8   40.55   11.59
   8   0 -19    0.82    4.57
  -8   0  19   -1.23    7.77
   8   0 -18  400.71   20.40
   8   0 -18  409.89   23.87
   8   0 -17    3.92    4.43
   8   0 -17   -0.65    4.93
   8   0 -16   41.14    9.69
   8   0 -16   40.85   16.31
   8   0 -15    2.21    5.53
   8   0 -15    2.60    7.82
   8   0 -14  166.97   13.01
   8   0 -14  168.86   28.93
   8   0 -13    0.53    3.61
   8   0 -13    1.35    2.56
   8   0 -12 1486.91   28.96
   8   0 -12 1509.73   37.54
   8   0 -11   -0.09    2.91
   8   0 -11   -0.06    5.88
   8   0 -10 2066.74   47.21
   8   0 -10 2037.05   55.84
   8   0  -9    1.07    3.78
   8   0  -9    0.97    6.27
   8   0  -8 7740.23   51.99
   8   0  -7    0.30    2.04
   8   0  -7    0.27    6.36
   8   0  -6 1424.46   28.21
   8   0  -6 1369.57   37.83
   8   0  -5    3.63    4.03
   8   0  -5    4.99    6.23
   8   0  -4 1362.19   26.49
   8   0  -4 1317.08   36.99
   8   0  -3    0.48    1.75
   8   0  -3    2.41    8.29
   8   0  -2 1585.04   29.04
   8   0  -2 1526.70   39.62
   8   0  -1    0.23    0.95
   8   0  -1    0.95    2.25
   8   0  -1    4.59    8.48
   8   0   0  651.20   16.27
   8   0   0  642.99   25.22
   8   0   1    3.27    3.73
   8   0   1    8.77    9.21
   8   0   2 5523.27   39.76
   8   0   2 5373.68  101.97
   8   0   3    4.35    4.59
   8   0   4 1571.85   37.44
   8   0   4 1518.67   46.77
   8   0   5    3.38    6.07
   8   0   5   -0.29    6.69
   8   0   6  173.07   11.49
   8   0   6  187.73   18.31
   8   0   7    0.68    3.54
   8   0   7    1.77    6.58
   8   0   8 1115.94   25.36
   8   0   8 1086.66   35.06
   8   0   9    2.51    5.71
   8   0   9    1.77    8.15
   8   0  10   11.52    7.70
   8   0  10    8.38    9.45
   8   0  11    3.98   11.85
   8   0  12 1130.84   39.77
   8   0  12 1140.34   46.49
   8   0  13   -0.55    4.34
   8   0  13    3.34    8.40
   8   0  14  279.72   18.82
   8   0  14  261.90   24.51
   8   1 -19  923.39   34.83
  -8   1  19  881.26   33.62
  -8  -1  19  879.62   34.03
   8   1 -18   26.71   11.03
   8   1 -18   22.99   10.29
   8  -1 -18   25.85    8.89
   8   1 -17  288.68   20.38
   8   1 -17  259.67   20.48
   8  -1 -17  253.94   35.60
   8   1 -16  114.11   14.20
   8   1 -16  102.50   32.89
   8  -1 -16  100.47   17.09
   8   1 -15 1451.16   34.81
   8   1 -15 1395.53   45.52
   8  -1 -15 1376.00   47.99
   8   1 -14    4.23    6.30
   8   1 -14    2.54    4.29
   8  -1 -14   -0.55    3.52
   8  -1 -14    4.66    7.21
   8   1 -13  299.28   23.31
   8   1 -13  315.68   17.09
   8  -1 -13  298.42   12.72
   8  -1 -13  309.44   41.29
   8   1 -12  855.44   25.63
   8   1 -12  860.27   29.00
   8  -1 -12  827.27   18.17
   8  -1 -12  855.20   29.10
   8   1 -11   87.67   14.75
   8   1 -11   82.35   11.61
   8  -1 -11   69.99    6.12
   8  -1 -11   76.39   12.12
   8   1 -10    7.27    7.67
   8   1 -10    8.94    7.19
   8  -1 -10    5.21    3.21
   8  -1 -10   12.94    9.35
   8   1  -9  323.89   16.81
   8   1  -9  313.98   18.88
   8  -1  -9  324.61   19.22
   8   1  -8  182.57   12.49
   8   1  -8  181.66   15.07
   8  -1  -8  175.91   14.59
   8   1  -7 1782.75   39.23
   8   1  -7 1759.40   44.87
   8  -1  -7 1749.20   45.12
   8   1  -6  182.22   11.25
   8   1  -6  177.08   15.23
   8  -1  -6  176.12   15.66
   8   1  -5 2605.54   50.47
   8   1  -5 2566.00   56.73
   8  -1  -5 2583.06   57.18
   8   1  -4  821.01   23.18
   8   1  -4  835.01   30.03
   8  -1  -4  837.72   30.22
   8   1  -3 2446.84   48.11
   8   1  -3 2421.33   55.54
   8  -1  -3 2350.08   53.11
   8   1  -2 1844.11   39.11
   8   1  -2 1744.39   45.66
   8  -1  -2 1811.54   45.19
   8   1  -1  441.25   17.01
   8   1  -1  408.56   21.16
   8  -1  -1  416.71   20.94
   8   1   0 1163.03   28.64
   8   1   0 1156.16   35.05
   8  -1   0 1161.36   35.41
   8   1   1  506.60   18.63
   8   1   1  489.47   23.91
   8  -1   1  484.16   23.28
   8   1   2   96.22    9.94
   8   1   2   95.63   13.79
   8  -1   2   95.72   12.35
   8   1   3  391.26   17.97
   8   1   3  386.39   22.00
   8  -1   3  370.19   20.70
   8   1   4  309.21   15.83
   8   1   4  285.05   19.95
   8  -1   4  284.98   18.92
   8  -1   4  297.60    9.59
   8   1   5 2047.39   37.19
   8   1   5 2025.64   44.13
   8  -1   5 2036.62   44.20
   8   1   6  127.16   11.40
   8   1   6  132.83   17.81
   8  -1   6  122.38   15.48
   8  -1   6  121.35    8.10
   8   1   7 1129.78   27.80
   8   1   7 1141.84   35.02
   8  -1   7 1128.27   35.06
   8   1   8    9.24    6.91
   8   1   8   12.64    8.71
   8  -1   8   13.69   11.25
   8  -1   8   11.37    5.47
   8   1   9  487.63   20.78
   8   1   9  490.50   27.10
   8  -1   9  478.75   25.13
   8   1  10   45.85    9.81
   8   1  10   48.20   13.01
   8  -1  10   51.17   13.31
   8   1  11  104.23   13.27
   8   1  11   93.09   16.55
   8  -1  11  103.52   16.77
   8   1  12    4.92    7.51
   8   1  12    1.58    6.79
   8  -1  12    1.41    7.47
   8   1  13  901.13   31.67
   8   1  13  878.78   35.76
   8  -1  13  905.71   39.29
   8   2 -18  255.66   21.39
  -8   2  18  245.71   18.61
  -8  -2  18  248.45   18.87
   8   2 -17    4.82    8.18
   8   2 -17    5.28    8.27
   8  -2 -17    3.91    6.13
   8   2 -16  308.96   22.30
   8   2 -16  304.06   21.52
   8  -2 -16  276.99   24.00
   8   2 -15   19.86    8.02
   8   2 -15   19.16   13.34
   8  -2 -15   15.56   12.30
   8   2 -14  615.78   27.53
   8   2 -14  613.97   38.45
   8  -2 -14  593.72   27.76
   8   2 -13  140.91   14.69
   8   2 -13  133.41   20.95
   8  -2 -13  129.66   29.80
   8   2 -12 1140.28   36.47
   8   2 -12 1151.29   65.13
   8  -2 -12 1151.59   52.00
   8   2 -11    0.84    5.93
   8  -2 -11    4.89    8.75
   8   2 -10 1753.33   37.71
   8   2 -10 1871.85   39.83
   8  -2 -10 1838.87   39.50
   8   2  -9   21.94    9.58
   8   2  -9   23.24    8.33
   8  -2  -9   25.44    9.67
   8   2  -8  694.70   24.46
   8   2  -8  731.06   26.59
   8  -2  -8  732.55   26.43
   8   2  -7  148.49   12.89
   8   2  -7  139.98   14.15
   8  -2  -7  136.26   13.32
   8   2  -6  373.96   19.13
   8   2  -6  379.72   20.89
   8  -2  -6  371.36   20.44
   8   2  -5   52.35    9.16
   8   2  -5   61.52   11.86
   8  -2  -5   64.32   11.43
   8   2  -4 1688.39   44.75
   8   2  -4 1737.82   47.79
   8  -2  -4 1741.90   46.54
   8   2  -3  594.53   24.74
   8   2  -3  600.80   26.24
   8  -2  -3  618.14   26.05
   8   2  -2  559.79   23.03
   8   2  -2  545.49   24.43
   8  -2  -2  568.07   25.69
   8   2  -1   17.95    8.41
   8   2  -1   16.56    9.38
   8  -2  -1   39.81   10.98
   8   2   0 2939.26   68.11
   8   2   0 3121.75   73.96
   8  -2   0 3060.09   72.21
   8   2   1  176.48   15.75
   8   2   1  213.49   19.95
   8  -2   1  172.00   16.02
   8   2   2  644.48   23.28
   8   2   2  646.65   24.81
   8  -2   2  647.65   24.48
   8   2   3  162.44   15.28
   8   2   3  158.39   14.82
   8  -2   3  156.40   15.05
   8   2   4  695.01   26.07
   8   2   4  671.66   26.42
   8  -2   4  671.17   26.70
   8   2   5   11.58    7.97
   8   2   5   10.06    7.78
   8  -2   5   15.52    9.36
   8   2   6  636.28   26.04
   8   2   6  603.54   27.48
   8  -2   6  616.21   28.16
   8   2   7    4.63    7.06
   8   2   7    0.33    6.58
   8  -2   7   -0.37    6.51
   8   2   8  786.43   26.41
   8   2   8  783.67   31.65
   8  -2   8  775.58   30.36
   8   2   9   35.81    9.38
   8   2   9   39.28   12.94
   8  -2   9   35.98   11.76
   8   2  10  202.72   17.42
   8   2  10  209.50   19.51
   8  -2  10  185.81   17.12
   8   2  11   14.29    9.22
   8   2  11   16.87   11.17
   8  -2  11   22.97   11.04
   8   2  12  230.11   18.41
   8   2  12  239.60   22.28
   8  -2  12  218.28   18.79
   8   3 -15  755.83   32.05
   8   3 -15  754.34   38.47
   8  -3 -15  727.90   26.94
   8   3 -14    4.68    6.17
   8   3 -14    7.42    7.42
   8  -3 -14    3.25    5.94
   8   3 -13  334.92   22.54
   8   3 -13  338.86   30.63
   8  -3 -13  332.78   26.62
   8   3 -12   -0.74    5.58
   8   3 -12    0.26    4.68
   8  -3 -12    0.98    5.21
   8   3 -11  778.37   33.08
   8   3 -11  763.09   33.89
   8  -3 -11  807.35   37.57
   8   3 -10   35.28   10.98
   8   3 -10   31.46   22.43
   8  -3 -10   24.25   13.40
   8   3  -9  243.57   19.54
   8   3  -9  253.04   16.72
   8  -3  -9  277.16   16.94
   8   3  -8   40.60   12.54
   8   3  -8   43.03    9.81
   8  -3  -8   42.73    9.12
   8   3  -7 2058.00   54.51
   8   3  -7 1997.99   48.84
   8  -3  -7 1968.31   46.08
   8   3  -6  144.78   16.54
   8   3  -6  138.52   14.15
   8  -3  -6  133.38   13.47
   8   3  -5  880.21   33.33
   8   3  -5  903.94   30.46
   8  -3  -5  875.23   28.37
   8   3  -4   57.52   12.35
   8   3  -4   60.20   11.35
   8  -3  -4   71.97   11.70
   8   3  -3 2049.08   44.52
   8   3  -3 2066.27   39.52
   8  -3  -3 2085.01   38.12
   8   3  -2    7.60    8.49
   8   3  -2    7.94    7.19
   8  -3  -2    6.83    8.07
   8   3  -1  646.94   27.66
   8   3  -1  661.92   26.12
   8  -3  -1  661.92   25.72
   8   3   0  106.34   13.81
   8   3   0   97.39   12.54
   8  -3   0  110.00   12.71
   8   3   1  591.96   27.06
   8   3   1  609.79   26.65
   8  -3   1  600.25   24.40
   8   3   2   52.67   11.88
   8   3   2   52.16   10.85
   8  -3   2   53.48   10.56
   8   3   3 1086.10   34.60
   8   3   3 1087.04   32.32
   8  -3   3 1068.65   30.17
   8   3   4   77.69   14.12
   8   3   4   71.84   11.76
   8  -3   4   72.90   12.42
   8   3   5 1168.17   41.78
   8   3   5 1091.54   37.99
   8  -3   5 1100.92   37.17
   8   3   6    9.49    7.48
   8   3   6    9.00    6.90
   8  -3   6    3.40    7.47
   8   3   7  686.49   32.02
   8   3   7  675.13   33.02
   8  -3   7  679.73   32.04
   8   3   8  123.99   15.52
   8   3   8  123.52   16.13
   8  -3   8  125.38   16.53
   8   3   9  449.10   25.00
   8   3   9  443.53   24.03
   8  -3   9  439.92   24.53
   8   3  10   36.94   11.02
   8   3  10   36.67   11.13
   8  -3  10   34.29   11.31
   8   4 -11    1.62    6.49
   8   4 -10  582.70   29.50
   8   4  -9   42.30   12.74
   8   4  -8  853.54   33.44
   8   4  -7    5.66    9.70
   8   4  -6  365.04   23.94
   8   4  -5   35.44   14.26
   8   4  -4  620.01   32.67
   8   4  -3    6.13   12.34
   8   4  -2  146.91   17.82
   8   4  -1    5.88    7.62
   8   4   0 1015.18   43.22
   8   4   1   30.05   12.62
   8   4   2  738.14   31.70
   8   4   3   13.47    9.28
   8   4   4  933.65   36.62
   8   4   5   59.66   13.13
   9   0 -18    2.50    2.80
   9   0 -17  255.82   34.10
   9   0 -16    6.05    6.92
   9   0 -15   41.07   19.55
   9   0 -14    2.56    4.55
   9   0 -14    1.20    5.32
   9   0 -13  547.72   26.01
   9   0 -12    0.29    2.81
   9   0 -12    2.52    6.28
   9   0 -11  531.14   17.04
   9   0 -11  520.36   25.36
   9   0 -10    0.87    2.25
   9   0 -10   -0.08    6.06
   9   0  -9  716.78   17.70
   9   0  -9  681.24   26.68
   9   0  -8    0.52    1.98
   9   0  -7 3643.30   32.67
   9   0  -7 3561.79   58.35
   9   0  -6    0.02    1.73
   9   0  -6    7.25    9.42
   9   0  -5 1732.82   37.78
   9   0  -5 1748.20   50.79
   9   0  -4    0.21    1.65
   9   0  -4    4.11    9.33
   9   0  -3  576.69   16.56
   9   0  -3  561.79   26.50
   9   0  -2    2.43    3.42
   9   0  -2    2.60    8.92
   9   0  -1  397.66   13.23
   9   0  -1  416.78   23.63
   9   0   0    0.03    1.61
   9   0   0    7.61    9.13
   9   0   1  690.09   27.53
   9   0   2    2.71    3.68
   9   0   2    1.53    9.27
   9   0   3 1025.73   33.51
   9   0   4    2.56    4.58
   9   0   4   -0.48    6.86
   9   0   5  521.03   16.78
   9   0   5  516.22   25.61
   9   0   6    0.92    4.08
   9   0   6    0.81    7.39
   9   0   7  262.76   13.70
   9   0   7  245.83   21.25
   9   0   8    6.63    6.68
   9   0   8    2.82    9.82
   9   0   9  864.45   38.90
   9   0  10    2.33    7.42
   9   0  11  433.44   31.12
   9   0  12    1.21    7.69
   9   1 -17   14.77    9.33
   9   1 -17   12.90   12.10
   9  -1 -17   11.53   10.55
   9   1 -16  395.67   20.62
   9   1 -16  351.40   37.28
   9  -1 -16  360.55   34.90
   9   1 -15    3.41    7.92
   9   1 -15    1.14    5.09
   9  -1 -15    1.88    6.78
   9   1 -14  987.30   33.72
   9   1 -14  968.11   65.93
   9  -1 -14  935.21   62.91
   9   1 -13   68.23   11.10
   9   1 -13   60.64   21.42
   9  -1 -13   62.10   15.37
   9   1 -12 2406.21   41.51
   9   1 -12 2390.89   48.22
   9  -1 -12 2373.28   49.25
   9   1 -11  167.37   13.48
   9   1 -11  178.05   17.52
   9  -1 -11  178.15   19.46
   9   1 -10  127.54   12.24
   9   1 -10  118.12   16.34
   9  -1 -10  132.19   15.93
   9   1  -9 2353.13   36.71
   9   1  -9 2321.84   46.10
   9  -1  -9 2366.23   47.67
   9   1  -8   56.17    8.80
   9   1  -8   65.02   13.97
   9  -1  -8   67.12   13.47
   9   1  -7  115.96   10.04
   9   1  -7  138.65   16.82
   9  -1  -7  119.51   15.74
   9   1  -6  193.93   12.49
   9   1  -6  195.04   18.05
   9  -1  -6  188.79   16.60
   9   1  -5    4.97    4.62
   9   1  -5    3.08    6.06
   9  -1  -5    1.96    5.84
   9   1  -4  577.91   18.34
   9   1  -4  562.61   24.16
   9  -1  -4  566.26   24.49
   9   1  -3   13.61    6.32
   9   1  -3   16.51   10.75
   9  -1  -3   14.56    9.41
   9   1  -2 1713.22   29.85
   9   1  -2 1758.20   40.25
   9  -1  -2 1748.04   39.02
   9   1  -1  370.52   15.78
   9   1  -1  378.89   23.26
   9  -1  -1  367.39   21.28
   9   1   0 2187.75   34.75
   9   1   0 2193.05   44.98
   9  -1   0 2243.77   44.81
   9   1   1  282.08   14.48
   9   1   1  296.49   20.48
   9  -1   1  293.76   20.41
   9   1   2  164.00   12.05
   9   1   2  146.68   15.76
   9  -1   2  159.41   16.76
   9   1   3  168.51   12.24
   9   1   3  160.08   17.66
   9  -1   3  150.17   17.04
   9   1   4  916.83   24.55
   9   1   4  912.36   31.32
   9  -1   4  902.29   32.67
   9   1   5    1.72    2.82
   9   1   5    0.59    6.54
   9  -1   5    3.81    9.80
   9   1   6   24.98    7.17
   9   1   6   24.49   12.46
   9  -1   6   21.35   11.49
   9   1   7    1.19    4.22
   9   1   7    3.53    7.50
   9  -1   7    1.76    6.67
   9   1   8  592.17   25.14
   9   1   8  556.46   30.15
   9  -1   8  562.98   29.46
   9   1   9    3.17    5.96
   9   1   9    5.62   12.48
   9  -1   9    7.71   10.73
   9   1  10  480.45   21.71
   9   1  10  466.14   27.58
   9  -1  10  479.48   27.96
   9   1  11    2.29    5.78
   9   1  11    9.08    9.45
   9  -1  11    6.52   11.20
   9   2 -16   44.69   12.57
   9   2 -16   39.84   19.75
   9  -2 -16   29.89   23.81
   9   2 -15 1058.35   35.13
   9   2 -15  994.69   55.01
   9  -2 -15 1008.78   39.12
   9   2 -14   37.03   10.93
   9   2 -14   23.54   21.30
   9  -2 -14   21.65   16.85
   9   2 -13   12.95    9.65
   9   2 -13    9.64    9.42
   9  -2 -13   12.46    9.51
   9   2 -12  398.33   22.31
   9   2 -12  371.41   23.46
   9  -2 -12  363.71   35.68
   9   2 -11  421.85   22.30
   9   2 -11  426.79   24.54
   9  -2 -11  414.18   24.16
   9   2 -10   51.33   10.74
   9   2 -10   55.06   12.95
   9  -2 -10   54.05   11.76
   9   2  -9  439.45   21.05
   9   2  -9  459.95   23.62
   9  -2  -9  452.54   25.17
   9   2  -8   84.41   11.54
   9   2  -8   87.07   12.86
   9  -2  -8   80.50   14.03
   9   2  -7 2012.80   46.47
   9   2  -7 1984.52   49.25
   9  -2  -7 2032.74   50.98
   9   2  -6    1.44    4.64
   9   2  -6    4.72    9.02
   9  -2  -6   10.17   10.85
   9   2  -5 1827.73   35.08
   9   2  -5 1753.44   38.84
   9  -2  -5 1784.32   39.88
   9  -2  -4   10.67    8.56
   9   2  -3  973.43   27.37
   9   2  -3  928.83   30.37
   9  -2  -3  948.92   30.33
   9   2  -2  432.23   19.32
   9   2  -2  425.22   20.92
   9  -2  -2  406.25   21.82
   9   2  -1  344.98   17.60
   9   2  -1  357.95   20.87
   9  -2  -1  339.70   20.42
   9   2   0    5.73    7.52
   9   2   0    2.95   11.00
   9  -2   0    9.64   10.95
   9   2   1  949.05   29.68
   9   2   1  936.65   32.65
   9  -2   1  957.11   34.34
   9   2   2   43.34    9.01
   9   2   2   45.51   12.25
   9  -2   2   40.24   11.52
   9   2   3  752.05   25.33
   9   2   3  721.92   27.88
   9  -2   3  722.38   29.41
   9   2   4   99.51   12.76
   9   2   4  101.02   14.91
   9  -2   4   99.91   16.35
   9   2   5 1276.05   40.27
   9   2   5 1254.02   43.76
   9  -2   5 1278.20   44.16
   9   2   6   14.44    9.41
   9   2   6   10.82    8.34
   9  -2   6   16.37   10.26
   9   2   7  233.80   18.46
   9   2   7  222.90   19.88
   9  -2   7  232.66   19.64
   9   2   8    3.84    7.75
   9   2   8   -0.25    6.84
   9  -2   8    0.02    6.32
   9   2   9 1511.82   41.00
   9   2   9 1383.29   42.26
   9  -2   9 1355.82   39.11
   9   2  10  205.78   18.54
   9   2  10  230.45   23.61
   9  -2  10  213.00   19.35
   9   3 -13    2.79    6.63
   9   3 -13    0.15    4.58
   9  -3 -13    2.76    5.31
   9   3 -12  975.43   34.44
   9   3 -12  955.91   53.68
   9  -3 -12  987.60   40.82
   9   3 -11    8.20   11.70
   9   3 -11    1.42    6.64
   9  -3 -11    2.12    4.39
   9   3 -10  519.00   28.60
   9   3 -10  534.63   28.47
   9  -3 -10  504.98   26.19
   9   3  -9    7.02    8.82
   9   3  -9   11.75    9.20
   9  -3  -9   13.19    8.64
   9   3  -8 1151.20   43.09
   9   3  -8 1140.64   42.95
   9  -3  -8 1119.79   39.68
   9   3  -7    4.46    7.08
   9   3  -7    3.70    6.95
   9  -3  -7   -0.08    3.94
   9   3  -6  264.00   18.51
   9   3  -6  262.49   18.44
   9  -3  -6  250.08   17.38
   9   3  -5   25.90    9.64
   9   3  -5   22.66    8.30
   9  -3  -5   25.40    9.93
   9   3  -4 1228.90   40.27
   9   3  -4 1179.91   38.33
   9  -3  -4 1169.88   37.03
   9   3  -3   23.25    9.46
   9   3  -3   29.62    9.72
   9  -3  -3   16.24    7.82
   9   3  -2 1150.52   39.56
   9   3  -2 1102.32   37.04
   9  -3  -2 1145.10   37.75
   9   3  -1    7.31    6.91
   9   3  -1    3.60    7.01
   9  -3  -1    6.35    5.93
   9   3   0 1028.23   36.67
   9   3   0 1004.88   36.45
   9  -3   0 1017.25   35.84
   9   3   1   83.16   12.74
   9   3   1   84.51   12.85
   9  -3   1   89.89   13.96
   9   3   2 1072.02   41.19
   9   3   2 1068.83   41.24
   9  -3   2 1082.54   41.76
   9   3   3  160.39   15.90
   9   3   3  150.17   16.02
   9  -3   3  152.94   15.41
   9   3   4  579.71   26.12
   9   3   4  568.50   26.66
   9  -3   4  573.32   26.96
   9   3   5   33.07   11.36
   9   3   5   41.00   12.12
   9  -3   5   40.85   12.62
   9   3   6  408.83   24.97
   9   3   6  396.29   23.28
   9  -3   6  385.64   23.31
   9   3   7   55.05   13.87
   9   3   7   53.49   11.90
   9  -3   7   55.30   13.38
   9   4  -6  140.09   16.71
   9   4  -5  403.57   23.56
   9   4  -4   50.35   12.73
   9   4  -3  569.65   28.11
   9   4  -2    3.52    8.77
   9   4  -1  719.45   31.78
   9   4   0   15.32   12.64
  10   0 -16  539.39   46.15
  10   0 -15    0.10    7.88
  10   0 -14 1016.08   57.66
  10   0 -13    0.51    6.72
  10   0 -12 1073.88   40.15
  10   0 -11    3.45    8.92
  10   0 -10  409.47   25.35
  10   0  -9    1.90    6.39
  10   0  -8  509.15   27.53
  10   0  -7    3.54    6.74
  10   0  -6  825.13   33.91
  10   0  -5    3.55    7.00
  10   0  -4 2436.31   49.31
  10   0  -3    6.53    9.91
  10   0  -2 1002.22   36.21
  10   0  -1    7.54   11.54
  10   0   0 1437.29   43.32
  10   0   1    2.90    7.09
  10   0   2  166.84   19.06
  10   0   3    1.93    6.90
  10   0   4  261.40   21.60
  10   0   5   -0.90    6.78
  10   0   6  769.72   36.76
  10   0   7    2.74    7.00
  10   0   8  299.73   23.97
  10   0   9    0.73    7.41
  10   1 -15  521.25   37.48
  10  -1 -15  521.24   35.59
  10   1 -14   15.39   10.23
  10  -1 -14    9.36   14.35
  10   1 -13   69.03   14.26
  10  -1 -13   67.63   14.61
  10   1 -12    2.41    5.40
  10   1 -12    9.93   13.61
  10  -1 -12   12.79   13.19
  10   1 -11 1773.71   54.31
  10  -1 -11 1806.24   54.94
  10   1 -10   78.66   10.54
  10   1 -10   86.90   14.00
  10  -1 -10   91.99   14.28
  10   1  -9  159.88   12.51
  10   1  -9  163.97   17.15
  10  -1  -9  143.99   16.75
  10   1  -8  299.60   14.92
  10   1  -8  286.54   21.03
  10  -1  -8  304.28   23.09
  10   1  -7 1414.00   28.09
  10   1  -7 1408.36   37.62
  10  -1  -7 1401.67   38.20
  10   1  -6   72.03    9.05
  10   1  -6   78.92   15.37
  10  -1  -6   80.43   15.35
  10   1  -5 1337.34   41.46
  10  -1  -5 1362.85   42.62
  10   1  -4   28.54    6.76
  10   1  -4   31.15   11.25
  10  -1  -4   35.85   11.29
  10   1  -3  623.74   21.05
  10   1  -3  601.19   27.66
  10  -1  -3  597.69   28.36
  10   1  -2   16.00    5.92
  10   1  -2   13.35    9.90
  10  -1  -2   20.05   11.62
  10   1  -1  561.88   20.37
  10   1  -1  550.80   27.17
  10  -1  -1  545.40   27.24
  10   1   0  164.35   11.81
  10   1   0  162.65   18.92
  10  -1   0  159.48   16.70
  10   1   1  836.91   22.68
  10   1   1  809.20   31.66
  10  -1   1  830.30   31.27
  10   1   2   24.44    6.53
  10   1   2   35.00   12.88
  10  -1   2   23.14   10.28
  10   1   3  225.19   14.64
  10   1   3  216.13   20.26
  10  -1   3  199.82   17.86
  10   1   4    4.12    4.52
  10   1   4    7.17    8.26
  10  -1   4    3.80    9.60
  10   1   5 1175.12   48.07
  10  -1   5 1187.15   47.75
  10   1   6   12.17   10.79
  10  -1   6    8.46    9.13
  10   1   7  512.32   27.90
  10  -1   7  484.81   27.60
  10   1   8    0.38    6.86
  10  -1   8   -2.64    7.42
  10   2 -14  182.04   16.50
  10   2 -14  186.16   20.16
  10  -2 -14  177.73   40.91
  10   2 -13  635.68   26.11
  10   2 -13  626.24   50.28
  10  -2 -13  601.62   39.06
  10   2 -12    3.98    7.36
  10   2 -12   12.05   11.20
  10  -2 -12    8.19    7.42
  10   2 -11  494.75   23.11
  10   2 -11  467.33   25.16
  10  -2 -11  488.60   25.66
  10   2 -10  297.05   18.84
  10   2 -10  305.95   22.25
  10  -2 -10  305.44   22.32
  10   2  -9    2.18    6.00
  10   2  -9    0.61    5.95
  10  -2  -9    3.79    8.02
  10   2  -8  354.25   19.70
  10   2  -8  362.35   23.02
  10  -2  -8  362.37   22.74
  10   2  -7   50.70   10.29
  10   2  -7   47.70   11.00
  10  -2  -7   52.79   12.27
  10   2  -6  658.20   26.19
  10   2  -6  622.45   29.96
  10  -2  -6  610.07   28.84
  10   2  -5  203.73   15.46
  10   2  -5  217.26   19.85
  10  -2  -5  203.11   18.45
  10   2  -4 1038.66   34.15
  10   2  -4 1038.07   38.29
  10  -2  -4 1038.62   38.72
  10   2  -3  121.29   12.88
  10   2  -3  117.82   16.05
  10  -2  -3  119.95   15.50
  10   2  -2  544.12   23.90
  10   2  -2  479.68   24.43
  10  -2  -2  544.10   28.16
  10   2  -1  303.94   17.79
  10   2  -1  293.28   20.64
  10  -2  -1  312.59   22.37
  10   2   0  691.63   26.91
  10   2   0  680.17   31.15
  10  -2   0  649.75   29.97
  10   2   1    2.14    6.10
  10   2   1    5.65    9.11
  10  -2   1   -0.48    5.67
  10   2   2  182.63   14.11
  10   2   2  186.65   17.32
  10  -2   2  180.53   15.79
  10   2   3   17.98    6.62
  10   2   3    7.67    8.96
  10  -2   3   15.54    9.75
  10   2   4  606.51   24.20
  10   2   4  593.90   28.58
  10  -2   4  613.08   27.86
  10   2   5    3.94    5.24
  10   2   5    3.28    4.94
  10  -2   5    0.96    5.95
  10   2   6  357.22   20.81
  10   2   6  332.78   23.64
  10  -2   6  305.13   21.50
  10   2   7    3.51    5.01
  10   2   7    5.99    8.79
  10  -2   7    7.62    9.57
  10   3 -10  234.14   19.02
  10   3 -10  251.55   19.96
  10  -3 -10  233.07   18.58
  10   3  -9  585.17   28.27
  10   3  -9  583.67   27.14
  10  -3  -9  569.00   25.83
  10   3  -8   66.26   13.00
  10   3  -8   60.52   11.19
  10  -3  -8   67.59   13.34
  10   3  -7  521.32   25.63
  10   3  -7  518.19   25.74
  10  -3  -7  494.90   23.82
  10   3  -6  245.98   18.94
  10   3  -6  238.42   19.76
  10  -3  -6  241.80   18.88
  10   3  -5  295.62   20.21
  10   3  -5  272.14   19.29
  10  -3  -5  285.22   19.99
  10   3  -4  105.83   14.13
  10   3  -4  112.20   15.16
  10  -3  -4  118.79   14.92
  10   3  -3  363.85   21.75
  10   3  -3  344.48   21.33
  10  -3  -3  361.43   21.31
  10   3  -2   53.37   12.22
  10   3  -2   61.08   12.69
  10  -3  -2   57.90   11.84
  10   3  -1   10.36    9.76
  10   3  -1    7.62    7.98
  10  -3  -1    8.51    8.12
  10   3   0    5.43    9.57
  10  -3   0    0.38    5.19
  10   3   1  546.77   27.16
  10   3   1  519.36   25.41
  10  -3   1  540.66   27.13
  10   3   2   47.60   11.52
  10   3   2   45.21   10.93
  10  -3   2   43.69   12.46
  10   3   3  120.53   15.81
  10   3   3  116.09   15.17
  10  -3   3  103.62   14.86
  11   0 -13  339.90   23.56
  11   0 -11 1365.88   41.45
  11   0 -10    9.00   11.85
  11   0  -9 1914.13   46.72
  11   0  -8    0.28    6.62
  11   0  -7  773.02   35.30
  11   0  -6    1.00    6.42
  11   0  -5  554.97   28.51
  11   0  -4    5.13   11.17
  11   0  -3  956.29   37.75
  11   0  -2    1.15    6.80
  11   0  -1   64.90   14.68
  11   0   0    8.63    9.82
  11   0   1  912.01   39.93
  11   0   2   -1.52    7.05
  11   0   3  577.51   29.14
  11   0   4    1.12    7.35
  11   0   5  515.69   28.77
  11   0   6   -1.06    7.49
  11   1 -12  630.85   29.39
  11  -1 -12  619.57   28.96
  11   1 -11    4.20    9.07
  11  -1 -11    6.56    9.35
  11   1 -10  317.41   23.01
  11  -1 -10  330.11   22.23
  11   1  -9  157.30   18.06
  11  -1  -9  148.09   17.32
  11   1  -8  667.82   34.42
  11  -1  -8  670.81   33.98
  11   1  -7   38.78   12.77
  11  -1  -7   40.21   13.00
  11   1  -6  651.54   33.42
  11  -1  -6  639.77   31.93
  11   1  -5   10.02    8.63
  11  -1  -5   14.63    9.69
  11   1  -4  701.54   34.71
  11  -1  -4  691.43   33.70
  11   1  -3   36.74   12.52
  11  -1  -3   39.32   13.46
  11   1  -2  332.19   23.69
  11  -1  -2  330.05   23.68
  11   1  -1    0.42    6.65
  11  -1  -1    4.89    9.50
  11   1   0  426.61   26.28
  11  -1   0  450.03   27.30
  11   1   1   24.24   11.80
  11  -1   1   19.48   11.08
  11   1   2 1045.41   37.11
  11  -1   2 1052.44   37.22
  11   1   3   19.72   11.14
  11  -1   3   28.80   11.97
  11   1   4  263.27   22.43
  11  -1   4  247.44   21.40
  11   1   5    3.95    9.47
  11  -1   5    2.72    5.27
  11   2 -10   10.00    6.94
  11  -2 -10    9.08   11.57
  11   2  -9 1066.83   38.15
  11  -2  -9 1039.34   37.49
  11   2  -8   48.88   10.73
  11  -2  -8   54.75   13.61
  11   2  -7  468.02   26.86
  11  -2  -7  478.14   25.13
  11   2  -6   69.24   13.10
  11  -2  -6   60.95   12.48
  11   2  -5    4.00    8.78
  11  -2  -5   12.38   10.98
  11   2  -4    3.62    8.79
  11  -2  -4    5.14    5.91
  11   2  -3  361.11   23.75
  11  -2  -3  361.37   22.25
  11   2  -2  105.30   16.52
  11  -2  -2  103.57   14.91
  11   2  -1   56.51   13.59
  11  -2  -1   53.13   12.13
  11   2   0   20.93   10.62
  11  -2   0   21.40   10.09
  11   2   1  384.20   25.35
  11  -2   1  418.83   24.70
  11   2   2   81.62   15.57
  11  -2   2   74.19   13.88
  12   0  -8  126.61   16.26
  12   0  -7   -1.29    6.24
  12   0  -6  106.37   16.60
  12   0  -5    0.12    6.77
  12   0  -4  324.62   23.58
  12   0  -3    4.85   10.12
  12   0  -2 2517.71   59.62
  12   0  -1    6.30   10.71
  12   0   0  749.68   33.18
  12   1  -5   44.33   13.84
  12  -1  -5   42.07   14.30
  12   1  -4   22.22    9.55
  12  -1  -4   24.08   11.16
  12   1  -3  274.34   21.15
  12  -1  -3  296.84   22.68
;
_shelx_hkl_checksum              7050
loop_
_space_group_symop_id
_space_group_symop_operation_xyz
1 +X,+Y,+Z
2 1/2-X,1/2+Y,1/2-Z
3 -X,-Y,-Z
4 -1/2+X,-1/2-Y,-1/2+Z
loop_
_atom_site_label
_atom_site_type_symbol
_atom_site_fract_x
_atom_site_fract_y
_atom_site_fract_z
_atom_site_U_iso_or_equiv
_atom_site_adp_type
_atom_site_occupancy
_atom_site_site_symmetry_order
_atom_site_calc_flag
_atom_site_refinement_flags_posn
_atom_site_refinement_flags_adp
_atom_site_refinement_flags_occupancy
NI1 Ni 0.500000 0.000000 0.500000 0.01121(11) Uani 1 2 d S . P
F1 F 0.31898(11) 0.6562(2) 0.29279(6) 0.0244(3) Uani 1 1 d . . .
F2 F 0.51863(13) 0.9706(2) 0.24585(6) 0.0242(3) Uani 1 1 d . . .
F3 F 0.80232(12) 0.9222(2) 0.31271(6) 0.0247(3) Uani 1 1 d . . .
F4 F 0.88804(11) 0.5435(2) 0.42128(6) 0.0240(3) Uani 1 1 d . . .
N1 N 0.33247(14) -0.1835(3) 0.51898(8) 0.0138(3) Uani 1 1 d . . .
N2 N 0.40390(14) 0.2317(3) 0.42016(7) 0.0135(3) Uani 1 1 d . . .
C1 C 0.19849(18) -0.1380(4) 0.48024(10) 0.0184(4) Uani 1 1 d . . .
H1 H 0.122184 -0.248436 0.493918 0.022 Uiso 1 1 calc R U .
C2 C 0.16352(18) 0.0588(4) 0.42165(10) 0.0206(4) Uani 1 1 d . . .
H2 H 0.064426 0.075480 0.398479 0.025 Uiso 1 1 calc R U .
C3 C 0.26121(18) 0.2335(4) 0.39403(10) 0.0175(3) Uani 1 1 d . . .
H3 H 0.224529 0.363027 0.353899 0.021 Uiso 1 1 calc R U .
C4 C 0.49490(17) 0.4158(4) 0.38778(9) 0.0138(3) Uani 1 1 d . . .
C5 C 0.45703(18) 0.6139(4) 0.32845(9) 0.0162(3) Uani 1 1 d . . .
C6 C 0.55883(19) 0.7814(4) 0.30310(9) 0.0171(3) Uani 1 1 d . . .
C7 C 0.70254(19) 0.7551(4) 0.33627(9) 0.0173(3) Uani 1 1 d . . .
C8 C 0.74390(18) 0.5590(4) 0.39386(10) 0.0163(3) Uani 1 1 d . . .
C9 C 0.64307(17) 0.3878(4) 0.42167(9) 0.0139(3) Uani 1 1 d . . .
loop_
_atom_site_aniso_label
_atom_site_aniso_U_11
_atom_site_aniso_U_22
_atom_site_aniso_U_33
_atom_site_aniso_U_23
_atom_site_aniso_U_13
_atom_site_aniso_U_12
NI1 0.00950(16) 0.01216(17) 0.01158(16) -0.00072(10) 0.00085(10) 0.00023(11)
F1 0.0176(5) 0.0271(6) 0.0256(6) 0.0093(4) -0.0036(4) 0.0002(4)
F2 0.0289(6) 0.0225(6) 0.0200(5) 0.0084(4) 0.0011(4) -0.0016(5)
F3 0.0238(6) 0.0246(6) 0.0275(6) 0.0056(5) 0.0095(4) -0.0057(5)
F4 0.0118(5) 0.0309(6) 0.0292(6) 0.0072(5) 0.0031(4) -0.0029(4)
N1 0.0129(6) 0.0134(7) 0.0148(6) -0.0017(5) 0.0016(5) 0.0003(5)
N2 0.0130(6) 0.0132(7) 0.0139(6) -0.0014(5) 0.0018(5) 0.0005(5)
C1 0.0129(7) 0.0205(9) 0.0212(8) 0.0002(7) 0.0019(6) -0.0019(7)
C2 0.0111(8) 0.0265(10) 0.0227(8) 0.0035(7) -0.0013(6) 0.0001(7)
C3 0.0150(8) 0.0199(9) 0.0165(8) 0.0016(6) -0.0004(6) 0.0025(7)
C4 0.0144(7) 0.0132(8) 0.0135(7) -0.0028(6) 0.0023(6) -0.0003(6)
C5 0.0161(8) 0.0164(8) 0.0151(8) -0.0016(6) 0.0001(6) 0.0015(7)
C6 0.0238(9) 0.0136(8) 0.0134(7) 0.0012(6) 0.0023(6) 0.0009(7)
C7 0.0196(8) 0.0156(9) 0.0183(8) -0.0022(6) 0.0076(6) -0.0041(7)
C8 0.0127(8) 0.0178(9) 0.0183(8) -0.0025(6) 0.0028(6) 0.0000(6)
C9 0.0146(8) 0.0128(8) 0.0144(7) -0.0024(6) 0.0029(6) 0.0008(6)
loop_
_atom_type_symbol
_atom_type_description
_atom_type_scat_dispersion_real
_atom_type_scat_dispersion_imag
_atom_type_scat_source
Ni Ni 0.3393 1.1124
;
International Tables for Crystallography
(Vol. C, Tables 4.2.6.8 and 6.1.1.4)
;
H H 0.0000 0.0000
;
International Tables for Crystallography
(Vol. C, Table 6.1.1.4)
;
C C 0.0033 0.0016
;
International Tables for Crystallography
(Vol. C, Tables 4.2.6.8 and 6.1.1.4)
;
N N 0.0061 0.0033
;
International Tables for Crystallography
(Vol. C, Tables 4.2.6.8 and 6.1.1.4)
;
F F 0.0171 0.0103
;
International Tables for Crystallography
(Vol. C, Tables 4.2.6.8 and 6.1.1.4)
;
loop_
_geom_angle_atom_site_label_1
_geom_angle_atom_site_label_2
_geom_angle_atom_site_label_3
_geom_angle
_geom_angle_site_symmetry_1
_geom_angle_site_symmetry_3
N1 NI1 N1 180.0 3_656 .
N1 NI1 N2 84.57(6) 3_656 .
N1 NI1 N2 95.43(6) . .
N1 NI1 N2 95.43(6) 3_656 3_656
N1 NI1 N2 84.57(6) . 3_656
N2 NI1 N2 180.0 . 3_656
C1 N1 C9 120.13(14) . 3_656
C1 N1 NI1 125.29(12) . .
C9 N1 NI1 114.56(10) 3_656 .
C3 N2 C4 120.04(14) . .
C3 N2 NI1 125.39(12) . .
C4 N2 NI1 114.56(10) . .
N1 C1 C2 124.40(16) . .
N1 C1 H1 117.8 . .
C2 C1 H1 117.8 . .
C1 C2 C3 125.23(16) . .
C1 C2 H2 117.4 . .
C3 C2 H2 117.4 . .
N2 C3 C2 124.22(16) . .
N2 C3 H3 117.9 . .
C2 C3 H3 117.9 . .
C5 C4 N2 128.44(15) . .
C5 C4 C9 118.41(15) . .
N2 C4 C9 113.15(14) . .
F1 C5 C6 115.49(15) . .
F1 C5 C4 122.73(15) . .
C6 C5 C4 121.78(15) . .
F2 C6 C5 120.27(15) . .
F2 C6 C7 119.95(15) . .
C5 C6 C7 119.78(15) . .
F3 C7 C8 119.97(16) . .
F3 C7 C6 120.05(15) . .
C8 C7 C6 119.98(16) . .
F4 C8 C7 115.54(15) . .
F4 C8 C9 122.73(15) . .
C7 C8 C9 121.72(16) . .
C8 C9 N1 128.54(15) . 3_656
C8 C9 C4 118.31(16) . .
N1 C9 C4 113.15(14) 3_656 .
loop_
_geom_bond_atom_site_label_1
_geom_bond_atom_site_label_2
_geom_bond_distance
_geom_bond_site_symmetry_2
NI1 N1 1.8757(14) 3_656
NI1 N1 1.8757(14) .
NI1 N2 1.8778(14) .
NI1 N2 1.8778(14) 3_656
F1 C5 1.3500(19) .
F2 C6 1.3473(19) .
F3 C7 1.344(2) .
F4 C8 1.3549(19) .
N1 C1 1.337(2) .
N1 C9 1.409(2) 3_656
N2 C3 1.336(2) .
N2 C4 1.407(2) .
C1 C2 1.381(3) .
C1 H1 0.9500 .
C2 C3 1.383(2) .
C2 H2 0.9500 .
C3 H3 0.9500 .
C4 C5 1.398(2) .
C4 C9 1.418(2) .
C5 C6 1.373(2) .
C6 C7 1.377(2) .
C7 C8 1.374(2) .
C8 C9 1.396(2) .
C9 N1 1.409(2) 3_656
loop_
_geom_torsion_atom_site_label_1
_geom_torsion_atom_site_label_2
_geom_torsion_atom_site_label_3
_geom_torsion_atom_site_label_4
_geom_torsion
_geom_torsion_site_symmetry_1
_geom_torsion_site_symmetry_4
N2 NI1 N1 C1 1.40(15) . .
N2 NI1 N1 C1 -178.60(15) 3_656 .
N2 NI1 N1 C9 179.93(11) . 3_656
N2 NI1 N1 C9 -0.07(11) 3_656 3_656
N1 NI1 N2 C3 -179.84(14) 3_656 .
N1 NI1 N2 C3 0.16(14) . .
N1 NI1 N2 C4 -0.37(11) 3_656 .
N1 NI1 N2 C4 179.63(11) . .
C9 N1 C1 C2 179.49(17) 3_656 .
NI1 N1 C1 C2 -2.1(3) . .
N1 C1 C2 C3 0.9(3) . .
C4 N2 C3 C2 179.34(17) . .
NI1 N2 C3 C2 -1.2(2) . .
C1 C2 C3 N2 0.9(3) . .
C3 N2 C4 C5 0.0(3) . .
NI1 N2 C4 C5 -179.55(14) . .
C3 N2 C4 C9 -179.90(14) . .
NI1 N2 C4 C9 0.59(18) . .
N2 C4 C5 F1 0.3(3) . .
C9 C4 C5 F1 -179.86(14) . .
N2 C4 C5 C6 179.59(16) . .
C9 C4 C5 C6 -0.6(2) . .
F1 C5 C6 F2 -0.5(2) . .
C4 C5 C6 F2 -179.89(15) . .
F1 C5 C6 C7 179.61(15) . .
C4 C5 C6 C7 0.3(3) . .
F2 C6 C7 F3 1.4(2) . .
C5 C6 C7 F3 -178.74(15) . .
F2 C6 C7 C8 -178.99(15) . .
C5 C6 C7 C8 0.9(3) . .
F3 C7 C8 F4 -2.2(2) . .
C6 C7 C8 F4 178.18(15) . .
F3 C7 C8 C9 177.91(15) . .
C6 C7 C8 C9 -1.7(3) . .
F4 C8 C9 N1 1.7(3) . 3_656
C7 C8 C9 N1 -178.43(16) . 3_656
F4 C8 C9 C4 -178.51(15) . .
C7 C8 C9 C4 1.4(2) . .
C5 C4 C9 C8 -0.2(2) . .
N2 C4 C9 C8 179.64(14) . .
C5 C4 C9 N1 179.59(14) . 3_656
N2 C4 C9 N1 -0.5(2) . 3_656
