#------------------------------------------------------------------------------
#$Date: 2019-11-10 19:09:22 +0200 (Sun, 10 Nov 2019) $
#$Revision: 225999 $
#$URL: file:///home/coder/svn-repositories/cod/cif/4/51/59/4515920.cif $
#------------------------------------------------------------------------------
#
# This file is available in the Crystallography Open Database (COD),
# http://www.crystallography.net/
#
# All data on this site have been placed in the public domain by the
# contributors.
#
data_4515920
loop_
_publ_author_name
'Pilia, Luca'
'Shuku, Yoshiaki'
'Dalgleish, Simon'
'Awaga, Kunio'
'Robertson, Neil'
_publ_section_title
;
 Structural and Electronic Effects Due to Fluorine Atoms on
 Dibenzotetraaza-Annulenes Complexes.
;
_journal_issue                   8
_journal_name_full               'ACS omega'
_journal_page_first              10074
_journal_page_last               10083
_journal_paper_doi               10.1021/acsomega.8b01442
_journal_volume                  3
_journal_year                    2018
_chemical_formula_moiety         'C18 H6 Cu F8 N4'
_chemical_formula_sum            'C18 H6 Cu F8 N4'
_chemical_formula_weight         493.81
_space_group_crystal_system      monoclinic
_space_group_IT_number           14
_space_group_name_Hall           '-P 2yn'
_space_group_name_H-M_alt        'P 1 21/n 1'
_atom_sites_solution_hydrogens   geom
_atom_sites_solution_primary     direct
_atom_sites_solution_secondary   difmap
_cell_angle_alpha                90.0000
_cell_angle_beta                 100.787(9)
_cell_angle_gamma                90.0000
_cell_formula_units_Z            2
_cell_length_a                   9.457(6)
_cell_length_b                   4.715(3)
_cell_length_c                   17.574(11)
_cell_measurement_reflns_used    1832
_cell_measurement_temperature    123
_cell_measurement_theta_max      27.46
_cell_measurement_theta_min      3.51
_cell_volume                     769.8(8)
_computing_cell_refinement       CrystalClear
_computing_data_collection       'CrystalClear (Rigaku/MSC Inc., 2006)'
_computing_data_reduction        CrystalClear
_computing_molecular_graphics    'CrystalStructure 4.2.2'
_computing_publication_material  'CrystalStructure 4.2.2 (Rigaku, 2016)'
_computing_structure_refinement  'SHELXL Version 2016/4 (Sheldrick, 2008)'
_computing_structure_solution    'SIR92 (Altomare, et al., 1994)'
_diffrn_ambient_temperature      123
_diffrn_detector_area_resol_mean 7.314
_diffrn_measured_fraction_theta_full 0.995
_diffrn_measured_fraction_theta_max 0.996
_diffrn_measurement_device_type  'Rigaku Saturn70'
_diffrn_measurement_method       \w
_diffrn_radiation_type           'Mo K\a'
_diffrn_radiation_wavelength     0.71075
_diffrn_reflns_av_R_equivalents  0.0524
_diffrn_reflns_Laue_measured_fraction_full 0.995
_diffrn_reflns_Laue_measured_fraction_max 0.996
_diffrn_reflns_limit_h_max       12
_diffrn_reflns_limit_h_min       -11
_diffrn_reflns_limit_k_max       6
_diffrn_reflns_limit_k_min       -6
_diffrn_reflns_limit_l_max       22
_diffrn_reflns_limit_l_min       -21
_diffrn_reflns_number            5649
_diffrn_reflns_point_group_measured_fraction_full 0.995
_diffrn_reflns_point_group_measured_fraction_max 0.996
_diffrn_reflns_theta_full        25.242
_diffrn_reflns_theta_max         27.475
_diffrn_reflns_theta_min         3.800
_diffrn_standards_number         0
_exptl_absorpt_coefficient_mu    1.528
_exptl_absorpt_correction_T_max  0.955
_exptl_absorpt_correction_T_min  0.807
_exptl_absorpt_correction_type   multi-scan
_exptl_absorpt_process_details   'REQAB (Rigaku, 1998)'
_exptl_crystal_colour            orange
_exptl_crystal_density_diffrn    2.130
_exptl_crystal_density_method    'not measured'
_exptl_crystal_description       prism
_exptl_crystal_F_000             486.00
_exptl_crystal_size_max          0.130
_exptl_crystal_size_mid          0.030
_exptl_crystal_size_min          0.030
_refine_diff_density_max         0.60
_refine_diff_density_min         -0.69
_refine_ls_extinction_method     none
_refine_ls_goodness_of_fit_ref   1.237
_refine_ls_hydrogen_treatment    constr
_refine_ls_number_parameters     142
_refine_ls_number_reflns         1757
_refine_ls_number_restraints     0
_refine_ls_R_factor_all          0.0627
_refine_ls_R_factor_gt           0.0521
_refine_ls_shift/su_max          0.000
_refine_ls_structure_factor_coef Fsqd
_refine_ls_weighting_details
'w = 1/[\s^2^(Fo^2^)+(0.0693P)^2^+0.7380P] where P=(Fo^2^+2Fc^2^)/3'
_refine_ls_weighting_scheme      calc
_refine_ls_wR_factor_gt          0.1376
_refine_ls_wR_factor_ref         0.1446
_reflns_Friedel_coverage         0.000
_reflns_number_gt                1454
_reflns_number_total             1757
_reflns_threshold_expression     F^2^>2.0\s(F^2^)
_cod_data_source_file            ao8b01442_si_002.cif
_cod_data_source_block           CuLF
_cod_original_cell_volume        769.9(8)
_cod_database_code               4515920
_shelx_res_file
;
TITL Xray116
 shelxl.res created by SHELXL-2016/4 at 21:01:28 on 03-Mar-2017
CELL  0.71075 9.45740 4.71530 17.57390 90.00000 100.78680 90.00000
ZERR  2 0.00590 0.00270 0.01100 0.00000 0.00860 0.00000
LATT 1
SYMM .50-X, .50+Y, .50-Z
SFAC C H N CU F
UNIT 36 12 8 2 16
L.S. 5
FMAP 2
PLAN 10
WPDB -2
HTAB
BOND $H
CONF
LIST 4
TEMP -149.8
ACTA
SIZE 0.030 0.030 0.130
WGHT    0.069300    0.738000
FVAR       1.63186
CU1   4    0.500000    0.000000    0.500000    10.50000    0.01222    0.01377 =
         0.01464   -0.00045    0.00095    0.00081
F1    5    0.319376    0.673381    0.294093    11.00000    0.02197    0.02421 =
         0.02814    0.00707   -0.00297   -0.00006
F2    5    0.518489    0.986978    0.247228    11.00000    0.03214    0.02180 =
         0.02045    0.00804    0.00025   -0.00162
F3    5    0.802411    0.927790    0.312863    11.00000    0.02562    0.02526 =
         0.02946    0.00522    0.00925   -0.00660
F4    5    0.886532    0.540862    0.420201    11.00000    0.01401    0.03129 =
         0.03101    0.00691    0.00415   -0.00307
N1    3    0.328442   -0.187990    0.519862    11.00000    0.01395    0.01662 =
         0.01710   -0.00299    0.00218    0.00186
N2    3    0.401906    0.245925    0.418567    11.00000    0.01788    0.01277 =
         0.01576   -0.00090    0.00101    0.00249
C1    1    0.195933   -0.133272    0.480632    11.00000    0.01507    0.02044 =
         0.02245   -0.00014    0.00270   -0.00055
AFIX  43
H1    2    0.118391   -0.239963    0.493375    11.00000   -1.20000
AFIX   0
C2    1    0.164124    0.068923    0.422558    11.00000    0.01353    0.03189 =
         0.02196    0.00038   -0.00197    0.00111
AFIX  43
H2    2    0.065414    0.088123    0.399475    11.00000   -1.20000
AFIX   0
C3    1    0.259485    0.246982    0.394069    11.00000    0.01705    0.02006 =
         0.01704   -0.00009    0.00036    0.00268
AFIX  43
H3    2    0.220645    0.377932    0.354575    11.00000   -1.20000
AFIX   0
C4    1    0.494702    0.427047    0.387745    11.00000    0.01802    0.01589 =
         0.01409   -0.00194    0.00106    0.00108
C5    1    0.457929    0.629709    0.329263    11.00000    0.02109    0.01814 =
         0.01583   -0.00179   -0.00058    0.00212
C6    1    0.558668    0.794676    0.303385    11.00000    0.02617    0.01437 =
         0.01510    0.00128    0.00209    0.00268
C7    1    0.701902    0.762514    0.336415    11.00000    0.02306    0.01857 =
         0.02186   -0.00403    0.01029   -0.00396
C8    1    0.742482    0.563012    0.393063    11.00000    0.01370    0.01729 =
         0.02240   -0.00629    0.00191    0.00047
C9    1    0.643216    0.395099    0.421135    11.00000    0.01775    0.01468 =
         0.01532   -0.00154    0.00198    0.00241
HKLF 4




REM  Xray116
REM R1 =  0.0521 for    1454 Fo > 4sig(Fo)  and  0.0627 for all    1757 data
REM    142 parameters refined using      0 restraints

END

WGHT      0.0693      0.7380

REM Instructions for potential hydrogen bonds
EQIV $1 x-1, y-1,
HTAB C1 F4_$1
EQIV $2 -x+1, -y, -z+
HTAB C1 F4_$2
HTAB C3 F1

REM Highest difference peak  0.599,  deepest hole -0.691,  1-sigma level  0.184
Q1    1   0.8813  0.5661  0.3380  11.00000  0.05    0.60
Q2    1   0.4851  0.7832  0.3208  11.00000  0.05    0.59
Q3    1   0.4061  0.0258  0.5823  11.00000  0.05    0.57
Q4    1   0.4437  0.2069  0.4529  11.00000  0.05    0.56
Q5    1   0.5105  0.2164  0.4554  11.00000  0.05    0.56
Q6    1   0.6215  0.9875  0.2650  11.00000  0.05    0.53
Q7    1   0.3238  0.5736  0.4016  11.00000  0.05    0.52
Q8    1   0.2241  0.5110  0.2872  11.00000  0.05    0.52
Q9    1   0.5469  0.1952  0.5452  11.00000  0.05    0.52
Q10   1   0.6762  0.5016  0.5014  11.00000  0.05    0.50
;
_shelx_res_checksum              6232
_shelx_hkl_file
;
   0   0  -3   65.29   27.47
   0   0   3    9.82   18.13
   0   0   3    4.07   11.08
   0   0  -3   18.17   10.24
   0   0  -4 2047.39  106.40
   0   0   4 1947.82  102.62
   0   0   4 2090.54  103.21
   0   0  -4 2110.92  106.61
   0   0   5   55.69   34.71
   0   0  -5   52.59   33.08
   0   0   5   38.27   16.62
   0   0  -5   11.34   11.73
   0   0   6   34.61   34.35
   0   0  -6   72.45   34.48
   0   0   6   51.86   16.98
   0   0  -6   29.49   12.48
   0   0   7   65.29   44.56
   0   0  -7   12.00   24.47
   0   0   7    6.59   14.29
   0   0  -7   17.04   12.74
   0   0   8  163.31   52.07
   0   0   8  212.18   35.19
   0   0  -8  154.10   27.58
   0   0   9   42.42   41.54
   0   0   9   27.46   19.13
   0   0  -9   38.66   19.56
   0   0 -1025144.95 1187.88
   0   0  11   -2.49   31.79
   0   0  11   -4.55   14.89
   0   0 -11   -3.67   10.43
   0   0  1215674.26  751.73
   0   0  13   40.03   34.72
   0   0  14  478.86   61.03
   0   0 -14  217.39   39.16
   0   0  15  -10.67   31.74
   0   0 -15  107.66   58.66
   0   0  16 1884.81  119.47
   0   0 -16 1843.10  113.34
   0   0  17   14.08   33.19
   0   0 -17   36.62   37.24
   0   0  18   19.62   34.96
   0   0 -18   -1.03   25.00
   0   0  19   29.52   32.36
   0   0 -19   55.68   34.80
   0   0  20  365.47   66.23
   0   0  21   64.61   53.27
   0   0  22  140.96   55.51
   0   1   0    3.27    6.51
   0   1   0    7.26    7.34
   0  -1   0   32.83   18.91
   0  -1   0   23.42   13.37
   0   1   1 2025.94  106.73
   0   1  -1 2030.72  113.40
   0   1   1 2059.64  111.80
   0  -1  -1 2115.54  104.68
   0  -1   1 2169.23  113.35
   0  -1   1 2033.45  100.01
   0  -1  -1 2190.15  122.54
   0  -1   1 1939.15  104.49
   0   1   2  267.16   76.19
   0   1   2  269.65   30.25
   0  -1  -2  262.15   33.93
   0  -1  -2  303.20   75.60
   0  -1   2  268.91   24.12
   0  -1   2  175.73   26.85
   0   1   317030.87  806.80
   0   1  -318085.95  858.68
   0   1   316391.14  799.43
   0  -1  -317983.83  850.32
   0  -1   317933.54  851.03
   0  -1   317002.84  800.32
   0   1   436256.61 1710.44
   0   1  -437550.08 1772.38
   0   1   432996.94 1559.17
   0  -1  -438649.64 1821.56
   0  -1   435032.07 1654.52
   0  -1  -439663.17 1874.51
   0  -1   434448.28 1619.73
   0   1   533128.69 1631.52
   0   1   535578.15 1679.55
   0   1  -536204.86 1710.98
   0  -1  -535475.11 1673.93
   0  -1   533041.58 1562.63
   0  -1  -534893.76 1649.95
   0   1   6 5707.90  278.78
   0   1  -6 6290.22  310.15
   0   1   6 5682.40  297.38
   0  -1  -6 5771.50  279.26
   0  -1   6 5651.36  279.90
   0  -1  -6 5664.90  275.96
   0   1   712382.00  592.08
   0   1   710148.29  485.02
   0  -1   712287.70  590.12
   0   1   8  820.60   59.95
   0   1  -8  810.32   41.05
   0  -1   8  905.68   74.78
   0   1   9 1092.52   72.25
   0   1  -9 1012.81   51.01
   0   1   9 1093.63   92.27
   0  -1   9  954.67   71.70
   0   1  10  216.73   49.08
   0   1 -10  200.99   15.94
   0   1  10   82.16   38.25
   0  -1  10   98.66   38.35
   0   1  11 3622.36  193.55
   0   1 -11 3591.64  172.08
   0   1  11 3795.38  195.43
   0   1 -11 3420.06  169.23
   0  -1  11 3222.35  170.64
   0   1  12  101.77   52.11
   0   1 -12   92.54   14.03
   0   1  12  114.05   30.68
   0   1 -12   74.71   22.13
   0  -1  12  115.69   55.38
   0   1  13  796.00   74.74
   0   1 -13  748.04   50.66
   0   1 -13  737.71   41.50
   0  -1  13  756.71   67.54
   0   1  14  903.53   75.74
   0   1 -14  760.53   51.61
   0   1 -14  801.10   44.66
   0  -1  14  894.21   80.43
   0  -1 -14  933.90  103.59
   0   1  15 2852.60  161.48
   0   1 -15 2932.95  149.49
   0  -1  15 2906.52  171.32
   0  -1 -15 3131.91  192.91
   0   1  16  -11.40   35.10
   0   1 -16   34.47   17.72
   0  -1  16   60.45   35.19
   0  -1 -16   26.06   47.63
   0   1  17  942.99   89.17
   0  -1  17  821.21   82.27
   0  -1 -17  943.19   92.03
   0   1  18  119.80   48.12
   0  -1  18   59.98   35.87
   0  -1 -18   70.16   38.95
   0   1  19  212.52   57.63
   0  -1  19  231.73   67.72
   0  -1 -19  154.95   50.29
   0   1  20   27.91   37.15
   0  -1  20   66.88   55.23
   0  -1 -20   44.60   35.89
   0   1  21 1221.75  113.23
   0  -1  21 1156.20   97.20
   0   1  22   67.01   34.02
   0  -1  22   85.06   49.83
   0   2   0 6840.75  339.86
   0  -2   0 7188.31  361.32
   0  -2   0 7451.12  373.64
   0  -2   0 7669.80  383.80
   0   2  -1   46.92   26.40
   0   2   1    3.22   19.52
   0  -2  -1   17.27   23.29
   0  -2   1   69.61   28.37
   0  -2   1   24.12    9.33
   0  -2  -1   21.03   18.55
   0  -2   1   59.44   50.73
   0   2   2 2325.30  127.16
   0   2   2 2426.43  130.78
   0  -2   2 2445.66  129.01
   0  -2  -2 2536.45  128.85
   0  -2  -2 2478.92  126.83
   0  -2   2 2505.98  125.72
   0  -2   2 2401.37  125.01
   0   2   3  273.95   88.57
   0   2   3  346.70   69.35
   0  -2  -3  276.85   29.86
   0  -2   3  258.25   49.19
   0  -2   3  289.42   33.95
   0  -2   3  295.54   53.14
   0  -2   3  214.85   27.34
   0   2   4 4387.02  217.99
   0   2   4 4342.55  216.35
   0  -2   4 5197.76  257.09
   0  -2   4 4435.36  216.28
   0  -2   4 4338.62  212.54
   0   2   5  162.74   88.64
   0  -2   5  198.43   26.51
   0  -2   5  135.02   50.06
   0   2   6  231.74   40.74
   0   2   6  254.41   61.48
   0  -2   6  299.44   47.98
   0  -2   6  308.45   30.47
   0  -2   6  233.84   16.67
   0   2   7   38.38   34.62
   0   2   7  -27.13   33.15
   0  -2   7  155.27   43.13
   0   2   8 6662.57  327.21
   0   2   8 6901.27  343.90
   0  -2   8 6461.54  320.73
   0   2   9  200.89   48.55
   0   2   9   75.21   27.97
   0  -2   9   98.15   46.49
   0   2  10  445.14   53.81
   0   2  10  581.25  124.85
   0  -2  10  524.81   65.52
   0   2  11   15.15   29.13
   0  -2  11   65.17   47.09
   0   2  12 5133.25  261.53
   0  -2  12 6072.54  314.67
   0   2  13    5.06   35.06
   0  -2  13   58.36   49.19
   0  -2 -13   36.48   84.16
   0   2  14  580.70   67.99
   0  -2  14  500.01   64.19
   0  -2 -14  391.02  102.60
   0   2  15  281.26   58.47
   0  -2  15  306.33   68.31
   0  -2 -15  157.58   72.23
   0   2  16 3754.72  207.26
   0  -2  16 3625.44  206.25
   0  -2 -16 3504.12  219.05
   0   2  17  207.32   66.66
   0  -2  17   92.29   53.91
   0  -2 -17  169.11   79.24
   0   2  18  633.77   76.92
   0  -2  18  487.96   72.05
   0  -2 -18  272.51   68.78
   0   2  19   90.66   70.53
   0  -2  19   58.22   49.69
   0  -2 -19   95.68   84.01
   0   2  20  423.74   73.07
   0  -2  20  585.75   79.17
   0  -2 -20  743.13  112.42
   0   2  21   78.54   39.03
   0  -2  21   54.21   38.89
   0  -2 -21   13.98   43.46
   0   3   0   65.70   29.97
   0  -3   0   77.68   48.45
   0   3  -1  589.90   66.35
   0   3   1  514.90   59.26
   0  -3  -1  518.88   65.75
   0  -3   1  521.74   55.78
   0   3   2  762.90  101.53
   0  -3   2 1142.14   85.73
   0  -3  -2  735.63   85.67
   0   3   3  186.30   53.15
   0  -3   3  159.53   43.23
   0  -3   3  166.04   19.94
   0  -3   3  154.58   27.06
   0  -3  -3  127.21   72.32
   0   3   4  244.68   66.91
   0  -3   4  306.78   76.63
   0  -3   4  246.09   40.80
   0  -3   4  382.24   38.85
   0  -3  -4   99.38   54.22
   0   3   5 4443.19  235.29
   0  -3   5 4487.65  240.02
   0  -3   5 4618.46  226.90
   0  -3   5 4793.96  235.74
   0  -3  -5 4841.99  274.33
   0   3   6   28.64   18.94
   0  -3   6   53.28   51.55
   0  -3   6   43.19   14.22
   0  -3  -6   45.87   59.89
   0   3   7  969.93   67.46
   0  -3   7  950.26   82.35
   0  -3   7  928.83   48.01
   0  -3   7  992.00   54.44
   0  -3  -7 1013.47  113.19
   0   3   8  -12.58   24.49
   0  -3   8   27.69   30.40
   0  -3   8    8.99    5.06
   0  -3  -8   26.84   56.25
   0   3   9  947.69   78.21
   0  -3   9  854.42   81.05
   0  -3  -9  962.02  123.69
   0   3  10   68.74   40.96
   0  -3  10   30.26   32.27
   0  -3 -10   16.17   59.00
   0   3  11 1181.32   87.06
   0  -3  11 1210.02   96.64
   0  -3 -11 1075.26  131.81
   0   3  12  848.64   83.80
   0  -3  12  840.15   85.94
   0  -3 -12  665.14  108.53
   0   3  13 1031.67   91.60
   0  -3  13 1253.35  108.96
   0  -3 -13  955.51  120.38
   0   3  14   47.96   41.56
   0  -3  14   64.06   38.87
   0  -3 -14  -12.98   59.41
   0   3  15 1863.47  125.29
   0  -3  15 1664.55  119.21
   0  -3 -15 1757.66  144.36
   0   3  16   -2.24   32.08
   0  -3  16   25.46   35.18
   0  -3 -16   70.62   81.67
   0   3  17  984.67  105.21
   0  -3  17  927.26   86.98
   0  -3 -17  628.80  104.40
   0   3  18   30.24   34.55
   0  -3  18   25.02   37.98
   0  -3 -18  160.02   75.41
   0   3  19 1226.96  107.43
   0  -3  19 1203.62  106.32
   0  -3 -19  842.45  119.88
   0   4   0 3657.60  198.22
   0  -4   0 3736.57  208.64
   0   4   1  411.54   66.21
   0   4  -1  392.80   79.64
   0  -4  -1  468.09   99.57
   0  -4   1  273.03   64.83
   0   4   2  998.08  121.01
   0  -4   2  900.77   81.80
   0  -4  -2  931.78   94.19
   0  -4   2 1010.39   92.11
   0   4   3  840.00  143.81
   0  -4   3  808.29   77.91
   0  -4   3  890.18   80.12
   0  -4  -3  771.48   88.28
   0   4   4 1319.54  125.83
   0  -4   4 1475.11  105.56
   0  -4  -4 1342.89  122.11
   0  -4   4 1554.05  108.86
   0   4   5   -3.06   21.26
   0  -4   5   56.47   57.75
   0  -4   5   -3.05   14.71
   0  -4  -5   32.30   68.00
   0   4   6   36.97   22.56
   0  -4   6  125.00   59.85
   0  -4   6   15.56   14.24
   0  -4  -6   85.47   74.15
   0   4   7  121.44   54.59
   0  -4   7  201.14   52.56
   0  -4   7  170.12   27.32
   0  -4  -7   72.35   58.43
   0   4   8 2580.63  210.48
   0  -4   8 2618.66  167.91
   0  -4  -8 2363.90  163.69
   0   4   9   69.57   48.54
   0  -4   9   60.64   39.48
   0  -4  -9   95.24   69.20
   0   4  10  605.72  136.03
   0  -4  10  578.87   65.36
   0  -4 -10  849.22  131.44
   0   4  11  458.37  127.39
   0  -4  11  501.26   70.61
   0  -4 -11  271.78   89.20
   0   4  12 2267.85  160.60
   0  -4  12 2212.13  147.05
   0  -4 -12 2229.34  184.32
   0   4  13   42.17   32.13
   0  -4  13   79.40   67.01
   0  -4 -13   39.95   93.97
   0   4  14  333.92   64.45
   0  -4  14  324.60   60.71
   0  -4 -14  179.38   98.04
   0   4  15   15.00   39.44
   0  -4  15   94.61   52.19
   0  -4 -15   65.95   63.15
   0   4  16  713.50   81.57
   0  -4  16  604.81   77.97
   0  -4 -16  575.78  124.53
   0   5   0   76.25   22.95
   0  -5   0   12.90   41.43
   0   5   1 2259.72  186.01
   0  -5   1 2359.13  155.02
   0  -5   1 2529.73  155.58
   0  -5  -1 2626.08  184.60
   0   5   2   79.49   39.18
   0  -5   2  186.66   51.47
   0  -5  -2   81.92   47.19
   0  -5   2  324.50   81.14
   0   5   3  898.21  148.88
   0  -5   3 1257.17  114.43
   0  -5   3 1166.69  108.08
   0  -5  -3  934.31  118.26
   0   5   4   43.49   40.04
   0  -5   4  148.13   60.76
   0  -5   4   69.48   34.25
   0  -5  -4  145.04   88.73
   0   5   5  447.38  118.70
   0  -5   5  576.38   83.40
   0  -5  -5  569.31  107.62
   0   5   6   -7.56   18.29
   0  -5   6   -3.24   33.69
   0  -5  -6   26.38   60.98
   0   5   7 1330.22  174.49
   0  -5   7 1409.64  107.60
   0  -5  -7 1479.01  150.65
   0   5   8  100.62   60.82
   0  -5   8  131.57   57.22
   0  -5  -8  -14.33   59.63
   0   5   9  752.62  117.97
   0  -5   9  845.61   84.27
   0  -5  -9  589.43  111.20
   0   5  10   67.68   36.97
   0  -5  10  107.22   46.88
   0  -5 -10   87.27   83.11
   0   5  11  862.09  151.46
   0  -5  11 1016.99   96.77
   0  -5 -11  862.37  122.44
   0   5  12   19.28   30.38
   0  -5  12   28.65   44.57
   0  -5 -12  -12.81   58.33
   0  -6   0   62.74   31.81
   0  -6   0    2.32   36.16
   0  -6   1   61.97   41.75
   0  -6  -1  170.95   73.70
   0   6   2   95.81   38.74
   0  -6   2  130.88   52.67
   0  -6  -2  152.16   56.97
   0   6   3  350.22  139.56
   0  -6   3  590.53   72.53
   0  -6  -3  323.22   63.17
   0   6   4 3360.06  209.29
   0  -6   4 3292.04  194.62
   0  -6  -4 3606.44  226.00
  -1   0  22   39.97   49.68
  -1   0  21  224.45   65.66
  -1   0  20  112.54   63.14
  -1   0  19 1788.64  117.45
  -1   0  18   30.20   34.86
   1   0 -18   17.93   32.40
  -1   0  17  498.31   63.41
   1   0 -17  493.32   61.74
  -1   0  16  -21.54   28.66
   1   0 -16   99.92   33.95
  -1   0  15 3182.21  177.61
   1   0 -15 3458.81  184.56
  -1   0  14    2.15   29.09
   1   0 -14    4.22   24.45
  -1   0  13   62.97   42.17
   1   0 -13   71.53   49.68
  -1   0  12  -15.50   29.02
   1   0 -12    0.00    6.29
   1   0 -12   -4.25   22.86
  -1   0  11 9374.09  454.54
   1   0 -11 9953.78  475.09
   1   0 -1110218.36  494.94
  -1   0  10    8.56   26.09
   1   0 -10   98.36   36.98
   1   0 -10    7.87   40.88
  -1   0   9 6204.87  303.24
   1   0  -9 6969.27  332.64
   1   0  -9 6972.65  341.81
  -1   0   8   15.89   21.90
   1   0  -8    2.29    8.52
   1   0  -8  -13.92   26.69
  -1   0   7 1300.28   77.88
   1   0  -7 1293.28   73.52
   1   0  -7 1372.53   76.07
   1   0  -7 1394.17   84.81
   1   0  -6  297.06   44.36
   1   0  -6  328.24   47.05
  -1   0   517689.03  836.13
   1   0  -519946.78  942.18
  -1   0   4   29.91   24.12
   1   0  -4   58.10   19.63
  -1   0   4   22.59   25.10
   1   0  -4   36.41   36.01
  -1   0   3   40.19   20.11
   1   0  -3   89.48   26.74
   1   0  -3   34.31   21.24
  -1   0   3   90.62   37.98
  -1   0  -2   61.20   31.07
   1   0   2   33.77   26.49
  -1   0  -2   23.10   16.13
   1   0   2   16.19   16.94
   1   0   3  425.94   45.53
  -1   0  -3  397.33   40.26
  -1   0  -3  371.25   28.82
   1   0   3  156.46   18.35
   1   0   4   12.52   29.71
  -1   0  -4  -12.62   24.35
   1   0   4   23.59   20.66
  -1   0  -4    4.15   10.78
   1   0   5 6376.04  309.55
  -1   0  -5 7360.02  357.32
   1   0   5 6523.59  319.25
  -1   0  -5 6794.20  324.49
   1   0   6  -10.39   26.56
  -1   0  -6   -6.75   22.67
   1   0   6    6.15   14.28
  -1   0  -6    4.29   15.57
   1   0   711259.36  542.22
   1   0   7 7531.62  359.90
  -1   0  -711577.27  549.27
   1   0   8    8.49   30.55
   1   0   8    1.14    7.84
  -1   0  -8  -11.02   12.33
   1   0   9 4770.09  246.80
   1   0   9 4491.25  229.49
  -1   0  -9 4897.18  240.66
   1   0  10  -36.18   31.35
   1   0  10   11.65    7.30
  -1   0 -10   -3.64   10.38
   1   0  11 2099.75  120.45
   1   0  11 2181.23  113.40
   1   0  12    5.51   32.39
   1   0  12   32.12   23.60
   1   0  13 2770.52  156.72
   1   0  13 3016.57  169.30
   1   0  14   -2.65   32.91
   1   0  14  -11.85   13.25
   1   0  15  392.67   60.95
   1   0  15  547.69   96.82
   1   0  16   -1.35   37.49
   1   0  16   -2.20   12.84
   1   0  17 1473.89  106.76
   1   0  18  -29.88   35.53
  -1   0 -18   28.25   42.03
   1   0  19 1836.20  127.21
   1   0  20   22.73   49.04
   1   0  21    8.52   35.41
  -1   1  22  231.46   69.65
  -1  -1  22  198.84   58.82
  -1   1  21  237.03   63.25
  -1  -1  21  108.43   39.13
  -1   1  20 1798.59  130.63
  -1  -1  20 1595.40  113.73
   1  -1 -20 1606.89  114.72
  -1   1  19   21.48   35.76
  -1  -1  19   38.41   46.94
   1  -1 -19  -43.39   37.43
  -1   1  18  200.76   59.74
  -1  -1  18  253.10   63.53
   1  -1 -18  127.31   55.35
  -1   1  17   14.65   31.61
  -1  -1  17   41.47   38.60
   1  -1 -17  138.97   83.65
  -1   1  16 3281.76  185.89
  -1  -1  16 3024.19  167.86
   1  -1 -16 3151.84  192.19
  -1   1  15 1019.30   85.07
  -1  -1  15 1149.94   89.98
   1  -1 -15  940.54   86.50
  -1   1  14 5410.11  275.05
   1   1 -14 5144.48  245.03
  -1  -1  14 5476.16  281.81
   1  -1 -14 5501.78  294.80
  -1   1  13  165.23   44.31
  -1  -1  13  110.00   33.87
   1  -1 -13   98.94   64.19
  -1   1  12 3690.47  193.18
  -1  -1  12 3576.18  187.20
   1  -1 -12 4079.09  224.78
  -1   1  11  902.63   69.27
  -1  -1  11  857.94   68.05
   1  -1 -11  564.08   69.60
  -1   1  10   37.04   36.09
   1   1 -10   -0.60    6.26
  -1  -1  10   64.11   33.93
   1  -1 -10  -44.06   36.97
  -1   1   9 1004.15   71.04
  -1  -1   9  973.06   68.30
   1  -1  -9  683.98   68.90
  -1   1   8 3998.28  206.32
  -1  -1   8 4015.37  205.69
   1  -1  -8 4237.43  231.38
  -1   1   7  461.85   54.91
   1   1  -7  425.91   43.19
  -1  -1   7  418.31   44.50
   1  -1  -7  455.90   54.36
   1  -1  -7  198.57   54.01
  -1   1   6  782.08   58.29
   1   1  -6  765.45   50.09
   1  -1  -6  742.88   47.68
  -1  -1   6  913.56   66.04
   1  -1  -6  803.44   49.21
   1  -1  -6  667.79   69.54
  -1   1   519316.56  914.76
   1   1  -519205.09  909.52
  -1  -1   519491.86  923.87
   1  -1  -520525.66  981.76
  -1   1   491482.82 4304.72
   1   1  -495038.12 4472.05
   1  -1  -494323.67 4437.80
   1   1  -332006.58 1507.13
  -1   1   332932.95 1553.24
   1   1  -335663.30 1680.89
   1  -1  -332770.98 1544.94
  -1  -1   331929.39 1504.82
  -1  -1   332108.56 1510.60
  -1   1   2 9872.87  469.47
   1   1  -2 9372.52  446.17
  -1  -1   2 9593.04  455.84
   1  -1  -2 9596.28  456.69
  -1  -1   2 8970.54  423.88
   1   1  -1 2943.03  143.36
  -1   1   1 2859.84  148.52
  -1   1   1 3290.56  170.95
   1   1  -1 2787.55  136.46
  -1  -1   1 3126.16  153.25
  -1  -1   1 3085.54  152.46
   1  -1  -1 3311.97  179.88
   1  -1  -1 2975.46  149.96
  -1   1   0 5881.65  282.68
   1   1   0 5891.96  280.73
   1   1   0 5741.37  276.03
  -1   1   0 6926.29  338.84
   1  -1   0 6109.24  294.96
  -1  -1   0 6223.11  296.94
   1  -1   0 7331.19  361.05
  -1   1  -1  430.21   76.98
   1   1   1  378.04   27.92
  -1   1  -1  347.25   37.73
  -1  -1  -1  462.47   29.17
   1  -1   1  362.62   41.06
   1  -1   1  400.65   51.09
  -1   1  -2  306.79   33.55
   1   1   2  301.55   30.47
   1  -1   2  410.89   71.20
   1  -1   2  447.23   58.29
  -1  -1  -2  310.17   24.89
   1  -1   2  358.13   40.60
  -1   1  -3  114.35   30.10
   1   1   3  225.79   33.90
  -1   1  -3  -10.89   30.23
  -1  -1  -3  122.92   28.90
   1  -1   3   80.73   36.51
   1   1   4  196.25   38.41
  -1   1  -4   91.28   50.84
  -1   1  -4   74.42   16.16
   1   1   4  155.54   67.60
  -1  -1  -4  163.76   34.60
  -1  -1  -4  172.74   34.04
   1  -1   4   72.74   16.63
   1  -1   4   61.91   34.69
   1   1   5 2046.99  109.60
  -1   1  -5 2032.77  115.34
  -1   1  -5 1939.89   96.96
   1   1   5 1984.63  115.95
  -1  -1  -5 2077.21  116.07
  -1  -1  -5 2263.00  117.30
   1  -1   5 2121.71  104.68
   1  -1   5 1883.69  108.90
   1   1   6 3503.34  175.58
  -1   1  -6 3759.33  181.75
   1   1   6 3688.47  185.12
   1  -1   6 3389.30  174.99
  -1  -1  -6 3824.84  200.20
   1  -1   6 3466.43  166.78
  -1  -1  -6 3787.16  189.22
   1   1   7 2225.55  127.83
  -1   1  -7 2758.61  136.67
   1   1   7 2433.34  127.80
   1  -1   7 2868.72  158.48
   1   1   8 9335.29  448.72
   1   1   9   75.49   30.58
   1   1   9  258.46   51.69
  -1   1  -9  234.43   19.91
   1  -1   9  250.57   64.28
   1  -1   9  302.44   41.76
   1   1  10  845.69   65.06
   1   1  10  912.18  117.11
  -1   1 -10  872.57   48.55
   1  -1  10 1026.89   83.47
   1  -1  10  891.26   63.60
   1   1  11  386.38   56.57
   1   1  11  547.86   97.42
  -1   1 -11  430.26   29.96
   1  -1  11  465.64   63.38
   1  -1  11  528.98   59.45
   1   1  12 8141.96  403.84
   1   1  12 8296.02  402.29
  -1   1 -12 8157.16  388.63
   1  -1  12 7511.53  375.53
   1  -1  12 8360.33  399.57
   1   1  13  179.95   55.15
   1   1  13  114.93   30.57
  -1   1 -13   96.97   13.69
   1  -1  13  161.80   52.32
   1  -1  13  185.90   33.99
   1   1  14  176.31   61.99
   1   1  14  102.34   33.31
   1  -1  14  195.81   60.70
   1  -1  14  118.97   30.48
   1   1  15   53.84   31.25
   1   1  15   -7.70   16.79
   1  -1  15   11.70   34.19
   1   1  16 1272.53   97.94
  -1   1 -16 1463.95   89.61
   1   1  16 1335.25  109.70
   1  -1  16 1224.54   92.71
   1   1  17  592.19   68.27
   1  -1  17  540.70   75.30
   1   1  18  102.35   46.94
   1  -1  18  133.80   53.17
  -1  -1 -18   35.25   59.45
   1   1  19  141.96   62.05
   1  -1  19  196.86   56.75
  -1  -1 -19  135.62   73.08
   1   1  20 1380.97  109.87
   1  -1  20 1405.68  123.58
  -1  -1 -20 1614.70  127.09
   1   1  21   14.44   33.33
   1  -1  21    8.10   40.84
  -1   2  21  469.55   62.98
  -1  -2  21  494.28   76.91
   1  -2 -21  269.59   67.15
  -1   2  20  111.22   37.93
  -1  -2  20   46.73   49.72
   1  -2 -20   82.22   68.88
  -1   2  19 3107.81  193.78
  -1  -2  19 3391.46  195.46
   1  -2 -19 3600.51  229.61
  -1   2  18   87.20   57.25
  -1  -2  18  155.62   64.18
   1  -2 -18   79.20   71.04
  -1   2  17 2168.88  130.83
  -1  -2  17 2038.58  129.04
   1  -2 -17 2184.76  161.08
  -1   2  16  368.67   66.64
  -1  -2  16  351.71   55.58
   1  -2 -16  231.33   66.20
  -1   2  15 1426.95  103.18
  -1  -2  15 1473.58  103.86
   1  -2 -15 1817.82  149.80
  -1   2  14   23.78   28.62
  -1  -2  14    8.46   30.47
   1  -2 -14  -23.18   50.33
  -1   2  13  533.51   71.03
  -1  -2  13  378.59   49.66
   1  -2 -13  134.36   48.70
  -1   2  12  126.27   46.43
  -1  -2  12   41.89   39.40
   1  -2 -12  245.59   98.16
  -1   2  11   42.56   23.76
  -1  -2  11   33.31   26.30
   1  -2 -11   85.25   53.99
  -1   2  10   18.42   26.05
  -1  -2  10  146.15   53.59
   1  -2 -10  -36.52   64.35
  -1   2   914470.56  696.20
  -1  -2   914417.58  693.46
   1  -2  -914376.68  713.39
  -1   2   810626.68  516.22
  -1  -2   810519.01  508.33
   1  -2  -810235.44  617.72
  -1   2   724253.10 1151.85
  -1  -2   724133.27 1146.70
   1  -2  -724045.04 1161.90
  -1   2   6 2003.33  125.42
  -1  -2   6 2277.74  134.52
  -1  -2   6 1743.03   88.07
  -1   2   5 1471.24   91.65
  -1  -2   5 1549.33   92.26
   1  -2  -5 1394.09  115.03
  -1  -2   5 1522.97   83.52
  -1   2   4 1870.43  108.75
   1   2  -4 1917.79   96.13
  -1  -2   4 1708.70   86.19
  -1  -2   4 1827.34  101.15
  -1  -2   4 1892.92   93.68
   1  -2  -4 1786.42  114.50
  -1   2   3 3560.72  185.03
   1   2  -3 3654.72  177.39
  -1  -2   3 3515.41  174.29
  -1  -2   3 3828.67  193.43
  -1  -2   3 3852.41  186.06
   1  -2  -3 3665.97  199.60
  -1   2   2 4267.07  241.73
   1   2  -2 3682.74  186.45
  -1  -2   2 3550.89  181.10
  -1  -2   2 3831.93  186.75
  -1  -2   2 3921.11  193.26
   1  -2  -2 4007.68  213.06
   1   2  -1 1742.43  112.70
  -1   2   1 1663.71   99.63
   1   2  -1 1734.55   98.11
   1  -2  -1 1730.03   97.27
   1  -2  -1 1625.64   86.56
  -1  -2   1 1762.87   90.30
  -1  -2   1 1913.99  100.10
   1  -2  -1 1572.65   99.36
   1   2   0 1344.99   85.09
  -1   2   0 1239.84  102.24
   1   2   0 1205.73   70.73
   1  -2   0 1289.83   72.06
   1  -2   0 1228.60   71.02
  -1  -2   0 1225.31   73.40
  -1  -2   0 1235.83   70.70
   1  -2   0 1339.05   96.74
  -1   2  -1 4656.67  240.33
   1   2   1 5107.18  259.26
   1   2   1 4653.57  241.34
  -1  -2  -1 5289.36  254.73
  -1  -2  -1 4829.96  235.03
   1  -2   1 5158.86  264.88
   1   2   2 9367.12  454.10
   1   2   2 9295.54  449.93
  -1   2  -2 9732.30  472.29
  -1  -2  -2 9732.60  463.68
   1  -2   2 8214.06  396.48
  -1   2  -315067.29  717.27
   1   2   315033.25  727.28
   1  -2   315037.86  723.68
   1   2   4 4356.61  213.70
   1   2   4 4235.36  220.80
  -1   2  -4 4286.13  213.61
   1  -2   4 4209.18  217.80
   1  -2   4 4478.00  218.76
  -1  -2  -4 4564.00  222.47
   1   2   5 4814.16  236.81
   1   2   5 4693.18  239.20
  -1   2  -5 4738.03  232.16
   1  -2   5 4587.97  239.70
   1  -2   5 4399.18  212.47
   1   2   6  457.50   43.86
   1   2   6  599.80  182.63
  -1   2  -6  516.24   34.89
   1  -2   6  580.82   79.16
   1  -2   6  544.25   35.71
   1   2   7 4890.39  242.51
   1   2   7 5146.67  281.93
  -1   2  -7 4808.00  230.98
   1  -2   7 4640.68  235.85
   1  -2   7 4794.78  228.66
   1   2   8  617.36   55.10
   1   2   8  736.47  117.29
  -1   2  -8  633.08   36.34
   1  -2   8  681.00   69.67
   1  -2   8  699.78   38.29
   1   2   9  245.35   47.24
  -1   2  -9  129.86   12.65
   1   2   9  129.39   50.71
   1  -2   9  146.08   53.80
   1   2  10  724.22   69.60
   1   2  10  707.11  109.62
  -1   2 -10  660.82   34.20
   1  -2  10  721.61   72.35
   1  -2  10  695.92   34.35
   1   2  11 1584.63  106.31
   1   2  11 1591.48  119.36
   1  -2  11 1559.71  106.63
   1   2  12   -5.79   29.44
   1   2  12   37.12   21.06
   1  -2  12   68.98   39.54
   1   2  13  865.42   77.52
   1   2  13  914.18  166.51
   1  -2  13  824.42   88.32
   1   2  14  487.10   79.83
   1   2  14  173.56   64.56
   1  -2  14  376.33   69.57
   1   2  15  465.96   74.44
   1   2  15  360.14   89.88
   1  -2  15  336.97   75.65
   1   2  16   29.47   32.39
   1  -2  16  -45.36   35.61
   1   2  17 2291.12  145.16
   1  -2  17 2309.49  141.35
   1   2  18   59.19   36.57
   1  -2  18   68.95   46.33
  -1  -2 -18  -92.42   52.58
   1   2  19 1107.45  103.87
   1  -2  19 1340.18  117.45
  -1  -2 -19  556.22   93.61
   1   2  20   49.18   59.60
   1  -2  20   26.12   35.92
  -1  -2 -20   20.04   52.35
  -1   3  19  104.66   51.19
  -1  -3  19  140.15   50.83
   1  -3 -19  113.62   72.71
  -1   3  18   45.58   32.38
  -1  -3  18  232.32   51.54
   1  -3 -18  173.48   86.66
  -1   3  17   54.25   44.25
  -1  -3  17   28.94   43.14
   1  -3 -17  109.01   55.39
  -1   3  16 1995.48  136.58
  -1  -3  16 1904.24  132.32
   1  -3 -16 1839.43  152.32
  -1   3  15  446.75   80.13
  -1  -3  15  483.36   64.67
   1  -3 -15  332.42   83.37
  -1   3  14  880.70   89.39
  -1  -3  14  849.33   72.94
   1  -3 -14  818.71  116.53
  -1   3  13   87.46   56.59
  -1  -3  13  193.44   66.29
   1  -3 -13  -28.73   54.88
  -1   3  12 5249.56  272.42
  -1  -3  12 5406.01  285.49
   1  -3 -12 5534.07  311.80
  -1   3  11  184.89   55.38
  -1  -3  11  245.04   64.74
   1  -3 -11   67.09   58.85
  -1   3  10  817.60   68.14
  -1  -3  10  776.15   70.77
   1  -3 -10  993.86  118.27
  -1   3   9  254.58   45.46
  -1  -3   9  284.32   46.37
   1  -3  -9  140.21   66.58
  -1   3   8 1423.61  109.07
  -1  -3   8 1657.99  108.85
  -1  -3   8 1057.46   52.42
  -1  -3   8 1594.58   79.19
   1  -3  -8 1656.37  138.49
  -1   3   7  314.29   86.26
  -1  -3   7  269.24   42.15
  -1  -3   7  345.52   31.73
   1  -3  -7  145.19   87.55
  -1   3   6 1612.83  145.81
  -1  -3   6 1613.26   98.34
  -1  -3   6 1606.51   81.50
   1  -3  -6 1618.48  135.01
  -1  -3   6 1571.71   88.43
  -1   3   5  617.39   80.20
  -1  -3   5  522.04   55.43
  -1  -3   5  496.74   40.51
   1  -3  -5  572.83   86.75
  -1  -3   5  552.26   49.59
  -1   3   4 3594.92  248.80
  -1  -3   4 3490.08  183.91
  -1  -3   4 3575.11  174.61
  -1  -3   4 3380.93  175.79
   1  -3  -4 3634.61  213.41
  -1   3   3  302.65   62.01
  -1  -3   3  234.08   35.04
   1  -3  -3  171.02   57.07
  -1  -3   3  157.31   30.67
  -1   3   2 3312.08  188.67
   1  -3  -2 3129.13  175.10
  -1   3   1  152.40   46.17
   1   3  -1  219.68   33.83
   1   3  -1  187.58   37.38
   1  -3  -1  110.14   68.89
   1   3   0 9779.31  470.52
  -1   3   0 9809.47  482.06
   1   3   0 9423.77  459.45
   1  -3   0 9239.09  453.26
   1   3   1  485.00   72.16
   1   3   1  478.08  115.78
   1  -3   1  318.70   56.64
   1   3   2   18.16   19.65
   1   3   2    9.37   12.67
   1  -3   2  133.95   38.82
   1   3   3   40.21   35.34
   1   3   3    6.60   27.43
   1  -3   3   33.94   33.00
   1  -3   3   84.09   36.95
   1   3   4 6864.84  343.63
   1   3   4 7289.37  368.63
   1  -3   4 6461.86  312.21
   1  -3   4 6714.68  341.71
   1  -3   4 6486.09  317.95
   1   3   5   15.09   22.74
   1   3   5   -1.86   30.82
   1  -3   5    2.07   37.68
   1  -3   5    2.60    3.71
   1  -3   5   30.58   21.45
   1   3   6   61.41   34.66
   1   3   6   16.40   14.63
   1  -3   6    5.91    5.60
   1  -3   6   28.10   33.46
   1  -3   6   59.27   28.87
   1   3   7  109.98   43.16
   1   3   7   18.82   28.77
   1  -3   7   77.76   22.32
   1  -3   7  249.31   62.42
   1  -3   7  115.69   20.18
   1   3   8 4952.92  250.63
   1   3   8 5126.44  260.47
   1  -3   8 4557.97  220.57
   1  -3   8 5157.38  275.22
   1  -3   8 5232.91  251.39
   1   3   9  158.85   45.51
   1   3   9  149.37   35.78
   1  -3   9   89.40   56.23
   1  -3   9   50.52    9.92
   1   3  10  629.79   66.00
   1   3  10  624.60  136.09
   1  -3  10  664.46   76.11
   1   3  11  584.10   72.30
   1   3  11  496.45  101.93
   1  -3  11  553.48   76.54
   1   3  12 3077.38  167.57
   1   3  12 3226.97  191.41
   1  -3  12 3042.88  181.68
   1   3  13  466.29   66.41
   1   3  13  408.16   97.95
   1  -3  13  522.13   77.55
   1   3  14  669.07   71.48
   1  -3  14  902.95   95.55
   1   3  15    9.11   32.92
   1  -3  15   78.57   46.90
  -1  -3 -15  132.99   91.75
   1   3  16  670.56   88.19
   1  -3  16  609.96   81.29
  -1  -3 -16  555.53  122.07
   1   3  17   55.33   41.75
   1  -3  17   68.56   49.30
  -1  -3 -17  150.62   99.78
   1   3  18  813.85   86.82
   1  -3  18  909.96   98.46
  -1  -3 -18  781.94  111.49
   1   3  19   52.35   45.87
   1  -3  19  107.24   60.72
  -1  -3 -19  156.61   59.39
  -1   4  17  409.09   71.94
  -1  -4  17  209.90   42.79
   1  -4 -17  234.32   76.38
  -1   4  16  104.66   56.71
  -1  -4  16   93.55   54.88
   1  -4 -16   88.26   62.44
  -1   4  15 1047.08  103.33
  -1  -4  15  967.72   94.50
   1  -4 -15  483.20   90.23
  -1   4  14   72.52   47.66
  -1  -4  14   59.59   40.58
   1  -4 -14    3.06   65.29
  -1   4  13  474.84  111.77
  -1  -4  13  522.69   72.95
   1  -4 -13  352.29   98.87
  -1   4  12   49.17   25.43
  -1  -4  12  113.09   47.41
   1  -4 -12  195.10  100.19
  -1   4  11 1124.47  219.34
  -1  -4  11 1082.85   90.09
   1  -4 -11 1295.22  149.87
  -1   4  10   69.36   33.18
  -1  -4  10    9.12   25.96
   1  -4 -10   86.77   66.46
  -1   4   9  498.98  110.39
  -1  -4   9  338.89   52.95
   1  -4  -9  244.90   81.36
  -1   4   8   43.89   25.48
  -1  -4   8   70.77   36.69
   1  -4  -8   88.15   76.76
  -1   4   7  330.16   59.92
  -1  -4   7  287.15   48.75
  -1  -4   7  190.89   27.26
   1  -4  -7  277.22   93.30
  -1   4   6  -10.84   25.67
  -1  -4   6   22.43   25.33
  -1  -4   6  109.73   36.93
   1  -4  -6  -18.36   52.89
  -1   4   5 2474.24  213.73
  -1  -4   5 2171.70  128.83
  -1  -4   5 2143.25  120.51
   1  -4  -5 2206.67  152.79
  -1   4   4 2158.88  152.12
  -1  -4   4 2108.93  133.61
   1  -4  -4 1947.49  142.98
  -1  -4   4 1977.10  117.96
  -1   4   3 4305.93  255.19
  -1  -4   3 4150.74  223.91
   1  -4  -3 4296.35  244.09
  -1  -4   3 4624.23  241.44
  -1   4   2 1137.40  104.73
  -1  -4   2 1310.42  101.42
  -1  -4   2 1221.29   99.41
   1  -4  -2 1382.48  116.14
   1   4  -1 1261.09   80.82
  -1   4   1 1230.83  147.58
   1  -4  -1 1201.74  105.54
  -1  -4   1 1141.53  102.01
   1   4   0   22.78   15.15
  -1   4   0   31.02   21.79
   1  -4   0   45.93   52.61
  -1  -4   0   63.63   59.33
  -1   4  -1 2332.66  141.59
   1   4   1 2396.36  140.93
   1  -4   1 2519.87  154.93
  -1  -4  -1 2347.67  162.95
   1   4   2   53.97   30.20
   1  -4   2  188.52   64.87
   1  -4   2   98.44   52.23
  -1  -4  -2  127.56   96.60
   1   4   3 1089.07  137.11
   1  -4   3 1068.06   96.09
   1  -4   3 1166.05   88.24
  -1  -4  -3 1185.28  119.93
   1   4   4  209.34   48.86
   1  -4   4  211.09   53.53
   1  -4   4  232.72   38.98
   1   4   5 1562.06  164.21
   1  -4   5 1359.47  100.08
   1  -4   5 1469.80   92.18
   1   4   6  437.33   78.83
   1  -4   6  460.65   75.19
   1  -4   6  461.08   47.24
   1   4   7 3503.05  232.90
   1  -4   7 3423.60  193.10
   1  -4   7 3196.30  161.98
   1   4   8   80.29   27.11
   1  -4   8  110.79   61.51
   1   4   9 2917.93  249.53
   1  -4   9 2434.70  152.33
  -1  -4  -9 2949.66  217.09
   1   4  10   54.83   24.75
   1  -4  10  104.29   57.50
  -1  -4 -10   43.62   71.53
   1   4  11  927.78   83.58
   1  -4  11 1035.65   93.47
  -1  -4 -11 1009.28  153.85
   1   4  12   13.40   25.29
   1  -4  12  161.77   72.29
  -1  -4 -12   74.14   72.98
   1   4  13  857.00   80.29
   1  -4  13  846.82   86.17
  -1  -4 -13  728.69  126.44
   1   4  14   46.68   40.01
   1  -4  14   65.52   57.14
  -1  -4 -14  155.63   77.05
   1   4  15 1657.27  125.88
   1  -4  15 1559.00  128.66
  -1  -4 -15 1420.04  164.88
   1   4  16    7.72   31.53
   1  -4  16   27.29   39.56
  -1  -4 -16   55.02   67.69
  -1   5  13    9.21   18.27
  -1  -5  13   33.98   27.36
   1  -5 -13   53.54   64.93
  -1   5  12  936.44  154.83
  -1  -5  12 1125.03   91.50
   1  -5 -12 1257.64  142.29
  -1   5  11  399.88  127.03
  -1  -5  11  489.40   67.99
   1  -5 -11  232.29  106.12
  -1   5  10  510.68  127.36
  -1  -5  10  652.40   78.71
   1  -5 -10  478.50   98.02
  -1   5   9  380.46  114.92
  -1  -5   9  514.34   68.72
   1  -5  -9  131.61   66.63
  -1   5   8  748.81  149.41
  -1  -5   8  706.23   68.18
   1  -5  -8  941.27  132.04
  -1   5   7   62.52   35.12
  -1  -5   7  173.89   44.87
   1  -5  -7   79.26   57.36
  -1   5   6  147.13   49.22
  -1  -5   6  163.75   51.29
   1  -5  -6  107.04   76.49
  -1   5   5   85.07   44.77
  -1  -5   5   23.99   24.28
   1  -5  -5  -16.11   45.44
  -1   5   4 1050.18  100.29
  -1  -5   4  724.19   67.77
   1  -5  -4  554.26   84.63
  -1  -5   4  723.13   71.09
  -1   5   3  995.58  117.65
  -1  -5   3 1441.57   99.93
   1  -5  -3 1062.93  116.25
  -1  -5   3  938.87   85.26
  -1   5   2  135.09   55.12
  -1  -5   2  232.16   46.20
   1  -5  -2  159.60   60.54
  -1  -5   2   90.87   36.01
  -1   5   1  804.01  178.77
  -1  -5   1  910.76   80.92
   1  -5  -1  983.64  113.22
  -1  -5   1  844.53   84.37
  -1   5   0 5374.37  273.72
   1   5   0 5618.33  282.44
   1  -5   0 5878.23  315.03
  -1  -5   0 5710.72  308.31
   1   5   1 2825.33  181.20
   1  -5   1 3010.09  189.25
  -1  -5  -1 2939.96  192.96
   1  -5   1 2982.15  184.94
   1   5   2 1290.72  177.70
   1  -5   2 1260.58  111.64
   1  -5   2 1450.37  108.73
  -1  -5  -2 1434.55  127.40
   1   5   3    8.59   14.11
   1  -5   3  -14.49   39.40
   1  -5   3  127.21   50.14
  -1  -5  -3  -17.57   55.72
   1   5   4 1649.00  136.53
   1  -5   4 1737.74  131.80
   1  -5   4 1745.30  113.74
  -1  -5  -4 1818.95  151.99
   1   5   5   61.60   33.62
   1  -5   5   76.63   56.74
  -1  -5  -5   67.71   77.94
   1   5   6  907.94  114.70
   1  -5   6  895.59   85.71
  -1  -5  -6  876.81  128.81
   1   5   7  131.83   54.38
   1  -5   7  168.88   60.28
  -1  -5  -7  105.19   84.32
   1   5   8  558.75  161.33
   1  -5   8 1182.78  103.12
  -1  -5  -8  504.93  112.70
   1   5   9   57.04   32.76
   1  -5   9   66.74   35.18
  -1  -5  -9   67.19   60.08
   1   5  10  819.17  192.27
   1  -5  10 1088.02  102.50
  -1  -5 -10 1025.80  121.12
   1   5  11  340.97  115.77
   1  -5  11  388.52   63.73
  -1  -5 -11  235.04   85.08
   1   5  12 1712.51  158.06
   1  -5  12 1683.44  121.38
  -1  -5 -12 1859.24  181.75
  -1   6   4   36.93   28.11
   1  -6  -4    2.36   45.02
  -1   6   3  139.70   69.14
   1  -6  -3  174.37   74.76
  -1   6   2   -4.97   21.76
   1  -6  -2   21.63   39.62
   1  -6  -1 1008.80  112.51
   1  -6   0  141.01   65.67
   1  -6   0   58.25   55.23
  -1  -6   0   97.02   52.10
   1  -6   1   12.33   33.68
  -1  -6  -1   -4.17   58.42
   1  -6   2  295.80   65.23
  -1  -6  -2  228.42   75.01
   1  -6   3 1308.70  121.07
  -1  -6  -3 1082.49  109.18
  -2   0  22  384.76   63.44
  -2   0  21   65.80   49.29
  -2   0  20  434.14   77.87
  -2   0  19    8.60   28.98
  -2   0  18  192.61   46.76
   2   0 -18  215.54   45.06
  -2   0  17    6.77   30.37
   2   0 -17   13.26   19.36
  -2   0  16 3373.02  182.43
   2   0 -16 3371.20  182.46
  -2   0  15   47.11   41.74
   2   0 -15    0.23   24.21
  -2   0  14  268.24   49.42
   2   0 -14  312.79   46.03
  -2   0  13  -15.97   25.89
   2   0 -13   -7.43   24.01
  -2   0  12 4951.78  249.76
   2   0 -12 5526.05  276.43
  -2   0  11   -4.10   23.57
   2   0 -11   -0.01    8.51
   2   0 -11  -23.15   25.64
  -2   0  10 2028.14  112.81
   2   0 -10 2222.84  112.57
   2   0 -10 2275.01  127.23
  -2   0   9   37.78   33.25
   2   0  -9    4.16    5.91
   2   0  -9   -0.53   22.33
  -2   0   8 1129.18   66.11
   2   0  -8 1120.96   69.97
  -2   0   8 1276.81   76.20
  -2   0   7  -12.52   19.68
   2   0  -7  -15.47   17.11
   2   0  -7   -6.70   20.50
  -2   0   7   56.17   35.20
  -2   0   6  285.40   38.79
   2   0  -6  252.63   26.77
   2   0  -6  146.72   34.30
  -2   0   6  265.89   41.98
   2   0  -5   -2.52   12.88
  -2   0   5   15.52   17.87
   2   0  -5   -3.59   19.47
  -2   0   5    6.56   21.94
   2   0  -4 4297.77  206.54
  -2   0   4 4533.72  218.17
   2   0  -4 5147.65  252.59
  -2   0   4 4850.89  239.40
  -2   0   3   -0.28   11.59
   2   0  -3   14.52   13.98
   2   0  -3    5.00   18.13
  -2   0   3   57.76   28.60
  -2   0   2 3193.65  154.58
   2   0  -2 3349.82  160.22
   2   0  -2 3750.57  184.70
  -2   0   2 3727.47  185.82
  -2   0   1   66.53   17.31
   2   0  -1    8.48    5.78
  -2   0   1   49.45   27.32
   2   0  -1   59.31   26.57
   2   0   0   80.63   13.75
   2   0   0   67.89   30.67
   2   0   0   49.40   24.92
  -2   0   0   89.24   33.30
   2   0   1   45.37   32.19
  -2   0  -1   32.82   26.08
   2   0   1    6.58   17.62
  -2   0  -1   -1.60   13.73
   2   0   2  186.94   28.84
  -2   0  -2  340.68   34.91
   2   0   2  301.94   37.21
  -2   0  -2  314.89   28.96
   2   0   3  217.21   45.13
  -2   0  -422705.20 1074.27
   2   0   423179.74 1097.63
   2   0   421587.52 1019.63
  -2   0  -424752.67 1168.69
   2   0   5    7.88   27.10
  -2   0  -5  -25.47   24.55
   2   0   5   -5.24   16.24
  -2   0  -5   -6.29   14.80
   2   0   6  108.96   45.05
  -2   0  -6   -8.96   27.32
   2   0   6   46.70   30.55
  -2   0  -6    5.25   11.66
   2   0   7    1.42   37.06
   2   0   7    0.89   17.27
  -2   0  -7   -0.09   20.27
   2   0   812593.43  605.90
   2   0   9  -29.77   31.76
   2   0   9   10.31   14.73
   2   0  10 1116.43   80.24
   2   0  10 1275.37   94.50
   2   0  11   -1.49   30.05
   2   0  11   19.20   13.21
   2   0  12 6052.47  305.60
   2   0  12 6369.92  313.24
   2   0  13   41.62   34.15
   2   0  13    2.46   17.89
   2   0  14 2204.42  131.97
   2   0  14 2264.63  138.46
   2   0  15   53.54   51.26
   2   0  15   21.83   15.37
   2   0  16 4650.05  252.53
   2   0  16 4274.24  214.24
   2   0  17   -1.09   36.55
   2   0  17   -1.07   11.05
   2   0  18 1254.46  101.44
   2   0  18 1031.19  140.58
   2   0  19   16.27   40.50
   2   0  20 1443.91  108.02
   2   0  21  -11.55   33.18
  -2   1  22    2.83   33.20
  -2  -1  22   34.86   35.71
  -2   1  21  738.48   92.55
  -2  -1  21  670.86   68.58
   2  -1 -21  669.68   73.65
  -2   1  20  -14.74   33.76
  -2  -1  20  106.74   46.07
   2  -1 -20   83.94   48.91
  -2   1  19 2081.40  133.22
  -2  -1  19 1869.82  125.88
   2  -1 -19 1930.30  135.27
  -2   1  18   35.29   37.51
  -2  -1  18   49.17   40.81
   2  -1 -18   22.99   35.84
  -2   1  17   36.69   32.67
  -2  -1  17   54.23   32.13
   2  -1 -17  125.55   69.02
   2   1 -16    0.02    6.59
  -2   1  16   30.55   27.98
  -2  -1  16   23.62   42.38
   2  -1 -16   38.88   56.02
  -2   1  15  723.98   67.62
   2   1 -15  624.09   40.48
  -2  -1  15  695.16   65.12
   2  -1 -15  756.66   84.22
  -2   1  14   33.17   30.41
   2   1 -14   74.52   19.61
   2   1 -14   46.69   10.28
  -2  -1  14    7.72   31.04
   2  -1 -14  138.16   75.03
  -2   1  13 1402.00   93.64
   2   1 -13 1348.69   70.60
   2   1 -13 1406.93   72.61
  -2  -1  13 1327.50   85.24
   2  -1 -13 1649.67  125.35
  -2   1  12  209.81   51.16
   2   1 -12  212.61   22.57
   2   1 -12  185.04   31.74
  -2  -1  12  225.45   45.14
   2  -1 -12   80.33   54.13
  -2   1  11 1781.78  104.73
   2   1 -11 1699.29   85.33
   2   1 -11 1853.96   90.23
  -2  -1  11 1822.22  106.93
   2  -1 -11 1880.10  124.10
  -2   1  10  259.20   42.88
   2   1 -10  213.95   22.14
   2   1 -10  224.10   23.47
  -2  -1  10  225.86   34.80
   2  -1 -10   88.84   50.17
  -2   1   9 6668.98  327.48
   2   1  -9 6082.58  289.17
   2   1  -9 7090.01  336.00
  -2  -1   9 6725.91  327.56
   2  -1  -9 5819.50  296.92
  -2   1   8  488.55   48.78
   2   1  -8  484.62   31.34
   2   1  -8  515.04   43.35
  -2  -1   8  531.44   50.26
   2  -1  -8  286.25   82.48
  -2  -1   8  479.48   35.55
  -2   1   7 5323.03  260.58
   2   1  -7 5174.20  246.34
   2   1  -7 5654.58  276.08
  -2  -1   7 5344.79  260.91
  -2  -1   7 4707.17  225.78
  -2   1   6  287.18   44.08
  -2   1   6  194.03   45.23
   2   1  -6  302.97   30.22
   2   1  -6  289.91   23.49
  -2  -1   6  308.57   26.52
   2  -1  -6  248.30   52.98
  -2  -1   6  291.39   34.68
  -2   1   5   27.22   24.83
  -2   1   5   28.40   29.19
   2  -1  -5   60.43   30.29
  -2  -1   5   52.53   20.50
  -2  -1   5   21.92   17.06
   2  -1  -5   47.32   61.27
  -2   1   4   -6.11   20.71
   2   1  -4   80.43   27.02
  -2   1   4    3.23   28.69
   2   1  -4   73.39   19.69
   2  -1  -4   28.69   23.41
  -2  -1   4   20.72   23.30
   2  -1  -4  -28.99   35.53
  -2  -1   4   26.14   21.65
  -2   1   3 2928.97  145.15
   2   1  -3 3049.62  148.02
  -2   1   3 3248.47  173.11
   2   1  -3 2866.83  139.82
   2  -1  -3 3020.72  149.50
  -2  -1   3 3078.89  149.57
   2  -1  -3 3076.78  162.69
  -2  -1   3 2789.05  133.92
  -2   1   2   54.81   33.69
  -2   1   2   73.70   25.52
   2  -1  -2  109.97   41.23
   2  -1  -2   90.69   38.36
  -2  -1   2   84.65   17.73
   2  -1  -1  168.34   38.70
  -2   1   0 1195.22   76.33
  -2   1   0 1135.80   70.37
   2   1   0 1179.96   73.54
  -2  -1   0 1159.96   62.87
  -2  -1   0 1264.19   62.24
   2  -1   0 1170.70   74.57
   2  -1   0 1291.31   72.70
   2   1   1 9075.96  429.80
  -2   1  -110143.53  484.05
   2   1   1 9015.11  431.20
  -2  -1  -111845.83  559.34
   2  -1   110412.14  503.25
  -2  -1  -1 9606.22  457.96
   2  -1   113102.99  625.39
  -2   1  -2  378.59   37.97
   2   1   2  394.15   33.35
   2   1   2  405.38   46.87
   2  -1   2  367.53   70.13
   2  -1   2  429.95   63.37
  -2  -1  -2  382.91   39.95
   2  -1   2  374.66   41.69
  -2  -1  -2  412.62   34.43
   2   1   316546.00  783.21
  -2   1  -315322.39  726.24
  -2   1  -317042.32  813.20
   2   1   316911.97  802.55
  -2  -1  -318809.16  891.33
   2  -1   318864.16  894.25
   2  -1   316857.40  805.10
   2   1   4 2138.68  116.88
  -2   1  -4 1859.84   96.08
  -2   1  -4 2133.39  119.87
   2   1   4 2152.86  117.41
  -2  -1  -4 2402.98  126.17
   2  -1   4 2086.89  122.24
   2  -1   4 2054.46  106.10
  -2  -1  -4 2174.49  118.25
   2   1   5 7596.28  368.41
   2   1   5 7841.10  389.71
  -2   1  -5 7382.98  353.19
   2  -1   5 6792.89  334.40
   2  -1   5 7443.50  355.57
  -2  -1  -5 8108.23  391.40
   2   1   6   13.59   24.74
   2   1   6  100.41   36.46
  -2   1  -6   54.99   19.78
   2  -1   6   43.22   52.61
   2  -1   6   72.88   25.38
  -2  -1  -6   54.34   28.34
   2   1   7 1980.82  105.65
   2   1   7 2121.56  124.52
  -2   1  -7 2184.74  110.72
   2  -1   7 2100.52  120.84
   2  -1   7 2010.33  101.95
   2   1   8   40.50   32.95
   2   1   8   81.43   23.78
  -2   1  -8   14.26   11.41
   2  -1   8   45.82   35.58
   2  -1   8   33.85   19.54
   2   1   9 4045.72  205.30
   2   1   9 4306.04  215.70
  -2   1  -9 4713.97  229.48
   2  -1   9 4289.89  222.48
   2  -1   9 4166.12  202.00
   2   1  10   19.24   27.72
   2   1  10   37.57   16.21
  -2   1 -10   40.41   20.34
   2  -1  10  230.78   75.32
   2  -1  10   39.36   15.68
   2   1  11  786.41   67.70
   2   1  11  830.55  102.89
  -2   1 -11  723.35   44.91
   2  -1  11  886.11   86.79
   2  -1  11  738.38   61.97
   2   1  12   16.62   30.18
   2   1  12   52.06   21.95
  -2   1 -12   12.63    8.35
   2  -1  12  -26.45   35.80
   2  -1  12   21.93   14.82
   2   1  13 2676.07  150.61
   2   1  13 2852.48  194.36
   2  -1  13 2764.90  165.17
   2  -1  13 2741.04  141.10
   2   1  14   48.74   54.62
   2   1  14   67.53   29.45
   2  -1  14   -1.63   39.65
   2  -1  14   30.35   17.88
   2   1  15 4107.24  216.13
   2   1  15 4680.27  253.91
   2  -1  15 4500.36  220.39
   2  -1  15 4179.29  226.26
   2   1  16  -43.12   34.84
   2   1  16    2.61   10.77
   2  -1  16   48.22   50.78
   2   1  17  714.05   80.85
   2   1  17  553.06  118.24
   2  -1  17  697.47   84.84
   2   1  18   53.32   48.11
   2   1  18    7.34   18.78
   2  -1  18   81.07   55.69
   2   1  19 2073.42  130.90
   2   1  19 2077.29  169.64
   2  -1  19 2169.23  140.78
   2   1  20   66.91   38.47
   2  -1  20   43.71   42.46
   2   1  21  953.61  106.59
   2  -1  21 1321.55  123.62
  -2   2  21   57.53   50.52
  -2  -2  21  107.12   54.88
   2  -2 -21   23.83   40.92
  -2   2  20 1432.80  111.80
  -2  -2  20 1291.87  112.66
   2  -2 -20 1310.24  130.84
  -2   2  19   70.51   33.35
  -2  -2  19  101.38   52.90
   2  -2 -19   22.05   48.37
  -2   2  18 2138.15  145.09
  -2  -2  18 2244.08  144.55
   2  -2 -18 2352.06  165.42
  -2   2  17  351.25   72.73
  -2  -2  17  321.01   57.29
   2  -2 -17  444.37  112.91
  -2   2  16  796.15   74.43
  -2  -2  16  758.58   69.00
   2  -2 -16  440.40   85.29
  -2   2  15    1.50   31.33
  -2  -2  15    9.29   28.77
   2  -2 -15   26.38   47.40
  -2   2  14  669.34   69.10
  -2  -2  14  585.94   60.64
   2  -2 -14  448.13   80.48
  -2   2  13   12.87   27.11
  -2  -2  13    7.20   27.73
   2  -2 -13   34.69   54.36
  -2   2  12 5248.15  270.10
  -2  -2  12 5345.86  271.36
   2  -2 -12 5640.02  302.46
  -2   2  11 1045.08   78.20
  -2  -2  11  963.52   70.67
   2  -2 -11  370.74   68.70
  -2   2  10  768.27   63.91
  -2  -2  10  603.43   52.53
   2  -2 -10  445.62   78.69
  -2   2   9   -5.37   28.35
  -2  -2   9   -7.53   23.73
   2  -2  -9   13.65   90.24
  -2   2   821498.10 1022.28
  -2  -2   821423.66 1017.87
  -2   2   7 6276.77  309.96
   2   2  -7 6707.01  320.10
  -2  -2   7 6685.04  326.73
  -2  -2   7 6586.78  312.43
   2  -2  -7 6232.45  361.45
  -2   2   6 2739.45  146.57
   2   2  -6 2755.33  135.66
   2   2  -6 2432.36  129.52
  -2  -2   6 2605.90  136.44
  -2  -2   6 2667.44  129.29
   2  -2  -6 2523.96  161.82
  -2   2   5  382.45  145.50
   2   2  -5  382.36   29.16
  -2  -2   5  321.82   32.07
  -2  -2   5  369.07   25.11
   2  -2  -5  270.15   71.13
  -2   2   4 4785.74  246.18
   2   2  -4 5049.55  243.76
  -2  -2   4 5097.28  246.12
  -2  -2   4 5239.94  255.60
  -2  -2   4 4887.44  233.80
   2  -2  -4 5107.27  268.28
  -2   2   3   95.99   44.96
   2   2  -3   51.40   23.03
  -2  -2   3  139.30   35.29
  -2  -2   3   68.50   16.97
   2  -2  -3  122.75   62.27
  -2   2   2 3225.38  177.36
   2   2  -2 3186.27  158.82
  -2  -2   2 3699.45  186.20
  -2  -2   2 3576.45  179.42
  -2  -2   2 3560.89  174.40
   2  -2  -2 3519.81  195.66
   2   2  -1 1351.73  101.54
  -2   2   1 1243.57   83.10
   2   2  -1 1137.58   77.30
  -2  -2   1 1302.07   66.93
  -2  -2   1 1178.78   65.50
   2  -2  -1 1365.56   98.99
  -2  -2   0 7432.04  352.14
  -2   2  -1  153.40   81.43
   2   2   1  247.99   53.49
   2   2   1  193.99   49.69
  -2   2  -1  277.68   42.99
  -2  -2  -1  193.89   19.34
   2  -2   1  383.09   61.35
   2   2   2 1342.92   77.72
   2   2   2 1426.16   85.36
  -2   2  -2 1217.38   75.71
   2  -2   2 1128.28   90.75
   2  -2   2 1230.06   73.25
  -2  -2  -2 1348.39   71.31
   2   2   3  662.82   47.40
   2   2   3  244.73   92.88
  -2   2  -3  882.49   66.93
   2  -2   3  923.26   84.53
   2  -2   3 1077.35   72.26
  -2  -2  -3  632.59   39.80
   2   2   411567.65  551.15
  -2   2  -411610.79  555.61
  -2  -2  -412043.62  573.23
   2  -2   411594.40  555.35
   2  -2   411792.84  576.74
   2   2   5  309.56   37.31
   2   2   5  311.25   85.97
  -2   2  -5  305.69   35.44
   2  -2   5  425.48   78.54
   2  -2   5  338.88   38.68
   2   2   6  709.15   53.08
   2   2   6  778.74  127.20
  -2   2  -6  709.66   51.87
   2  -2   6  732.24   73.34
   2  -2   6  704.92   46.46
   2   2   7  276.99   36.71
   2   2   7  333.80   72.72
  -2   2  -7  291.37   27.87
   2  -2   7  403.41   69.04
   2  -2   7  331.77   29.04
   2   2   8 6163.01  304.43
   2   2   8 6054.29  305.90
  -2   2  -8 5347.21  258.99
   2  -2   8 5401.17  276.54
   2  -2   8 6079.99  291.05
   2   2   9   -4.16   26.66
   2   2   9   13.31   18.26
  -2   2  -9    4.83    9.25
   2  -2   9   42.13   40.02
   2  -2   9   -1.06    6.92
   2   2  10  682.32   60.44
   2   2  10  657.36  114.70
   2  -2  10  705.01   85.76
   2  -2  10  610.36   38.78
   2   2  11  420.23   57.75
   2   2  11  249.82   61.66
   2  -2  11  389.99   76.95
   2  -2  11  402.05   39.08
   2   2  12 1713.10  113.83
   2   2  12 1632.03  119.93
   2  -2  12 1749.23  124.54
   2  -2  12 1605.09   80.50
   2   2  13  661.26   73.46
   2   2  13  572.40  107.24
   2  -2  13  581.05   79.74
   2   2  14  261.42   58.99
   2   2  14  128.71   68.78
   2  -2  14  437.24   84.29
   2   2  15   76.56   46.39
   2   2  15   58.18   25.35
   2  -2  15   13.70   42.08
   2   2  16 1192.75   98.58
   2   2  16  936.23  201.55
   2  -2  16 1067.67   95.90
   2   2  17   49.10   49.33
   2   2  17   33.66   34.97
   2  -2  17   70.31   37.05
   2   2  18  887.79  105.95
   2   2  18  507.21  147.64
   2  -2  18  901.56  100.70
   2   2  19   57.70   35.25
   2  -2  19  106.17   61.99
   2   2  20  768.84   85.56
   2  -2  20  786.01   80.16
  -2  -2 -20  775.68  114.89
  -2   3  19 1025.48  104.26
  -2  -3  19  934.85   88.55
   2  -3 -19  465.37   83.51
  -2   3  18  187.96   53.24
  -2  -3  18  234.91   61.99
   2  -3 -18  122.50   51.60
  -2   3  17 1103.37   98.18
  -2  -3  17 1085.03   82.73
   2  -3 -17 1160.86  132.16
  -2   3  16   56.99   32.38
  -2  -3  16  124.41   39.29
   2  -3 -16  156.29   54.34
  -2   3  15  349.38   62.41
  -2  -3  15  334.64   66.23
   2  -3 -15   95.44   56.27
  -2   3  14    3.79   31.71
  -2  -3  14  -33.14   24.79
   2  -3 -14  -21.48   61.37
  -2   3  13 1751.40  116.74
  -2  -3  13 1706.83  111.61
   2  -3 -13 1768.21  142.72
  -2   3  12 6661.98  339.48
  -2  -3  12 6028.79  305.74
   2  -3 -12 6444.65  346.28
  -2   3  11 7621.77  383.27
  -2  -3  11 7533.53  375.10
   2  -3 -11 7262.73  389.24
  -2   3  10 2235.94  134.45
  -2  -3  10 2463.87  144.68
   2  -3 -10 2077.70  181.04
  -2   3   9 2270.95  165.24
  -2  -3   9 2376.74  137.77
   2  -3  -9 2135.55  159.37
  -2   3   8 5787.57  310.54
  -2  -3   8 5594.09  281.35
  -2  -3   8 5678.12  270.22
  -2  -3   8 5723.27  275.55
   2  -3  -8 5159.76  289.37
  -2   3   715310.57  739.69
  -2  -3   714975.44  718.24
  -2  -3   716169.00  763.66
   2  -3  -715269.67  748.96
  -2  -3   716264.10  774.24
  -2   3   6 1337.31  137.66
  -2  -3   6 1192.09   74.60
  -2  -3   6 1226.80   63.78
   2  -3  -6 1138.53  115.65
  -2   3   5 1164.06  143.39
   2   3  -5 1148.09   87.44
  -2  -3   5 1524.27   94.12
  -2  -3   5 1187.91   63.93
   2  -3  -5 1115.65  112.56
  -2   3   4 2088.35  174.23
   2   3  -4 1467.20  106.01
  -2  -3   4 1329.09   81.28
   2  -3  -4 1785.53  130.34
  -2   3   3 2625.66  152.52
   2   3  -3 2594.02  136.03
  -2  -3   3 2464.27  134.04
  -2  -3   3 2538.72  130.47
   2  -3  -3 2752.57  176.87
  -2   3   2 1009.72   95.18
   2   3  -2  983.68   82.94
  -2  -3   2 1072.30   74.65
  -2  -3   2 1017.99   79.40
   2  -3  -2 1115.76  102.70
  -2   3   1 6883.71  370.65
   2   3  -1 6968.02  346.77
   2   3  -1 6591.41  318.85
  -2  -3   1 7346.26  351.50
   2  -3  -1 7105.44  362.28
   2   3   0 6071.33  307.41
  -2   3   0 6006.73  323.50
   2   3   0 5691.85  287.83
  -2  -3   0 6168.97  295.81
   2  -3   0 5756.86  294.64
  -2   3  -1 2605.13  183.90
   2   3   1 2327.27  146.13
   2   3   1 2216.40  125.01
   2  -3   1 2357.70  136.26
   2   3   2  521.23   77.93
   2   3   2  190.78  102.79
   2  -3   2  525.37   57.99
   2   3   311578.85  562.89
   2   3   311732.13  571.03
   2  -3   310658.27  525.28
   2  -3   311490.63  556.37
   2   3   4 1013.03  118.87
   2   3   4 1030.79  186.45
   2  -3   4  970.04   94.87
   2  -3   4 1004.65   73.14
   2   3   5 3111.68  163.03
   2   3   5 3139.88  164.05
   2  -3   5 3318.75  193.18
   2  -3   5 3210.68  164.09
   2   3   6  572.08   51.65
   2   3   6  528.38  113.93
  -2   3  -6  465.60   40.26
   2  -3   6  656.12   74.61
   2  -3   6  507.38   42.64
   2   3   7 1636.00   98.75
   2   3   7 1434.71   99.59
   2  -3   7 1492.77  105.40
   2  -3   7 1532.57   87.00
   2   3   8  591.47   59.05
   2   3   8  635.54  117.98
   2  -3   8  593.17   73.57
   2  -3   8  553.54   39.72
   2   3   9  933.27   71.37
   2   3   9  873.27  130.59
   2  -3   9  884.69   81.95
   2  -3   9  807.96   48.24
   2   3  10  313.41   42.33
   2   3  10  337.65   77.11
   2  -3  10  246.60   58.94
   2   3  11   32.85   26.52
   2   3  11   66.13   35.10
   2  -3  11  102.40   57.58
   2   3  12   29.16   43.29
   2   3  12   29.54   31.62
   2  -3  12  107.07   65.07
   2   3  13 1317.45  100.91
   2   3  13 1178.85  212.03
   2  -3  13 1481.67  121.84
   2   3  14  871.95   77.40
   2   3  14  714.36  156.82
   2  -3  14  807.27   90.97
   2   3  15  122.65   44.32
   2   3  15   92.65   38.54
   2  -3  15   99.91   66.27
   2   3  16  129.51   45.07
   2   3  16  142.38   52.93
   2  -3  16  354.81   90.21
   2   3  17 1011.85   94.00
   2  -3  17  997.14   96.35
   2   3  18   85.36   33.47
   2  -3  18  181.38   61.14
  -2   4  17  384.62   63.86
  -2  -4  17  438.11   60.32
   2  -4 -17  245.42   70.83
  -2   4  16 2920.74  282.66
  -2  -4  16 2946.68  171.13
   2  -4 -16 3115.75  231.97
  -2   4  15   65.03   31.65
  -2  -4  15  217.07   52.19
   2  -4 -15   55.21   64.47
  -2   4  14 2763.16  283.68
  -2  -4  14 2892.92  164.51
   2  -4 -14 2905.69  215.52
  -2   4  13  463.84  151.66
  -2  -4  13  781.75   88.07
   2  -4 -13  482.19  100.86
  -2   4  12  741.87   96.32
  -2  -4  12  827.77   71.15
   2  -4 -12  937.94  143.85
  -2   4  11   88.45   49.22
  -2  -4  11  178.62   41.77
   2  -4 -11    0.98   60.91
  -2   4  10  461.81  100.00
  -2  -4  10  425.34   60.08
   2  -4 -10  254.16   78.20
  -2   4   9  297.54   83.14
  -2  -4   9  235.16   47.58
   2  -4  -9  257.00   94.26
  -2   4   8  706.80  163.26
  -2  -4   8  716.57   61.53
   2  -4  -8  362.32   88.98
  -2   4   7  675.48  101.78
  -2  -4   7  584.42   53.38
  -2  -4   7  596.81   53.65
   2  -4  -7  434.82   84.12
  -2   4   6  281.11   67.97
  -2  -4   6  288.80   43.70
   2  -4  -6  330.14   75.79
  -2  -4   6  225.76   41.58
  -2   4   5  607.93  102.92
  -2  -4   5  609.56   52.82
  -2  -4   5  567.66   58.20
   2  -4  -5  440.24   94.99
  -2   4   414771.68  746.89
  -2  -4   415079.72  724.82
   2  -4  -415082.33  743.38
  -2  -4   413321.41  645.62
  -2   4   3 3163.71  216.44
  -2  -4   3 2920.63  158.82
   2  -4  -3 3251.67  205.11
  -2   4   2 2310.79  178.07
   2   4  -2 2336.87  128.86
  -2  -4   2 2109.45  119.43
   2  -4  -2 2518.21  168.04
  -2   4   1   43.23   39.51
   2   4  -1   46.11   34.42
   2  -4  -1   68.06   61.54
   2   4   0 2902.53  171.28
  -2   4   0 2711.18  166.64
   2   4   0 2837.45  154.91
   2  -4   0 2432.12  144.78
   2   4   1  206.02   29.29
  -2   4  -1  171.58   39.96
   2   4   1   50.66   35.31
   2  -4   1   86.75   39.74
   2   4   2  972.22   82.52
   2   4   2  990.01  174.37
   2  -4   2  504.00   78.72
   2  -4   2  539.51   70.18
   2   4   3  198.59   36.21
   2   4   3  165.35   71.58
   2  -4   3  843.98   93.20
   2   4   4 1073.11  126.60
   2   4   4 1218.80  130.81
   2  -4   4  970.80   99.12
   2  -4   4  986.99   72.82
   2   4   5  489.95   86.33
   2   4   5  412.61   84.02
   2  -4   5  564.22   85.65
   2  -4   5  538.89   54.81
   2   4   6  452.26  102.78
   2   4   6  464.93  100.04
   2  -4   6  495.72   87.63
   2  -4   6  535.77   48.58
   2   4   7 2026.33  156.92
   2   4   7 2047.42  123.41
   2  -4   7 2025.00  147.24
   2  -4   7 2141.77  115.25
   2   4   8 3300.71  236.11
   2   4   8 3440.05  195.17
   2  -4   8 3563.26  203.87
   2   4   9  191.01   58.31
   2   4   9  162.41   46.78
   2  -4   9  203.58   51.39
   2   4  10 1374.06  111.13
   2   4  10 1355.69  231.10
   2  -4  10 1303.07  109.48
   2   4  11   80.02   43.64
   2   4  11    4.07   19.50
   2  -4  11   58.54   61.71
   2   4  12 1103.33   93.09
   2   4  12  804.23  212.82
   2  -4  12 1122.79  104.76
   2   4  13   25.19   27.65
   2   4  13  -11.26   34.19
   2  -4  13  -14.49   40.79
   2   4  14  480.33   64.83
   2  -4  14  718.32   92.52
   2   4  15   25.95   27.88
   2  -4  15   32.34   46.96
  -2  -4 -15   20.68   65.27
  -2   5  13   95.09   45.48
   2  -5 -13  127.76   89.32
  -2   5  12   33.71   24.49
   2  -5 -12  112.27  101.65
  -2   5  11  442.19  131.24
   2  -5 -11  623.61  127.01
  -2   5  10  105.10   45.63
   2  -5 -10   16.02   56.35
  -2   5   9 1451.25  150.84
  -2  -5   9 1333.28   91.41
   2  -5  -9 1500.84  155.46
  -2   5   8   17.71   18.63
  -2  -5   8   61.19   40.73
   2  -5  -8  -38.71   53.02
  -2   5   7  169.97   56.69
  -2  -5   7  148.53   33.53
   2  -5  -7  177.99   78.90
  -2   5   6  113.02   45.51
  -2  -5   6   54.31   31.32
   2  -5  -6   13.43   55.82
  -2   5   5 1282.53  185.77
  -2  -5   5 1315.25   91.08
   2  -5  -5 1306.83  139.11
  -2   5   4   98.47   51.90
  -2  -5   4   84.51   30.78
  -2  -5   4   42.70   37.59
   2  -5  -4  147.46  113.42
  -2   5   3  289.16   94.59
  -2  -5   3  311.27   48.60
  -2  -5   3  320.86   52.15
   2  -5  -3  225.28   76.63
  -2   5   2  465.53  135.10
  -2  -5   2  592.45   68.07
  -2  -5   2  696.17   83.27
   2  -5  -2  762.51  100.35
  -2   5   1  300.99   73.54
  -2  -5   1  487.36   67.30
   2  -5  -1  296.56   76.48
  -2  -5   1  358.24   69.36
  -2   5   0   39.56   46.28
   2  -5   0   21.71   38.07
  -2  -5   0   94.96   64.03
   2   5   1 2711.38  173.93
   2  -5   1 2557.64  176.48
   2  -5   1 2692.43  159.39
  -2  -5  -1 2746.43  184.09
   2   5   2   47.43   20.84
   2  -5   2    2.27   45.92
   2  -5   2   75.93   52.90
  -2  -5  -2   73.84   78.42
   2   5   3  196.60   47.70
   2  -5   3  103.19   67.24
   2  -5   3   57.76   42.43
  -2  -5  -3  470.82   95.84
   2   5   4   34.77   27.66
   2  -5   4   99.21   66.61
   2  -5   4  108.29   44.77
  -2  -5  -4  150.65  110.19
   2   5   5 2017.98  175.46
   2  -5   5 2188.75  154.38
  -2  -5  -5 2049.13  167.65
   2   5   6    2.52   12.89
   2  -5   6  119.22   73.34
  -2  -5  -6   -1.94   61.57
   2   5   7  574.80   96.99
   2  -5   7  689.95   85.51
  -2  -5  -7  494.35  102.35
   2   5   8   63.62   30.21
   2  -5   8   26.58   41.06
  -2  -5  -8   87.71   60.96
   2   5   9  167.48   48.44
   2  -5   9  292.12   70.33
  -2  -5  -9  130.91   64.65
   2   5  10   46.65   17.43
   2  -5  10    0.24   40.13
  -2  -5 -10   46.26   66.56
   2   5  11 1346.48  117.44
   2  -5  11 1323.33  110.87
  -2  -5 -11 1898.11  183.86
  -2   6   3   11.40   32.34
   2  -6  -3  169.65   72.04
  -2   6   2  135.61   65.75
   2  -6  -2  122.64   58.70
   2  -6  -1   94.87   60.92
   2  -6  -1   37.86   46.40
   2  -6   0 1241.45  118.82
   2  -6   0 1123.97   96.93
  -2  -6   0 1174.60  107.29
   2  -6   1  348.87   80.56
  -2  -6  -1  321.84   71.61
  -3   0  22   19.38   33.14
  -3   0  21  322.80   63.08
  -3   0  20   15.46   31.91
  -3   0  19 1137.57  102.63
  -3   0  18   25.68   29.71
   3   0 -18   66.36   42.63
  -3   0  17 1328.35   94.75
  -3   0  16   44.49   41.22
  -3   0  15 1126.95   82.64
   3   0 -15 1126.04   78.86
  -3   0  14   13.58   26.56
  -3   0  13 1740.62  101.72
   3   0 -13 1778.49  107.99
   3   0 -12  459.04   61.28
  -3   0  11 6117.86  300.52
   3   0 -11 6362.27  316.14
  -3   0  10   -2.79   21.36
   3   0 -10   10.15   25.64
  -3   0  10   19.16   18.64
  -3   0   9 1261.64   74.41
   3   0  -9 1229.84   80.26
  -3   0   9 1264.07   77.93
  -3   0   8  -12.64   19.89
   3   0  -8  -14.06   27.95
  -3   0   8   24.20   30.18
   3   0  -710731.14  511.37
  -3   0   710485.33  500.73
  -3   0   6   26.55   30.58
   3   0  -6   20.04   18.87
   3   0  -6   13.81   24.48
  -3   0   6    1.38   22.80
  -3   0   5  184.34   25.58
   3   0  -5  323.98   28.01
   3   0  -5  203.93   36.20
  -3   0   5  254.00   45.72
  -3   0   4    1.89   14.18
   3   0  -4   22.83   21.83
   3   0  -4   72.06   42.42
  -3   0   4    1.71   22.73
  -3   0   3 3782.71  181.93
   3   0  -3 3834.72  184.60
  -3   0   3 3866.25  192.47
   3   0  -3 4133.10  209.26
  -3   0   2   -4.37   10.16
   3   0  -2    7.68   13.77
   3   0  -2   28.40   26.60
  -3   0   2   45.80   28.84
  -3   0   111228.80  531.73
   3   0  -111218.56  530.18
  -3   0   112719.99  607.53
   3   0   0    1.63    5.72
   3   0   0   23.69   26.46
   3   0   0   17.45   19.97
  -3   0   0   21.38   22.58
   3   0   112734.13  602.59
   3   0   112966.22  617.89
   3   0   112654.79  603.11
  -3   0  -112821.50  611.03
  -3   0  -2    6.48   23.45
   3   0   2    3.79   22.71
  -3   0  -2    2.84   19.21
   3   0   2   16.52   21.46
   3   0   3 1978.28  112.62
  -3   0  -3 2206.54  121.51
   3   0   3 2186.43  122.13
  -3   0  -3 2143.64  115.45
   3   0   4   34.85   41.26
  -3   0  -4    1.57   29.45
   3   0   4   -2.29   16.41
  -3   0  -4    7.07   18.11
   3   0   510438.27  504.78
   3   0   5 9611.83  460.74
   3   0   6  -21.60   29.00
   3   0   6   27.63   20.23
   3   0   7 1988.75  122.34
   3   0   7 1800.92  100.77
   3   0   8   20.29   26.67
   3   0   8   26.31   15.63
   3   0   9 1112.73   77.97
   3   0   9 1188.05  130.35
   3   0  10  -13.57   32.88
   3   0  10   -1.89    9.27
   3   0  11 7295.98  363.72
   3   0  11 7569.19  369.69
   3   0  12   -0.10   32.12
   3   0  12   -2.57   10.64
   3   0  13  170.94   61.64
   3   0  13  232.44   53.48
   3   0  14   47.03   47.87
   3   0  14    7.63   16.63
   3   0  15 2114.16  134.42
   3   0  15 2189.74  144.38
   3   0  16   40.39   39.79
   3   0  16    9.51   11.40
   3   0  17 4443.10  242.93
   3   0  17 4253.09  272.70
   3   0  18   61.73   42.55
   3   0  19   97.94   61.37
   3   0  20   85.32   57.55
  -3   1  22  202.53   54.45
  -3  -1  22  170.33   50.25
  -3   1  21   23.86   31.43
  -3  -1  21   71.93   47.36
   3  -1 -21   80.48   44.24
  -3   1  20  319.43   66.68
  -3  -1  20  270.00   46.41
   3  -1 -20  313.38   55.95
  -3   1  19  229.21   68.60
  -3  -1  19  162.22   49.10
   3  -1 -19   58.43   43.96
  -3   1  18   80.49   43.55
  -3  -1  18   91.67   43.17
   3  -1 -18   74.86   53.04
  -3   1  17   33.47   30.51
  -3  -1  17   19.91   39.86
   3  -1 -17    4.08   33.00
  -3   1  16 5752.58  291.72
  -3  -1  16 5829.43  294.63
   3  -1 -16 5472.00  285.72
  -3   1  15 1288.58   98.14
   3   1 -15 1264.52   69.49
  -3  -1  15 1252.60   86.46
   3  -1 -15 1271.06  100.30
  -3   1  14 1912.32  119.96
   3   1 -14 1999.28  103.20
   3   1 -14 1954.69   97.42
  -3  -1  14 1898.54  111.53
   3  -1 -14 2050.80  133.64
  -3   1  13 1745.36  103.65
   3   1 -13 1850.23   95.29
   3   1 -13 1917.61   97.35
  -3  -1  13 1805.05  104.24
   3  -1 -13 1924.96  131.80
  -3   1  12 2455.24  132.68
   3   1 -12 2563.30  127.94
   3   1 -12 2623.53  128.70
  -3  -1  12 2453.16  129.78
   3  -1 -12 2813.88  163.63
  -3   1  11    7.51   27.01
   3   1 -11   19.22   15.20
  -3  -1  11   27.55   33.72
   3  -1 -11   22.29   39.15
  -3  -1  11   54.39   38.80
  -3   1  10  472.28   54.52
   3   1 -10  359.39   30.34
  -3  -1  10  332.39   36.29
   3  -1 -10  222.38   53.38
  -3  -1  10  271.03   27.35
  -3   1   9  278.27   44.85
   3   1  -9  244.62   25.59
  -3  -1   9  279.19   33.05
   3  -1  -9  107.63   48.69
  -3  -1   9  275.96   32.54
  -3   1   8  440.40   52.63
   3   1  -8  374.66   29.30
   3   1  -8  454.84   40.59
  -3  -1   8  382.73   35.40
   3  -1  -8  191.51   46.69
  -3  -1   8  385.42   32.54
  -3   1   7  319.06   48.80
   3   1  -7  310.39   29.32
   3   1  -7  303.08   32.49
  -3  -1   7  294.46   24.98
   3  -1  -7  190.73   67.81
  -3  -1   7  337.04   33.35
  -3   1   6 4644.75  229.17
   3   1  -6 4467.02  216.09
   3   1  -6 4842.41  235.64
  -3  -1   6 4262.62  205.80
  -3  -1   6 4627.98  225.19
   3  -1  -6 4445.54  233.72
  -3   1   5 2282.68  121.36
   3   1  -5 2356.79  120.36
   3   1  -5 2479.13  126.63
  -3  -1   5 2283.93  114.19
  -3  -1   5 2470.74  126.33
   3  -1  -5 2363.01  144.87
  -3   1   422835.30 1080.10
   3   1  -424985.71 1177.79
   3   1  -425281.27 1193.96
   3  -1  -424162.12 1141.85
  -3  -1   423246.15 1094.96
  -3  -1   427467.39 1297.45
  -3   1   3 4807.77  249.76
   3   1  -3 4587.36  217.95
  -3   1   3 4438.10  224.70
   3   1  -3 4690.10  230.28
   3  -1  -3 5083.10  247.17
  -3  -1   3 4844.52  237.76
   3  -1  -3 5562.51  287.69
  -3  -1   3 4510.12  213.64
   3   1  -2 1011.38   61.35
  -3   1   2 1144.70   69.18
  -3   1   2 1487.35   94.40
  -3  -1   2 1111.07   62.91
   3  -1  -2 1149.50   63.26
   3  -1  -2 1153.47   95.93
  -3   1   1   23.16   17.26
  -3   1   1   44.89   41.67
   3   1  -1    0.64   22.98
   3  -1  -1    1.26   11.80
   3  -1  -1   85.30   54.15
  -3  -1   1    1.92   21.02
  -3   1   023314.34 1102.81
   3   1   024148.91 1141.26
   3  -1   024153.74 1141.11
  -3  -1   027600.19 1303.18
   3   1   1  100.66   25.34
   3   1   1  143.93   35.27
  -3  -1  -1   86.99   23.09
  -3  -1  -1  146.95   30.19
   3  -1   1  189.66   49.44
   3   1   2   96.33   30.34
   3   1   2   69.44   28.92
  -3   1  -2   84.98   29.94
   3  -1   2   34.12   31.74
   3  -1   2  103.69   47.47
   3  -1   2  126.36   45.43
  -3  -1  -2   65.26   23.98
   3   1   3  -13.44   18.04
   3   1   3   -3.89   22.75
  -3   1  -3   12.28   22.75
   3  -1   3   41.60   47.95
   3  -1   3    1.84   20.24
  -3  -1  -3  -19.19   17.12
   3   1   415657.92  744.67
   3   1   414035.74  669.66
  -3   1  -414631.43  696.52
   3  -1   414799.20  713.93
   3  -1   414615.55  695.99
  -3  -1  -416634.18  790.84
   3   1   5  106.31   43.55
   3   1   5  183.23   33.71
  -3   1  -5  213.85   31.03
   3  -1   5  193.25   58.54
   3  -1   5   49.55   18.41
  -3  -1  -5  129.95   23.74
   3   1   6  122.28   40.89
   3   1   6  267.72   61.46
  -3   1  -6  197.17   27.83
   3  -1   6  232.91   54.61
   3  -1   6   72.27   20.35
   3   1   7 3309.61  172.66
   3   1   7 3184.95  166.02
  -3   1  -7 3288.28  166.56
   3  -1   7 2983.20  161.38
   3  -1   7 3057.64  152.04
   3   1   8 4075.94  208.58
   3   1   8 3823.03  193.80
   3  -1   8 3731.46  201.53
   3  -1   8 3725.53  184.59
   3   1   9   20.15   46.01
   3   1   9  119.01   34.53
   3  -1   9   93.91   53.53
   3  -1   9   89.10   31.16
   3   1  10 5756.87  287.22
   3   1  10 5599.11  283.09
   3  -1  10 5835.17  301.62
   3  -1  10 5498.74  273.33
   3   1  11   -4.50   33.24
   3   1  11    5.05   10.00
   3  -1  11    7.02   11.00
   3  -1  11   41.54   61.07
   3   1  12 4898.26  253.70
   3   1  12 5131.46  257.75
   3  -1  12 4950.22  242.30
   3  -1  12 4811.63  253.45
   3   1  13  530.53   59.00
   3   1  13  533.84  101.42
   3  -1  13  409.37   70.10
   3  -1  13  507.18   81.10
   3   1  14 1424.73   99.30
   3   1  14 1428.40  150.11
   3  -1  14 1466.65  114.25
   3  -1  14 1315.66  105.72
   3   1  15  182.92   48.91
   3   1  15  288.68   54.91
   3  -1  15  236.62   55.16
   3  -1  15  248.50   61.06
   3   1  16  910.70   83.17
   3   1  16  860.60  157.55
   3  -1  16  759.34   84.24
   3   1  17 1960.24  127.01
   3   1  17 1622.85  203.96
   3  -1  17 1815.18  130.45
   3   1  18    6.76   40.35
   3   1  18   35.66   25.43
   3  -1  18   82.06   64.47
   3   1  19  428.04   78.87
   3   1  19  294.57   73.92
   3  -1  19  440.25   82.39
   3   1  20 1761.26  122.73
   3  -1  20 1831.94  130.06
  -3   2  21  707.00   78.37
  -3  -2  21  960.22   86.63
   3  -2 -21  461.42   72.60
  -3   2  20   46.76   36.91
  -3  -2  20   95.28   41.50
   3  -2 -20  100.90   67.11
  -3   2  19  478.36   77.04
  -3  -2  19  489.11   59.85
   3  -2 -19  752.47  105.58
  -3   2  18    6.37   29.65
  -3  -2  18   -5.56   23.55
   3  -2 -18  -29.21   45.64
  -3   2  17  154.48   55.73
  -3  -2  17   84.38   32.20
   3  -2 -17  234.63   74.63
  -3   2  16   47.37   45.54
  -3  -2  16   -5.68   24.43
   3  -2 -16  -29.53   47.35
  -3   2  15   66.06   50.92
  -3  -2  15   80.22   38.32
   3  -2 -15   88.74   64.22
  -3   2  14  865.11   76.30
  -3  -2  14  885.22   72.61
   3  -2 -14 1047.66  114.40
  -3   2  13 1072.02   90.81
  -3  -2  13 1060.38   71.54
   3  -2 -13  567.44   87.61
  -3   2  12 2480.84  140.89
  -3  -2  12 2787.78  157.99
   3  -2 -12 2577.64  171.38
  -3   2  1117109.53  821.96
  -3  -2  1117025.13  812.05
   3  -2 -1117845.85  871.39
  -3   2  10 2427.92  139.95
  -3  -2  10 2371.78  128.04
  -3  -2  10 2619.80  128.50
  -3   2   9 1852.41  110.23
   3   2  -9 2013.93   98.61
  -3  -2   9 1953.67  110.57
   3  -2  -9 2189.55  144.80
  -3   2   8  651.50   62.12
   3   2  -8  531.84   43.40
   3   2  -8  450.40   37.45
  -3  -2   8  525.73   43.97
  -3  -2   8  476.11   31.56
   3  -2  -8  209.38   80.24
  -3   2   7 3028.04  182.00
   3   2  -7 2877.47  142.59
   3   2  -7 2827.40  145.54
  -3  -2   7 2780.30  142.65
  -3  -2   7 2948.21  145.55
   3  -2  -7 3700.91  216.37
  -3   2   6 1461.85  107.02
   3   2  -6 1507.97   79.89
   3   2  -6 1467.45   80.45
  -3  -2   6 1513.33   81.52
  -3  -2   6 1528.07   78.65
   3  -2  -6 1641.80  127.59
  -3   2   5  915.66  109.98
   3   2  -5  785.97   54.23
  -3  -2   5  851.51   64.54
  -3  -2   5  849.30   47.99
  -3  -2   5  840.10   47.81
   3  -2  -5  743.85   76.50
  -3   2   4 2632.12  142.02
   3   2  -4 2721.98  136.37
  -3  -2   4 2789.41  137.69
  -3  -2   4 2768.51  135.87
  -3  -2   4 2924.93  145.18
   3  -2  -4 2552.46  150.36
  -3   2   3  199.39   81.30
   3   2  -3  320.76   39.43
  -3  -2   3  391.70   30.31
  -3  -2   3  322.83   44.26
  -3  -2   3  309.81   34.14
   3  -2  -3  687.87   81.93
  -3   2   2  574.61  109.28
   3   2  -2  519.49   56.63
  -3  -2   2  480.98   31.80
  -3  -2   2  509.25   28.65
  -3  -2   2  470.89   35.30
   3  -2  -2  533.78   75.44
  -3  -2   1 5761.82  272.53
   3   2   0  403.33   41.16
   3   2   0  478.96   53.63
  -3  -2   0  401.69   25.06
   3  -2   0  541.32   60.65
  -3   2  -115103.01  731.50
   3   2   115684.90  741.15
   3   2   115724.54  749.36
  -3  -2  -112613.69  595.77
   3   2   2   42.10   21.98
   3   2   2   49.23   28.34
  -3  -2  -2   60.43   15.94
   3  -2   2  116.76   46.68
   3   2   3 3300.16  160.97
   3   2   3 3465.07  176.44
   3  -2   3 3261.71  180.74
  -3  -2  -3 3484.48  171.29
   3  -2   3 3196.55  162.08
   3   2   4 1252.40   70.69
   3   2   4 1463.13  144.61
   3  -2   4 1349.78  104.29
  -3  -2  -4 1335.20   72.35
   3  -2   4 1301.99   76.05
   3   2   5 9012.04  431.88
   3   2   5 9237.33  458.17
   3  -2   5 8742.99  434.57
   3   2   6  540.00   47.43
   3   2   6  591.89  108.81
  -3   2  -6  426.49   43.12
   3  -2   6  543.53   78.30
   3  -2   6  565.98   49.11
   3   2   7  845.04   58.82
   3   2   7  857.09  146.12
  -3   2  -7  942.19   57.88
   3  -2   7  827.08   86.11
   3  -2   7  828.59   52.44
   3   2   8   34.66   30.18
   3   2   8   43.70   22.92
  -3   2  -8   56.31   20.66
   3  -2   8   96.55   42.29
   3  -2   8   34.31   19.37
   3   2   9 2571.96  146.22
   3   2   9 2401.64  182.47
   3  -2   9 2214.60  137.05
   3  -2   9 2179.70  111.84
   3   2  10 2130.99  123.29
   3   2  10 2127.11  122.61
  -3   2 -10 1920.06  101.54
   3  -2  10 2020.64  131.59
   3  -2  10 2158.87  110.72
   3   2  11  205.63   41.85
   3   2  11  211.51   50.12
   3  -2  11  202.83   67.97
   3  -2  11  252.27   29.86
   3   2  12 1282.14   93.44
   3   2  12 1115.53  137.31
   3  -2  12  965.87   98.18
   3  -2  12 1061.11   77.58
   3   2  13 2057.10  125.93
   3   2  13 1810.01  196.25
   3  -2  13 2060.95  138.82
   3   2  14   62.89   55.26
   3   2  14   30.22   23.11
   3  -2  14  140.44   70.15
   3   2  15 3567.25  206.97
   3   2  15 3166.14  289.03
   3  -2  15 3277.87  192.86
   3   2  16   50.03   51.05
   3   2  16   28.06   20.71
   3  -2  16  115.51   60.37
   3   2  17 1128.29   92.30
   3   2  17  801.07  220.09
   3  -2  17  954.07   97.08
   3   2  18   21.19   29.67
   3   2  18   53.86   35.31
   3  -2  18   51.19   44.35
   3   2  19  702.98   83.32
   3   2  19  410.82  137.51
   3  -2  19  721.98   90.75
  -3   3  19   87.20   49.43
  -3  -3  19  115.56   52.87
   3  -3 -19  116.23   89.13
  -3   3  18 1057.86   99.40
  -3  -3  18 1159.65   92.51
   3  -3 -18 1245.00  121.99
  -3   3  17   54.02   46.46
  -3  -3  17   96.63   40.59
   3  -3 -17  113.89   55.03
  -3   3  16 1653.35  113.70
  -3  -3  16 1718.64  116.09
   3  -3 -16 1975.29  169.29
  -3   3  15   57.39   56.30
  -3  -3  15  117.14   39.76
   3  -3 -15  136.94   80.00
  -3   3  14  155.73   44.56
  -3  -3  14  102.62   41.69
   3  -3 -14  127.93  102.64
  -3   3  13  306.59   65.67
  -3  -3  13  266.11   48.63
   3  -3 -13  280.21   96.57
  -3   3  12 5340.51  279.87
  -3  -3  12 5286.48  267.28
   3  -3 -12 5786.66  321.81
  -3   3  11 1169.58  127.16
  -3  -3  11 1116.58   73.43
   3  -3 -11 1280.30  124.91
  -3   3  10   70.67   21.20
  -3  -3  10   28.83   21.66
   3  -3 -10    4.29   69.95
  -3   3   9  183.40   48.84
  -3  -3   9  161.57   34.32
   3  -3  -9   21.04   52.02
  -3   3   8 5495.64  303.95
   3   3  -8 5686.24  276.73
  -3  -3   8 5768.57  285.19
   3  -3  -8 5676.53  308.39
  -3   3   7 2325.88  176.57
   3   3  -7 2390.83  125.77
  -3  -3   7 2454.57  130.00
  -3  -3   7 2471.60  122.96
   3  -3  -7 2398.31  173.23
  -3   3   6 3949.20  230.43
   3   3  -6 3970.38  198.62
  -3  -3   6 3972.91  197.94
  -3  -3   6 3991.81  194.08
   3  -3  -6 4137.98  236.38
  -3   3   5  525.30  102.56
   3   3  -5  424.28   83.71
  -3  -3   5  406.15   35.88
  -3  -3   5  340.34   45.24
   3  -3  -5  352.85   85.18
  -3   3   4 4038.07  213.89
   3   3  -4 4076.99  215.64
  -3  -3   4 4263.08  210.92
  -3  -3   4 4150.80  204.88
   3  -3  -4 3593.03  198.81
  -3   3   3   57.01   29.88
   3   3  -3   -1.25   18.78
  -3  -3   3   65.58   35.04
  -3  -3   3   16.00    9.65
   3  -3  -3  111.93   53.90
  -3   3   2 3649.11  192.76
   3   3  -2 3631.31  186.88
  -3  -3   2 3559.09  178.36
  -3  -3   2 3701.95  179.37
   3  -3  -2 3376.47  191.52
  -3   3   1  433.76  111.39
   3   3  -1  203.39   60.62
  -3  -3   1  346.49   25.53
   3  -3  -1  361.58   65.99
  -3   3   0 2930.18  153.96
   3   3   0 3002.08  150.98
   3   3   0 2896.90  166.77
  -3  -3   0 2895.34  141.20
   3  -3   0 2838.95  159.73
  -3   3  -1 1025.01  127.25
   3   3   1  948.37   61.15
   3   3   1  947.62   91.96
  -3  -3  -1 1039.48   57.00
   3  -3   1  958.11   71.58
   3   3   2  990.53   75.72
   3   3   2 1008.59  152.48
   3  -3   2  937.76   86.75
  -3  -3  -2  962.38   54.04
   3  -3   2 1047.62   74.67
   3   3   3 1458.43   99.68
   3   3   3 1471.95   93.45
   3  -3   3 1567.88  116.92
   3  -3   3 1665.69  106.59
   3   3   4 4205.78  219.55
   3   3   4 4664.26  244.12
   3  -3   4 4388.57  238.92
   3  -3   4 4009.40  206.11
   3   3   5   -8.38   14.25
   3   3   5  -20.89   31.38
   3  -3   5   24.77   46.66
   3  -3   5    7.59   18.94
   3   3   6 1422.20   82.07
   3   3   6 1447.63   94.18
   3  -3   6 1385.88  116.29
   3  -3   6 1448.22   81.79
   3   3   7  139.08   23.55
   3   3   7  119.40   45.09
   3  -3   7  154.51   65.11
   3  -3   7  168.33   32.69
   3   3   8 4072.16  204.56
   3   3   8 4187.43  223.86
   3  -3   8 4421.29  242.67
   3  -3   8 4137.98  203.74
   3   3   9   47.69   22.19
   3   3   9  168.79   51.24
   3  -3   9   69.10   57.05
   3  -3   9   27.44   21.13
   3   3  10  412.36   59.65
   3   3  10  337.76   73.66
   3  -3  10  387.25   81.23
   3   3  11   44.55   39.25
   3   3  11   36.34   27.99
   3  -3  11   94.93   74.38
   3   3  12 2861.08  162.95
   3   3  12 2932.74  273.46
   3  -3  12 2912.92  180.52
   3   3  13   67.17   30.69
   3   3  13   -1.63   30.49
   3  -3  13   66.14   63.11
   3   3  14   49.39   38.15
   3   3  14   58.53   59.38
   3  -3  14   17.01   47.53
   3   3  15  107.57   52.32
   3   3  15   35.93   22.74
   3  -3  15   58.90   71.37
   3   3  16  855.50   85.01
   3   3  16  579.43  157.03
   3  -3  16 1134.50  111.32
   3   3  17   44.51   30.62
   3   3  17   33.61   25.24
   3  -3  17   70.10   56.57
  -3   4  17  200.33   87.06
   3  -4 -17  256.26   87.66
  -3   4  16 1342.71  196.73
   3  -4 -16 1417.34  147.76
  -3   4  15 3642.04  235.23
  -3  -4  15 3432.41  187.33
   3  -4 -15 4033.07  269.80
  -3   4  14  265.78   88.41
  -3  -4  14  461.49   55.55
   3  -4 -14  330.60  125.12
  -3   4  13  775.24  119.38
  -3  -4  13  781.16   67.04
   3  -4 -13  749.31  111.87
  -3   4  12   43.02   23.75
  -3  -4  12   66.52   36.85
   3  -4 -12  -12.38   60.34
  -3   4  11  409.67  127.79
  -3  -4  11  306.04   42.79
   3  -4 -11  202.25   75.27
  -3   4  10   52.60   21.91
  -3  -4  10   29.51   30.98
   3  -4 -10  124.10   81.91
  -3   4   9 1687.01  176.79
  -3  -4   9 1772.31  104.07
   3  -4  -9 1850.47  166.47
  -3   4   8  956.44  207.71
  -3  -4   8  914.81   63.97
   3  -4  -8  812.12  116.68
  -3   4   7  783.76  113.93
  -3  -4   7  724.27   55.91
   3  -4  -7  728.06  101.87
  -3  -4   7  851.50   75.18
  -3   4   6 1391.99  141.40
   3   4  -6 1281.80   91.14
  -3  -4   6 1209.12   74.41
   3  -4  -6 1269.50  139.39
  -3   4   5 1243.69  154.64
   3   4  -5 1099.12   70.23
  -3  -4   5 1264.89   81.99
   3  -4  -5 1283.71  118.73
  -3   4   4  575.50  123.40
   3   4  -4  466.85   83.97
  -3  -4   4  498.83   48.57
   3  -4  -4  366.99   66.13
  -3   4   3 3305.61  233.19
   3   4  -3 3131.73  170.55
  -3  -4   3 3090.25  163.16
   3  -4  -3 2924.97  183.55
  -3   4   2   82.13   37.84
   3   4  -2   21.95   14.17
  -3  -4   2   91.60   34.40
   3  -4  -2  136.49   60.70
  -3   4   1  514.82  114.53
   3   4  -1  441.52   79.04
  -3  -4   1  401.25   46.31
   3  -4  -1  375.82   69.05
   3   4   0   93.45   23.84
  -3   4   0   79.88   42.17
   3   4   0  138.78   35.92
   3  -4   0  127.46   56.35
   3   4   1 1406.76   93.92
   3   4   1 1685.82  108.69
   3  -4   1 1585.45  110.30
   3   4   2   77.22   27.66
   3   4   2   54.21   43.40
   3  -4   2   67.25   59.34
   3  -4   2   68.91   38.27
   3   4   3 1323.30   94.90
   3   4   3 1378.04  213.15
   3  -4   3 1346.48  108.67
   3  -4   3 1315.83   91.70
   3   4   4   57.26   21.53
   3   4   4   67.65   41.82
   3  -4   4  120.25   63.88
   3  -4   4  148.68   58.12
   3   4   5  374.35   84.60
   3   4   5  466.52   99.17
   3  -4   5  531.30   93.96
   3  -4   5  466.19   47.01
   3   4   6  239.38   64.60
   3   4   6  170.91   76.05
   3  -4   6  627.75   98.86
   3  -4   6  356.57   44.86
   3   4   7  118.49   33.56
   3   4   7  151.98   49.58
   3  -4   7  165.81   82.12
   3  -4   7  181.34   32.17
   3   4   8   55.10   22.94
   3   4   8   23.09   16.53
   3  -4   8   24.29   46.19
   3   4   9 1280.66  149.35
   3   4   9 1341.42  191.56
   3  -4   9 1438.08  113.93
   3   4  10   20.57   19.92
   3   4  10   24.86   28.48
   3  -4  10   -2.22   44.00
   3   4  11 1015.92   76.85
   3   4  11  724.44  188.23
   3  -4  11 1016.23  105.10
   3   4  12   61.15   36.83
   3   4  12   19.51   19.74
   3  -4  12  112.26   62.49
   3   4  13 1156.10   88.72
   3   4  13  720.59  187.79
   3  -4  13 1095.18  104.65
   3   4  14  126.50   47.27
   3   4  14   27.91   23.04
   3  -4  14   93.39   65.05
   3   4  15  202.51   43.78
   3   4  15  239.47  105.05
   3  -4  15  382.86   97.38
  -3   5  12  106.94   67.49
   3  -5 -12  214.57   81.18
  -3   5  11   25.48   25.52
   3  -5 -11    0.89   55.78
  -3   5  10  514.49  163.51
   3  -5 -10  476.07   92.19
  -3   5   9  587.52  151.10
   3  -5  -9  837.65  121.73
  -3   5   8 1829.94  180.11
   3  -5  -8 1728.35  155.66
  -3   5   7  316.73   86.33
   3  -5  -7  291.88  103.06
  -3   5   6  275.14   78.66
   3  -5  -6  126.77   65.26
  -3   5   5   47.97   23.57
   3  -5  -5   49.90   40.80
  -3   5   4 1248.52  161.57
   3  -5  -4 1294.67  120.54
  -3  -5   4 1415.78  108.29
  -3   5   3   64.62   20.33
   3  -5  -3   35.25   46.41
  -3  -5   3   23.04   31.72
  -3   5   2   38.03   32.32
   3  -5  -2   41.88   57.19
  -3  -5   2   72.89   60.88
  -3   5   1   45.60   31.96
   3  -5  -1   22.08   36.46
   3   5   0  464.20  126.67
   3  -5   0  692.97   93.07
   3   5   1   18.62   12.64
   3  -5   1    2.42   49.26
   3  -5   1   38.87   38.42
   3   5   2    5.52   24.03
   3  -5   2   47.17   45.89
   3  -5   2   39.99   33.71
   3   5   3  400.48  127.51
   3  -5   3  410.49   86.19
   3  -5   3  579.90   76.04
   3   5   4  535.32  143.24
   3  -5   4  938.22  114.58
   3  -5   4  739.93   71.22
   3   5   5  108.59   45.49
   3  -5   5  159.71   68.72
   3   5   6  668.77  140.12
   3  -5   6  855.47   98.03
   3   5   7   41.00   28.54
   3  -5   7  145.78   79.70
   3   5   8  627.52  188.48
   3  -5   8  786.42   86.59
   3   5   9   37.67   29.11
   3  -5   9   55.42   48.48
   3   5  10  139.26   75.54
   3  -5  10  145.32   63.67
  -4   0  22  113.41   35.42
  -4   0  21   11.44   32.30
  -4   0  20 5707.57  295.47
  -4   0  19    0.94   28.76
  -4   0  18 9591.20  471.15
   4   0 -1810960.78  534.42
  -4   0  17    9.03   29.97
   4   0 -17    8.48   25.75
  -4   0  16 3193.24  174.84
   4   0 -16 3346.20  177.97
  -4   0  15   53.21   26.18
   4   0 -15   -5.12   24.46
  -4   0  14 1914.17  114.82
   4   0 -14 2039.57  117.33
  -4   0  13   58.84   39.58
   4   0 -13   61.86   35.34
  -4   0  12   13.65   22.28
   4   0 -12   -1.61   25.64
  -4   0  11   30.61   33.33
   4   0 -11   46.03   34.09
  -4   0  10 1028.20   65.42
   4   0 -10 1188.46   80.42
   4   0  -9   11.12   22.16
  -4   0   839847.16 1879.69
  -4   0   7   -6.09   18.48
   4   0  -7   11.98   16.75
   4   0  -7    6.90   28.93
  -4   0   6 3956.56  193.22
   4   0  -6 4104.34  200.14
   4   0  -6 3851.03  196.49
  -4   0   5    8.27   12.61
   4   0  -5    0.38   11.30
   4   0  -5   -5.04   26.53
  -4   0   5    2.82   27.72
  -4   0   435225.27 1659.40
  -4   0   3   15.98   14.60
   4   0  -3    5.58    9.19
   4   0  -3  -19.27   26.91
  -4   0   3   -2.09   22.62
  -4   0   2  204.99   45.97
   4   0  -2  257.04   41.06
   4   0  -2   72.57   33.50
  -4   0   2  245.71   32.72
  -4   0   1  -11.88   10.10
   4   0  -1    8.05   11.99
   4   0  -1   16.87   25.40
   4   0   0 4183.80  212.14
   4   0   1   -4.88   10.75
   4   0   1   -3.29   22.80
   4   0   1   -3.65   24.41
   4   0   2 3131.30  168.23
   4   0   2 2886.15  153.68
   4   0   3   -1.24   23.61
  -4   0  -3    5.53   20.46
   4   0   3   -4.12   22.88
   4   0   4 2561.53  136.41
   4   0   4 2564.84  137.80
   4   0   616592.75  796.77
   4   0   613262.49  633.68
   4   0   7   45.47   37.66
   4   0   7   -4.19   19.72
   4   0   8 6424.17  321.24
   4   0   8 6940.66  343.14
   4   0   9   19.58   29.93
   4   0   9   -0.42   17.52
   4   0  10 2427.70  136.98
   4   0  10 2575.80  133.88
   4   0  11   18.24   30.28
   4   0  11   31.50   19.21
   4   0  12 1072.67   80.64
   4   0  12 1192.88   89.17
   4   0  13   22.94   36.72
   4   0  13  -19.04   17.86
   4   0  14 8763.70  439.86
   4   0  14 8888.99  437.93
   4   0  15  -27.67   35.71
   4   0  15    6.31    8.60
   4   0  16 1776.63  121.72
   4   0  16 1778.14  137.97
   4   0  17  -36.62   38.56
   4   0  17   -1.55   17.25
   4   0  18 1476.46  115.31
   4   0  19   -7.43   40.09
  -4   1  22  156.77   63.21
  -4  -1  22   65.45   38.61
  -4   1  21  852.47   86.29
  -4  -1  21 1017.23   89.66
  -4   1  20    5.06   31.09
  -4  -1  20   36.03   27.10
   4  -1 -20   62.95   52.50
  -4   1  19  340.85   64.51
  -4  -1  19  398.32   64.27
   4  -1 -19  320.49   59.82
  -4   1  18  506.66   65.58
  -4  -1  18  617.29   70.71
   4  -1 -18  527.09   70.18
  -4   1  17   58.38   50.70
  -4  -1  17  117.96   47.49
   4  -1 -17   -9.47   34.86
  -4   1  16  794.44   73.15
   4   1 -16  799.57   52.94
  -4  -1  16  702.90   59.97
   4  -1 -16  759.22   89.18
  -4   1  15 8633.17  423.19
   4   1 -15 9316.20  445.81
  -4  -1  15 8785.86  430.19
   4  -1 -15 8543.01  426.39
  -4   1  14 1352.73   93.77
   4   1 -14 1565.08   85.27
  -4  -1  14 1400.99   87.58
   4  -1 -14 1318.89  105.25
  -4   1  13 2498.13  138.40
   4   1 -13 2847.00  144.93
  -4  -1  13 2725.50  145.49
   4  -1 -13 2475.82  150.21
  -4  -1  13 2550.32  134.81
  -4   1  12  664.44   61.55
   4   1 -12  771.37   50.07
  -4  -1  12  722.95   51.29
   4  -1 -12  521.94   65.36
  -4  -1  12  744.65   53.41
  -4   1  11 7876.60  385.02
   4   1 -11 8698.41  417.40
  -4  -1  11 7734.42  374.38
   4  -1 -11 8148.91  407.73
  -4  -1  11 8677.41  418.87
  -4   1  10  377.67   56.45
   4   1 -10  362.29   31.53
  -4  -1  10  415.15   48.43
   4  -1 -10  371.77   79.63
  -4  -1  10  436.95   39.33
  -4   1   9 2277.77  124.48
   4   1  -9 2204.81  111.93
  -4  -1   9 2254.97  117.17
  -4  -1   9 2251.40  118.70
   4  -1  -9 2172.04  125.66
  -4   1   8  527.57   48.61
   4   1  -8  562.39   42.53
   4   1  -8  502.08   40.58
  -4  -1   8  582.73   47.39
  -4  -1   8  602.09   45.12
   4  -1  -8  487.08   66.40
  -4   1   7  636.24   53.90
   4   1  -7  608.16   47.06
   4   1  -7  715.96   48.72
  -4  -1   7  668.53   45.47
   4  -1  -7  640.53   67.96
  -4  -1   7  645.50   47.22
  -4   1   6   21.22   10.93
   4   1  -6   99.25   34.49
   4   1  -6    4.32   12.12
  -4  -1   6   51.27   22.03
  -4  -1   6   57.15   21.35
   4  -1  -6   55.35   38.90
  -4   1   5 8975.42  432.11
   4   1  -5 8918.79  428.91
   4   1  -5 8770.76  416.26
  -4  -1   5 8856.64  419.25
  -4  -1   5 9764.12  468.66
  -4   1   4 2041.43  145.26
   4   1  -4 2026.33  111.68
   4   1  -4 1777.32   87.29
  -4  -1   4 1944.44   94.68
  -4  -1   4 2092.58  111.70
   4  -1  -4 2878.53  177.31
  -4   1   310782.64  523.26
   4   1  -311673.50  559.31
  -4   1   1  708.39   76.03
   4   1  -1  679.50   55.98
   4  -1  -1  640.63   56.08
  -4   1   0 4169.09  212.15
   4   1   0 4140.53  197.15
   4   1   0 4224.95  214.62
   4  -1   0 4121.32  208.79
   4   1   114097.23  666.18
   4   1   114830.42  707.17
   4  -1   114927.59  721.45
  -4  -1  -116135.04  763.35
   4   1   2  998.98   58.61
   4   1   2 1035.82   76.08
  -4  -1  -2 1110.29   63.36
   4  -1   2 1788.50  135.15
   4  -1   2 1437.20   96.19
   4   1   3 4434.16  216.99
   4   1   3 4172.03  210.19
  -4  -1  -3 4938.96  242.70
   4  -1   3 4092.46  213.41
   4  -1   3 3960.96  200.02
   4   1   4  419.27   40.04
   4   1   4  447.98   50.07
   4  -1   4  447.40   70.93
  -4  -1  -4  481.03   39.75
   4  -1   4  363.46   41.83
   4   1   5 2083.31  112.15
   4   1   5 2151.42  146.36
   4  -1   5 1937.10  116.70
  -4  -1  -5 1953.27  103.69
   4  -1   5 1891.08  101.15
   4   1   6 1006.30   66.69
   4   1   6 1040.72   66.63
   4  -1   6  973.36   75.05
   4  -1   6 1037.32   65.96
   4   1   7  452.88   48.47
   4   1   7  705.34   69.36
   4  -1   7  563.67   71.91
   4  -1   7  393.51   41.75
   4   1   8 1887.22  110.30
   4   1   8 1804.25  112.29
   4  -1   8 2039.34  125.73
   4  -1   8 1928.86  106.93
   4   1   9  105.21   53.11
   4   1   9  129.11   41.84
   4  -1   9   70.01   55.06
   4  -1   9  134.49   30.98
   4   1  10 3877.84  206.65
   4   1  10 3675.87  190.45
   4  -1  10 3780.64  206.58
   4  -1  10 3621.21  182.31
   4   1  11 1252.12   89.90
   4   1  11 1299.91  120.64
   4  -1  11 1249.39  106.42
   4  -1  11 1264.42  106.09
   4   1  12  339.55   64.93
   4   1  12  148.58   37.17
   4  -1  12  226.86   35.51
   4  -1  12  288.71   71.61
   4   1  13 4804.89  247.76
   4   1  13 5029.85  266.69
   4  -1  13 5144.43  255.43
   4  -1  13 4810.89  255.23
   4   1  14   -7.56   28.90
   4   1  14   -0.68   14.12
   4  -1  14   30.63   23.69
   4  -1  14   13.30   41.09
   4   1  15  541.12   72.31
   4   1  15  236.78   70.59
   4  -1  15  525.33   79.27
   4  -1  15  510.15   78.62
   4   1  16   74.36   48.95
   4   1  16   52.22   26.86
   4  -1  16   79.44   55.75
   4   1  17  115.43   55.24
   4   1  17   93.74   33.51
   4  -1  17  310.27   98.83
   4   1  18 1396.59  103.44
   4   1  18 1042.71  164.82
   4  -1  18 1364.61  113.48
   4   1  19  167.21   60.97
   4   1  19   14.27   20.67
   4  -1  19  -18.20   44.52
  -4   2  21    7.42   32.17
  -4  -2  21   41.70   32.05
   4  -2 -21   -4.13   35.48
  -4   2  20  961.22  101.92
  -4  -2  20  790.38   77.20
   4  -2 -20  893.51  108.78
  -4   2  19   70.81   48.63
  -4  -2  19   54.89   23.71
   4  -2 -19   26.86   39.16
  -4   2  18  145.80   46.42
  -4  -2  18  146.53   45.04
   4  -2 -18  111.80   56.10
  -4   2  17  369.95   65.54
  -4  -2  17  366.30   51.64
   4  -2 -17  269.92   62.98
  -4   2  16 3043.79  178.60
  -4  -2  16 3097.21  165.42
   4  -2 -16 3086.23  191.43
  -4   2  15   59.61   29.06
  -4  -2  15   15.36   22.67
   4  -2 -15   43.62   37.12
  -4   2  14   32.04   35.78
  -4  -2  14    8.96   19.56
   4  -2 -14   41.46   37.58
  -4   2  13   29.27   39.94
  -4  -2  13   31.78   22.05
   4  -2 -13   47.00   59.51
  -4   2  12 1115.32   88.54
   4   2 -12 1078.92   56.10
  -4  -2  12 1222.08   85.93
   4  -2 -12  975.01   90.54
  -4   2  11 1412.70  101.75
  -4  -2  11 1320.63   87.35
   4  -2 -11  874.39   84.12
  -4  -2  11 1193.80   66.92
  -4   2  10 2108.14  124.52
   4   2 -10 2239.59  111.91
  -4  -2  10 2374.21  123.97
   4  -2 -10 1905.65  128.87
  -4   2   9  661.63  100.57
  -4  -2   9  630.20   46.24
   4  -2  -9  260.65   60.51
  -4  -2   9  635.50   43.45
  -4   2   8 1841.66  107.39
   4   2  -8 1894.91   96.76
   4   2  -8 1850.01   98.37
  -4  -2   8 2044.90  105.72
  -4  -2   8 1821.88   94.62
   4  -2  -8 1640.90  119.14
  -4   2   7   22.05   30.49
   4   2  -7    4.56   10.77
   4   2  -7   51.73   23.99
  -4  -2   7    7.79    9.61
  -4  -2   7   25.55   13.33
   4  -2  -7   82.14   55.99
  -4   2   6 2961.16  157.18
   4   2  -6 2998.68  149.15
   4   2  -6 2935.01  145.81
  -4  -2   6 3135.18  152.79
  -4  -2   6 3268.26  162.72
   4  -2  -6 3063.46  177.56
  -4   2   5  506.82   88.56
   4   2  -5  392.68   41.20
  -4  -2   5  437.64   28.62
   4  -2  -5  330.98   75.69
   4  -2  -4 5045.07  266.51
  -4   2   3  364.00  112.76
   4   2  -3  374.52   46.77
   4  -2  -3  421.71   65.98
  -4   2   2  828.10   62.88
   4   2  -2  758.29   58.32
   4  -2  -2  775.77   73.71
  -4   2   1  754.07   86.92
   4   2  -1  677.37  102.86
   4  -2  -1  692.43   73.15
  -4   2   0 7932.16  391.33
   4   2   0 6497.40  319.38
  -4  -2   0 7007.10  331.52
   4  -2   0 5915.80  293.76
  -4   2  -1  129.62   42.56
   4   2   1   -1.68    4.59
  -4  -2  -1   69.27   23.08
   4  -2   1   11.64   25.05
   4   2   2 1153.05   61.82
  -4  -2  -2  885.71   52.74
   4   2   3  332.64   24.85
   4   2   3  358.71   93.41
   4  -2   3  399.48   74.68
  -4  -2  -3  257.71   27.26
   4  -2   3  307.29   42.06
   4   2   4 7781.26  371.87
   4   2   4 7717.69  384.43
   4  -2   4 7508.92  382.51
  -4  -2  -4 8741.68  420.24
   4  -2   4 7739.28  379.11
   4   2   5   37.66   22.19
   4   2   5   95.89   44.40
   4  -2   5   50.75   46.90
  -4  -2  -5   39.75   21.41
   4  -2   5   45.75   31.19
   4   2   6 1689.64   98.11
   4   2   6 1813.49  167.21
   4  -2   6 1796.60  121.79
   4  -2   6 1558.02   91.38
   4   2   7    3.62   21.07
   4   2   7   -6.47   27.03
   4  -2   7   21.59   49.43
   4  -2   7   19.42   17.23
   4   2   812277.45  591.28
   4   2   812155.84  596.38
   4  -2   811590.00  571.74
   4  -2   812358.67  589.65
   4   2   9  615.27   57.79
   4   2   9  666.39  159.88
   4  -2   9  629.12   77.37
   4  -2   9  721.51   51.12
   4   2  10  826.30   70.03
   4   2  10  821.25  155.51
   4  -2  10  745.75   84.46
   4  -2  10  756.64   50.53
   4   2  11  206.92   44.44
   4   2  11   76.58   22.05
   4  -2  11  188.49   69.27
   4  -2  11   71.18   21.60
   4   2  12 1623.94  104.41
   4   2  12 1705.61  185.37
   4  -2  12 1668.02  131.93
   4  -2  12 1622.07   89.11
   4   2  13   43.46   34.38
   4   2  13  132.53   93.03
   4  -2  13    0.69   47.74
   4   2  14 1283.61  101.62
   4   2  14 1201.42  166.62
   4  -2  14 1333.68  126.77
   4   2  15   -1.16   26.34
   4   2  15   68.54   34.16
   4  -2  15   85.47   50.82
   4   2  16 1068.14   89.07
   4   2  16  880.96  141.52
   4  -2  16  948.59   92.68
   4   2  17   41.44   44.08
   4   2  17  -12.11   24.04
   4  -2  17   73.68   61.31
   4   2  18  638.94   83.18
   4   2  18  470.03  164.41
   4  -2  18  969.10  102.04
  -4   3  19  228.96   67.19
  -4  -3  19  202.60   45.10
   4  -3 -19  229.37   90.94
  -4   3  18   55.40   32.79
  -4  -3  18   15.86   21.05
   4  -3 -18  -31.35   40.10
  -4   3  17  219.89   57.41
  -4  -3  17  252.11   44.31
   4  -3 -17  106.18   64.31
  -4   3  16   43.90   43.06
  -4  -3  16   34.21   37.96
   4  -3 -16  -19.61   48.89
  -4   3  15  367.42   70.94
  -4  -3  15  299.70   40.88
   4  -3 -15  486.69   90.75
  -4   3  14  113.50   55.95
  -4  -3  14  168.58   36.78
   4  -3 -14   15.56   51.52
  -4   3  13  741.89  112.82
  -4  -3  13  916.64   70.60
   4  -3 -13  766.07  107.37
  -4   3  12  449.36  126.60
  -4  -3  12  404.63   41.19
   4  -3 -12  490.23   94.28
  -4   3  11  904.97  127.04
  -4  -3  11  815.18   59.50
   4  -3 -11  898.15  107.23
  -4   3  10   58.75   38.90
   4   3 -10   12.23    8.18
  -4  -3  10   60.49   27.88
   4  -3 -10   77.33   63.58
  -4   3   9  222.05  124.08
   4   3  -9  194.76   43.35
  -4  -3   9  246.75   33.39
   4  -3  -9  263.27   67.54
  -4   3   8  221.20   58.60
   4   3  -8  153.70   32.48
  -4  -3   8  156.65   26.87
   4  -3  -8  268.27   66.43
  -4   3   7 1828.93  168.23
   4   3  -7 1626.65   91.32
  -4  -3   7 1621.40   88.18
   4  -3  -7 1501.00  117.02
  -4   3   6   69.51   30.97
   4   3  -6   44.82   27.61
  -4  -3   6   19.13   10.77
  -4  -3   6   25.98   15.44
   4  -3  -6   29.11   40.68
  -4   3   5  602.13  156.25
   4   3  -5  589.86   53.94
  -4  -3   5  592.16   40.80
  -4  -3   5  537.11   45.46
   4  -3  -5  546.98   72.11
  -4   3   4  480.10  132.95
   4   3  -4  343.97   88.24
  -4  -3   4  398.03   31.52
  -4  -3   4  416.92   26.02
   4  -3  -4  203.45   53.02
  -4   3   3 3692.91  193.78
   4   3  -3 3689.90  201.23
  -4  -3   3 3402.26  165.85
  -4  -3   3 3679.62  176.40
   4  -3  -3 3374.39  185.77
  -4   3   2  430.00   93.54
   4   3  -2  117.65   51.64
  -4  -3   2  385.60   31.72
  -4  -3   2  322.31   21.49
   4  -3  -2  262.72   65.57
  -4   3   1 1171.06  112.92
   4   3  -1 1068.86   81.63
  -4  -3   1 1017.17   58.83
  -4  -3   1 1067.62   54.70
   4  -3  -1 1086.04   85.85
   4   3   0   24.83   17.00
  -4   3   0   61.18   32.04
   4   3   0   38.36   27.52
  -4  -3   0   68.69   14.91
   4  -3   0   56.46   53.08
   4   3   1 5940.83  286.07
  -4   3  -1 5527.52  278.66
   4   3   1 5532.45  286.98
  -4  -3  -1 5817.93  278.35
   4  -3   1 5945.93  302.08
   4   3   2  415.17   67.94
   4   3   2  482.20   92.07
   4  -3   2  591.97   94.34
  -4  -3  -2  428.99   31.51
   4  -3   2  728.53   68.34
   4   3   3 1968.65  101.41
   4   3   3 1904.65  112.11
   4  -3   3 1598.76  114.55
  -4  -3  -3 1921.51   99.10
   4  -3   3 1541.22   90.23
   4   3   4   22.49   12.63
   4   3   4   58.47   36.95
   4  -3   4  144.16   46.27
   4  -3   4  283.89   53.79
   4   3   5 4685.01  228.83
   4   3   5 4718.19  242.55
   4  -3   5 4302.86  235.31
   4  -3   5 4754.36  238.50
   4   3   6   -5.55   14.11
   4   3   6  -31.57   28.39
   4  -3   6   55.85   53.23
   4  -3   6   14.17   22.23
   4   3   7 2353.61  125.20
   4   3   7 2260.32  133.24
   4  -3   7 2139.83  144.76
   4  -3   7 2139.83  115.66
   4   3   8   29.80   22.85
   4   3   8   31.15   28.59
   4  -3   8   94.28   72.68
   4  -3   8   49.07   26.40
   4   3   9 1713.99  102.42
   4   3   9 1641.09  166.50
   4  -3   9 1781.66  123.56
   4  -3   9 1714.25   93.13
   4   3  10   36.10   38.92
   4   3  10   11.68   27.79
   4  -3  10   29.09   44.28
   4  -3  10   48.22   21.77
   4   3  11 3193.78  172.62
   4   3  11 3414.99  239.92
   4  -3  11 3300.17  202.83
   4   3  12    0.91   20.80
   4   3  12   25.08   40.16
   4  -3  12   57.34   43.92
   4   3  13 1873.94  117.97
   4   3  13 1547.99  283.32
   4  -3  13 1892.66  142.63
   4   3  14    2.14   27.29
   4   3  14   -6.08   28.88
   4  -3  14   -7.45   48.68
   4   3  15 1526.43  112.95
   4   3  15 1178.07  222.90
   4  -3  15 1706.75  139.43
   4   3  16   48.61   29.44
   4   3  16   45.22   39.87
   4  -3  16   89.77   72.53
  -4   4  16  694.98  148.08
   4  -4 -16  857.07  124.90
  -4   4  15   -4.45   33.43
   4  -4 -15  150.18   89.11
  -4   4  14  133.67   66.97
   4  -4 -14  187.96   74.76
  -4   4  13   -6.09   37.52
   4  -4 -13   77.39   72.61
  -4   4  12  348.23  116.57
   4  -4 -12  313.04   67.70
  -4   4  11   36.77   26.93
   4  -4 -11   28.96   48.67
  -4   4  10  290.39   80.71
   4  -4 -10  172.60   70.24
  -4   4   9  139.99   44.32
   4  -4  -9   94.97   52.62
  -4   4   8 1383.66  101.90
   4  -4  -8 1343.62  133.49
  -4   4   7  621.99  151.78
   4   4  -7  611.49   95.01
   4  -4  -7  720.58  111.71
  -4   4   6  637.03  120.38
   4   4  -6  639.67  103.62
   4  -4  -6  632.46  106.29
  -4   4   5   33.97   30.56
   4   4  -5   45.73   19.05
   4  -4  -5  171.07   73.42
  -4   4   4 1953.51  229.94
   4   4  -4 1750.31  104.63
   4  -4  -4 1540.20  119.26
  -4   4   3  336.06   71.70
   4   4  -3  244.11   67.18
   4  -4  -3  329.65   88.94
  -4   4   2  772.49  104.95
   4   4  -2  687.69  121.12
   4  -4  -2  684.02   82.22
  -4   4   1  217.32   63.66
   4   4  -1   68.35   37.68
  -4  -4   1  161.21   34.21
   4  -4  -1  167.08   64.57
  -4   4   0 2032.12  122.69
   4   4   0 2152.75  180.60
   4  -4   0 2085.42  141.60
   4   4   1   75.30   16.60
   4   4   1   23.02   18.70
   4  -4   1   38.30   45.98
   4  -4   1   45.12   46.15
   4   4   2  335.33   66.82
   4   4   2  511.32   93.87
   4  -4   2  539.21   95.83
   4  -4   2  480.13   67.17
   4   4   3  563.04   78.41
   4   4   3  668.10  139.50
   4  -4   3  619.17   92.85
   4  -4   3  557.67   60.43
   4   4   4 2343.08  135.31
   4   4   4 2231.64  140.05
   4  -4   4 2134.58  162.69
   4  -4   4 2187.67  131.32
   4   4   5   -0.41    9.08
   4   4   5   -1.38   30.33
   4  -4   5   31.79   49.76
   4  -4   5   -9.28   25.12
   4   4   6  555.11   82.67
   4   4   6  653.42  131.60
   4  -4   6  921.20  100.89
   4  -4   6  667.57   55.37
   4   4   7   40.83   20.79
   4   4   7   66.92   43.30
   4  -4   7  110.57   83.48
   4  -4   7   43.30   33.50
   4   4   8 2599.19  167.17
   4   4   8 2769.06  165.82
   4  -4   8 2629.46  168.21
   4   4   9   33.36   25.88
   4   4   9   45.94   32.49
   4  -4   9   81.00   75.05
   4   4  10  687.76   59.72
   4   4  10  580.32  144.90
   4  -4  10  668.06   99.09
   4   4  11  208.23   42.14
   4   4  11  163.21   52.32
   4  -4  11  227.55   74.64
   4   4  12 1571.08  102.16
   4   4  12 1149.99  219.42
   4  -4  12 1571.83  124.28
   4   4  13    6.92   29.45
   4  -4  13   15.28   61.35
  -4   5  12   11.55   23.31
   4  -5 -12   74.15   64.04
  -4   5  11  601.21  178.42
   4  -5 -11  755.42  100.87
  -4   5  10   51.83   29.54
   4  -5 -10   39.53   45.47
  -4   5   9  689.44  117.63
   4  -5  -9  843.12  112.41
  -4   5   8   -1.75   29.21
   4  -5  -8  115.47   78.55
  -4   5   7 1943.91  182.65
   4  -5  -7 1491.44  127.26
  -4   5   6   44.26   16.89
   4  -5  -6   47.20   40.78
  -4   5   5  293.66   81.48
   4  -5  -5  178.88   72.61
  -4   5   4   22.83   34.39
   4   5  -4   19.14   16.31
   4  -5  -4   72.69   75.63
  -4   5   3  404.78  108.31
   4   5  -3  352.57  108.69
   4  -5  -3  538.74   88.04
  -4   5   2   14.52   14.87
   4   5  -2   19.34   14.03
   4  -5  -2   38.76   39.40
  -4   5   1 1386.61  180.49
   4   5  -1 1458.79   92.82
   4  -5  -1 1575.08  112.60
   4   5   0   21.02   22.54
   4  -5   0   85.84   71.24
   4  -5   0   32.16   47.70
   4   5   1  393.07  117.37
   4  -5   1  577.05  100.64
   4  -5   1  274.12   60.50
   4   5   2   17.63   28.48
   4  -5   2  156.10   96.27
   4  -5   2  120.38   48.63
   4   5   3   89.52   50.03
   4  -5   3  265.21   70.29
   4  -5   3  267.24   48.94
   4   5   4   47.58   29.30
   4  -5   4   56.17   49.94
   4  -5   4   78.37   34.18
   4   5   5  645.68  175.89
   4  -5   5  902.27  104.91
   4   5   6  -22.43   33.95
   4  -5   6  188.32   87.75
   4   5   7  141.09   56.85
   4  -5   7  218.11   93.33
   4   5   8    3.15   26.63
   4  -5   8   27.45   52.10
   4   5   9  596.69  206.36
   4  -5   9 1121.46  128.76
  -5   0  22   16.36   25.63
  -5   0  21  139.37   53.21
  -5   0  20  -14.17   24.07
  -5   0  19 6965.37  352.72
  -5   0  18   15.96   27.01
   5   0 -18   28.62   21.58
  -5   0  17  774.26   72.48
   5   0 -17  781.42   68.30
  -5   0  16    6.60   24.09
   5   0 -16   21.76   21.38
  -5   0  15 1466.38   96.97
   5   0 -15 1504.43   92.76
  -5   0  14   47.99   33.04
   5   0 -14  -19.17   21.39
  -5   0  13 4451.84  226.71
   5   0 -13 4305.78  218.94
  -5   0  12    8.65   19.33
   5   0 -12  -10.25   24.93
  -5   0  11  552.15   46.13
   5   0 -11  524.58   54.67
  -5   0  10   83.67   30.78
   5   0 -10   -8.51   24.70
  -5   0   9 6176.20  299.31
   5   0  -9 6017.73  298.77
  -5   0   8   16.36   16.14
   5   0  -8   33.63   39.71
  -5   0   7 6773.75  326.57
   5   0  -7 6548.02  321.94
  -5   0   6   -3.75   15.41
   5   0  -6    4.83   12.48
   5   0  -6   -4.13   29.45
  -5   0   5  552.65   50.95
   5   0  -5  510.74   34.15
   5   0  -5 1006.87   82.26
  -5   0   4   48.69   23.14
   5   0  -4   47.81   16.22
   5   0  -4  122.18   46.81
  -5   0   3 6086.12  291.71
  -5   0   2   17.47   14.57
   5   0  -2   13.30   11.44
   5   0  -2   31.15   37.66
   5   0  -1 4256.91  207.93
   5   0  -1 4463.56  226.07
   5   0  -1 4615.82  236.02
   5   0   0   17.81   16.60
   5   0   0    6.47   22.19
   5   0   0  110.59   36.63
   5   0   112290.72  585.00
   5   0   113176.03  636.15
   5   0   2   20.87   20.15
   5   0   2  174.03   40.74
   5   0   2  106.89   41.69
   5   0   3  255.64   44.09
   5   0   3  266.94   43.44
   5   0   4    7.43   31.83
   5   0   4   18.32   19.83
   5   0   5 2889.51  158.37
   5   0   5 2894.98  158.08
   5   0   6   -6.54   27.13
   5   0   7 2257.01  131.40
   5   0   7 2344.02  128.01
   5   0   8    2.52   32.91
   5   0   8    7.17   18.63
   5   0   9 3267.22  174.96
   5   0   9 3730.94  193.82
   5   0  10   39.89   48.78
   5   0  10   -6.49   21.66
   5   0  11 1936.73  121.57
   5   0  11 2030.74  132.39
   5   0  12    9.17   31.55
   5   0  12   19.30   17.96
   5   0  13   74.58   56.56
   5   0  13  121.59   39.29
   5   0  14   17.15   36.79
   5   0  14   10.73   22.90
   5   0  15  196.60   75.51
   5   0  15   50.10   20.79
   5   0  16    6.67   37.27
   5   0  16   35.25   24.18
   5   0  17 1205.09  100.72
   5   0  17  842.44  158.16
   5   0  18   -7.74   38.15
  -5   1  21   96.60   57.42
  -5  -1  21  120.77   51.73
   5  -1 -21   92.77   40.88
  -5   1  20 1825.73  117.41
  -5  -1  20 2119.85  130.16
   5  -1 -20 1915.66  124.20
  -5   1  19  -14.67   31.80
  -5  -1  19   27.72   23.10
   5  -1 -19  -30.79   32.88
  -5   1  18  336.75   61.29
  -5  -1  18  438.10   66.07
   5  -1 -18  267.84   50.26
  -5   1  17  475.09   56.29
  -5  -1  17  559.95   61.56
   5  -1 -17  412.43   66.78
  -5   1  16  298.85   57.04
   5   1 -16  356.20   38.51
  -5  -1  16  336.91   47.85
   5  -1 -16  231.85   58.43
  -5   1  15  525.15   64.32
   5   1 -15  582.53   46.29
  -5  -1  15  630.47   57.39
   5  -1 -15  554.00   77.21
  -5   1  14  585.50   57.68
   5   1 -14  503.51   39.24
  -5  -1  14  683.83   64.18
   5  -1 -14  502.80   70.24
  -5   1  13 1057.61   78.72
   5   1 -13  997.30   61.93
  -5  -1  13 1141.17   76.36
   5  -1 -13  948.88   86.20
  -5   1  12 4383.16  225.04
   5   1 -12 4096.59  203.01
  -5  -1  12 4453.28  223.13
   5  -1 -12 4316.65  232.18
  -5   1  11 1120.45   77.93
   5   1 -11  972.96   62.83
  -5  -1  11 1017.20   66.25
   5  -1 -11  990.82   87.19
  -5   1  10 1503.51   89.46
   5   1 -10 1468.77   86.67
  -5  -1  10 1512.74   87.46
   5  -1 -10 1575.43  108.89
  -5   1   9   24.37   23.25
   5   1  -9   -6.74   19.64
  -5  -1   9   11.91   12.27
   5  -1  -9    6.65   38.50
  -5   1   812097.18  581.22
   5   1  -811870.65  567.98
   5   1  -811974.59  569.52
  -5  -1   811849.13  561.96
  -5   1   7  683.57  133.53
   5   1  -7  581.34   49.65
   5   1  -7  523.04   33.50
  -5  -1   7  625.97   37.91
   5  -1  -7  649.26   79.65
  -5   1   6 1960.01  115.09
   5   1  -6 1727.20   97.60
   5   1  -6 1679.45   85.70
  -5  -1   6 1678.20   84.50
   5  -1  -6 1744.52  109.68
   5   1  -5   89.37   11.71
  -5   1   5   81.89   34.23
   5   1  -5  114.42   28.76
  -5  -1   5   78.23   18.05
   5  -1  -5   82.41   31.82
  -5   1   3   28.59   29.85
   5   1  -3   24.44    9.14
   5   1  -3   74.13   40.57
   5  -1  -3   49.42   33.96
  -5   1   2  499.26   88.65
   5   1  -2  345.87   18.65
   5   1  -2  285.51   43.65
   5  -1  -2  382.75   54.78
  -5   1   1 5088.74  261.71
   5   1  -1 5091.34  240.93
   5   1  -1 4146.78  210.60
   5  -1  -1 4433.00  227.01
   5   1   0  151.53   21.12
   5   1   0  105.25   22.12
   5   1   0   90.01   31.69
   5  -1   0  151.60   42.74
   5   1   1   46.26   13.20
   5   1   1   53.27   25.68
   5   1   1   21.88   33.79
   5  -1   1    1.49   34.51
   5  -1   1   97.94   41.31
   5   1   2 4086.63  199.83
   5   1   2 4058.15  208.69
   5  -1   2 3599.75  192.36
  -5  -1  -2 4214.71  207.75
   5  -1   2 3317.21  169.53
   5   1   3   42.00   25.60
   5   1   3  137.15   43.68
   5  -1   3  106.79   69.38
  -5  -1  -3   45.89   23.68
   5  -1   3  175.90   41.70
   5   1   413853.58  661.19
   5   1   5  -14.56   23.46
   5   1   5   49.22   35.81
   5  -1   5  -11.78   42.98
   5  -1   5   16.74   26.56
   5   1   6 2646.14  142.90
   5   1   6 2562.29  139.00
   5  -1   6 2457.08  140.36
   5  -1   6 2674.05  143.37
   5   1   7    4.04   29.56
   5   1   7  -20.18   20.80
   5  -1   7   23.25   38.70
   5  -1   7   58.07   31.20
   5   1   8 7457.48  369.85
   5   1   8 7014.78  355.79
   5  -1   8 6891.36  335.88
   5   1   9 3589.52  189.02
   5   1   9 3510.30  185.72
   5  -1   9 3742.34  209.17
   5  -1   9 3603.59  185.63
   5   1  10 1104.04   81.98
   5   1  10 1033.81   80.13
   5  -1  10 1008.58   90.09
   5  -1  10 1053.17   73.13
   5   1  11 1516.79   99.03
   5   1  11 1341.20   86.03
   5  -1  11 1447.52  111.11
   5  -1  11 1392.36   84.78
   5   1  12  980.72   78.22
   5   1  12 1003.95  120.34
   5  -1  12 1060.17   72.85
   5  -1  12 1210.81  110.80
   5   1  13   75.46   36.95
   5   1  13   28.73   19.87
   5  -1  13   74.19   54.70
   5   1  14 1212.50   88.42
   5   1  14 1057.02  180.99
   5  -1  14 1195.87  108.02
   5  -1  14 1156.57   99.90
   5   1  15   48.07   32.09
   5   1  15   25.74   21.19
   5  -1  15   56.43   27.11
   5  -1  15  151.17   69.31
   5   1  16 1717.14  114.67
   5   1  16 1461.16  173.30
   5  -1  16 1858.10  133.78
   5   1  17   -9.27   31.86
   5   1  17    6.97   22.33
   5  -1  17  248.70   91.91
   5   1  18 1034.22   94.17
   5   1  18  808.68  180.10
   5  -1  18  951.93   92.60
  -5   2  20   18.03   27.79
  -5  -2  20    6.74   21.21
   5  -2 -20   48.66   43.49
  -5   2  19  111.35   60.59
  -5  -2  19   69.08   31.67
   5  -2 -19  183.63   72.24
  -5   2  18   36.28   34.03
  -5  -2  18   26.56   20.48
   5  -2 -18  119.35   73.73
  -5   2  17  786.50   82.03
  -5  -2  17  785.06   65.83
   5  -2 -17  901.07  105.48
  -5   2  16  415.88   64.86
  -5  -2  16  451.68   49.56
   5  -2 -16  406.91   75.39
  -5   2  15 2582.90  154.47
  -5  -2  15 2419.35  134.95
   5  -2 -15 2759.78  188.24
  -5   2  14  309.32   57.74
  -5  -2  14  360.97   45.61
   5  -2 -14  142.01   65.85
  -5   2  13  653.97   72.05
   5   2 -13  678.38   42.64
  -5  -2  13  670.26   50.67
   5  -2 -13  647.49   99.83
  -5   2  12  127.00   47.93
   5   2 -12  184.58   23.17
  -5  -2  12  235.35   31.61
   5  -2 -12   95.69   70.17
  -5   2  11 2284.23  136.90
   5   2 -11 2294.77  116.68
  -5  -2  11 2323.65  120.98
   5  -2 -11 2336.51  154.40
  -5   2  10   82.17   29.26
   5   2 -10   87.53   16.71
   5  -2 -10   47.89   48.93
  -5   2   9  856.61  132.37
   5   2  -9  887.44   55.27
   5   2  -9  847.00   53.48
  -5  -2   9  860.71   53.60
   5  -2  -9 1235.31  115.17
  -5   2   8   48.99   38.29
   5   2  -8   43.28   29.42
   5   2  -8   44.44   19.50
  -5  -2   8  -10.96    8.40
   5  -2  -8   76.06   62.53
  -5   2   7 3326.04  192.93
   5   2  -7 3163.76  162.34
   5   2  -7 3092.61  152.25
  -5  -2   7 3116.78  150.89
   5  -2  -7 3293.12  189.88
  -5   2   6  292.98   77.90
   5   2  -6  172.20   29.08
  -5  -2   6  209.91   14.87
   5  -2  -6  125.03   61.05
  -5   2   5  679.20  110.36
   5   2  -5  546.71   46.38
   5  -2  -5  706.91   74.70
  -5   2   4 1566.83   97.78
   5   2  -4 1420.36   82.34
   5  -2  -4 1605.53  116.13
  -5   2   3 3797.58  197.52
   5   2  -3 3885.17  201.55
   5  -2  -3 4155.53  220.65
  -5   2   2 1117.64   81.93
   5   2  -2 1151.62   77.57
   5  -2  -2 1078.06   83.83
  -5   2   1 3492.17  202.13
   5   2  -1 4121.34  211.04
   5  -2  -1 2882.05  161.06
  -5   2   0   98.55   49.05
   5   2   0   92.21   47.02
   5  -2   0   49.31   51.87
   5   2   1 4843.99  244.61
   5  -2   1 4466.81  240.60
  -5  -2  -1 5038.13  240.67
   5  -2   1 4566.51  231.61
   5   2   2  612.22   36.83
   5   2   2  605.43   63.00
  -5  -2  -2  565.69   39.17
   5  -2   2  627.51   80.66
   5  -2   2  661.35   70.11
   5   2   3 7868.13  374.48
   5   2   3 7702.88  378.59
   5  -2   3 7393.57  375.56
  -5  -2  -3 8011.59  384.01
   5  -2   3 8166.17  405.23
   5   2   4    4.60   10.36
   5   2   4   26.47   40.88
   5  -2   4   16.93   43.01
  -5  -2  -4   -9.45   11.52
   5  -2   4   40.34   32.82
   5   2   5   94.93   22.57
   5   2   5   55.28   33.82
   5  -2   5  108.39   74.59
   5  -2   5   36.00   27.75
   5   2   6 5364.21  262.81
   5   2   6 5432.41  276.16
   5  -2   6 5770.64  304.18
   5  -2   6 5208.81  259.63
   5   2   7   68.12   32.65
   5   2   7   21.89   39.58
   5  -2   7   53.76   52.96
   5  -2   7   18.97   21.16
   5   2   8    1.76   14.71
   5   2   8   -5.86   28.90
   5  -2   8   51.98   59.94
   5  -2   8   17.74   20.27
   5   2   9 4862.14  244.08
   5   2   9 4786.56  258.99
   5  -2   9 4211.77  227.16
   5  -2   9 4327.39  217.10
   5   2  10   86.04   48.02
   5   2  10   51.55   28.60
   5  -2  10   54.37   49.04
   5  -2  10  127.22   31.40
   5   2  11 1653.70  104.99
   5   2  11 1818.02  166.34
   5  -2  11 1770.94  128.25
   5  -2  11 1729.97   96.71
   5   2  12  300.14   52.49
   5   2  12  167.23   49.42
   5  -2  12  338.67   83.04
   5  -2  12  364.72   40.38
   5   2  13 4318.74  230.80
   5   2  13 4149.10  220.84
   5  -2  13 4446.58  246.48
   5   2  14   30.66   39.16
   5   2  14   19.87   25.67
   5  -2  14  110.18   81.35
   5   2  15  841.41   79.53
   5   2  15  583.28  155.27
   5  -2  15  670.00   98.53
   5   2  16  366.46   62.46
   5   2  16  198.53   70.62
   5  -2  16  351.61   78.20
   5   2  17  156.77   53.64
   5   2  17  131.60   46.18
   5  -2  17  144.05   61.04
  -5   3  19   -8.21   29.09
   5  -3 -19   76.66   65.34
  -5   3  18  332.95   64.59
   5  -3 -18  349.59   86.89
  -5   3  17   16.18   36.78
   5  -3 -17   85.79   67.63
  -5   3  16  433.13   87.55
   5  -3 -16  255.44   76.34
  -5   3  15   52.01   30.80
   5  -3 -15   20.24   47.22
  -5   3  14  521.37  112.82
   5  -3 -14  304.02   79.23
  -5   3  13  177.60   66.13
  -5  -3  13  110.61   28.08
   5  -3 -13   85.13   93.87
  -5   3  12  598.13  209.91
  -5  -3  12  562.32   44.25
   5  -3 -12  342.34   82.24
  -5   3  11  308.96   96.79
  -5  -3  11  431.92   39.00
   5  -3 -11  272.53   81.00
  -5   3  10  437.08  106.13
   5   3 -10  518.93   41.80
  -5  -3  10  518.14   43.87
   5  -3 -10  509.01  114.14
  -5   3   9   96.73   39.38
   5   3  -9  169.06   39.16
  -5  -3   9  216.40   28.49
   5  -3  -9   -3.29   49.96
  -5   3   8 2826.07  189.95
   5   3  -8 2745.75  141.17
  -5  -3   8 2834.14  139.99
   5  -3  -8 2620.58  183.04
  -5   3   7  173.86   49.69
   5   3  -7  184.89   44.17
  -5  -3   7  179.05   17.80
   5  -3  -7  119.41   67.75
  -5   3   6 1155.51  138.21
   5   3  -6 1065.83   79.18
  -5  -3   6  968.80   49.69
   5  -3  -6  930.07   89.43
  -5   3   5   -4.63   24.40
   5   3  -5   36.64   19.85
   5  -3  -5  106.61   67.53
  -5   3   4 4268.00  223.49
   5   3  -4 4215.54  225.46
   5  -3  -4 4375.49  239.04
  -5   3   3  180.95   49.29
   5   3  -3  140.67   39.34
   5  -3  -3  151.31   86.94
  -5   3   2  368.28   71.64
   5   3  -2  325.13   47.31
   5  -3  -2  220.10   62.94
  -5   3   1 1182.62  128.86
   5   3  -1 1109.80   81.39
   5  -3  -1 1278.51   97.30
  -5   3   0 2949.79  157.85
   5   3   0 3065.79  165.87
  -5  -3   0 2825.71  134.51
   5  -3   0 2826.21  158.00
   5   3   1   56.90   41.26
   5  -3   1  131.91   79.82
   5  -3   1   56.52   35.47
   5   3   2   97.71   32.74
   5   3   2  123.06   30.95
   5  -3   2  153.07   60.62
   5  -3   2   89.98   40.94
   5   3   3   45.24   13.66
   5   3   3   41.80   24.37
   5  -3   3   28.64   44.24
   5  -3   3   30.88   24.34
   5   3   4 6061.87  291.54
   5   3   4 6072.97  306.65
   5  -3   4 5785.91  310.53
   5  -3   4 6124.32  305.91
   5   3   5  975.20   58.93
   5   3   5  906.99  170.97
   5  -3   5  848.72  101.71
   5  -3   5 1045.20   77.42
   5   3   6 2004.30  105.19
   5   3   6 2103.31  183.25
   5  -3   6 2183.64  152.59
   5  -3   6 1987.61  113.30
   5   3   7  404.80   41.20
   5   3   7  403.59   82.15
   5  -3   7  466.89   96.76
   5  -3   7  377.09   47.48
   5   3   8 1738.99  100.52
   5   3   8 1689.96  138.37
   5  -3   8 1927.72  144.05
   5  -3   8 1729.25  101.71
   5   3   9   10.55   14.83
   5   3   9    3.03   15.56
   5  -3   9    0.74   44.85
   5  -3   9    4.64   14.85
   5   3  10 1798.50  104.82
   5   3  10 1798.26  195.66
   5  -3  10 1826.09  138.13
   5   3  11  -13.95   19.00
   5   3  11   12.31   16.58
   5  -3  11   42.00   49.42
   5   3  12  549.78   61.05
   5   3  12  478.66  115.86
   5  -3  12  513.27   86.33
   5   3  13   90.75   36.28
   5   3  13   83.46   42.87
   5  -3  13  187.22   80.91
   5   3  14  581.60   58.15
   5   3  14  543.64  150.59
   5  -3  14  737.31  100.35
   5   3  15   49.79   27.95
   5   3  15   14.93   20.33
   5  -3  15  119.66   89.21
  -5   4  16   31.15   24.73
   5  -4 -16   84.37   71.49
  -5   4  15  187.00  113.22
   5  -4 -15  217.83   75.06
  -5   4  14   31.19   27.85
   5  -4 -14   11.85   49.18
  -5   4  13  228.85   85.68
   5  -4 -13  491.90   98.78
  -5   4  12   -2.27   32.45
   5  -4 -12   33.41   46.86
  -5   4  11 2595.04  215.54
   5  -4 -11 2313.67  165.45
  -5   4  10   53.05   42.86
   5  -4 -10   91.16   71.01
  -5   4   9  879.33  174.26
   5  -4  -9  744.56   99.77
  -5   4   8   38.74   29.07
   5  -4  -8   89.18   74.15
  -5   4   7 1328.46  138.70
   5   4  -7 1350.11   83.43
   5  -4  -7 1340.68  124.74
  -5   4   6  -28.75   31.29
   5   4  -6  -10.49   16.86
   5  -4  -6   35.66   48.60
  -5   4   5 1921.66  132.24
   5   4  -5 1851.90  140.80
   5  -4  -5 1768.74  132.83
  -5   4   4  146.32   58.52
   5   4  -4   61.51   35.30
   5  -4  -4  263.58   75.83
  -5   4   3 1984.58  129.23
   5   4  -3 2066.15  118.94
   5  -4  -3 2224.18  147.51
  -5   4   2  393.97   91.86
   5   4  -2  196.36   40.27
   5  -4  -2  327.39   81.21
  -5   4   1 1119.57  176.68
   5   4  -1 1020.98  116.40
   5  -4  -1 1299.78  103.50
   5   4   0  420.94  101.21
   5  -4   0  466.61   73.72
   5   4   1 3215.86  179.39
   5  -4   1 3082.76  197.62
   5  -4   1 3019.02  170.77
   5   4   2   90.48   51.79
   5  -4   2  125.83   78.71
   5  -4   2  157.93   56.22
   5   4   3  651.91  139.55
   5  -4   3  811.47  110.01
   5  -4   3  780.37   63.93
   5   4   4   32.06   30.56
   5  -4   4   41.39   51.64
   5  -4   4   60.14   37.59
   5   4   5 1697.81  203.38
   5  -4   5 1548.26  132.72
   5  -4   5 1732.80  105.49
   5   4   6   24.81   27.93
   5  -4   6   52.94   49.30
   5  -4   6    7.37   21.69
   5   4   7 2685.25  242.41
   5  -4   7 2695.13  176.39
   5   4   8   31.99   31.67
   5  -4   8    2.51   50.26
   5   4   9  377.41  104.87
   5  -4   9  544.87  103.11
   5   4  10  760.18  186.89
   5  -4  10 1032.28  114.27
   5   4  11  165.41   66.86
   5  -4  11   91.67   49.65
   5   4  12   61.68   36.72
   5  -4  12   42.83   47.82
  -5   5  10  176.96   80.22
   5  -5 -10  131.31   68.52
  -5   5   9   14.65   36.73
   5  -5  -9   83.87   61.51
  -5   5   8 1690.71  135.01
   5  -5  -8 1631.32  142.34
  -5   5   7   44.67   40.09
   5  -5  -7   61.99   65.51
  -5   5   6 1212.34  138.66
   5  -5  -6 1280.55  116.09
  -5   5   5   48.50   25.24
   5  -5  -5   60.88   45.64
  -5   5   4 1807.78  200.85
   5   5  -4 2014.08  117.92
   5  -5  -4 2088.87  143.34
  -5   5   3   60.39   38.43
   5   5  -3   25.87   16.45
   5  -5  -3  128.73   68.23
  -5   5   2 1056.56  171.57
   5   5  -2 1205.90  142.30
   5  -5  -2 1365.71  112.00
   5   5  -1   40.05   26.04
   5  -5  -1   25.85   56.66
   5   5   0 2163.07  140.46
   5  -5   0 1993.13  153.87
   5  -5   0 2160.41  142.10
   5   5   1  -17.38   28.64
   5  -5   1   40.08   53.05
   5  -5   1   -6.49   26.20
   5   5   2  309.92   80.85
   5  -5   2  324.33   78.10
   5  -5   2  371.88   56.08
   5   5   3  478.56  115.71
   5  -5   3  695.26  100.45
   5  -5   3  660.77   70.24
   5   5   4  365.09   92.22
   5  -5   4  433.99   75.79
   5   5   5  307.91   81.22
   5  -5   5  445.07   85.97
   5   5   6  468.46  108.29
   5  -5   6  644.58   96.14
   5   5   7   -7.76   22.84
   5  -5   7   57.97   50.31
  -6   0  21   14.81   32.27
  -6   0  20   43.99   37.59
  -6   0  19   53.41   42.83
  -6   0  18  364.93   54.17
   6   0 -18  422.64   50.68
  -6   0  17   18.85   22.71
   6   0 -17   20.28   30.86
  -6   0  16  497.49   54.89
   6   0 -16  551.43   57.89
  -6   0  15   85.84   45.96
   6   0 -15   60.92   38.81
  -6   0  14  154.85   38.42
   6   0 -14  116.84   40.00
  -6   0  13   17.95   17.73
   6   0 -13    4.82   27.43
  -6   0  12 2565.80  140.40
   6   0 -12 2451.80  137.31
  -6   0  11   -4.21   18.50
   6   0 -11    3.41   27.90
  -6   0  10 1054.91   66.36
   6   0 -10  967.68   75.81
  -6   0   9   23.41   22.88
   6   0  -9   11.12   28.82
  -6   0   8 2638.56  136.34
   6   0  -8 2575.85  142.12
  -6   0   7   -0.44    9.12
   6   0  -7   -0.94   29.63
  -6   0   6 7586.93  367.83
   6   0  -6 7941.80  391.36
   6   0  -5   14.12    8.93
   6   0  -5  114.74   36.93
  -6   0   4 3741.41  190.82
   6   0  -4 3811.46  186.09
   6   0  -4 3525.60  182.47
  -6   0   3   -9.85   11.51
   6   0  -3    1.45    8.83
   6   0  -3   12.73   27.48
   6   0  -2  762.44   58.95
   6   0  -2  794.07   68.83
   6   0  -1  171.77   39.24
   6   0   011776.41  562.13
   6   0   1  128.74   31.81
   6   0   1  142.77   36.61
   6   0   2 1551.26   94.54
   6   0   2 1443.19   94.14
   6   0   3    7.58   22.47
   6   0   3    1.92   34.41
   6   0   5   20.77   43.38
   6   0   5    8.79   24.54
   6   0   6 3489.64  191.90
   6   0   6 3345.28  179.11
   6   0   7   83.21   47.75
   6   0   7   15.31   23.46
   6   0   8 2984.03  166.65
   6   0   8 2854.98  152.79
   6   0   9  -10.90   27.40
   6   0   9    0.84   19.38
   6   0  10 1105.93   89.07
   6   0  10 1264.61   85.96
   6   0  11   12.73   34.28
   6   0  11   59.22   38.68
   6   0  12  925.49   81.98
   6   0  12  848.43  102.23
   6   0  13   34.17   53.87
   6   0  13   20.08   17.88
   6   0  14 2911.62  177.99
   6   0  14 2864.71  157.98
   6   0  15   49.57   39.52
   6   0  15   -3.01   30.88
   6   0  16 2833.08  170.77
   6   0  16 2610.41  145.86
   6   0  17   -2.30   34.61
   6   0  17   38.08   18.18
  -6   1  21  134.83   56.29
  -6  -1  21  123.80   41.42
  -6   1  20  -20.77   29.35
  -6  -1  20   23.57   22.79
   6  -1 -20  138.89   52.94
  -6   1  19  107.85   42.06
  -6  -1  19  149.82   37.88
   6  -1 -19   76.93   46.03
  -6   1  18  117.43   35.70
  -6  -1  18   97.25   32.42
   6  -1 -18   27.27   32.06
  -6   1  17  864.40   76.21
  -6  -1  17  700.51   58.26
   6  -1 -17 1091.74   96.44
  -6   1  16   34.91   27.04
   6   1 -16   46.31   23.38
  -6  -1  16  112.25   34.60
   6  -1 -16  176.20   84.12
  -6   1  15  858.99   75.25
   6   1 -15  917.19   63.32
  -6  -1  15  950.59   71.56
   6  -1 -15 1109.12  104.52
  -6   1  14  -25.81   24.96
   6   1 -14   -3.39   16.93
  -6  -1  14    7.48   17.59
   6  -1 -14    3.72   45.62
  -6   1  13 1396.74   93.04
   6   1 -13 1258.16   77.47
  -6  -1  13 1375.97   82.24
   6  -1 -13 1528.60  118.39
  -6   1  12  -24.80   24.62
   6   1 -12   24.74   25.17
  -6  -1  12    5.08   14.97
   6  -1 -12  -28.06   43.35
  -6   1  11 3930.01  205.10
   6   1 -11 3822.14  192.93
  -6  -1  11 3878.32  191.99
   6  -1 -11 3771.43  207.57
  -6   1  10  143.35   33.78
   6   1 -10  244.13   41.21
  -6  -1  10  238.75   28.13
   6  -1 -10  206.94   63.18
  -6   1   9   44.50   26.06
   6   1  -9   37.23   21.46
  -6  -1   9   37.59   19.03
   6  -1  -9   24.76   47.63
  -6   1   8   77.95   24.08
   6   1  -8   72.68   29.31
   6   1  -8   74.29   15.70
  -6  -1   8  103.11   24.51
   6  -1  -8   92.35   35.31
   6   1  -7 3291.13  162.02
  -6   1   7 3319.06  180.76
   6   1  -7 3377.28  179.50
  -6  -1   7 3274.37  158.88
   6  -1  -7 3065.98  168.23
  -6   1   6   54.70   29.00
   6   1  -6    3.80   21.37
   6   1  -6   13.83   15.65
  -6  -1   6   35.44   12.25
   6  -1  -6   52.24   32.14
  -6   1   5 1086.68   93.88
   6   1  -5 1072.70   71.82
   6   1  -5 1112.80   56.92
  -6  -1   5 1039.11   62.15
   6  -1  -5  882.65   69.44
  -6   1   4  726.22   96.63
   6   1  -4  641.22   34.24
   6   1  -4  718.62   63.31
   6  -1  -4  621.88   63.69
  -6   1   3 6624.00  330.30
   6   1  -3 9038.26  426.67
   6  -1  -3 6135.28  304.96
  -6   1   2  812.30   70.47
   6   1  -2  856.68   47.30
   6   1  -2  812.58   67.43
   6  -1  -2  757.99   68.36
  -6   1   1 5111.50  252.74
   6   1  -1 5284.17  250.70
   6   1  -1 5677.35  272.06
   6   1   0   79.76   18.33
   6   1   0   92.58   21.95
   6   1   0  102.51   42.63
   6  -1   0  151.39   38.96
   6   1   1 6609.62  314.95
   6   1   1 3882.70  188.52
   6  -1   1 6568.93  330.33
   6   1   2   59.02   18.93
   6   1   2   68.96   30.56
   6   1   2   93.15   41.37
   6   1   3 1732.62   93.01
   6   1   3 1723.34  105.77
  -6  -1  -3 1641.67   89.69
   6  -1   3 1838.71  113.36
   6  -1   3 1763.71  104.59
   6   1   4  126.56   39.34
   6   1   4  136.05   48.10
   6  -1   4   54.84   36.03
   6  -1   4   95.19   41.32
   6   1   5 2402.13  127.12
   6   1   5 2387.12  134.02
   6  -1   5 2661.93  154.98
   6  -1   5 2538.79  139.30
   6   1   6  102.24   38.69
   6   1   6   96.51   45.04
   6  -1   6   84.37   62.56
   6  -1   6  116.83   36.52
   6   1   7 1864.33  107.58
   6   1   7 1851.96  118.81
   6  -1   7 1580.72  109.93
   6  -1   7 1765.94  107.05
   6   1   8  484.53   47.02
   6   1   8  591.54   55.30
   6  -1   8  664.65   80.19
   6  -1   8  565.89   52.41
   6   1   9 3344.86  178.37
   6   1   9 3199.36  172.65
   6  -1   9 3403.03  196.03
   6  -1   9 3320.65  173.09
   6   1  10   16.99   28.30
   6   1  10  -15.97   25.57
   6  -1  10   26.54   44.94
   6  -1  10   16.79   21.06
   6   1  11 2459.92  143.79
   6   1  11 2396.81  148.56
   6  -1  11 2438.33  152.03
   6  -1  11 2418.64  133.28
   6   1  12  109.67   56.42
   6   1  12   39.23   36.29
   6  -1  12   33.52   43.43
   6  -1  12   -1.91   18.20
   6   1  13 2416.75  148.24
   6   1  13 2308.14  200.53
   6  -1  13 2265.13  125.63
   6  -1  13 2058.44  134.57
   6   1  14   -3.27   34.75
   6   1  14  -31.51   23.75
   6  -1  14   38.34   30.67
   6  -1  14  -21.14   42.38
   6   1  15  477.01   61.21
   6   1  15  489.71  121.29
   6  -1  15  613.94   86.50
   6   1  16   49.49   33.19
   6   1  16   37.03   23.30
   6  -1  16   46.85   60.68
   6   1  17  202.47   48.76
   6   1  17  156.53   80.57
   6  -1  17  444.41   76.10
  -6   2  20  511.96   80.47
   6  -2 -20  296.33   67.25
  -6   2  19  200.83   61.35
   6  -2 -19  275.45   73.60
  -6   2  18  623.75   67.17
   6  -2 -18  266.52   69.31
  -6   2  17   14.11   32.66
  -6  -2  17   34.42   25.18
   6  -2 -17   43.56   63.68
  -6   2  16 1621.19  118.89
  -6  -2  16 1733.90  105.45
   6  -2 -16 1686.59  132.40
  -6   2  15  592.11   75.87
  -6  -2  15  550.79   52.69
   6  -2 -15  479.11   93.59
  -6   2  14  645.20  119.54
  -6  -2  14  689.09   52.66
   6  -2 -14  691.24  102.83
  -6   2  13   51.62   26.78
   6   2 -13   48.13   19.13
  -6  -2  13   34.28   20.67
   6  -2 -13   -5.13   52.03
  -6   2  12 3680.96  197.20
   6   2 -12 3568.03  178.07
  -6  -2  12 3745.49  187.12
   6  -2 -12 3709.53  217.94
  -6   2  11  192.68   67.00
   6   2 -11  202.95   28.42
  -6  -2  11  176.52   29.50
   6  -2 -11  226.03   99.59
  -6   2  10  738.60   80.83
   6   2 -10  823.43   55.95
  -6  -2  10  701.66   44.28
   6  -2 -10  919.85  104.23
  -6   2   9    9.76   17.33
   6   2  -9   32.04   20.09
  -6  -2   9   -2.82    6.87
   6  -2  -9  -12.80   54.20
  -6   2   8 4631.24  245.82
   6   2  -8 4463.10  220.82
   6   2  -8 4499.30  217.10
  -6  -2   8 4517.00  215.91
   6  -2  -8 4877.48  261.56
  -6   2   7    6.86   15.87
   6   2  -7    3.36   16.33
  -6  -2   7    4.51    2.72
   6  -2  -7   82.51   66.40
  -6   2   6  541.78  101.01
   6   2  -6  517.62   40.21
   6  -2  -6  481.14   66.09
  -6   2   5  423.49  117.33
   6   2  -5  392.52   55.19
   6  -2  -5  218.21   52.25
  -6   2   4   34.74   27.17
   6   2  -4   89.75   30.39
   6  -2  -4  100.93   57.36
  -6   2   3  592.69  106.81
   6   2  -3  514.74   58.20
   6  -2  -3  452.52   66.22
  -6   2   2 1962.19  113.87
   6   2  -2 2053.25  114.81
   6  -2  -2 1882.63  112.21
  -6   2   1   43.16   17.30
   6   2  -1   59.99   40.54
   6  -2  -1  143.44   60.71
   6   2   0 4942.66  250.03
   6  -2   0 4922.46  252.84
   6   2   1  125.74   42.23
   6  -2   1  221.23   84.11
   6  -2   1   72.88   48.57
   6   2   2  799.49   43.19
   6   2   2  833.96   75.85
   6  -2   2  728.00   84.02
   6  -2   2  840.65   76.35
   6   2   3  637.12   40.96
   6   2   3  601.78   60.11
   6  -2   3  322.11   54.94
  -6  -2  -3  633.19   43.98
   6  -2   3  565.80   61.77
   6   2   4 3630.50  178.26
   6   2   4 3518.95  185.91
   6  -2   4 3404.70  196.19
   6  -2   4 3389.95  180.29
   6   2   5 1139.59   64.64
   6   2   5 1171.39  150.39
   6  -2   5 1155.37  101.55
   6  -2   5 1181.01   85.01
   6   2   6   52.74   22.51
   6   2   6   16.33   28.30
   6  -2   6    0.34   44.90
   6  -2   6    9.30   20.10
   6   2   7 1276.25   78.82
   6   2   7 1247.17   85.87
   6  -2   7 1270.68  122.50
   6  -2   7 1325.84   83.25
   6   2   8  839.18   63.65
   6   2   8  839.71  111.20
   6  -2   8  775.86   88.44
   6  -2   8 1018.01   75.92
   6   2   9  -20.64   17.97
   6   2   9   34.98   16.79
   6  -2   9    5.09   44.17
   6  -2   9   34.16   29.34
   6   2  10 1487.35   94.20
   6   2  10 1459.23  208.10
   6  -2  10 1548.65  124.64
   6  -2  10 1427.95   88.96
   6   2  11   12.95   25.62
   6   2  11   23.51   30.86
   6  -2  11   68.94   73.09
   6  -2  11   10.86   16.98
   6   2  12 1887.19  116.44
   6   2  12 1763.58  182.71
   6  -2  12 1713.65  135.85
   6  -2  12 1889.41  109.04
   6   2  13  270.38   45.07
   6   2  13  232.09   66.41
   6  -2  13  257.90   77.82
   6   2  14  364.11   52.87
   6   2  14  221.52   69.73
   6  -2  14  218.16   97.26
   6   2  15   93.55   41.92
   6   2  15   66.85   36.88
   6  -2  15   27.88   54.16
   6   2  16 1159.78   92.35
   6   2  16  392.66  162.94
   6  -2  16 1084.01  108.73
  -6   3  18   73.68   47.73
   6  -3 -18   52.83   45.76
  -6   3  17  362.80  130.73
   6  -3 -17  316.17   76.84
  -6   3  16   43.73   26.41
   6  -3 -16   -2.23   56.74
  -6   3  15 2854.71  206.85
   6  -3 -15 3209.43  218.91
  -6   3  14   25.28   29.06
   6  -3 -14   48.81   71.22
  -6   3  13 1249.55  140.16
   6  -3 -13 1250.04  116.10
  -6   3  12   19.80   27.71
   6  -3 -12   39.41   74.97
  -6   3  11 2519.40  159.22
   6  -3 -11 2570.47  169.18
  -6   3  10   55.78   46.29
   6   3 -10  146.91   41.46
   6  -3 -10   29.49   52.11
  -6   3   9   78.45   41.46
   6   3  -9  131.04   27.95
   6  -3  -9   56.09   48.73
  -6   3   8 2636.31  171.24
   6   3  -8 2503.58  131.90
   6  -3  -8 2388.54  158.06
  -6   3   7  886.00  114.89
   6   3  -7 1039.80   67.18
   6  -3  -7 1028.61  116.74
  -6   3   6  409.90  110.47
   6   3  -6  332.17   36.01
   6  -3  -6  385.28   90.98
  -6   3   5 1085.37  161.54
   6   3  -5 1158.79   76.71
   6  -3  -5 1217.23  115.26
  -6   3   4  949.53  151.63
   6   3  -4  931.74   69.68
   6  -3  -4  932.17   99.76
  -6   3   3 1309.99  137.09
   6   3  -3 1276.93  126.50
   6  -3  -3 1093.38   87.57
  -6   3   2   85.34   37.01
   6   3  -2   71.16   38.40
   6  -3  -2   71.22   57.39
  -6   3   1 4174.46  218.73
   6   3  -1 4209.16  219.61
   6  -3  -1 3920.73  211.21
   6   3   0  108.19   46.97
   6  -3   0    1.52   29.28
   6   3   1  503.98   75.17
   6  -3   1  317.33   58.71
   6  -3   1  648.60   75.16
   6   3   2 5551.23  282.35
   6  -3   2 5142.39  278.33
   6  -3   2 5837.88  296.63
   6   3   3   21.39    9.24
   6   3   3   47.17   51.34
   6  -3   3  106.81   71.18
   6  -3   3   42.94   43.93
   6   3   4 1366.63  148.89
   6  -3   4 1303.44  121.75
   6  -3   4 1487.09   97.26
   6   3   5 1203.40  155.90
   6  -3   5 1290.81  120.77
   6  -3   5 1181.54   82.70
   6   3   6 3505.98  203.83
   6  -3   6 3235.78  200.28
   6  -3   6 3285.79  173.72
   6   3   7  153.32   27.97
   6   3   7  105.16   41.30
   6  -3   7  103.08   70.45
   6  -3   7  176.16   39.42
   6   3   8  554.23   48.83
   6   3   8  501.80  118.81
   6  -3   8  656.80   95.41
   6  -3   8  637.54   61.09
   6   3   9 2874.43  150.66
   6   3   9 2760.51  204.24
   6  -3   9 2685.23  170.17
   6  -3   9 2801.78  152.96
   6   3  10   33.16   16.56
   6   3  10   93.88   47.62
   6  -3  10   65.01   55.06
   6   3  11  456.42  139.16
   6  -3  11  505.23   98.66
   6   3  12   36.89   16.83
   6  -3  12  179.41   92.64
   6   3  13  148.30   58.37
   6  -3  13  395.70   89.61
   6   3  14  219.04   84.60
   6  -3  14  662.89   83.20
  -6   4  15   86.16   64.81
   6  -4 -15  133.06   58.34
  -6   4  14   37.78   30.18
   6  -4 -14  231.06   73.38
  -6   4  13   66.02   73.64
   6  -4 -13   66.40   71.44
  -6   4  12  843.52  181.13
   6  -4 -12 1023.79  110.11
  -6   4  11   96.91   66.34
   6  -4 -11   92.44   84.86
  -6   4  10 1077.31  228.17
   6  -4 -10 1021.78  106.73
  -6   4   9    6.91   21.41
   6  -4  -9   20.78   48.31
  -6   4   8 2355.06  175.99
   6  -4  -8 2395.87  164.19
  -6   4   7  185.61   66.16
   6   4  -7  138.18   49.64
   6  -4  -7  202.95   93.21
  -6   4   6 1338.77  219.16
   6   4  -6 1336.02  100.57
   6  -4  -6 1436.04  121.91
  -6   4   5   84.38   45.89
   6   4  -5   65.30   26.18
   6  -4  -5  116.36   68.61
  -6   4   4 3112.85  232.86
   6   4  -4 2801.40  196.64
   6  -4  -4 3501.44  208.36
  -6   4   3  536.78  163.69
   6   4  -3  514.32  101.20
   6  -4  -3  549.55   83.23
  -6   4   2   42.98   24.17
   6   4  -2   17.21   29.97
   6  -4  -2   76.14   59.18
  -6   4   1   25.41   23.44
   6   4  -1   65.85   24.96
   6  -4  -1  119.27   65.32
   6   4   0   -6.83   28.14
   6  -4   0   70.00   55.87
   6  -4   0   68.75   41.24
   6   4   1 1967.56  174.17
   6  -4   1 2069.01  169.01
   6  -4   1 1799.62  113.65
   6   4   2 1528.67  111.33
   6  -4   2 1656.57  148.96
   6  -4   2 1560.48  109.52
   6   4   3  241.26   62.93
   6  -4   3  360.05   95.58
   6  -4   3  291.48   54.71
   6   4   4 1324.99  204.90
   6  -4   4 1583.96  144.42
   6  -4   4 1338.01   95.72
   6   4   5  119.11   51.26
   6  -4   5  144.94   85.75
   6  -4   5  100.61   46.88
   6   4   6 1659.19  205.51
   6  -4   6 2213.35  156.86
   6  -4   6 1995.20  119.01
   6   4   7  293.57   66.55
   6  -4   7  366.70   89.67
   6   4   8  823.62  203.38
   6  -4   8 1046.33  112.80
   6   4   9  -43.08   31.77
   6  -4   9  147.91   86.07
   6   4  10  331.08  105.93
   6  -4  10  409.17   93.39
  -6   5   8   43.03   21.02
   6  -5  -8   65.36   50.07
   6  -5  -7  873.42  120.81
  -6   5   6   41.77   33.26
   6  -5  -6  -27.23   47.88
  -6   5   5  194.81   63.56
   6  -5  -5  147.79   59.70
  -6   5   4   48.71   23.00
   6   5  -4   62.36   30.35
   6  -5  -4   92.74   46.77
  -6   5   3 2770.99  259.63
   6   5  -3 2748.94  187.06
   6  -5  -3 2843.78  191.30
  -6   5   2  310.65   65.01
   6   5  -2  143.66   37.81
   6  -5  -2  271.33   77.83
   6   5  -1  298.55   77.44
   6  -5  -1  316.93   87.21
   6  -5  -1  355.79   72.24
   6   5   0   28.06   25.99
   6  -5   0  116.77   81.33
   6  -5   0   80.39   50.53
   6   5   1 1348.67  287.24
   6  -5   1 1655.82  153.78
   6  -5   1 1391.43  109.23
   6   5   2   20.32   20.06
   6  -5   2   90.37   75.31
   6  -5   2   -8.59   27.22
   6   5   3  338.04   78.76
   6  -5   3  460.23  101.70
   6  -5   3  457.29   57.99
   6   5   4   13.69   33.69
   6  -5   4  186.54  100.01
  -7   0  20    7.25   23.33
  -7   0  19  634.26   65.00
  -7   0  18    5.98   20.53
   7   0 -18    1.21   23.09
  -7   0  17  444.03   53.39
   7   0 -17  562.85   63.04
  -7   0  16  -29.35   20.84
   7   0 -16   55.32   26.93
  -7   0  15 3074.36  163.43
   7   0 -15 2928.05  166.87
  -7   0  14    3.24   19.21
   7   0 -14   23.77   33.11
  -7   0  13   49.22   27.28
   7   0 -13  152.50   58.91
  -7   0  12   20.44   18.00
   7   0 -12    0.97   28.02
  -7   0  11 2059.47  115.44
   7   0 -11 2050.14  124.21
  -7   0  10    2.69   13.73
   7   0 -10  120.28   50.39
  -7   0   9  697.46   95.82
   7   0  -9  747.60   76.78
  -7   0   8    3.91    9.18
   7   0  -8   -5.94   29.64
  -7   0   7 3116.79  160.47
   7   0  -7 2892.54  155.14
  -7   0   6   12.93   12.18
   7   0  -6  124.38   56.61
  -7   0   5 3316.46  164.99
   7   0  -5 3163.52  175.07
  -7   0   4   19.52   13.92
   7   0  -4   79.48   43.00
   7   0  -2  110.26   46.55
   7   0  -2   71.82   41.13
   7   0  -1 3694.19  189.08
   7   0  -1 3608.06  188.50
   7   0   0  118.39   45.32
   7   0   0   59.42   40.00
   7   0   1 2513.13  138.88
   7   0   1 2279.44  130.75
   7   0   2  112.05   40.96
   7   0   2  107.11   54.50
   7   0   3 1474.31   89.11
   7   0   3 1506.75  100.01
   7   0   4  -28.95   23.00
   7   0   4    8.57   25.16
   7   0   5 2930.42  159.10
   7   0   5 2843.83  158.65
   7   0   6   35.31   28.90
   7   0   6  -30.98   24.41
   7   0   7 2780.57  159.98
   7   0   7 2548.52  146.79
   7   0   8   13.41   32.87
   7   0   8    8.73   26.09
   7   0   9 4829.57  254.35
   7   0   9 5153.79  262.43
   7   0  10    8.05   37.99
   7   0  10  -15.05   23.51
   7   0  11  756.65   79.10
   7   0  11  928.33   72.82
   7   0  12   67.69   58.00
   7   0  12   42.27   35.36
   7   0  13 1090.16   92.91
   7   0  13 1137.47  104.29
   7   0  14   -3.19   33.97
   7   0  14   -8.63   21.77
   7   0  15  180.42   45.82
   7   0  15  161.19   39.42
  -7   1  20  666.41   75.25
  -7  -1  20  540.82   54.78
   7  -1 -20  655.43   66.95
  -7   1  19    3.28   26.91
  -7  -1  19    1.84   18.92
   7  -1 -19   32.60   38.60
  -7   1  18  287.61   45.76
  -7  -1  18  486.17   53.06
   7  -1 -18  469.04   64.59
  -7   1  17   88.03   37.33
  -7  -1  17  177.26   40.36
   7  -1 -17  150.70   46.71
  -7   1  16 1571.31  106.50
   7   1 -16 1497.61   92.76
  -7  -1  16 1580.53   97.03
   7  -1 -16 1233.22   92.51
  -7   1  15   30.76   30.14
   7   1 -15   27.82   18.90
  -7  -1  15   42.96   28.68
   7  -1 -15   86.94   39.81
  -7   1  14  406.92   53.07
   7   1 -14  372.18   44.12
  -7  -1  14  335.74   40.45
   7  -1 -14  330.40   68.20
  -7   1  13    0.88   18.70
   7   1 -13   15.31   19.15
  -7  -1  13   -1.12   12.01
   7  -1 -13   -2.22   31.79
  -7   1  12  614.80  137.40
   7   1 -12  614.14   54.51
  -7  -1  12  767.37   53.13
   7  -1 -12  667.50   74.68
  -7   1  11    9.91   16.69
   7   1 -11   17.63   23.18
  -7  -1  11   10.43   11.69
   7  -1 -11   41.07   48.37
   7   1 -10 2632.22  145.44
  -7   1  10 2573.86  140.19
  -7  -1  10 2533.51  129.25
   7  -1 -10 2251.60  135.01
   7   1  -9  498.23   60.46
  -7   1   9  415.32  106.89
  -7  -1   9  299.77   65.10
   7  -1  -9  368.13   63.17
   7   1  -8 4036.67  197.44
  -7   1   8 3972.29  201.49
   7   1  -8 3985.33  206.74
  -7  -1   8 4049.72  197.42
   7  -1  -8 3730.78  201.89
  -7   1   7   45.18   15.24
   7   1  -7    7.78   25.99
   7   1  -7    8.14    6.75
  -7  -1   7   13.38   10.35
   7  -1  -7  -19.47   36.12
  -7   1   6 2563.69  141.68
   7   1  -6 2606.99  127.59
   7   1  -6 2481.58  136.11
   7  -1  -6 2623.39  149.46
  -7   1   5   90.91   29.48
   7   1  -5  170.35   18.00
   7   1  -5  218.27   50.77
   7  -1  -5  155.94   60.87
  -7   1   4 7051.47  346.21
   7   1  -4 7088.90  335.98
   7   1  -4 7589.81  361.99
   7   1  -4 7877.55  389.79
   7  -1  -4 7607.12  384.82
  -7   1   3   45.00   33.16
   7   1  -3   78.35   10.62
   7   1  -3  159.20   23.02
   7   1  -3  111.94   42.86
   7  -1  -3   84.06   35.54
  -7   1   2  107.88   24.03
   7   1  -2  132.34   13.24
   7   1  -2   98.26   15.61
   7   1  -2   62.41   28.13
   7  -1  -2  136.95   40.82
   7   1  -1 3003.65  145.59
   7   1  -1 2791.80  154.30
   7  -1  -1 3046.72  172.39
   7  -1  -1 2685.94  151.77
   7   1   0 4309.65  210.37
   7   1   0 4993.59  243.19
   7   1   0 4511.16  231.46
   7  -1   0 4620.89  252.38
   7  -1   0 4300.50  225.70
   7   1   1  694.46   57.23
   7   1   1  708.90   46.95
   7   1   1  874.65   80.57
   7  -1   1  725.20   82.60
   7  -1   1  896.33   80.67
   7   1   2 4258.92  212.86
   7   1   2 4763.12  250.48
   7  -1   2 4639.41  244.57
   7  -1   2 4376.29  226.16
   7   1   3   -2.18   14.25
   7   1   3   64.80   48.01
   7  -1   3   31.47   38.54
   7  -1   3   10.95   31.72
   7   1   4 3125.89  158.53
   7   1   4 3216.44  177.38
   7  -1   4 3212.90  182.56
   7  -1   4 3230.75  178.95
   7   1   5   30.11   21.90
   7   1   5   32.93   30.98
   7  -1   5  127.41   49.86
   7  -1   5   54.18   26.13
   7   1   6 3333.75  173.69
   7   1   6 3306.47  180.58
   7  -1   6 3092.53  174.96
   7  -1   6 2892.05  157.83
   7   1   7  266.94   45.52
   7   1   7  209.37   47.83
   7  -1   7  213.56   62.01
   7  -1   7  308.61   52.86
   7   1   8  852.35   66.71
   7   1   8  946.28   86.01
   7  -1   8  840.48   80.60
   7  -1   8  905.50   70.15
   7   1   9  454.29   57.25
   7   1   9  447.37   62.43
   7  -1   9  478.38   76.50
   7  -1   9  487.27   57.98
   7   1  10  151.28   34.21
   7   1  10  295.02   89.91
   7  -1  10  321.83   77.90
   7  -1  10  307.63   48.24
   7   1  11   35.86   41.75
   7   1  11   76.76   28.35
   7  -1  11  116.62   51.18
   7  -1  11  149.05   42.79
   7   1  12 2725.77  154.29
   7   1  12 2700.24  154.04
   7  -1  12 2852.94  178.24
   7  -1  12 2741.73  153.05
   7   1  13   25.80   33.91
   7   1  13   61.39   43.22
   7  -1  13   30.13   28.25
   7  -1  13   -2.96   36.40
   7   1  14  204.77   60.35
   7   1  14   90.08   72.92
   7  -1  14   77.70   38.35
   7  -1  14  136.54   73.61
   7   1  15   86.19   44.99
   7   1  15   29.25   23.80
   7  -1  15   42.95   55.81
  -7   2  19 1173.58   96.87
   7  -2 -19 1582.52  141.77
  -7   2  18   78.68   31.26
   7  -2 -18  129.73   66.41
  -7   2  17  556.12  129.72
   7  -2 -17  684.87   96.50
  -7   2  16   94.26   46.75
   7  -2 -16    0.65   52.53
  -7   2  15 2705.70  155.12
   7  -2 -15 2933.25  196.83
  -7   2  14   -3.53   27.59
   7  -2 -14   -4.71   49.76
  -7   2  13 1171.99  177.60
   7   2 -13 1299.46   80.21
   7  -2 -13 1312.15  112.80
  -7   2  12  136.14   50.83
   7   2 -12  164.66   26.88
   7  -2 -12  202.43   84.63
  -7   2  11 2591.60  151.68
   7   2 -11 2512.93  134.11
   7  -2 -11 2629.30  176.68
  -7   2  10   -0.81   30.60
   7   2 -10   37.21   22.68
   7  -2 -10   11.74   36.72
  -7   2   9  212.67   69.93
   7   2  -9  167.73   33.23
   7  -2  -9   26.34   37.86
  -7   2   8 1799.89  112.48
   7   2  -8 1697.56  100.98
   7  -2  -8 1484.55  111.22
  -7   2   7  799.96  129.66
   7   2  -7  762.68   58.83
   7  -2  -7  696.07   77.28
  -7   2   6   72.69   36.33
   7   2  -6   52.13   30.09
   7  -2  -6  125.27   63.98
  -7   2   5 2884.14  156.95
   7   2  -5 3036.20  162.35
   7  -2  -5 2660.16  156.10
  -7   2   4   69.45   42.26
   7   2  -4   41.47   28.18
   7  -2  -4  108.58   64.57
  -7   2   3 6568.81  339.41
   7   2  -3 6679.94  336.72
   7  -2  -3 6477.30  328.30
  -7   2   2   36.26   32.23
   7   2  -2  112.20   51.62
   7  -2  -2  107.25   56.41
   7   2  -1 4092.54  213.30
   7  -2  -1 3832.87  207.33
   7   2   0 1628.20  102.89
   7  -2   0 1543.21  121.92
   7  -2   0 1687.76  117.21
   7   2   1 2105.86  128.77
   7  -2   1 1915.59  134.00
   7  -2   1 2253.40  140.07
   7   2   2 3705.72  202.44
   7  -2   2 3512.42  204.50
   7  -2   2 3337.54  183.87
   7   2   3 1861.14   93.77
   7   2   3 1871.07  117.87
   7  -2   3 1891.43  135.42
   7  -2   3 1893.59  115.58
   7   2   4  727.66   43.77
   7   2   4  748.28   68.95
   7  -2   4  725.38   89.74
   7  -2   4  802.53   68.39
   7   2   5 1556.28   83.09
   7   2   5 1521.94   99.92
   7  -2   5 1585.63  123.15
   7  -2   5 1502.04  100.56
   7   2   6   56.36   21.07
   7   2   6  113.99   51.31
   7  -2   6   64.78   51.42
   7  -2   6  254.03   37.58
   7   2   7 2208.23  118.62
   7   2   7 2313.92  149.10
   7  -2   7 2053.12  140.97
   7  -2   7 2314.93  133.17
   7   2   8  353.18   39.34
   7   2   8  389.45   65.52
   7  -2   8  212.33   51.34
   7  -2   8  227.10   42.52
   7   2   9 2434.79  132.22
   7   2   9 2341.53  228.01
   7  -2   9 2442.29  153.58
   7  -2   9 2451.25  135.48
   7   2  10  182.12   30.11
   7   2  10  310.49   68.64
   7  -2  10  289.97   88.74
   7  -2  10  394.65   50.12
   7   2  11 1268.55   83.49
   7   2  11 1040.83  293.02
   7  -2  11 1441.02  130.69
   7  -2  11 1331.76   86.49
   7   2  12   -1.40   20.94
   7   2  12   -4.45   25.69
   7  -2  12   31.18   54.29
   7   2  13    2.02   19.31
   7   2  13   26.36   41.28
   7  -2  13   29.56   51.66
   7   2  14   15.38   18.96
   7   2  14   16.91   19.85
   7  -2  14   51.64   49.99
  -7   3  17  -10.58   32.39
   7  -3 -17   68.96   49.58
  -7   3  16 1103.14  224.99
   7  -3 -16 1408.10  134.59
  -7   3  15   36.78   33.46
   7  -3 -15    9.23   50.68
  -7   3  14  280.05  114.72
   7  -3 -14  577.21   87.28
  -7   3  13   -4.95   32.11
   7  -3 -13   39.85   69.79
  -7   3  12 1615.19  234.59
   7  -3 -12 1664.96  130.42
  -7   3  11  -39.90   30.72
   7  -3 -11   88.22   73.43
  -7   3  10  880.31  202.53
   7   3 -10 1286.08   79.24
   7  -3 -10 1246.14  125.26
  -7   3   9   80.53   46.83
   7   3  -9   43.38   23.97
   7  -3  -9  -30.96   54.18
  -7   3   8 1010.37  170.14
   7   3  -8  961.40   64.73
   7  -3  -8 1183.29  124.75
  -7   3   7  314.75  101.98
   7   3  -7  381.76   43.65
   7  -3  -7  414.56   92.64
  -7   3   6 1757.73  114.02
   7   3  -6 1870.44  112.97
   7  -3  -6 1803.96  131.43
  -7   3   5   63.97   39.36
   7   3  -5   77.67   34.65
   7  -3  -5   46.49   40.64
  -7   3   4   72.00   29.17
   7   3  -4  255.71   42.27
   7  -3  -4   80.17   57.10
  -7   3   3  668.41  175.13
   7   3  -3  630.13   85.50
   7  -3  -3  574.58   81.16
  -7   3   2  700.71  189.90
   7   3  -2  672.85   62.07
   7  -3  -2  582.03   75.35
   7   3  -1   14.00   25.78
   7  -3  -1   70.32   35.07
   7   3   0 2321.58  219.42
   7  -3   0 2209.34  155.67
   7  -3   0 2094.09  133.19
   7   3   1   -6.83   29.49
   7  -3   1  108.75   48.30
   7  -3   1   24.27   43.20
   7   3   2  187.78   53.85
   7  -3   2  145.90   69.81
   7  -3   2  144.80   50.36
   7   3   3  645.11  152.11
   7  -3   3  723.70  106.21
   7  -3   3  626.00   74.56
   7   3   4 3311.76  182.94
   7  -3   4 3403.77  213.08
   7  -3   4 2948.32  164.00
   7   3   5  -25.00   28.44
   7  -3   5   47.10   56.69
   7  -3   5   15.21   28.58
   7   3   6   41.38   35.60
   7  -3   6   30.15   53.42
   7  -3   6  101.24   45.66
   7   3   7 1257.46  150.16
   7  -3   7 1418.70  124.48
   7  -3   7 1525.21  101.28
   7   3   8  437.48  102.24
   7  -3   8  523.45   87.08
   7  -3   8  503.76   56.16
   7   3   9   11.57   34.83
   7  -3   9   18.07   52.17
   7  -3   9  -10.61   18.11
   7   3  10   85.57   81.43
   7  -3  10  256.82   57.52
   7   3  11   17.57   28.57
   7  -3  11  103.59   75.16
   7   3  12  541.02  142.79
   7  -3  12  806.27  116.15
  -7   4  13   15.61   24.25
   7  -4 -13   92.44   66.51
  -7   4  12  601.72  149.86
   7  -4 -12 1058.30  122.85
  -7   4  11  162.46   85.54
   7  -4 -11  177.23   52.51
  -7   4  10   45.81   25.68
   7  -4 -10  -12.23   54.94
  -7   4   9  387.07  145.87
   7  -4  -9  395.13  101.88
  -7   4   8   -4.59   32.25
   7  -4  -8   47.03   53.10
  -7   4   7 1074.94  203.33
   7   4  -7 1235.61  105.25
   7  -4  -7 1319.28  139.52
  -7   4   6  122.13   42.32
   7   4  -6   63.50   26.93
   7  -4  -6   59.24   49.78
  -7   4   5  866.64  105.28
   7   4  -5  805.09  133.86
   7  -4  -5  757.57   89.47
  -7   4   4   46.79   33.89
   7   4  -4    9.05   15.05
   7  -4  -4   -4.06   38.06
  -7   4   3  744.09  203.87
   7   4  -3  805.05  146.03
   7  -4  -3  880.47   90.97
  -7   4   2 1969.37  123.68
   7   4  -2 2070.51  177.49
   7  -4  -2 2122.42  138.78
   7   4  -1  149.27   43.43
   7  -4  -1   71.35   53.42
   7  -4  -1  152.38   70.10
   7   4   0  376.68  108.25
   7  -4   0  164.18   81.99
   7  -4   0  492.30   77.85
   7   4   1  999.44  169.36
   7  -4   1  939.17  115.85
   7  -4   1 1079.30   85.96
   7   4   2   -4.58   21.12
   7  -4   2   61.00   54.18
   7  -4   2   79.67   38.54
   7   4   3 1114.51  192.04
   7  -4   3  986.88  134.65
   7  -4   3 1282.81   94.62
   7   4   4   55.12   31.94
   7  -4   4   40.49   83.46
   7  -4   4   50.41   46.76
   7   4   5 1050.65  162.74
   7  -4   5 1326.28  130.05
   7  -4   5 1146.70   83.66
   7   4   6  152.76   63.19
   7  -4   6  172.65   77.35
   7  -4   6  130.78   44.53
   7   4   7  632.35  195.72
   7  -4   7 1008.71  107.16
   7   4   8   52.00   33.39
   7  -4   8  156.33   76.44
  -7   5   4  174.45   86.61
   7   5  -4   77.05   41.99
   7  -5  -4  154.66   53.30
  -7   5   3   32.95   35.47
   7   5  -3    7.21   10.69
   7  -5  -3  113.62   64.24
   7   5  -2  528.87  170.87
   7  -5  -2  610.85  107.37
   7  -5  -2  658.18   77.59
   7   5  -1   -3.92   26.08
   7  -5  -1   29.34   59.08
   7  -5  -1   17.12   30.44
  -8   0  19  -26.62   19.22
  -8   0  18  549.90   55.52
   8   0 -18  889.93   84.44
  -8   0  17   13.45   19.68
   8   0 -17   46.89   28.28
  -8   0  16   17.98   26.80
   8   0 -16   14.69   25.96
  -8   0  15   33.71   17.83
   8   0 -15    4.30   28.00
  -8   0  14  251.89   58.65
   8   0 -14  289.95   57.02
  -8   0  13   -9.57   18.28
   8   0 -13   28.62   37.76
  -8   0  12 2523.48  152.09
   8   0 -12 2559.85  157.36
  -8   0  11   47.75   23.85
   8   0 -11   19.94   34.46
  -8   0  10 3427.41  173.34
   8   0 -10 3032.59  171.63
  -8   0   9    3.79   11.19
   8   0  -9   19.38   32.15
  -8   0   811791.43  566.20
   8   0  -811292.52  551.54
   8   0  -7   -5.64   33.28
  -8   0   6 2224.95  121.85
   8   0  -6 2105.92  123.72
  -8   0   5   16.60   12.25
   8   0  -5   46.11   31.24
   8   0  -4 1776.33  116.83
   8   0  -3   33.46   30.24
   8   0  -3   34.98   31.21
   8   0  -2 2372.63  129.62
   8   0  -2 2521.98  144.88
   8   0  -1   72.77   52.09
   8   0  -1   70.52   41.19
   8   0   0  995.93   70.15
   8   0   0 1096.07   86.46
   8   0   1   67.19   37.55
   8   0   1  -16.99   31.48
   8   0   2 4329.63  218.87
   8   0   3    1.30   29.31
   8   0   4 2086.98  121.54
   8   0   4 1888.25  114.77
   8   0   5   21.61   27.59
   8   0   5   44.78   43.32
   8   0   6  466.33   65.69
   8   0   6  391.58   66.14
   8   0   7   25.76   36.98
   8   0   7   10.65   34.67
   8   0   8 1909.30  123.49
   8   0   8 1702.79  108.90
   8   0   9   25.40   33.20
   8   0   9   14.63   28.35
   8   0  10  138.73   61.61
   8   0  10   34.11   26.99
   8   0  11  134.83   74.78
   8   0  11   46.93   24.30
   8   0  12 1773.97  124.70
   8   0  12 1721.44  113.14
   8   0  13   35.86   54.33
   8   0  13   32.46   23.32
   8   0  14  429.61   69.28
   8   0  14  219.31  108.12
  -8   1  19 1203.64   87.39
   8  -1 -19 1408.33  110.61
  -8   1  18   27.72   34.17
   8  -1 -18  107.98   59.43
  -8   1  17  312.63   91.38
   8  -1 -17  362.62   66.49
  -8   1  16  225.08   95.25
   8  -1 -16   58.89   32.91
  -8   1  15 2287.44  136.87
   8   1 -15 2409.64  134.60
   8  -1 -15 2476.69  150.40
  -8   1  14   -6.37   23.77
   8   1 -14   -1.45   22.41
   8  -1 -14   89.33   60.45
  -8   1  13  529.77  122.64
   8   1 -13  725.50   62.35
   8  -1 -13  741.34   94.66
  -8   1  12 1159.15   87.52
   8   1 -12 1220.60   86.12
   8  -1 -12 1194.29   95.88
   8   1 -11  103.05   40.17
  -8   1  11   33.62   19.66
  -8  -1  11   49.54   20.50
   8  -1 -11   40.38   36.04
   8   1 -10   46.88   50.66
  -8   1  10    5.36   21.25
  -8  -1  10    2.06    6.46
   8  -1 -10   59.66   68.00
   8   1  -9  442.56   56.16
  -8   1   9  431.10   87.18
  -8  -1   9  408.85   51.81
   8  -1  -9  408.60   76.77
  -8   1   8  250.74   82.79
   8   1  -8  293.06   52.45
  -8  -1   8  252.33   44.60
   8  -1  -8  744.99   80.03
   8   1  -7 2898.62  164.84
  -8   1   7 2787.49  153.01
  -8  -1   7 2737.81  133.98
   8  -1  -7 2911.69  170.02
  -8   1   6   91.64   20.88
   8   1  -6  203.83   47.21
   8  -1  -6  268.01   67.89
  -8   1   5 3869.19  206.53
   8   1  -5 4034.47  196.13
   8   1  -5 4038.19  213.30
   8  -1  -5 4123.69  222.28
  -8   1   4 1318.29  112.27
   8   1  -4 1367.54   72.20
   8   1  -4 1465.17  102.11
   8  -1  -4 1450.64  107.90
  -8   1   3 4095.19  208.18
   8   1  -3 3982.05  192.42
   8   1  -3 4005.82  214.03
   8  -1  -3 3796.17  204.86
   8   1  -2 2303.22  114.99
   8   1  -2 2137.17  129.54
   8  -1  -2 2219.29  138.96
   8  -1  -2 2858.75  170.54
   8   1  -1  731.21   47.32
   8   1  -1  711.66   74.93
   8  -1  -1  385.36   56.00
   8  -1  -1  668.09   71.67
   8   1   0 1926.16  100.85
   8   1   0 1706.23  106.75
   8  -1   0 1785.28  114.66
   8  -1   0 1705.46  113.87
   8   1   1  608.95   42.55
   8   1   1  687.31   63.78
   8  -1   1  724.25   79.34
   8  -1   1  697.03   69.33
   8   1   2  155.44   24.58
   8   1   2  123.35   37.29
   8  -1   2  143.94   41.57
   8  -1   2  245.91   54.94
   8   1   3  776.78   52.88
   8   1   3  900.56   90.54
   8  -1   3 1042.14   98.39
   8  -1   3 1012.10   86.78
   8   1   4  404.71   41.24
   8   1   4  480.99   65.03
   8  -1   4  211.89   57.28
   8  -1   4  436.09   70.56
   8   1   5 3074.68  160.78
   8   1   5 3154.31  177.41
   8  -1   5 3088.12  177.04
   8  -1   5 3354.92  186.75
   8   1   6  218.00   37.91
   8   1   6  186.68   58.92
   8  -1   6  178.07   69.10
   8  -1   6  313.99   58.42
   8   1   7 1902.14  110.69
   8   1   7 2044.05  130.58
   8  -1   7 1870.88  127.02
   8  -1   7 1876.38  112.87
   8   1   8   12.81   24.42
   8   1   8   -5.33   26.51
   8  -1   8  127.80   75.94
   8  -1   8   -2.97   25.04
   8   1   9  839.14   63.86
   8   1   9  668.34   67.93
   8  -1   9  943.67   94.27
   8  -1   9  761.08   69.58
   8   1  10  105.87   43.83
   8   1  10   38.95   28.02
   8  -1  10  127.40   58.60
   8  -1  10   40.40   29.21
   8   1  11   65.36   35.67
   8   1  11  190.99   51.64
   8  -1  11  158.81   80.64
   8  -1  11   36.27   31.25
   8   1  12   34.82   25.55
   8   1  12   -3.28   27.41
   8  -1  12  102.21   63.95
   8  -1  12   40.45   23.36
   8   1  13 1334.88   93.73
   8   1  13 1303.61   96.68
   8  -1  13 1300.77   89.76
   8  -1  13 1244.85  103.68
  -8   2  18  109.15   50.84
   8  -2 -18  238.25   59.45
  -8   2  17   18.78   22.93
   8  -2 -17   20.53   36.98
  -8   2  16  306.78  118.61
   8  -2 -16  315.91   64.78
  -8   2  15   -5.44   24.57
   8  -2 -15   -2.61   34.26
  -8   2  14  762.16  184.07
   8  -2 -14  842.70   94.26
  -8   2  13   69.35   33.04
   8   2 -13   93.54   28.08
   8  -2 -13  119.41   60.43
  -8   2  12 1684.54  187.18
   8   2 -12 1749.10  103.58
   8  -2 -12 1499.14  113.19
  -8   2  11   38.62   31.22
   8   2 -11   19.04   25.24
   8  -2 -11   27.79   46.34
  -8   2  10 2918.63  159.59
   8   2 -10 2831.13  155.60
   8  -2 -10 2430.91  152.23
  -8   2   9   -5.55   24.13
   8   2  -9   12.64   21.35
   8  -2  -9    7.02   43.32
  -8   2   8 1200.69  123.98
   8   2  -8 1135.98   83.55
   8  -2  -8 1169.31  101.44
  -8   2   7  229.52   66.66
   8   2  -7  185.49   36.87
   8  -2  -7  138.01   74.76
  -8   2   6  508.40  138.87
   8   2  -6  617.70   61.21
   8  -2  -6  555.79   79.99
  -8   2   5   39.79   38.72
   8   2  -5   65.72   45.28
   8  -2  -5   98.13   50.31
  -8   2   4 3175.06  168.92
   8   2  -4 3420.41  185.22
   8  -2  -4 3097.88  175.94
  -8   2   3  706.78  126.57
   8   2  -3  629.44   62.23
   8  -2  -3  673.39   78.12
   8   2  -2  843.60   73.84
   8  -2  -2  834.02   88.33
   8   2  -1   17.79   31.00
   8  -2  -1   49.24   39.70
   8  -2  -1   -1.40   36.47
   8   2   0 5346.37  272.71
   8  -2   0 5350.36  286.24
   8  -2   0 4942.55  256.41
   8   2   1  122.90   48.94
   8  -2   1  261.02   82.68
   8  -2   1  230.05   61.05
   8   2   2 1264.93   95.34
   8  -2   2 1169.36  106.61
   8  -2   2 1073.00   88.86
   8   2   3  319.79   55.36
   8  -2   3  383.69   77.48
   8  -2   3  269.57   57.20
   8   2   4 1028.52   89.70
   8  -2   4 1002.90  100.76
   8  -2   4  992.60   82.12
   8   2   5   26.53   40.40
   8  -2   5   23.80   51.39
   8   2   6 1081.45  126.76
   8  -2   6 1221.77  116.84
   8  -2   6 1283.34   90.00
   8   2   7    9.56   29.87
   8  -2   7   -2.98   45.95
   8  -2   7   -5.11   26.16
   8   2   8 1220.91  164.16
   8  -2   8 1245.17  108.45
   8  -2   8 1222.63   84.14
   8   2   9   23.33   18.51
   8  -2   9   83.20   61.66
   8  -2   9   45.12   35.65
   8   2  10  252.08   50.10
   8  -2  10  408.77   76.95
   8  -2  10  171.09   34.62
   8   2  11   -2.67   26.21
   8  -2  11   29.75   46.18
   8  -2  11   29.38   18.95
   8   2  12  122.07   48.72
   8  -2  12  204.85   67.51
  -8   3  15  737.98  237.71
   8  -3 -15 1201.46  118.05
  -8   3  14   28.88   20.64
   8  -3 -14   26.67   49.91
  -8   3  13  270.89  129.72
   8  -3 -13  590.71  103.29
  -8   3  12   17.77   21.09
   8  -3 -12   50.96   45.67
  -8   3  11 1049.15  200.72
   8  -3 -11  967.67  101.25
  -8   3  10    4.23   35.29
   8   3 -10   50.56   27.62
   8  -3 -10   46.76   44.14
  -8   3   9  378.68  162.42
   8   3  -9  481.53   47.06
   8  -3  -9  466.37   80.24
  -8   3   8  152.64   74.35
   8   3  -8  166.56   43.22
   8  -3  -8  129.47   66.58
  -8   3   7 3505.78  194.99
   8   3  -7 3711.68  194.94
   8  -3  -7 3390.72  197.60
  -8   3   6   90.85   43.87
   8   3  -6   88.70   39.18
   8  -3  -6  116.39   57.89
  -8   3   5 1353.29  140.42
   8   3  -5 1375.91  104.55
   8  -3  -5 1256.39  102.26
  -8   3   4   80.08   24.03
   8   3  -4   39.17   40.96
   8  -3  -4   73.53   36.88
  -8   3   3 3241.24  181.14
   8   3  -3 3215.67  176.75
   8  -3  -3 3048.30  179.86
   8   3  -2   32.01   44.01
   8  -3  -2   50.35   36.37
   8   3  -1  924.08  142.37
   8  -3  -1  914.34  103.27
   8  -3  -1 1045.12   91.16
   8   3   0   73.97   36.23
   8  -3   0   67.80   46.93
   8  -3   0   33.79   32.49
   8   3   1 1093.12   80.67
   8  -3   1 1116.34  112.12
   8  -3   1 1260.60  108.33
   8   3   2  137.17   59.57
   8  -3   2  186.53   74.60
   8  -3   2  194.08   56.55
   8   3   3 1926.79  120.44
   8  -3   3 1846.46  140.32
   8  -3   3 2048.47  129.81
   8   3   4   19.55   44.18
   8  -3   4   40.96   51.77
   8  -3   4   84.59   32.55
   8   3   5 2078.09  135.32
   8  -3   5 2108.56  155.91
   8  -3   5 2147.25  125.43
   8  -3   6  115.12   81.98
   8  -3   6  113.11   40.30
   8   3   7  799.54  115.38
   8  -3   7 1085.75  135.99
   8  -3   7 1014.46   81.13
   8   3   8  226.29   74.85
   8  -3   8   99.51   52.26
   8  -3   8  208.19   43.29
   8   3   9  658.62  181.15
   8  -3   9  666.58   85.10
   8   3  10   26.41   18.04
   8  -3  10   20.56   47.10
  -8   4  11   17.14   25.19
   8  -4 -11   11.86   57.27
  -8   4  10  794.25  113.67
   8  -4 -10  917.40  117.25
  -8   4   9   20.37   30.02
   8  -4  -9   17.73   43.03
  -8   4   8 1209.50  133.17
   8  -4  -8 1037.85  100.59
  -8   4   7   25.71   18.45
   8   4  -7   -4.69   11.38
   8  -4  -7   98.45   53.83
  -8   4   6  251.36   98.08
   8   4  -6  233.85  102.97
   8  -4  -6  492.13   82.64
  -8   4   5  -20.26   29.61
   8   4  -5   -0.55   11.22
   8  -4  -5   -1.75   35.19
  -8   4   4  659.43  155.71
   8   4  -4  685.68  201.43
   8  -4  -4  725.10   81.80
  -8   4   3   23.32   40.94
   8   4  -3   24.70   27.22
   8  -4  -3   45.26   35.44
   8   4  -2  302.85   80.24
   8  -4  -2  141.37   52.97
   8  -4  -2  224.86   49.25
   8   4  -1   -6.28   30.82
   8  -4  -1   -4.16   50.26
   8  -4  -1   89.98   60.12
   8   4   0 1744.73  259.87
   8  -4   0 1913.76  151.51
   8  -4   0 2030.58  133.54
   8   4   1  108.99   49.07
   8  -4   1   85.73   74.41
   8  -4   1   78.90   48.65
   8   4   2 1002.84  205.23
   8  -4   2 1495.43  139.90
   8  -4   2 1368.70  111.18
   8   4   3   22.68   23.79
   8  -4   3   97.17   63.03
   8  -4   3   98.60   66.71
   8   4   4 1050.02  164.91
   8  -4   4 1219.85  135.85
   8  -4   4 1129.27   90.28
   8   4   5   81.80   47.37
   8  -4   5   41.52   61.71
   8  -4   5   65.56   25.34
   9   0 -18   10.12   26.08
   9   0 -17  392.59   57.45
  -9   0  16   36.79   21.44
   9   0 -16  -15.59   22.98
  -9   0  15   27.46   18.07
   9   0 -15   47.73   43.90
  -9   0  14   42.00   17.72
   9   0 -14   47.97   40.03
  -9   0  13 1034.70   87.77
   9   0 -13 1105.40   89.79
  -9   0  12   18.58   10.78
   9   0 -12    2.85   29.34
  -9   0  11  734.95   62.37
   9   0 -11  915.40   83.57
  -9   0  10   24.79   17.89
   9   0 -10   37.28   42.92
  -9   0   9 1155.54  111.12
   9   0  -9 1300.02   97.04
  -9   0   8   29.01   18.77
   9   0  -8  108.23   62.21
  -9   0   7 5620.35  273.56
   9   0  -7 5758.37  299.24
  -9   0   6   39.82   17.97
   9   0  -6  132.81   68.62
   9   0  -5 1822.63  113.37
   9   0  -4   13.79   25.96
   9   0  -4   -2.90   31.57
   9   0  -3 1145.22   77.73
   9   0  -3 1237.36   92.75
   9   0  -2   50.62   43.29
   9   0  -2   57.12   35.20
   9   0  -1  736.52   59.86
   9   0  -1  855.72   81.92
   9   0   0   36.54   37.84
   9   0   0  101.62   45.09
   9   0   1 1088.11   74.68
   9   0   1 1186.69   99.52
   9   0   2   26.67   28.27
   9   0   3 1643.56  102.83
   9   0   3 1686.65  107.59
   9   0   4   -3.24   22.99
   9   0   4   44.61   38.10
   9   0   5  822.37   70.58
   9   0   5  750.41   68.02
   9   0   6   22.58   31.62
   9   0   6   34.08   28.93
   9   0   7  336.33   59.25
   9   0   7  460.74   79.31
   9   0   8   -2.95   26.26
   9   0   8   43.95   37.36
   9   0   9 1186.13   86.18
   9   0   9 1257.99   94.16
   9   0  10   17.07   27.49
   9   0  10   45.48   36.35
   9   0  11  533.86   64.20
   9   0  11  570.17   68.65
   9   0  12   81.46   41.44
   9   0  12   42.79   40.22
  -9   1  17    4.56   16.98
   9  -1 -17   56.41   51.23
  -9   1  16  436.84  134.64
   9  -1 -16  714.14   77.69
  -9   1  15    1.73   18.37
   9   1 -15    6.60   22.49
   9  -1 -15   39.43   49.64
  -9   1  14 1226.42  196.47
   9   1 -14 1636.55  106.95
   9  -1 -14 1782.31  124.53
  -9   1  13   61.57   46.55
   9   1 -13  120.43   39.28
   9  -1 -13   35.52   42.03
  -9   1  12 3944.97  207.62
   9   1 -12 4071.89  213.46
   9  -1 -12 3791.62  217.23
  -9   1  11  108.57   54.65
   9   1 -11  136.00   51.41
   9  -1 -11  222.38   63.44
  -9   1  10  138.47   30.05
   9   1 -10   52.94   31.09
   9  -1 -10   97.45   53.13
  -9   1   9 3622.99  188.85
   9   1  -9 4084.57  222.40
   9  -1  -9 3899.80  219.10
  -9   1   8   21.22   14.32
   9   1  -8   84.85   44.70
   9  -1  -8   84.82   57.06
  -9   1   7   68.72   27.20
   9   1  -7  248.37   55.07
   9  -1  -7   41.73   36.63
  -9   1   6  329.96   73.99
   9   1  -6  374.76   62.80
   9  -1  -6  382.22   72.55
  -9   1   5    4.99   19.30
   9   1  -5  -22.62   31.12
   9  -1  -5   35.06   49.11
   9   1  -4 1106.23   87.47
   9  -1  -4  974.24   82.87
   9   1  -3   33.72   28.88
   9  -1  -3   46.18   47.27
   9  -1  -3   26.46   33.98
   9   1  -2 2894.65  162.25
   9  -1  -2 2966.30  175.98
   9  -1  -2 2872.81  161.66
   9   1  -1  401.81   59.87
   9  -1  -1  355.34   62.64
   9  -1  -1  462.27   73.18
   9   1   0 3109.85  179.65
   9  -1   0 3279.79  187.15
   9  -1   0 3299.00  182.19
   9   1   1  674.28   75.11
   9  -1   1  361.52   62.10
   9  -1   1  758.36   91.45
   9   1   2  238.68   54.95
   9  -1   2  180.02   49.10
   9  -1   2  273.14   57.45
   9   1   3  271.93   60.42
   9  -1   3  474.22   91.26
   9  -1   3  291.61   68.84
   9   1   4 1498.77  106.73
   9  -1   4 1435.28  104.81
   9  -1   4 1609.46  108.71
   9   1   5   22.68   31.78
   9  -1   5    4.57   36.93
   9  -1   5    0.52   27.73
   9   1   6   44.10   42.36
   9  -1   6   18.86   39.13
   9  -1   6  138.11   47.48
   9   1   7   23.48   28.21
   9   1   7   17.58   33.15
   9  -1   7   54.52   57.79
   9  -1   7   21.52   36.04
   9   1   8  729.76  154.58
   9  -1   8  900.12   94.99
   9  -1   8  841.09   74.79
   9   1   9   33.24   26.77
   9  -1   9   56.63   58.61
   9  -1   9   -5.27   23.58
   9   1  10  849.31  104.25
   9  -1  10  763.58   85.55
   9  -1  10  797.87   76.06
   9   1  11   29.99   41.59
   9  -1  11   86.96   64.93
   9  -1  11   24.80   27.81
  -9   2  16   45.54   39.25
   9  -2 -16   42.13   49.38
  -9   2  15 1118.19  167.30
   9  -2 -15 1227.96  107.76
  -9   2  14  100.42   48.91
   9  -2 -14   92.89   43.23
  -9   2  13   30.33   39.68
   9   2 -13   47.58   22.86
   9  -2 -13   73.32   63.95
  -9   2  12  178.90  110.82
   9   2 -12  389.59   41.42
   9  -2 -12  544.31   85.16
  -9   2  11  573.52  146.89
   9   2 -11  653.97   60.08
   9  -2 -11  638.07   84.29
  -9   2  10   40.52   19.03
   9   2 -10   58.91   34.75
   9  -2 -10   37.99   40.75
  -9   2   9  509.44  177.31
   9   2  -9  698.24   63.69
   9  -2  -9  637.74   82.75
  -9   2   8  132.78   40.71
   9   2  -8  125.50   43.76
   9  -2  -8  114.34   56.46
  -9   2   7 3173.03  179.26
   9   2  -7 3126.42  175.32
   9  -2  -7 3056.90  180.87
  -9   2   6   40.03   22.17
   9   2  -6   37.67   41.04
   9  -2  -6   32.21   42.11
  -9   2   5 2625.37  144.00
   9   2  -5 2849.72  168.50
   9  -2  -5 2813.38  170.69
  -9   2   4   32.07   22.53
   9   2  -4   21.74   30.05
   9  -2  -4   71.97   61.67
   9   2  -3 1069.41   88.12
   9  -2  -3 1142.11  103.36
   9   2  -2  686.91   68.82
   9  -2  -2  388.10   71.27
   9  -2  -2  675.72   77.33
   9   2  -1  515.59   56.40
   9  -2  -1  618.44   89.27
   9  -2  -1  567.91   69.89
   9   2   0   22.67   32.54
   9  -2   0    7.16   39.36
   9  -2   0   65.89   42.16
   9   2   1 1634.83  111.24
   9  -2   1 1418.96  111.43
   9  -2   1 1639.68  112.98
   9   2   2  176.14   54.72
   9  -2   2  224.89   79.41
   9  -2   2  115.34   46.15
   9   2   3 1202.80  148.41
   9  -2   3 1206.87  106.08
   9  -2   3 1225.68   96.16
   9   2   4   72.12   34.50
   9  -2   4   20.32   45.37
   9  -2   4   48.07   31.17
   9   2   5 2490.80  151.06
   9  -2   5 2422.13  160.32
   9  -2   5 2392.73  144.02
   9   2   6    1.14   29.82
   9  -2   6   91.72   73.21
   9  -2   6  -17.08   28.05
   9   2   7  469.30   74.85
   9  -2   7  215.41   54.23
   9  -2   7  489.46   68.73
   9   2   8  -31.76   33.39
   9  -2   8   13.60   45.07
   9  -2   8   54.56   42.26
   9   2   9 2554.67  153.27
   9  -2   9 2378.33  166.80
   9  -2   9 2263.15  132.71
   9   2  10  146.25   43.72
   9  -2  10  202.64   71.35
   9  -2  10  325.98   48.72
  -9   3  13   45.09   40.09
   9  -3 -13   12.74   66.66
  -9   3  12 1220.82  167.52
   9  -3 -12 1241.65  112.61
  -9   3  11  -29.96   33.04
   9  -3 -11   49.70   44.94
  -9   3  10  621.25  176.37
   9   3 -10  671.87   97.86
   9  -3 -10  499.58   81.04
  -9   3   9   57.80   32.62
   9   3  -9   20.98   19.44
   9  -3  -9   25.82   40.87
  -9   3   8 1437.00  178.85
   9   3  -8 1579.90  136.11
   9  -3  -8 1520.18  120.41
  -9   3   7   16.31   15.23
   9   3  -7    5.32   12.01
   9  -3  -7   52.95   44.10
  -9   3   6  209.75   73.25
   9   3  -6  230.21   47.46
   9  -3  -6  347.41   82.77
  -9   3   5   59.10   34.21
   9   3  -5   44.25   38.72
   9  -3  -5    1.96   41.45
  -9   3   4 1549.75  146.45
   9   3  -4 1803.65  111.36
   9  -3  -4 1722.52  128.93
   9   3  -3   -8.10   30.01
   9  -3  -3   -1.99   38.69
   9   3  -2 1826.93  120.69
   9  -3  -2 1543.75  130.62
   9  -3  -2 1649.64  127.71
   9   3  -1    2.36   29.18
   9  -3  -1   91.07   68.89
   9  -3  -1   57.00   37.45
   9   3   0 1393.89  149.68
   9  -3   0 1545.47  145.59
   9  -3   0 1402.79  111.03
   9   3   1  100.10   46.82
   9  -3   1  176.39   79.25
   9  -3   1   82.44   52.05
   9   3   2 1556.29  155.60
   9  -3   2 1488.20  130.85
   9  -3   2 1535.36  105.33
   9   3   3  113.35   70.76
   9  -3   3  130.51   77.81
   9  -3   3  129.05   35.96
   9   3   4  931.14   82.68
   9  -3   4 1163.37  126.53
   9  -3   4 1182.57   95.05
   9   3   5   74.68   62.57
   9  -3   5   48.85   53.59
   9  -3   5  108.51   46.09
   9   3   6  563.42   70.17
   9  -3   6  433.33   97.41
   9  -3   6  595.78   64.09
   9   3   7   48.22   43.95
   9  -3   7  123.83   81.31
   9  -3   7   51.93   31.80
  -9   4   7  450.69  227.32
   9  -4  -7  805.10   99.18
  -9   4   6   66.06   39.53
   9   4  -6   94.02   41.15
   9  -4  -6   61.20   39.17
  -9   4   5  254.96  135.18
   9   4  -5  401.91   95.42
   9  -4  -5  198.14   57.75
  -9   4   4    7.33   30.24
   9   4  -4   54.04   46.91
   9  -4  -4   16.20   40.09
   9   4  -3  622.51  230.89
   9  -4  -3  898.14  116.18
   9  -4  -3  941.86   97.66
   9   4  -2    3.36   26.03
   9  -4  -2  128.85   98.27
   9  -4  -2   54.40   49.89
   9   4  -1  658.13  225.00
   9  -4  -1  556.80   90.51
   9  -4  -1  967.43  105.78
   9   4   0   21.24   30.84
   9  -4   0   43.22   47.12
   9  -4   0   26.70   34.48
   9   4   1  727.69  155.45
   9  -4   1  942.12  110.54
   9  -4   1  972.28   92.59
  10   0 -16 1023.72   92.21
  10   0 -15    9.99   31.71
  10   0 -14 2041.89  138.33
  10   0 -13   40.56   30.91
  10   0 -12 2056.41  133.49
  10   0 -11   30.23   36.33
  10   0 -10  602.95   79.16
  10   0  -9   14.55   36.20
  10   0  -8  997.70   86.42
  10   0  -7   18.51   32.54
  10   0  -6 1632.57  118.60
  10   0  -5   51.35   31.69
  10   0  -5   42.90   40.18
  10   0  -4 4296.39  220.09
  10   0  -4 4363.03  235.77
  10   0  -3  138.89   40.99
  10   0  -3   41.48   47.61
  10   0  -2 1942.67  113.88
  10   0  -2 1931.60  128.42
  10   0  -1   86.77   49.15
  10   0  -1   52.42   49.42
  10   0   0 2294.38  127.34
  10   0   0 2542.45  158.98
  10   0   1  137.34   47.26
  10   0   1   30.31   43.99
  10   0   2  260.53   45.90
  10   0   2  278.46   58.10
  10   0   3   41.52   35.29
  10   0   3    9.25   31.39
  10   0   4  486.32   57.08
  10   0   4  354.91   74.60
  10   0   5   69.49   46.84
  10   0   5   46.68   44.79
  10   0   6 1256.43   93.59
  10   0   6 1177.79   88.73
  10   0   7   27.45   23.80
  10   0   7   95.65   47.47
  10   0   8  625.88   65.36
  10   0   8  575.35   77.26
  10   0   9   -6.32   26.11
 -10   1  15  469.24  123.11
  10   1 -15  849.44   84.28
  10  -1 -15  813.00  101.07
 -10   1  14   19.16   13.76
  10   1 -14  -10.60   22.04
  10  -1 -14   81.72   65.31
 -10   1  13   12.40   13.72
  10   1 -13  176.66   44.07
  10  -1 -13  205.82   62.24
 -10   1  12  -11.10   17.59
  10   1 -12  -14.72   27.97
  10  -1 -12    6.51   35.15
 -10   1  11 2680.34  145.74
  10   1 -11 2874.34  170.62
  10  -1 -11 2828.42  178.20
 -10   1  10   91.17   39.46
  10   1 -10   69.59   43.06
  10  -1 -10  150.50   75.70
 -10   1   9  212.67   86.40
  10   1  -9  461.23   57.62
  10  -1  -9  225.65   54.37
 -10   1   8  221.85   68.32
  10   1  -8  329.92   57.79
  10  -1  -8   85.06   49.70
 -10   1   7 2326.18  127.17
  10   1  -7 2610.58  166.93
  10  -1  -7 2278.67  147.93
 -10   1   6   54.93   27.10
  10   1  -6   46.34   35.49
  10  -1  -6   91.24   35.25
  10   1  -5 2107.73  128.21
  10  -1  -5 2096.47  135.52
  10   1  -4   31.54   38.54
  10  -1  -4   -7.14   27.37
  10  -1  -4   47.37   36.84
  10   1  -3 1042.51   89.05
  10  -1  -3 1014.09   88.64
  10  -1  -3  975.78   91.23
  10   1  -2   20.44   32.81
  10  -1  -2   73.34   65.02
  10  -1  -2  113.13   52.93
  10   1  -1 1101.19   97.67
  10  -1  -1  967.67   89.49
  10  -1  -1  929.84   92.32
  10   1   0  261.47   48.30
  10  -1   0  162.05   44.83
  10  -1   0  400.96   66.94
  10   1   1 1454.49  101.53
  10  -1   1 1524.28  105.10
  10  -1   1 1543.09  114.72
  10   1   2   62.55   48.16
  10  -1   2    9.21   37.30
  10  -1   2   52.79   46.90
  10   1   3  449.94   65.14
  10  -1   3  385.56   57.77
  10  -1   3  201.65   55.41
  10   1   4    8.83   30.54
  10  -1   4  117.55   48.38
  10  -1   4   31.86   27.88
  10   1   5 1914.74  126.57
  10  -1   5 1772.43  114.67
  10  -1   5 1954.08  127.35
  10   1   6   -3.56   31.05
  10  -1   6  115.79   52.21
  10  -1   6  -14.12   26.74
  10   1   7  736.47   77.33
  10  -1   7  416.68   57.69
  10  -1   7  654.77   75.85
  10   1   8  -17.95   26.59
  10  -1   8   24.71   36.98
  10  -1   8   20.30   24.88
  10   1   9  678.16   84.42
  10  -1   9  587.16   66.08
 -10   2  14   79.30   31.42
  10  -2 -14   69.22   41.98
 -10   2  13  722.46  142.90
  10  -2 -13  783.56   83.62
 -10   2  12   43.13   31.65
  10   2 -12  -13.28   17.83
  10  -2 -12   26.93   41.58
 -10   2  11  267.43  108.37
  10   2 -11  365.87   47.91
  10  -2 -11  384.62   68.59
 -10   2  10  287.35  132.02
  10   2 -10  649.74   64.91
  10  -2 -10  510.93   87.46
 -10   2   9   35.79   19.43
  10   2  -9   88.37   46.30
  10  -2  -9   65.27   46.09
 -10   2   8  334.06  128.75
  10   2  -8  467.60   63.46
  10  -2  -8  515.45   88.94
 -10   2   7    7.28   17.23
  10   2  -7   47.97   25.42
  10  -2  -7   65.09   56.22
 -10   2   6  877.24  126.47
  10   2  -6  930.92   81.62
  10  -2  -6 1119.88  112.65
 -10   2   5  275.78   95.08
  10   2  -5  279.00   56.97
  10  -2  -5  243.47   56.92
  10   2  -4 1117.80   89.23
  10  -2  -4 1192.79  112.59
  10  -2  -4 1227.96  101.00
  10   2  -3   88.81   42.63
  10  -2  -3   93.58   59.45
  10  -2  -3   76.55   48.50
  10   2  -2  681.75   70.07
  10  -2  -2  482.75   73.99
  10  -2  -2  833.36   90.28
  10   2  -1  323.40   57.66
  10  -2  -1  447.89   90.32
  10  -2  -1  440.55   82.41
  10   2   0 1223.77   94.99
  10  -2   0 1111.36  111.25
  10  -2   0 1176.91  107.08
  10   2   1   32.17   28.65
  10  -2   1    7.72   48.55
  10  -2   1    7.07   29.68
  10   2   2  213.60   55.03
  10  -2   2  134.14   49.78
  10  -2   2  367.25   62.45
  10   2   3   26.81   33.59
  10  -2   3   11.12   48.43
  10  -2   3   15.28   28.67
  10   2   4  940.20   80.27
  10  -2   4 1104.81  110.40
  10  -2   4  921.24   89.25
  10   2   5   20.14   30.39
  10  -2   5   23.19   60.33
  10  -2   5   42.61   42.97
  10   2   6  535.14   74.50
  10  -2   6  385.50   79.31
  10  -2   6  672.09   78.38
  10   2   7   63.45   31.70
  10  -2   7   -6.62   48.57
  10  -2   7   27.97   31.94
 -10   3  10  211.42  105.46
  10  -3 -10  194.59   52.39
 -10   3   9  554.25  190.96
  10   3  -9  884.96   71.35
  10  -3  -9  740.79   99.61
 -10   3   8   44.90   28.11
  10   3  -8   41.00   22.01
  10  -3  -8   22.08   44.96
 -10   3   7  323.05  131.16
  10   3  -7  514.34  104.40
  10  -3  -7  569.37   91.14
 -10   3   6  286.63  130.96
  10   3  -6  431.17   56.95
  10  -3  -6  427.17  106.67
 -10   3   5  247.93   95.87
  10   3  -5  315.19   55.69
  10  -3  -5  397.99   79.78
  10   3  -4   20.62   30.20
  10  -3  -4  129.99   96.72
  10  -3  -4  124.07   60.80
  10   3  -3  536.15   84.14
  10  -3  -3  328.40   71.82
  10  -3  -3  562.25   84.89
  10   3  -2  113.54   47.92
  10  -3  -2    3.30   46.08
  10  -3  -2   -6.43   34.27
  10   3  -1   23.39   26.72
  10  -3  -1   71.53   62.95
  10  -3  -1   18.45   32.36
  10   3   0   45.95   29.68
  10  -3   0  110.43   74.05
  10  -3   0   58.34   44.54
  10   3   1  994.39   86.06
  10  -3   1  624.46   86.10
  10  -3   1  878.61   85.50
  10   3   2  107.92   62.94
  10  -3   2  101.66   70.97
  10  -3   2    8.67   26.15
  10   3   3  119.18   74.35
  10  -3   3  306.35   86.42
  10  -3   3  216.68   45.44
  11   0 -13  410.21   65.62
  11   0 -12   -8.45   32.00
  11   0 -11 2070.22  138.58
  11   0 -10   -8.16   31.30
  11   0  -9 2889.08  170.19
  11   0  -8   16.76   38.59
  11   0  -7 1099.00  103.28
  11   0  -6  -16.74   32.26
  11   0  -5  870.52   85.57
  11   0  -4   39.20   36.96
  11   0  -3 1590.61  123.92
  11   0  -2   59.48   50.60
  11   0  -1   61.64   31.44
  11   0   0    8.85   29.01
  11   0   1 1465.43  104.62
  11   0   2  154.36   71.01
  11   0   3 1076.76  100.61
  11   0   4  -50.88   26.91
  11   0   5  869.00   81.56
  11   0   6   28.47   31.16
  11   1 -13   61.51   36.39
  11  -1 -13   12.52   31.80
  11   1 -12  890.24   92.97
  11  -1 -12  966.78   89.34
  11   1 -11   -0.84   30.42
  11  -1 -11   -3.66   33.20
  11   1 -10  575.65   76.19
  11  -1 -10  511.34   77.78
  11   1  -9  395.38   67.62
  11  -1  -9  434.76   71.66
  11   1  -8 1204.75   96.74
  11  -1  -8  957.95   91.31
  11   1  -7  107.04   46.23
  11  -1  -7   97.74   53.58
  11   1  -6  925.14   80.70
  11  -1  -6 1061.22   86.72
  11  -1  -6  947.93   93.81
  11   1  -5   17.97   32.59
  11  -1  -5   65.18   26.30
  11  -1  -5   47.35   36.65
  11   1  -4 1167.62  103.51
  11  -1  -4 1155.18   91.23
  11  -1  -4 1060.45   90.94
  11   1  -3   37.22   29.98
  11  -1  -3  184.27   60.72
  11  -1  -3  119.48   55.21
  11   1  -2  543.46   68.25
  11  -1  -2  449.45   65.41
  11  -1  -2  469.87   77.28
  11   1  -1   28.80   31.62
  11  -1  -1  106.46   61.97
  11  -1  -1   85.14   63.30
  11   1   0  705.52   92.64
  11  -1   0  368.57   49.45
  11  -1   0  763.84   90.19
  11   1   1   53.72   42.96
  11  -1   1   58.65   45.15
  11  -1   1  -22.81   28.97
  11   1   2 1588.12  113.57
  11  -1   2 1448.69  101.00
  11  -1   2 1547.69  112.91
  11   1   3   58.59   57.57
  11  -1   3   45.44   29.62
  11  -1   3   51.49   29.65
  11   1   4  321.34   56.34
  11  -1   4  301.81   52.12
  11  -1   4  488.25   78.00
  11   1   5    6.10   28.30
  11  -1   5   51.79   43.13
  11  -1   5   31.25   29.51
 -11   2  10   26.52   25.14
  11   2 -10   37.19   33.96
  11  -2 -10   96.31   63.33
 -11   2   9 1306.74  132.43
  11   2  -9 1533.38  117.88
  11  -2  -9 1699.02  138.42
 -11   2   8   43.65   30.29
  11   2  -8   19.08   37.02
  11  -2  -8   67.64   53.85
 -11   2   7  774.42  136.22
  11   2  -7  851.94   81.52
  11  -2  -7  701.57   78.23
  11   2  -6   90.85   48.57
  11  -2  -6   62.14   33.35
  11   2  -5   14.37   25.75
  11  -2  -5  158.52   56.57
  11  -2  -5   -6.79   35.08
  11   2  -4   34.45   36.12
  11  -2  -4   55.81   38.02
  11  -2  -4   59.83   38.35
  11   2  -3  600.13   67.15
  11  -2  -3  431.17   76.81
  11  -2  -3  504.68   81.03
  11   2  -2   54.48   31.03
  11  -2  -2  229.23   80.98
  11  -2  -2  149.65   56.64
  11   2  -1   75.70   43.45
  11  -2  -1   88.52   66.77
  11  -2  -1   86.30   44.63
  11   2   0   39.83   32.10
  11  -2   0   81.66   65.13
  11  -2   0   97.19   56.77
  11   2   1  728.76   80.54
  11  -2   1  827.97  100.15
  11  -2   1  764.74   86.03
  11   2   2   42.96   33.32
  11  -2   2   69.95   48.53
  11  -2   2   79.49   55.54
  12   0  -8  151.28   53.22
  12   0  -7   43.18   43.21
  12   0  -6   74.83   48.74
  12   0  -5   58.21   52.47
  12   0  -4  363.36   65.84
  12   0  -3   42.80   58.89
  12   0  -2 4007.00  218.64
  12   0  -1  222.45   64.66
  12   0   0 1200.12   98.94
  12   1  -7  842.90   90.01
  12  -1  -7  875.24   99.17
  12   1  -6  110.01   52.40
  12  -1  -6    7.23   33.29
  12   1  -5   51.57   40.45
  12  -1  -5   85.47   43.23
  12   1  -4   34.09   38.06
  12  -1  -4   52.69   61.74
  12   1  -3  342.03   57.30
  12  -1  -3  404.10   80.09
  12   1  -2   74.42   61.02
;
_shelx_hkl_checksum              50126
loop_
_space_group_symop_id
_space_group_symop_operation_xyz
1 +X,+Y,+Z
2 1/2-X,1/2+Y,1/2-Z
3 -X,-Y,-Z
4 -1/2+X,-1/2-Y,-1/2+Z
loop_
_atom_site_label
_atom_site_type_symbol
_atom_site_fract_x
_atom_site_fract_y
_atom_site_fract_z
_atom_site_U_iso_or_equiv
_atom_site_adp_type
_atom_site_occupancy
_atom_site_site_symmetry_order
_atom_site_calc_flag
_atom_site_refinement_flags_posn
_atom_site_refinement_flags_adp
_atom_site_refinement_flags_occupancy
CU1 Cu 0.500000 0.000000 0.500000 0.0137(2) Uani 1 2 d S . P
F1 F 0.3194(2) 0.6734(5) 0.29409(13) 0.0258(6) Uani 1 1 d . . .
F2 F 0.5185(3) 0.9870(5) 0.24723(14) 0.0254(5) Uani 1 1 d . . .
F3 F 0.8024(3) 0.9278(5) 0.31286(14) 0.0263(5) Uani 1 1 d . . .
F4 F 0.8865(2) 0.5409(5) 0.42020(14) 0.0254(6) Uani 1 1 d . . .
N1 N 0.3284(3) -0.1880(7) 0.51986(17) 0.0160(6) Uani 1 1 d . . .
N2 N 0.4019(3) 0.2459(6) 0.41857(16) 0.0158(6) Uani 1 1 d . . .
C1 C 0.1959(4) -0.1333(9) 0.4806(2) 0.0194(8) Uani 1 1 d . . .
H1 H 0.118391 -0.239963 0.493375 0.023 Uiso 1 1 calc R U .
C2 C 0.1641(4) 0.0689(9) 0.4226(2) 0.0231(8) Uani 1 1 d . . .
H2 H 0.065414 0.088123 0.399475 0.028 Uiso 1 1 calc R U .
C3 C 0.2595(4) 0.2470(8) 0.3941(2) 0.0184(8) Uani 1 1 d . . .
H3 H 0.220645 0.377932 0.354575 0.022 Uiso 1 1 calc R U .
C4 C 0.4947(4) 0.4270(8) 0.3877(2) 0.0163(7) Uani 1 1 d . . .
C5 C 0.4579(4) 0.6297(8) 0.3293(2) 0.0189(8) Uani 1 1 d . . .
C6 C 0.5587(4) 0.7947(8) 0.3034(2) 0.0188(8) Uani 1 1 d . . .
C7 C 0.7019(4) 0.7625(8) 0.3364(2) 0.0204(8) Uani 1 1 d . . .
C8 C 0.7425(4) 0.5630(8) 0.3931(2) 0.0180(7) Uani 1 1 d . . .
C9 C 0.6432(4) 0.3951(8) 0.4211(2) 0.0161(7) Uani 1 1 d . . .
loop_
_atom_site_aniso_label
_atom_site_aniso_U_11
_atom_site_aniso_U_22
_atom_site_aniso_U_33
_atom_site_aniso_U_23
_atom_site_aniso_U_13
_atom_site_aniso_U_12
CU1 0.0122(3) 0.0138(3) 0.0146(3) -0.0005(2) 0.0009(2) 0.0008(2)
F1 0.0220(12) 0.0242(13) 0.0281(13) 0.0071(10) -0.0030(9) -0.0001(10)
F2 0.0321(13) 0.0218(13) 0.0205(11) 0.0080(9) 0.0002(10) -0.0016(10)
F3 0.0256(12) 0.0253(13) 0.0295(12) 0.0052(10) 0.0093(10) -0.0066(10)
F4 0.0140(11) 0.0313(14) 0.0310(13) 0.0069(10) 0.0041(9) -0.0031(9)
N1 0.0139(14) 0.0166(15) 0.0171(14) -0.0030(12) 0.0022(11) 0.0019(12)
N2 0.0179(15) 0.0128(15) 0.0158(15) -0.0009(12) 0.0010(11) 0.0025(12)
C1 0.0151(17) 0.0204(19) 0.0225(18) -0.0001(15) 0.0027(13) -0.0006(14)
C2 0.0135(17) 0.032(2) 0.0220(19) 0.0004(17) -0.0020(14) 0.0011(16)
C3 0.0170(17) 0.0201(19) 0.0170(17) -0.0001(14) 0.0004(13) 0.0027(14)
C4 0.0180(17) 0.0159(18) 0.0141(16) -0.0019(14) 0.0011(13) 0.0011(14)
C5 0.0211(18) 0.0181(19) 0.0158(17) -0.0018(14) -0.0006(13) 0.0021(15)
C6 0.0262(19) 0.0144(17) 0.0151(17) 0.0013(14) 0.0021(14) 0.0027(15)
C7 0.0231(19) 0.0186(19) 0.0219(19) -0.0040(15) 0.0103(15) -0.0040(15)
C8 0.0137(16) 0.0173(18) 0.0224(18) -0.0063(15) 0.0019(13) 0.0005(14)
C9 0.0178(17) 0.0147(17) 0.0153(16) -0.0015(14) 0.0020(13) 0.0024(14)
loop_
_atom_type_symbol
_atom_type_description
_atom_type_scat_dispersion_real
_atom_type_scat_dispersion_imag
_atom_type_scat_source
C C 0.0033 0.0016
;
International Tables for Crystallography
(Vol. C, Tables 4.2.6.8 and 6.1.1.4)
;
H H 0.0000 0.0000
;
International Tables for Crystallography
(Vol. C, Table 6.1.1.4)
;
N N 0.0061 0.0033
;
International Tables for Crystallography
(Vol. C, Tables 4.2.6.8 and 6.1.1.4)
;
Cu Cu 0.3201 1.2651
;
International Tables for Crystallography
(Vol. C, Tables 4.2.6.8 and 6.1.1.4)
;
F F 0.0171 0.0103
;
International Tables for Crystallography
(Vol. C, Tables 4.2.6.8 and 6.1.1.4)
;
loop_
_geom_angle_atom_site_label_1
_geom_angle_atom_site_label_2
_geom_angle_atom_site_label_3
_geom_angle
_geom_angle_site_symmetry_1
_geom_angle_site_symmetry_3
N1 CU1 N1 180.0 . 3_656
N1 CU1 N2 83.94(13) . 3_656
N1 CU1 N2 96.06(13) 3_656 3_656
N1 CU1 N2 96.06(13) . .
N1 CU1 N2 83.94(13) 3_656 .
N2 CU1 N2 180.0 3_656 .
C1 N1 C9 122.8(3) . 3_656
C1 N1 CU1 123.7(3) . .
C9 N1 CU1 113.5(2) 3_656 .
C3 N2 C4 122.6(3) . .
C3 N2 CU1 123.7(3) . .
C4 N2 CU1 113.7(2) . .
N1 C1 C2 124.4(4) . .
N1 C1 H1 117.8 . .
C2 C1 H1 117.8 . .
C1 C2 C3 127.8(4) . .
C1 C2 H2 116.1 . .
C3 C2 H2 116.1 . .
N2 C3 C2 124.3(3) . .
N2 C3 H3 117.8 . .
C2 C3 H3 117.8 . .
C5 C4 N2 127.7(3) . .
C5 C4 C9 117.7(3) . .
N2 C4 C9 114.6(3) . .
F1 C5 C6 115.8(3) . .
F1 C5 C4 121.7(3) . .
C6 C5 C4 122.6(3) . .
F2 C6 C5 120.6(3) . .
F2 C6 C7 120.3(3) . .
C5 C6 C7 119.1(3) . .
F3 C7 C8 120.0(3) . .
F3 C7 C6 119.9(3) . .
C8 C7 C6 120.0(3) . .
F4 C8 C7 115.7(3) . .
F4 C8 C9 122.1(3) . .
C7 C8 C9 122.2(3) . .
C8 C9 N1 127.4(3) . 3_656
C8 C9 C4 118.3(3) . .
N1 C9 C4 114.3(3) 3_656 .
loop_
_geom_bond_atom_site_label_1
_geom_bond_atom_site_label_2
_geom_bond_distance
_geom_bond_site_symmetry_2
CU1 N1 1.937(3) .
CU1 N1 1.937(3) 3_656
CU1 N2 1.938(3) 3_656
CU1 N2 1.938(3) .
F1 C5 1.356(4) .
F2 C6 1.342(4) .
F3 C7 1.353(4) .
F4 C8 1.361(4) .
N1 C1 1.338(5) .
N1 C9 1.413(5) 3_656
N2 C3 1.335(5) .
N2 C4 1.404(5) .
C1 C2 1.388(6) .
C1 H1 0.9500 .
C2 C3 1.392(5) .
C2 H2 0.9500 .
C3 H3 0.9500 .
C4 C5 1.399(5) .
C4 C9 1.425(5) .
C5 C6 1.372(5) .
C6 C7 1.379(5) .
C7 C8 1.371(6) .
C8 C9 1.387(5) .
C9 N1 1.413(5) 3_656
loop_
_geom_torsion_atom_site_label_1
_geom_torsion_atom_site_label_2
_geom_torsion_atom_site_label_3
_geom_torsion_atom_site_label_4
_geom_torsion
_geom_torsion_site_symmetry_1
_geom_torsion_site_symmetry_4
C9 N1 C1 C2 179.8(4) 3_656 .
CU1 N1 C1 C2 -1.8(5) . .
N1 C1 C2 C3 0.5(7) . .
C4 N2 C3 C2 179.3(4) . .
CU1 N2 C3 C2 -1.4(5) . .
C1 C2 C3 N2 1.3(7) . .
C3 N2 C4 C5 0.0(6) . .
CU1 N2 C4 C5 -179.5(3) . .
C3 N2 C4 C9 -179.9(3) . .
CU1 N2 C4 C9 0.6(4) . .
N2 C4 C5 F1 -0.2(6) . .
C9 C4 C5 F1 179.7(3) . .
N2 C4 C5 C6 -179.6(3) . .
C9 C4 C5 C6 0.3(6) . .
F1 C5 C6 F2 0.6(5) . .
C4 C5 C6 F2 -179.9(3) . .
F1 C5 C6 C7 180.0(3) . .
C4 C5 C6 C7 -0.5(6) . .
F2 C6 C7 F3 0.8(5) . .
C5 C6 C7 F3 -178.5(3) . .
F2 C6 C7 C8 -179.1(3) . .
C5 C6 C7 C8 1.5(6) . .
F3 C7 C8 F4 -2.1(5) . .
C6 C7 C8 F4 177.9(3) . .
F3 C7 C8 C9 177.7(3) . .
C6 C7 C8 C9 -2.3(6) . .
F4 C8 C9 N1 1.2(6) . 3_656
C7 C8 C9 N1 -178.6(3) . 3_656
F4 C8 C9 C4 -178.2(3) . .
C7 C8 C9 C4 2.0(5) . .
C5 C4 C9 C8 -0.9(5) . .
N2 C4 C9 C8 179.0(3) . .
C5 C4 C9 N1 179.5(3) . 3_656
N2 C4 C9 N1 -0.5(5) . 3_656
