#------------------------------------------------------------------------------
#$Date: 2019-11-10 06:09:46 +0200 (Sun, 10 Nov 2019) $
#$Revision: 225666 $
#$URL: file:///home/coder/svn-repositories/cod/cif/4/51/55/4515510.cif $
#------------------------------------------------------------------------------
#
# This file is available in the Crystallography Open Database (COD),
# http://www.crystallography.net/
#
# All data on this site have been placed in the public domain by the
# contributors.
#
data_4515510
loop_
_publ_author_name
'Shu, Chao'
'Shi, Chong-Yang'
'Sun, Qing'
'Zhou, Bo'
'Li, Tian-You'
'He, Qiao'
'Lu, Xin'
'Liu, Rai-Shung'
'Ye, Long-Wu'
_publ_section_title
;
 Generation of Endocyclic Vinyl Carbene Complexes via Gold-Catalyzed
 Oxidative Cyclization of Terminal Diynes: Toward Naphthoquinones and
 Carbazolequinones
;
_journal_issue                   2
_journal_name_full               'ACS Catalysis'
_journal_page_first              1019
_journal_paper_doi               10.1021/acscatal.8b04455
_journal_volume                  9
_journal_year                    2018
_chemical_formula_sum            'C19 H13 N O4 S'
_chemical_formula_weight         351.36
_space_group_crystal_system      triclinic
_space_group_IT_number           2
_space_group_name_Hall           '-P 1'
_space_group_name_H-M_alt        'P -1'
_atom_sites_solution_hydrogens   geom
_audit_creation_method           SHELXL-2014/7
_cell_angle_alpha                89.117(7)
_cell_angle_beta                 75.476(7)
_cell_angle_gamma                77.243(8)
_cell_formula_units_Z            2
_cell_length_a                   7.0423(6)
_cell_length_b                   9.2936(9)
_cell_length_c                   12.8025(6)
_cell_measurement_reflns_used    4320
_cell_measurement_temperature    100.00(10)
_cell_measurement_theta_max      65.7550
_cell_measurement_theta_min      4.8770
_cell_volume                     790.39(11)
_computing_structure_refinement  'SHELXL-2014/7 (Sheldrick, 2014)'
_diffrn_ambient_temperature      100.00(10)
_diffrn_measured_fraction_theta_full 0.992
_diffrn_measured_fraction_theta_max 0.8401
_diffrn_measurement_device_type  'SuperNova, Dual, Cu at zero, Atlas'
_diffrn_radiation_type           CuK\a
_diffrn_radiation_wavelength     1.54184
_diffrn_reflns_av_R_equivalents  0.0590
_diffrn_reflns_av_unetI/netI     0.0464
_diffrn_reflns_Laue_measured_fraction_full 0.992
_diffrn_reflns_Laue_measured_fraction_max 0.992
_diffrn_reflns_limit_h_max       7
_diffrn_reflns_limit_h_min       -7
_diffrn_reflns_limit_k_max       10
_diffrn_reflns_limit_k_min       -10
_diffrn_reflns_limit_l_max       14
_diffrn_reflns_limit_l_min       -14
_diffrn_reflns_number            7819
_diffrn_reflns_point_group_measured_fraction_full 0.992
_diffrn_reflns_point_group_measured_fraction_max 0.992
_diffrn_reflns_theta_full        65.8472
_diffrn_reflns_theta_max         65.8472
_diffrn_reflns_theta_min         3.570
_exptl_absorpt_coefficient_mu    2.043
_exptl_crystal_density_diffrn    1.476
_exptl_crystal_description
;
;
_exptl_crystal_F_000             364
_refine_diff_density_max         0.280
_refine_diff_density_min         -0.504
_refine_diff_density_rms         0.075
_refine_ls_extinction_method     none
_refine_ls_goodness_of_fit_ref   1.115
_refine_ls_hydrogen_treatment    constr
_refine_ls_matrix_type           full
_refine_ls_number_parameters     227
_refine_ls_number_reflns         2398
_refine_ls_number_restraints     0
_refine_ls_restrained_S_all      1.115
_refine_ls_R_factor_all          0.0529
_refine_ls_R_factor_gt           0.0458
_refine_ls_shift/su_max          0.000
_refine_ls_shift/su_mean         0.000
_refine_ls_structure_factor_coef Fsqd
_refine_ls_weighting_details
'w=1/[\s^2^(Fo^2^)+(0.0720P)^2^+0.4476P] where P=(Fo^2^+2Fc^2^)/3'
_refine_ls_weighting_scheme      calc
_refine_ls_wR_factor_gt          0.1248
_refine_ls_wR_factor_ref         0.1290
_reflns_Friedel_coverage         0.000
_reflns_number_gt                2156
_reflns_number_total             2398
_reflns_threshold_expression     'I > 2\s(I)'
_cod_data_source_file            cs8b04455_si_002.cif
_cod_data_source_block           dgc-sg-2
_cod_original_cell_volume        790.39(12)
_cod_database_code               4515510
_shelx_shelxl_version_number     2014/7
_shelx_space_group_comment
;
The symmetry employed for this shelxl refinement is uniquely defined
by the following loop, which should always be used as a source of
symmetry information in preference to the above space-group names.
They are only intended as comments.
;
_shelx_res_file
;

    dgc-sg-2.res created by SHELXL-2014/7

TITL dgc-sg-2_a.res in P-1
REM Old TITL DGC-SG-2 in P-1 #2
REM SHELXT solution in P-1
REM R1 0.098, Rweak 0.008, Alpha 0.030, Orientation as input
REM Formula found by SHELXT: C19 N O4 S
CELL 1.54184 7.042289 9.293588 12.80248 89.1166 75.4762 77.2425
ZERR 2 0.000621 0.000903 0.000647 0.0065 0.0067 0.0079
LATT 1
SFAC C H N O S
UNIT 38 26 2 8 2

L.S. 10
PLAN  20
BOND $H
LIST 6
fmap 2
acta
SHEL 999 0.88
REM <olex2.extras>
REM <HklSrc "%.\\DGC-SG-2.hkl">
REM </olex2.extras>

WGHT    0.072000    0.447600
FVAR       0.76829
S001  5    0.370988    0.300542    0.232556    11.00000    0.01556    0.01768 =
         0.01708   -0.00221   -0.00348   -0.00511
O002  4    0.246777    0.386787    0.172104    11.00000    0.01645    0.02766 =
         0.02160   -0.00304   -0.00719   -0.00250
O003  4    0.325787    0.166700    0.277271    11.00000    0.02678    0.01941 =
         0.02418    0.00027   -0.00416   -0.01217
O004  4    0.480886    0.602852    0.160481    11.00000    0.02657    0.02377 =
         0.01603    0.00001   -0.00196   -0.00474
O005  4    0.142958    0.833557    0.559830    11.00000    0.02457    0.02457 =
         0.02237   -0.00852   -0.00651    0.00132
N006  3    0.359494    0.407468    0.341738    11.00000    0.01620    0.01656 =
         0.01635   -0.00015   -0.00142   -0.00465
C007  1    0.323640    0.561458    0.342017    11.00000    0.01244    0.01484 =
         0.01834   -0.00037   -0.00524   -0.00234
C008  1    0.240818    0.498840    0.516884    11.00000    0.00855    0.02132 =
         0.01674   -0.00278   -0.00288   -0.00331
C009  1    0.251734    0.619100    0.445439    11.00000    0.01005    0.01817 =
         0.01878    0.00049   -0.00445   -0.00296
C00A  1    0.307891    0.367172    0.451487    11.00000    0.01052    0.02119 =
         0.01863    0.00175   -0.00476   -0.00532
C00B  1    0.379147    0.652941    0.249325    11.00000    0.01463    0.02064 =
         0.01882    0.00250   -0.00688   -0.00502
C00C  1    0.672518    0.302503    0.053276    11.00000    0.02152    0.02229 =
         0.02060    0.00193   -0.00635   -0.00465
AFIX  43
H00C  2    0.574517    0.356121    0.022042    11.00000   -1.20000
AFIX   0
C00D  1    0.767775    0.182802    0.207129    11.00000    0.02068    0.02010 =
         0.01880   -0.00029   -0.00671   -0.00563
AFIX  43
H00D  2    0.732095    0.156001    0.278470    11.00000   -1.20000
AFIX   0
C00E  1    0.225542    0.871463    0.372820    11.00000    0.01652    0.01532 =
         0.02869   -0.00173   -0.00640   -0.00148
AFIX  43
H00E  2    0.181710    0.973440    0.383006    11.00000   -1.20000
AFIX   0
C00F  1    0.318478    0.229178    0.496149    11.00000    0.01554    0.01991 =
         0.02260    0.00279   -0.00545   -0.00436
AFIX  43
H00F  2    0.363846    0.142657    0.453049    11.00000   -1.20000
AFIX   0
C00G  1    0.307832    0.814179    0.273566    11.00000    0.01902    0.01847 =
         0.02591    0.00445   -0.00669   -0.00487
AFIX  43
H00G  2    0.321519    0.877649    0.216645    11.00000   -1.20000
AFIX   0
C00H  1    0.200744    0.778570    0.468523    11.00000    0.01006    0.02044 =
         0.02254   -0.00344   -0.00533   -0.00177
C00I  1    0.623439    0.262368    0.159286    11.00000    0.01739    0.01486 =
         0.01845   -0.00312   -0.00418   -0.00402
C00J  1    0.181008    0.492490    0.628917    11.00000    0.01115    0.02682 =
         0.01898   -0.00250   -0.00250   -0.00428
AFIX  43
H00J  2    0.136452    0.578365    0.672725    11.00000   -1.20000
AFIX   0
C00K  1    0.965500    0.143941    0.147143    11.00000    0.02027    0.01923 =
         0.03254   -0.00227   -0.01188   -0.00329
AFIX  43
H00K  2    1.063528    0.091334    0.178792    11.00000   -1.20000
AFIX   0
C00L  1    0.871679    0.260799   -0.005393    11.00000    0.02414    0.03018 =
         0.02024   -0.00176    0.00018   -0.00741
AFIX  43
H00L  2    0.906429    0.286172   -0.077123    11.00000   -1.20000
AFIX   0
C00M  1    0.258507    0.226275    0.607596    11.00000    0.01815    0.02523 =
         0.02420    0.00893   -0.00697   -0.00736
AFIX  43
H00M  2    0.264240    0.135576    0.639815    11.00000   -1.20000
AFIX   0
C00N  1    0.189557    0.355691    0.673166    11.00000    0.01667    0.03580 =
         0.01704    0.00669   -0.00377   -0.00958
AFIX  43
H00N  2    0.148868    0.349410    0.747714    11.00000   -1.20000
AFIX   0
C00O  1    1.020118    0.182451    0.039900    11.00000    0.01925    0.02034 =
         0.03097   -0.00463   -0.00416   -0.00793
C00P  1    1.236380    0.139747   -0.024853    11.00000    0.02118    0.03466 =
         0.04054   -0.00807   -0.00086   -0.00702
AFIX 137
H00A  2    1.288234    0.227009   -0.041023    11.00000   -1.50000
H00B  2    1.243829    0.088862   -0.090951    11.00000   -1.50000
H00H  2    1.314746    0.076184    0.016196    11.00000   -1.50000
AFIX   0
HKLF 4

REM  dgc-sg-2_a.res in P-1
REM R1 =  0.0458 for    2156 Fo > 4sig(Fo)  and  0.0529 for all    2398 data
REM    227 parameters refined using      0 restraints

END

WGHT      0.0720      0.4476

REM Highest difference peak  0.280,  deepest hole -0.504,  1-sigma level  0.075
Q1    1   0.2159  0.3480  0.1783  11.00000  0.05    0.28
Q2    1   0.5285  0.2852  0.1941  11.00000  0.05    0.27
Q3    1  -0.0134  0.5953  0.6362  11.00000  0.05    0.27
Q4    1   0.2005  0.0827  0.2597  11.00000  0.05    0.25
Q5    1   1.2812  0.0087 -0.0409  11.00000  0.05    0.23
Q6    1   0.5995  0.1439  0.0748  11.00000  0.05    0.23
Q7    1   1.2335  0.1654 -0.1266  11.00000  0.05    0.23
Q8    1   0.1161  0.4092  0.4645  11.00000  0.05    0.23
Q9    1   0.5668  0.6107  0.2162  11.00000  0.05    0.22
Q10   1   0.5353  0.3525  0.3651  11.00000  0.05    0.22
Q11   1   0.9987  0.3496 -0.0671  11.00000  0.05    0.22
Q12   1   0.5398  0.5215  0.1722  11.00000  0.05    0.21
Q13   1   0.1407  0.5120  0.2214  11.00000  0.05    0.21
Q14   1   1.1135  0.0644  0.2168  11.00000  0.05    0.21
Q15   1   0.0891  0.3997  0.1669  11.00000  0.05    0.20
Q16   1   0.1427  0.3624  0.1240  11.00000  0.05    0.20
Q17   1   0.2219  0.6959  0.4552  11.00000  0.05    0.20
Q18   1   0.4993  0.3907  0.3842  11.00000  0.05    0.20
Q19   1   0.0989  0.4383  0.1777  11.00000  0.05    0.20
Q20   1   0.3034  0.4125  0.2169  11.00000  0.05    0.20
;
_shelx_res_checksum              60425
_shelx_hkl_file
;
  -8  -5  -5    3.58    1.52
  -8  -5  -4  107.83    6.64
  -8  -4  -6    2.67    1.16
  -8  -4  -5   15.97    2.74
  -8  -4  -4   56.15    5.02
  -8  -4  -3   26.37    3.34
  -8  -3  -7    1.17    0.94
  -8  -3  -6   20.65    3.02
  -8  -3  -5  149.42    8.35
  -8  -3  -4    0.40    0.67
  -8  -3  -3   60.08    5.16
  -8  -2  -7   78.49    5.58
  -8  -2  -6  304.16   11.46
  -8  -2  -5  651.06   17.08
  -8  -2  -4   88.82    6.34
  -8  -2  -3  102.05    6.62
  -8  -1  -7    0.85    0.66
  -8  -1  -6   36.81    3.94
  -8  -1  -5    4.61    1.42
  -8  -1  -4    3.31    1.30
  -8  -1  -3  202.36    8.95
  -8   0  -6   33.92    3.58
  -8   0  -5   29.13    3.42
  -8   0  -4    0.70    0.81
  -7  -7  -6    5.67    1.65
  -7  -7  -5   10.98    2.16
  -7  -7  -4   29.67    3.54
  -7  -7  -3   23.97    3.17
  -7  -7  -3   30.47    3.52
  -7  -7  -2  104.18    6.67
  -7  -7  -1   -1.56    0.99
  -7  -7   0   12.20    2.29
  -7  -7   1   36.35    3.62
  -7  -6  -8    6.36    1.65
  -7  -6  -7   34.85    4.03
  -7  -6  -6  111.83    7.28
  -7  -6  -5  285.30   11.71
  -7  -6  -4  119.17    7.52
  -7  -6  -4  112.33    7.23
  -7  -6  -3   29.04    3.86
  -7  -6  -2    7.77    2.08
  -7  -6  -1   10.09    2.26
  -7  -6   0   67.89    5.66
  -7  -6   1    0.39    0.67
  -7  -6   2   20.43    2.87
  -7  -5  -9   12.75    2.27
  -7  -5  -9   20.77    2.95
  -7  -5  -9   17.07    2.57
  -7  -5  -8   17.49    2.79
  -7  -5  -8   23.84    3.36
  -7  -5  -7    3.17    1.31
  -7  -5  -7    4.87    1.65
  -7  -5  -6  502.50   16.02
  -7  -5  -5   11.23    2.32
  -7  -5  -5   14.10    2.68
  -7  -5  -4   29.48    4.03
  -7  -5  -4   28.50    3.79
  -7  -5  -3  162.76    9.45
  -7  -5  -2   42.09    4.90
  -7  -5  -1  220.57   10.98
  -7  -5   0  134.70    8.42
  -7  -5   1    0.00    0.47
  -7  -5   1    2.71    1.39
  -7  -5   2   16.48    2.72
  -7  -5   2   28.63    3.63
  -7  -5   3    0.70    0.66
  -7  -5   3    2.98    1.11
  -7  -4  -9    8.01    1.99
  -7  -4  -9    6.25    1.68
  -7  -4  -8    1.80    0.99
  -7  -4  -8    1.38    0.96
  -7  -4  -8    0.68    0.71
  -7  -4  -7  124.69    8.04
  -7  -4  -7   98.91    7.00
  -7  -4  -6   15.31    2.95
  -7  -4  -5  293.31   12.32
  -7  -4  -5  290.65   12.33
  -7  -4  -4   31.12    4.25
  -7  -4  -3   14.89    3.09
  -7  -4  -2    7.52    4.10
  -7  -4  -1   57.35    5.68
  -7  -4   0    7.33    2.24
  -7  -4   0    7.24    2.03
  -7  -4   1   21.37    3.35
  -7  -4   1   22.34    3.54
  -7  -4   2   33.59    4.10
  -7  -4   2   37.48    4.20
  -7  -4   3   75.48    5.76
  -7  -4   3   58.19    4.78
  -7  -4   4    9.76    1.99
  -7  -3 -10   69.10    5.21
  -7  -3  -9   73.35    5.90
  -7  -3  -8   25.47    3.86
  -7  -3  -7   84.45    7.01
  -7  -3  -7   72.98    6.23
  -7  -3  -6  376.17   15.32
  -7  -3  -6  349.18   13.49
  -7  -3  -5   85.38    6.83
  -7  -3  -4    3.77    1.63
  -7  -3  -3   47.59    5.38
  -7  -3  -2   24.76    3.90
  -7  -3  -1   85.42    7.09
  -7  -3  -1   72.96    6.51
  -7  -3   0   48.29    5.22
  -7  -3   0   37.04    4.42
  -7  -3   1   -0.69    0.70
  -7  -3   1    0.22    1.03
  -7  -3   2  108.03    7.24
  -7  -3   2  116.23    7.70
  -7  -3   3    2.41    1.25
  -7  -3   3    2.43    1.02
  -7  -3   4  147.19    7.61
  -7  -2 -11    9.46    1.90
  -7  -2 -10  191.95    8.62
  -7  -2 -10  262.38   10.15
  -7  -2  -9    9.10    2.18
  -7  -2  -9   10.72    2.27
  -7  -2  -8  151.09    9.11
  -7  -2  -7    7.44    2.19
  -7  -2  -6  187.56   10.65
  -7  -2  -5   57.69    6.26
  -7  -2  -4   11.33    2.89
  -7  -2  -3    9.07    2.46
  -7  -2  -3    9.82    2.67
  -7  -2  -2    5.66    1.85
  -7  -2  -2    4.70    1.91
  -7  -2  -1   43.21    4.97
  -7  -2  -1   45.55    5.28
  -7  -2  -1   44.17    4.98
  -7  -2   0    2.48    1.44
  -7  -2   0    3.51    1.47
  -7  -2   1    0.97    1.11
  -7  -2   1   -0.19    0.85
  -7  -2   2   -1.32    1.33
  -7  -2   3   32.17    3.95
  -7  -2   4   27.35    3.43
  -7  -1 -10    4.96    1.38
  -7  -1 -10    5.08    1.57
  -7  -1  -9    2.38    1.37
  -7  -1  -9    0.30    0.70
  -7  -1  -8    5.34    1.69
  -7  -1  -8    5.07    1.58
  -7  -1  -7   76.26    6.67
  -7  -1  -7   61.52    5.26
  -7  -1  -6   -0.90    0.93
  -7  -1  -5   -0.02    1.17
  -7  -1  -4   12.11    2.92
  -7  -1  -3  116.86    8.44
  -7  -1  -2   12.38    2.57
  -7  -1  -2   15.01    3.09
  -7  -1  -1   24.86    3.68
  -7  -1  -1   27.63    3.83
  -7  -1   0   55.76    5.57
  -7  -1   1    5.54    1.79
  -7  -1   2  144.36    8.46
  -7  -1   3   25.02    3.56
  -7  -1   4    0.88    0.71
  -7   0 -10   90.57    5.63
  -7   0 -10   86.84    5.59
  -7   0  -9    1.95    0.89
  -7   0  -9    4.06    1.60
  -7   0  -8  100.51    7.14
  -7   0  -7   32.60    4.24
  -7   0  -6   18.16    3.33
  -7   0  -5   20.23    3.55
  -7   0  -4   19.05    3.54
  -7   0  -3   -1.30    1.17
  -7   0  -2  186.54    9.56
  -7   0  -2  226.28   11.23
  -7   0  -1    6.39    1.93
  -7   0   0  155.53    8.87
  -7   0   1    6.65    1.92
  -7   0   2   75.72    5.95
  -7   0   3   32.45    3.78
  -7   0   4   -0.08    0.61
  -7   1  -9   15.00    2.54
  -7   1  -8    3.30    1.36
  -7   1  -7   82.67    6.40
  -7   1  -6   56.95    5.51
  -7   1  -5  113.74    7.96
  -7   1  -4    7.81    2.28
  -7   1  -3  184.00    9.96
  -7   1  -2    5.61    1.76
  -7   1  -2    6.01    1.77
  -7   1  -1  231.80   10.55
  -7   1   0   14.88    2.80
  -7   1   1   36.49    4.08
  -7   1   2   11.61    2.40
  -7   1   3  107.70    6.18
  -7   2  -8   17.35    2.68
  -7   2  -7  130.41    7.68
  -7   2  -6    1.56    1.19
  -7   2  -5   18.41    3.07
  -7   2  -4    6.33    1.82
  -7   2  -3    0.94    0.81
  -7   2  -3   -1.05    1.07
  -7   2  -2  268.93   10.82
  -7   2  -2  228.99   10.09
  -7   2  -1   70.78    5.55
  -7   2   0   18.48    2.83
  -7   2   1    3.09    1.31
  -7   2   2   59.30    4.53
  -7   3  -7    7.47    1.83
  -7   3  -6    0.32    0.78
  -7   3  -5  141.42    7.80
  -7   3  -4   -0.11    0.80
  -7   3  -3   22.34    3.01
  -7   3  -2   92.38    7.01
  -7   3  -1   51.66    4.92
  -7   3   0   35.60    3.81
  -6  -9  -3  111.77    6.38
  -6  -9  -2   21.24    2.87
  -6  -9  -1   23.22    2.98
  -6  -9   0  108.43    6.11
  -6  -8  -7    6.87    1.75
  -6  -8  -5   -0.77    0.79
  -6  -8  -4  406.96   13.66
  -6  -8  -3    2.14    1.13
  -6  -8  -3    2.26    1.13
  -6  -8  -2   32.20    3.99
  -6  -8  -2   16.11    2.81
  -6  -8  -1   27.91    3.85
  -6  -8  -1   46.87    4.63
  -6  -8   0  209.41   10.03
  -6  -8   0  308.94   11.88
  -6  -8   1    1.61    0.93
  -6  -8   1    1.08    0.95
  -6  -8   2   20.92    3.03
  -6  -8   2   57.98    4.66
  -6  -7  -9   -0.84    0.89
  -6  -7  -9    0.05    0.70
  -6  -7  -8    2.38    1.10
  -6  -7  -8    1.57    0.99
  -6  -7  -7   12.40    2.50
  -6  -7  -7    8.96    2.27
  -6  -7  -6    0.66    1.05
  -6  -7  -5   53.07    5.20
  -6  -7  -4    5.31    1.94
  -6  -7  -4    4.97    1.66
  -6  -7  -3   32.92    4.47
  -6  -7  -3   42.37    4.87
  -6  -7  -2   13.13    2.89
  -6  -7  -2   15.38    3.00
  -6  -7  -1   24.67    3.72
  -6  -7   0    9.68    2.46
  -6  -7   1   81.10    6.59
  -6  -7   1   83.63    6.56
  -6  -7   2   -0.15    0.81
  -6  -7   2    0.00    0.86
  -6  -7   2    0.63    0.76
  -6  -7   3    0.73    0.73
  -6  -7   3    9.77    2.21
  -6  -7   4    0.09    0.71
  -6  -7   4    4.21    1.29
  -6  -6 -10   97.23    6.35
  -6  -6 -10   96.26    6.29
  -6  -6  -9   28.09    3.76
  -6  -6  -9   29.79    3.85
  -6  -6  -8   15.61    2.90
  -6  -6  -8   13.74    2.67
  -6  -6  -7   10.75    2.62
  -6  -6  -7    8.84    2.24
  -6  -6  -6  274.38   12.23
  -6  -6  -5    1.91    1.22
  -6  -6  -5   -0.90    0.93
  -6  -6  -4  319.96   13.62
  -6  -6  -4  303.41   13.28
  -6  -6  -3    5.23    2.16
  -6  -6  -3    5.81    2.00
  -6  -6  -2    3.28    1.81
  -6  -6  -2    5.57    1.99
  -6  -6  -1    1.10    0.99
  -6  -6  -1    2.25    1.69
  -6  -6   0  152.49    9.51
  -6  -6   0  157.43    9.96
  -6  -6   1   25.82    3.96
  -6  -6   1   28.18    4.10
  -6  -6   2   44.27    4.83
  -6  -6   2   44.99    5.19
  -6  -6   3    6.84    2.02
  -6  -6   3    2.16    1.62
  -6  -6   4   12.56    2.70
  -6  -6   4   30.56    3.76
  -6  -6   5   17.84    2.83
  -6  -5 -11   47.70    4.36
  -6  -5 -10   49.42    4.81
  -6  -5 -10   50.50    4.94
  -6  -5  -9    7.59    2.30
  -6  -5  -9    6.72    2.04
  -6  -5  -8   41.04    4.92
  -6  -5  -8   38.56    4.64
  -6  -5  -7   28.56    4.32
  -6  -5  -7   23.57    3.75
  -6  -5  -6   87.86    7.39
  -6  -5  -6   81.33    6.90
  -6  -5  -5    3.87    1.75
  -6  -5  -5    3.97    1.65
  -6  -5  -4    0.17    1.13
  -6  -5  -4    0.38    0.91
  -6  -5  -3  166.37   10.08
  -6  -5  -3  141.21    9.34
  -6  -5  -2   66.55    6.55
  -6  -5  -2   63.57    6.26
  -6  -5  -1   57.61    6.14
  -6  -5  -1   60.65    6.31
  -6  -5   0    3.91    1.73
  -6  -5   0    2.66    1.34
  -6  -5   1  343.28   14.77
  -6  -5   1  361.23   14.53
  -6  -5   2   26.67    4.06
  -6  -5   2   22.07    3.61
  -6  -5   3   57.51    5.72
  -6  -5   3   51.67    5.39
  -6  -5   4   40.35    4.58
  -6  -5   4   33.34    4.08
  -6  -5   5  372.90   13.14
  -6  -5   6   11.58    2.12
  -6  -4 -12   37.54    3.73
  -6  -4 -12   35.89    3.51
  -6  -4 -11  176.82    8.87
  -6  -4 -10   47.67    4.94
  -6  -4 -10   50.00    5.10
  -6  -4  -9   51.42    5.48
  -6  -4  -9   49.37    5.25
  -6  -4  -8    1.59    1.35
  -6  -4  -8    0.35    1.03
  -6  -4  -7    5.53    2.18
  -6  -4  -7    5.57    1.86
  -6  -4  -6   43.29    5.34
  -6  -4  -6   34.44    4.52
  -6  -4  -5   -0.26    1.32
  -6  -4  -5    0.98    1.04
  -6  -4  -5    2.81    1.51
  -6  -4  -4   12.28    2.88
  -6  -4  -3  136.07    9.22
  -6  -4  -2    3.12    1.63
  -6  -4  -1    3.97    2.04
  -6  -4  -1    4.85    1.77
  -6  -4   0   11.95    3.01
  -6  -4   0   14.30    3.00
  -6  -4   1   27.80    4.29
  -6  -4   1   25.49    3.98
  -6  -4   2  255.81   12.42
  -6  -4   2  289.89   13.29
  -6  -4   3    1.92    1.33
  -6  -4   3    3.70    1.61
  -6  -4   4  127.74    8.49
  -6  -4   4  116.07    7.72
  -6  -4   5   15.89    2.90
  -6  -4   6   10.80    1.96
  -6  -4   6   15.19    2.65
  -6  -3 -12    0.00    0.63
  -6  -3 -12    0.18    0.63
  -6  -3 -11  113.36    7.36
  -6  -3 -10    3.51    1.45
  -6  -3  -9    1.70    1.05
  -6  -3  -9    2.45    1.50
  -6  -3  -9    2.21    1.40
  -6  -3  -8  216.57   11.22
  -6  -3  -8  213.36   11.46
  -6  -3  -7   25.04    3.91
  -6  -3  -7   25.15    3.97
  -6  -3  -6  141.67    9.29
  -6  -3  -6  132.05    8.37
  -6  -3  -6  135.58    8.87
  -6  -3  -5   18.12    3.29
  -6  -3  -5   15.11    2.91
  -6  -3  -5   15.32    3.15
  -6  -3  -4  125.25    8.43
  -6  -3  -4   98.69    7.22
  -6  -3  -4  118.54    8.40
  -6  -3  -3  317.61   13.03
  -6  -3  -3  397.57   15.46
  -6  -3  -2    4.84    2.14
  -6  -3  -1    1.55    1.48
  -6  -3  -1    0.71    0.80
  -6  -3   0    5.24    2.11
  -6  -3   0    3.12    1.85
  -6  -3   1  192.51   10.78
  -6  -3   1  176.05   10.47
  -6  -3   2    3.43    1.78
  -6  -3   2    2.21    1.12
  -6  -3   3  146.22    9.19
  -6  -3   3  157.45    9.92
  -6  -3   4   91.74    7.26
  -6  -3   4   70.35    6.03
  -6  -3   5  222.48    9.70
  -6  -3   5  310.23   12.73
  -6  -3   6   27.33    3.17
  -6  -3   6   36.97    4.23
  -6  -3   7  167.42    7.89
  -6  -2 -12   35.84    3.75
  -6  -2 -11    8.70    2.07
  -6  -2 -10   52.29    5.09
  -6  -2 -10   64.62    6.00
  -6  -2  -9  124.87    8.49
  -6  -2  -9  105.61    7.82
  -6  -2  -8  185.41   10.51
  -6  -2  -8  182.13   10.46
  -6  -2  -8  188.53   10.90
  -6  -2  -7  395.88   15.37
  -6  -2  -7  401.46   15.40
  -6  -2  -6  128.80    8.70
  -6  -2  -6  120.49    8.03
  -6  -2  -6  125.20    8.58
  -6  -2  -5 1075.47   24.55
  -6  -2  -5 1023.79   24.18
  -6  -2  -5 1051.51   24.54
  -6  -2  -4  649.35   18.80
  -6  -2  -4  634.05   18.46
  -6  -2  -3   11.25    2.89
  -6  -2  -2  535.27   17.81
  -6  -2  -2  479.67   15.94
  -6  -2  -1    1.21    1.26
  -6  -2  -1    1.04    1.09
  -6  -2   0   28.09    4.17
  -6  -2   0   29.86    4.27
  -6  -2   1    1.04    1.34
  -6  -2   1   -0.08    1.02
  -6  -2   2  111.93    8.15
  -6  -2   2  118.81    8.66
  -6  -2   3   89.53    7.04
  -6  -2   3   84.15    7.15
  -6  -2   4   62.75    5.57
  -6  -2   4   77.05    6.91
  -6  -2   5   42.81    4.32
  -6  -2   5   63.92    5.84
  -6  -2   6    6.22    1.83
  -6  -2   6    3.63    1.19
  -6  -2   7    1.84    1.01
  -6  -1 -12   25.32    3.17
  -6  -1 -11   17.61    2.97
  -6  -1 -10   51.86    5.11
  -6  -1 -10   62.44    5.66
  -6  -1  -9  346.50   14.10
  -6  -1  -8   25.83    4.03
  -6  -1  -7   49.37    5.52
  -6  -1  -7   43.46    5.10
  -6  -1  -6   15.82    3.41
  -6  -1  -5  325.68   13.33
  -6  -1  -5  381.94   15.69
  -6  -1  -4    4.98    2.36
  -6  -1  -4    0.12    1.28
  -6  -1  -3 1464.97   30.37
  -6  -1  -3 1483.03   29.28
  -6  -1  -2  441.07   15.33
  -6  -1  -2  446.42   16.56
  -6  -1  -1   45.13    5.25
  -6  -1  -1   44.10    5.28
  -6  -1  -1   42.09    4.85
  -6  -1   0   81.25    6.87
  -6  -1   0   87.21    7.24
  -6  -1   0   83.31    7.15
  -6  -1   1   49.44    5.57
  -6  -1   1   56.01    5.78
  -6  -1   2   -0.96    1.22
  -6  -1   2   -0.13    1.13
  -6  -1   3    2.58    1.50
  -6  -1   3    0.72    1.42
  -6  -1   4    2.40    1.21
  -6  -1   4    0.79    1.12
  -6  -1   5    4.18    1.43
  -6  -1   5    3.66    1.73
  -6  -1   6    1.76    0.96
  -6  -1   6   -0.93    1.02
  -6  -1   7   85.94    5.50
  -6   0 -12   43.88    4.09
  -6   0 -11   -0.32    0.77
  -6   0 -10  247.20   10.94
  -6   0 -10  277.25   11.76
  -6   0  -9   13.70    2.89
  -6   0  -9   13.34    2.87
  -6   0  -8  144.40    8.78
  -6   0  -8  155.66    9.65
  -6   0  -7  111.36    8.42
  -6   0  -7   96.78    7.12
  -6   0  -6   82.09    6.52
  -6   0  -6   92.66    7.59
  -6   0  -5  614.04   19.55
  -6   0  -4   14.70    3.35
  -6   0  -3  189.49    9.85
  -6   0  -3  214.01   11.74
  -6   0  -2    3.33    1.68
  -6   0  -2    2.36    1.40
  -6   0  -1   53.56    5.64
  -6   0  -1   49.84    5.46
  -6   0   0   83.92    7.06
  -6   0   0   88.27    7.12
  -6   0   1    7.62    2.65
  -6   0   2   62.07    6.15
  -6   0   3    0.52    0.99
  -6   0   4    0.89    0.77
  -6   0   4    1.83    1.04
  -6   0   5   23.66    3.58
  -6   0   5   23.93    3.16
  -6   0   6   65.65    5.33
  -6   1 -11   29.95    3.64
  -6   1 -10   27.57    3.65
  -6   1 -10   35.07    4.16
  -6   1  -9  124.27    7.95
  -6   1  -9  123.67    8.14
  -6   1  -8   -1.21    1.34
  -6   1  -8    0.33    1.25
  -6   1  -7   18.90    3.47
  -6   1  -7   14.51    2.78
  -6   1  -6   22.71    3.85
  -6   1  -5  246.67   12.37
  -6   1  -4  467.80   17.12
  -6   1  -3    7.13    2.15
  -6   1  -3    6.12    2.27
  -6   1  -2   11.33    2.69
  -6   1  -2   11.68    2.85
  -6   1  -1   85.44    7.02
  -6   1  -1   88.05    7.24
  -6   1   0   19.86    3.51
  -6   1   1    0.29    0.88
  -6   1   2    5.70    1.88
  -6   1   3    0.74    1.17
  -6   1   4  122.51    7.89
  -6   1   5   90.85    6.39
  -6   1   6   78.25    5.39
  -6   2 -10    1.64    0.96
  -6   2  -9   59.83    5.50
  -6   2  -8   12.38    2.73
  -6   2  -7   22.69    3.68
  -6   2  -6    0.12    1.16
  -6   2  -5   48.22    5.57
  -6   2  -4   85.07    6.67
  -6   2  -4   87.55    7.37
  -6   2  -3   29.03    3.94
  -6   2  -3   33.47    4.55
  -6   2  -2   14.07    3.15
  -6   2  -2   10.33    2.51
  -6   2  -1   98.51    7.38
  -6   2  -1   90.12    7.19
  -6   2   0  156.19    9.27
  -6   2   1  115.07    8.03
  -6   2   2   15.44    3.22
  -6   2   3   45.02    4.74
  -6   2   4   21.50    3.15
  -6   2   5    2.63    1.18
  -6   3 -10    3.71    1.18
  -6   3  -9   43.78    4.45
  -6   3  -8   34.41    4.15
  -6   3  -7    7.24    2.04
  -6   3  -6    2.95    1.50
  -6   3  -5    8.40    2.38
  -6   3  -4   45.32    5.74
  -6   3  -4   33.41    4.59
  -6   3  -3  127.66    8.67
  -6   3  -3  135.85    8.78
  -6   3  -2   11.13    2.52
  -6   3  -2   11.35    2.63
  -6   3  -1  224.75   10.87
  -6   3  -1  205.35   10.43
  -6   3   0    0.51    0.93
  -6   3   1  124.26    7.89
  -6   3   2  140.19    8.13
  -6   3   3  235.33   10.02
  -6   3   4   20.69    2.84
  -6   4  -9   20.70    2.69
  -6   4  -8   13.55    2.42
  -6   4  -7   97.70    6.70
  -6   4  -6   10.89    2.44
  -6   4  -5    5.90    1.95
  -6   4  -4  136.32   12.50
  -6   4  -4   77.67    6.43
  -6   4  -3   42.83    4.78
  -6   4  -3   72.38    7.97
  -6   4  -2   11.16    3.29
  -6   4  -2    6.95    1.94
  -6   4  -1   27.71    3.99
  -6   4   0   27.16    3.73
  -6   4   1    0.31    0.94
  -6   4   2   18.41    2.87
  -6   4   3    7.06    1.83
  -6   5  -7   55.58    4.42
  -6   5  -6   63.94    5.07
  -6   5  -5    3.32    1.35
  -6   5  -4    0.90    0.69
  -6   5  -3   96.54    6.28
  -6   5  -2   16.66    2.49
  -6   5  -1   20.15    4.54
  -6   5   0    4.15    2.34
  -6   5   1   73.28    7.34
  -5 -10  -1    0.94    0.71
  -5  -9  -6    3.69    1.21
  -5  -9  -5   13.67    2.29
  -5  -9  -4   86.87    6.08
  -5  -9  -3   14.79    2.69
  -5  -9  -2    7.60    2.07
  -5  -9  -2    7.52    1.92
  -5  -9  -1   56.00    5.02
  -5  -9  -1   63.25    5.38
  -5  -9   0   28.76    3.62
  -5  -9   0   29.02    3.70
  -5  -9   1  195.86    9.06
  -5  -9   1  163.40    8.36
  -5  -9   2  102.37    6.31
  -5  -9   2  108.53    6.45
  -5  -9   3    1.09    0.94
  -5  -9   3    0.39    0.64
  -5  -8  -9  122.63    6.84
  -5  -8  -8  247.25   10.49
  -5  -8  -8  257.79   10.64
  -5  -8  -7    2.63    1.21
  -5  -8  -6   17.30    3.01
  -5  -8  -5    2.31    1.15
  -5  -8  -5    2.95    1.28
  -5  -8  -4    9.02    2.25
  -5  -8  -3  311.54   12.95
  -5  -8  -3  284.90   11.85
  -5  -8  -2  181.39    9.95
  -5  -8  -2  169.92    9.43
  -5  -8  -1  615.03   18.19
  -5  -8  -1  586.20   17.81
  -5  -8   0   47.71    5.10
  -5  -8   0   41.60    4.80
  -5  -8   1  195.48   10.03
  -5  -8   1  194.73    9.97
  -5  -8   2  121.67    7.80
  -5  -8   2  103.11    7.08
  -5  -8   3    8.38    2.34
  -5  -8   3    8.52    1.91
  -5  -8   4  238.34    9.85
  -5  -8   4    3.28    1.70
  -5  -8   5   -0.46    0.82
  -5  -7 -10   85.91    5.76
  -5  -7 -10  102.99    6.63
  -5  -7  -9    3.94    1.43
  -5  -7  -9    5.07    1.60
  -5  -7  -8  126.84    8.25
  -5  -7  -8  138.55    8.64
  -5  -7  -7   -0.60    0.99
  -5  -7  -6   23.78    3.85
  -5  -7  -5    6.11    1.93
  -5  -7  -5    5.58    1.95
  -5  -7  -4   76.66    6.54
  -5  -7  -4   90.23    7.12
  -5  -7  -3  209.83   10.59
  -5  -7  -3  195.84   10.69
  -5  -7  -2   77.41    6.66
  -5  -7  -2   83.29    6.99
  -5  -7  -1  209.66   10.95
  -5  -7  -1  216.90   11.28
  -5  -7   0    5.81    2.06
  -5  -7   0    0.26    0.87
  -5  -7   0    5.82    1.97
  -5  -7   1   -0.52    0.89
  -5  -7   1    0.20    0.99
  -5  -7   1    0.43    1.22
  -5  -7   2  229.85   11.35
  -5  -7   2  195.74   10.32
  -5  -7   3   31.57    4.13
  -5  -7   3   28.91    3.83
  -5  -7   4   14.04    2.65
  -5  -7   4   18.09    2.98
  -5  -7   5   92.14    5.94
  -5  -7   5   19.23    3.11
  -5  -7   6    7.47    1.58
  -5  -7   6   -0.13    0.61
  -5  -6 -11   11.31    2.28
  -5  -6 -11   12.17    2.23
  -5  -6 -10   11.13    2.37
  -5  -6 -10    9.09    2.23
  -5  -6  -9  140.15    8.81
  -5  -6  -9  138.75    8.79
  -5  -6  -8  118.63    8.35
  -5  -6  -8  119.22    8.55
  -5  -6  -7   26.69    4.16
  -5  -6  -6   12.28    2.74
  -5  -6  -6    9.77    2.35
  -5  -6  -5   67.95    6.37
  -5  -6  -5   61.93    5.85
  -5  -6  -4  169.44    9.70
  -5  -6  -4  195.29   10.42
  -5  -6  -3  109.98    7.92
  -5  -6  -3  130.36    8.39
  -5  -6  -2  558.93   17.78
  -5  -6  -2  551.31   17.65
  -5  -6  -1  154.79    9.37
  -5  -6  -1  173.91    9.94
  -5  -6   0   25.10    4.03
  -5  -6   0   19.28    3.37
  -5  -6   1  112.83    8.21
  -5  -6   1  104.66    7.71
  -5  -6   2   15.06    2.98
  -5  -6   2   19.00    3.53
  -5  -6   2    8.07    2.73
  -5  -6   3  354.59   13.82
  -5  -6   3  358.85   14.00
  -5  -6   4   85.52    7.36
  -5  -6   4  106.72    7.29
  -5  -6   5   47.52    5.50
  -5  -6   5   64.38    5.49
  -5  -6   6  114.68    7.62
  -5  -6   6  259.61   10.31
  -5  -6   7   -0.49    1.00
  -5  -6   7    2.91    1.09
  -5  -5 -12    0.88    0.83
  -5  -5 -11   62.24    5.49
  -5  -5 -11   62.31    5.56
  -5  -5 -10   30.42    4.13
  -5  -5 -10   33.09    4.34
  -5  -5  -9   14.70    3.04
  -5  -5  -9   16.92    3.15
  -5  -5  -8   89.73    7.49
  -5  -5  -8   89.20    7.39
  -5  -5  -7   48.27    5.47
  -5  -5  -6   27.73    3.88
  -5  -5  -6   23.89    3.90
  -5  -5  -5  158.69    9.22
  -5  -5  -5  165.31    9.59
  -5  -5  -5  151.61    8.96
  -5  -5  -4  159.73    9.25
  -5  -5  -4  175.49    9.69
  -5  -5  -3   76.78    6.44
  -5  -5  -2  171.51    9.44
  -5  -5  -2  158.31    9.19
  -5  -5  -1   37.46    4.58
  -5  -5  -1   22.96    3.86
  -5  -5  -1   30.98    4.29
  -5  -5   0  355.16   15.36
  -5  -5   0  395.42   14.80
  -5  -5   0  388.61   14.36
  -5  -5   1  357.73   14.14
  -5  -5   1  329.68   13.54
  -5  -5   2  287.54   14.26
  -5  -5   2  290.66   12.74
  -5  -5   3    8.89    2.32
  -5  -5   3   10.92    2.61
  -5  -5   3   12.69    3.09
  -5  -5   4   40.01    5.24
  -5  -5   4   29.79    3.95
  -5  -5   4   26.73    3.81
  -5  -5   5   32.23    4.47
  -5  -5   5   34.62    4.19
  -5  -5   5   31.32    4.24
  -5  -5   6    4.73    1.68
  -5  -5   6    2.36    1.59
  -5  -5   7   -0.37    0.98
  -5  -5   7   -0.30    0.66
  -5  -5   8   90.07    5.52
  -5  -5   8   14.86    2.52
  -5  -4 -13  115.13    6.31
  -5  -4 -12    0.46    0.79
  -5  -4 -11    2.12    1.23
  -5  -4 -11    3.06    1.51
  -5  -4 -10  166.63    9.82
  -5  -4 -10  166.00    9.80
  -5  -4  -9   13.19    2.96
  -5  -4  -9   16.43    3.29
  -5  -4  -8    0.51    1.17
  -5  -4  -8   -0.23    1.49
  -5  -4  -7  100.26    7.70
  -5  -4  -7   95.29    7.72
  -5  -4  -6   78.88    6.73
  -5  -4  -6   71.01    6.01
  -5  -4  -5   17.35    2.95
  -5  -4  -5   15.47    2.91
  -5  -4  -5   16.63    3.12
  -5  -4  -4    3.24    1.44
  -5  -4  -4    0.48    0.84
  -5  -4  -4    1.23    0.99
  -5  -4  -3    1.89    1.25
  -5  -4  -3    1.52    1.04
  -5  -4  -2   27.84    3.78
  -5  -4  -1    6.22    1.97
  -5  -4  -1    8.84    2.27
  -5  -4   0   51.32    5.65
  -5  -4   0   47.56    5.08
  -5  -4   1  122.14    8.91
  -5  -4   1  103.58    7.52
  -5  -4   2    2.60    1.43
  -5  -4   2   -0.08    0.85
  -5  -4   3  324.63   13.33
  -5  -4   3  278.73   11.74
  -5  -4   4   53.32    5.80
  -5  -4   4   60.64    6.45
  -5  -4   4   51.40    5.25
  -5  -4   5   64.16    5.83
  -5  -4   5   57.23    5.47
  -5  -4   6   92.30    6.77
  -5  -4   6   97.30    7.60
  -5  -4   7   45.15    4.57
  -5  -4   7   42.10    4.80
  -5  -4   8    1.54    0.87
  -5  -4   8    1.94    1.10
  -5  -3 -13    5.93    1.52
  -5  -3 -13    6.17    1.64
  -5  -3 -13    5.63    1.40
  -5  -3 -12   22.84    3.83
  -5  -3 -12   18.71    2.74
  -5  -3 -12   25.20    3.51
  -5  -3 -11    5.32    1.53
  -5  -3 -11    8.84    2.29
  -5  -3 -10  117.88    8.30
  -5  -3 -10  115.03    8.35
  -5  -3  -9   31.17    4.44
  -5  -3  -9   26.20    4.03
  -5  -3  -8   27.92    4.11
  -5  -3  -8   27.61    4.25
  -5  -3  -7   84.25    7.01
  -5  -3  -7   85.85    7.10
  -5  -3  -6   49.99    5.22
  -5  -3  -6   49.94    5.35
  -5  -3  -5   84.30    6.53
  -5  -3  -5   76.03    6.25
  -5  -3  -4   10.74    2.52
  -5  -3  -4   11.82    2.52
  -5  -3  -4   11.58    2.50
  -5  -3  -3    6.77    2.03
  -5  -3  -3    7.70    2.11
  -5  -3  -3    5.45    1.60
  -5  -3  -2  318.65   12.68
  -5  -3  -2  322.81   12.77
  -5  -3  -1    4.25    1.62
  -5  -3  -1    6.11    2.04
  -5  -3  -1    3.71    1.40
  -5  -3   0   41.80    4.71
  -5  -3   0   46.78    5.06
  -5  -3   0   35.15    4.53
  -5  -3   1   77.99    6.71
  -5  -3   1   70.24    6.50
  -5  -3   2   17.35    3.35
  -5  -3   2   11.32    2.74
  -5  -3   3  277.02   12.55
  -5  -3   3  295.03   13.41
  -5  -3   4    1.18    0.80
  -5  -3   4    3.93    1.94
  -5  -3   4    1.06    1.00
  -5  -3   5  251.00   12.33
  -5  -3   5  186.99    9.84
  -5  -3   6  178.21   10.19
  -5  -3   6  147.76    8.64
  -5  -3   7  455.22   15.75
  -5  -3   7  470.40   14.98
  -5  -3   8   43.36    4.49
  -5  -3   8   56.52    4.87
  -5  -3   9    4.95    1.30
  -5  -2 -13   38.96    3.67
  -5  -2 -13   46.28    4.31
  -5  -2 -12    1.31    0.90
  -5  -2 -12    2.59    1.19
  -5  -2 -12    2.54    1.35
  -5  -2 -11   27.48    3.49
  -5  -2 -11   27.14    3.96
  -5  -2 -10   77.01    6.68
  -5  -2  -9  486.79   16.71
  -5  -2  -9  540.91   17.79
  -5  -2  -9  519.40   17.29
  -5  -2  -8   31.87    4.43
  -5  -2  -8   30.69    4.35
  -5  -2  -7  179.07    9.95
  -5  -2  -7  187.56   10.19
  -5  -2  -6    4.80    1.81
  -5  -2  -6    4.99    1.62
  -5  -2  -6    5.79    1.87
  -5  -2  -5  312.12   12.43
  -5  -2  -5  315.57   12.60
  -5  -2  -5  316.18   12.43
  -5  -2  -4   24.83    3.56
  -5  -2  -4   25.58    3.52
  -5  -2  -4   32.84    4.04
  -5  -2  -3  171.96    8.81
  -5  -2  -3  193.89    9.94
  -5  -2  -2    0.48    0.85
  -5  -2  -2   -0.04    0.59
  -5  -2  -1   21.34    3.24
  -5  -2  -1   20.63    3.26
  -5  -2   0   77.31    6.31
  -5  -2   0   94.27    6.88
  -5  -2   1   65.22    5.89
  -5  -2   1   64.35    5.94
  -5  -2   2    1.85    1.11
  -5  -2   2    1.49    1.00
  -5  -2   3   16.75    2.89
  -5  -2   3   20.12    3.45
  -5  -2   3   19.10    3.35
  -5  -2   4   53.12    6.03
  -5  -2   4   49.88    5.08
  -5  -2   4   63.61    5.93
  -5  -2   5    2.68    1.08
  -5  -2   5    4.58    2.07
  -5  -2   6   85.58    7.05
  -5  -2   6   72.41    6.11
  -5  -2   7   36.00    4.25
  -5  -2   7   40.08    4.64
  -5  -2   8   13.24    2.47
  -5  -2   8   14.03    2.64
  -5  -2   9  262.82    9.48
  -5  -1 -13    2.07    0.92
  -5  -1 -13    2.65    1.18
  -5  -1 -12    2.93    1.25
  -5  -1 -12    2.71    1.36
  -5  -1 -11   -0.76    0.97
  -5  -1 -11    1.20    1.18
  -5  -1 -11    0.34    0.93
  -5  -1 -10  208.43    9.87
  -5  -1 -10  253.14   12.15
  -5  -1  -9   19.13    3.43
  -5  -1  -9   18.31    3.36
  -5  -1  -8  108.23    8.02
  -5  -1  -8  105.50    7.79
  -5  -1  -8  104.70    7.67
  -5  -1  -7    4.04    1.62
  -5  -1  -7    3.02    1.80
  -5  -1  -6   95.34    7.06
  -5  -1  -6   93.54    7.01
  -5  -1  -5    6.42    1.94
  -5  -1  -5    8.34    2.15
  -5  -1  -5    6.58    1.90
  -5  -1  -4    2.07    1.35
  -5  -1  -4    2.28    1.28
  -5  -1  -4    2.18    1.23
  -5  -1  -3    1.20    1.14
  -5  -1  -3    1.38    1.06
  -5  -1  -2  107.73    7.12
  -5  -1  -2  113.51    7.43
  -5  -1  -1   80.63    6.17
  -5  -1  -1   76.93    6.10
  -5  -1   0    8.84    2.22
  -5  -1   0    7.27    2.00
  -5  -1   1    3.71    1.53
  -5  -1   1    2.47    1.38
  -5  -1   2   27.60    3.58
  -5  -1   2   30.79    4.15
  -5  -1   2   27.20    4.03
  -5  -1   3  333.95   12.73
  -5  -1   3  348.15   13.82
  -5  -1   3  341.66   14.05
  -5  -1   4    2.30    1.37
  -5  -1   4    1.32    1.61
  -5  -1   4    2.25    1.14
  -5  -1   5    1.05    1.39
  -5  -1   5    1.73    1.41
  -5  -1   6   60.80    5.79
  -5  -1   6   57.25    5.85
  -5  -1   7  143.39    8.39
  -5  -1   7  131.41    8.25
  -5  -1   8   28.98    3.59
  -5  -1   8   33.04    3.73
  -5  -1   9  110.86    6.20
  -5   0 -13  189.56    8.70
  -5   0 -13  162.23    7.38
  -5   0 -12   75.01    5.51
  -5   0 -12   80.83    6.28
  -5   0 -11    5.57    1.58
  -5   0 -11    6.72    2.02
  -5   0 -10   23.89    3.70
  -5   0 -10   23.19    3.29
  -5   0  -9  270.03   12.38
  -5   0  -9  271.19   12.32
  -5   0  -9  296.90   13.48
  -5   0  -8   19.46    3.49
  -5   0  -8   15.12    3.02
  -5   0  -7  669.29   19.85
  -5   0  -7  696.86   20.09
  -5   0  -6   16.84    3.12
  -5   0  -6   15.27    3.04
  -5   0  -5  295.86   12.52
  -5   0  -5  306.29   13.02
  -5   0  -5  276.77   11.80
  -5   0  -4   43.20    4.54
  -5   0  -4   49.96    4.97
  -5   0  -4   54.86    5.49
  -5   0  -3  345.88   13.54
  -5   0  -3  366.70   13.18
  -5   0  -2  150.86    8.34
  -5   0  -2  144.20    8.35
  -5   0  -2  145.13    9.01
  -5   0  -1  145.81    8.45
  -5   0  -1  146.93    8.49
  -5   0  -1  153.33    8.90
  -5   0   0   50.28    5.15
  -5   0   0   50.12    5.16
  -5   0   0   58.41    5.46
  -5   0   1  105.49    7.46
  -5   0   1  105.51    7.62
  -5   0   2   15.90    3.07
  -5   0   2   13.96    2.84
  -5   0   2   14.65    2.69
  -5   0   3  258.90   11.73
  -5   0   3  235.17   11.87
  -5   0   3  252.48   11.16
  -5   0   4   27.82    3.89
  -5   0   4   24.57    4.38
  -5   0   5    2.28    1.26
  -5   0   5    0.40    1.35
  -5   0   6   37.93    4.42
  -5   0   6   42.00    4.97
  -5   0   7    0.33    0.89
  -5   0   7    0.05    0.70
  -5   0   8  181.33    8.69
  -5   0   8  137.44    7.46
  -5   0   9    3.50    1.20
  -5   1 -13   19.07    2.47
  -5   1 -12    6.25    1.80
  -5   1 -12    3.42    1.22
  -5   1 -11   16.51    3.01
  -5   1 -11   15.37    2.63
  -5   1 -10    0.04    0.76
  -5   1 -10   -1.15    1.22
  -5   1 -10    0.70    0.82
  -5   1  -9  142.45    9.02
  -5   1  -9  124.98    8.38
  -5   1  -9  120.81    7.42
  -5   1  -8   15.29    2.99
  -5   1  -8   15.03    3.11
  -5   1  -7   79.90    6.50
  -5   1  -7   82.68    7.06
  -5   1  -6  217.86   10.43
  -5   1  -6  234.47   11.80
  -5   1  -5    2.90    1.77
  -5   1  -5    3.42    1.39
  -5   1  -4  306.36   11.77
  -5   1  -4  348.34   13.98
  -5   1  -3   15.14    2.70
  -5   1  -3   15.64    3.10
  -5   1  -2 1588.23   27.89
  -5   1  -2 1613.65   29.38
  -5   1  -1  350.11   13.28
  -5   1  -1  328.48   13.37
  -5   1   0   17.05    3.09
  -5   1   0   18.95    3.41
  -5   1   1    1.79    1.25
  -5   1   2    3.84    1.87
  -5   1   2    5.48    1.56
  -5   1   3   77.43    6.40
  -5   1   3   64.12    6.27
  -5   1   4   10.15    2.31
  -5   1   4   11.07    2.77
  -5   1   5  115.59    8.27
  -5   1   5  112.04    7.65
  -5   1   6    2.89    1.33
  -5   1   6    1.96    1.39
  -5   1   7  124.22    7.54
  -5   1   7  110.61    7.21
  -5   2 -12    2.88    0.95
  -5   2 -11   -0.15    0.65
  -5   2 -10    0.61    0.86
  -5   2 -10   -0.39    0.96
  -5   2 -10    0.76    0.73
  -5   2  -9    1.04    1.00
  -5   2  -9    0.79    1.05
  -5   2  -9    0.63    0.75
  -5   2  -8   -0.25    0.92
  -5   2  -8   -0.28    0.96
  -5   2  -7  256.20   11.80
  -5   2  -7  271.72   12.75
  -5   2  -6  213.89   10.58
  -5   2  -6  217.12   11.52
  -5   2  -5   -0.31    0.71
  -5   2  -5    0.17    1.25
  -5   2  -4  128.76    8.68
  -5   2  -4  128.07    7.92
  -5   2  -3  440.74   16.13
  -5   2  -3  419.33   14.45
  -5   2  -2  159.97    9.66
  -5   2  -2  167.32    9.31
  -5   2  -1  424.85   15.46
  -5   2  -1  439.95   15.39
  -5   2   0    3.50    1.28
  -5   2   0    4.49    1.99
  -5   2   1   13.91    2.94
  -5   2   2  171.55   10.02
  -5   2   3    5.62    2.42
  -5   2   4   13.38    3.23
  -5   2   5    1.51    1.25
  -5   2   6   23.34    3.45
  -5   2   7   56.21    4.70
  -5   3 -12   68.58    4.47
  -5   3 -11  107.38    6.16
  -5   3 -10   31.41    3.87
  -5   3 -10   25.17    3.14
  -5   3  -9   53.69    4.66
  -5   3  -9   67.26    6.06
  -5   3  -8    3.55    1.78
  -5   3  -7   81.50    7.01
  -5   3  -6   57.61    6.02
  -5   3  -5   15.61    3.92
  -5   3  -5   12.25    2.77
  -5   3  -4  251.22   12.40
  -5   3  -4  258.74   12.11
  -5   3  -3    7.76    2.25
  -5   3  -3    6.89    2.22
  -5   3  -2  691.88   20.37
  -5   3  -2  718.21   19.48
  -5   3  -1   13.55    2.97
  -5   3  -1   15.03    3.03
  -5   3   0    1.75    0.96
  -5   3   0    2.16    1.52
  -5   3   1   13.22    2.88
  -5   3   2  288.91   13.09
  -5   3   3    8.66    2.35
  -5   3   4  231.59   11.09
  -5   3   5   19.95    3.17
  -5   3   6   70.73    5.33
  -5   4 -11   96.96    4.78
  -5   4 -10   31.78    3.36
  -5   4 -10    4.25    1.47
  -5   4  -9   68.03    5.05
  -5   4  -9   42.68    4.63
  -5   4  -8  112.95    7.88
  -5   4  -7    2.31    1.33
  -5   4  -6    6.34    1.98
  -5   4  -5   17.47    3.51
  -5   4  -4  357.94   14.88
  -5   4  -4  550.30   22.94
  -5   4  -3   76.92    6.87
  -5   4  -3   92.88    8.20
  -5   4  -2    1.75    1.53
  -5   4  -2    0.42    1.01
  -5   4  -1    0.34    0.89
  -5   4  -1    0.71    0.87
  -5   4   0    4.46    1.67
  -5   4   0    6.36    2.04
  -5   4   0    5.22    1.68
  -5   4   1    6.43    2.13
  -5   4   2   15.19    2.97
  -5   4   3   29.10    3.86
  -5   4   4   65.71    5.52
  -5   4   5   95.28    6.28
  -5   5  -9    2.63    1.02
  -5   5  -8   19.15    3.04
  -5   5  -7    1.18    1.01
  -5   5  -6   67.05    6.10
  -5   5  -5   98.36    7.63
  -5   5  -4   24.25    3.96
  -5   5  -3   75.17    6.66
  -5   5  -3  156.34   14.59
  -5   5  -2   46.34    5.13
  -5   5  -2   65.51    7.85
  -5   5  -1   18.14    3.13
  -5   5  -1   24.01    4.62
  -5   5   0   34.97    4.87
  -5   5   0   25.98    3.53
  -5   5   1    5.00    1.74
  -5   5   1    8.51    2.27
  -5   5   2  230.77   11.30
  -5   5   2  189.35    9.49
  -5   5   3    1.50    0.96
  -5   5   3   -0.75    1.21
  -5   5   4  148.57    7.80
  -5   5   4  208.82   10.75
  -5   6  -8  366.58   11.25
  -5   6  -7   75.87    5.50
  -5   6  -6    3.16    1.14
  -5   6  -5   38.11    4.27
  -5   6  -4    0.44    0.78
  -5   6  -3   34.38    4.04
  -5   6  -2   -0.96    0.85
  -5   6  -1    1.91    0.93
  -5   6   0   99.38   10.16
  -5   6   0   43.84    4.05
  -5   6   1    2.30    2.22
  -5   6   1    1.11    0.73
  -5   6   2  281.18   15.95
  -5   6   2  184.30    8.02
  -5   7  -4   -0.06    0.55
  -4 -10  -4    1.31    0.75
  -4 -10  -3    0.93    0.74
  -4 -10  -2   14.95    2.56
  -4 -10  -1   22.30    3.10
  -4 -10  -1   18.05    2.70
  -4 -10   0    0.96    0.71
  -4 -10   0    0.48    0.53
  -4 -10   1   -1.71    0.97
  -4 -10   1   -0.77    0.96
  -4 -10   2   27.51    3.10
  -4 -10   2   33.47    3.45
  -4 -10   3   28.75    3.07
  -4  -9  -8  120.93    6.76
  -4  -9  -7   23.65    3.27
  -4  -9  -6   21.21    3.21
  -4  -9  -5   34.62    4.15
  -4  -9  -5   48.25    4.50
  -4  -9  -4   10.91    2.53
  -4  -9  -4   14.85    2.72
  -4  -9  -3  296.34   12.60
  -4  -9  -3  244.25   10.88
  -4  -9  -2   91.52    6.70
  -4  -9  -2  100.47    7.41
  -4  -9  -1   14.01    2.76
  -4  -9  -1   16.96    3.19
  -4  -9   0    1.24    1.21
  -4  -9   0   -0.13    0.91
  -4  -9   1   19.22    3.25
  -4  -9   1   26.19    3.78
  -4  -9   2    4.51    1.58
  -4  -9   2    3.99    1.62
  -4  -9   2   -0.28    0.79
  -4  -9   3    8.86    2.06
  -4  -9   3    7.50    1.76
  -4  -9   4   26.10    3.31
  -4  -9   4   16.87    2.42
  -4  -9   5    5.64    1.45
  -4  -9   5   -1.44    1.03
  -4  -8 -10    1.35    0.77
  -4  -8  -9   69.39    5.54
  -4  -8  -8    8.97    2.05
  -4  -8  -8    9.91    2.33
  -4  -8  -7   93.36    7.27
  -4  -8  -6    7.31    2.14
  -4  -8  -5   30.95    4.04
  -4  -8  -5   32.40    4.50
  -4  -8  -4   32.92    4.27
  -4  -8  -4   30.07    4.27
  -4  -8  -3  492.68   16.76
  -4  -8  -3  525.53   16.58
  -4  -8  -3  529.22   17.74
  -4  -8  -2   12.93    3.30
  -4  -8  -2   14.94    3.09
  -4  -8  -1   82.08    7.13
  -4  -8  -1   73.67    6.63
  -4  -8   0  190.31   10.67
  -4  -8   0  172.44   10.18
  -4  -8   1  521.24   17.74
  -4  -8   1  514.61   17.55
  -4  -8   2   15.54    3.32
  -4  -8   2   18.20    3.38
  -4  -8   3    1.07    1.41
  -4  -8   3   -0.43    1.19
  -4  -8   3    0.07    1.13
  -4  -8   4   26.34    3.51
  -4  -8   4   28.19    3.91
  -4  -8   5    5.59    1.63
  -4  -8   5   -0.33    0.82
  -4  -8   6   11.75    2.09
  -4  -8   6   -0.43    0.98
  -4  -8   7    1.51    1.01
  -4  -7 -11   16.42    2.55
  -4  -7 -10    3.88    1.53
  -4  -7  -9  101.72    7.09
  -4  -7  -9  116.23    7.83
  -4  -7  -8    5.74    1.99
  -4  -7  -7    5.82    2.03
  -4  -7  -6   69.34    6.68
  -4  -7  -5    0.69    1.32
  -4  -7  -5    1.09    1.18
  -4  -7  -4  181.45   10.44
  -4  -7  -4  171.74    9.91
  -4  -7  -3    0.40    0.88
  -4  -7  -3    1.27    1.60
  -4  -7  -3    3.46    1.75
  -4  -7  -2   66.61    6.35
  -4  -7  -2   61.68    6.13
  -4  -7  -1   11.06    4.49
  -4  -7  -1   11.50    2.84
  -4  -7  -1   11.81    2.71
  -4  -7   0  108.22    8.14
  -4  -7   0  108.90    8.02
  -4  -7   1    2.38    1.57
  -4  -7   1    2.97    1.79
  -4  -7   2    8.01    2.63
  -4  -7   2    8.21    2.29
  -4  -7   3   57.80    5.70
  -4  -7   3   62.60    6.19
  -4  -7   4   48.73    4.99
  -4  -7   4   52.59    5.54
  -4  -7   5  108.64    7.46
  -4  -7   5    8.37    3.24
  -4  -7   6   33.34    3.88
  -4  -7   6    0.75    1.18
  -4  -7   7    1.29    1.08
  -4  -7   8    3.59    1.20
  -4  -7   8   -0.40    0.59
  -4  -6 -12   13.74    2.32
  -4  -6 -11   13.19    2.63
  -4  -6 -10   60.15    5.71
  -4  -6 -10   50.69    5.06
  -4  -6  -9   38.78    4.81
  -4  -6  -9   35.42    4.50
  -4  -6  -8   17.01    3.33
  -4  -6  -7    8.87    2.51
  -4  -6  -6   -0.28    1.36
  -4  -6  -5  405.19   15.41
  -4  -6  -5  365.10   13.85
  -4  -6  -4    1.38    1.14
  -4  -6  -4    2.66    1.48
  -4  -6  -4    1.64    1.04
  -4  -6  -3  676.12   19.17
  -4  -6  -3  639.10   18.66
  -4  -6  -2   34.03    6.92
  -4  -6  -2   36.26    4.70
  -4  -6  -2   31.78    4.02
  -4  -6  -2   39.27    4.66
  -4  -6  -1  225.12   10.96
  -4  -6  -1  186.31   10.24
  -4  -6  -1  181.10   16.23
  -4  -6   0  115.46    8.04
  -4  -6   0   99.11   12.31
  -4  -6   0  126.79    8.28
  -4  -6   1  683.95   19.56
  -4  -6   1  641.97   32.48
  -4  -6   1  711.42   19.85
  -4  -6   2    4.00    2.01
  -4  -6   2    3.63    2.56
  -4  -6   2    5.14    2.02
  -4  -6   3   15.50    3.06
  -4  -6   3   15.71    3.04
  -4  -6   4    9.71    3.48
  -4  -6   4   16.33    3.01
  -4  -6   5  146.66    8.83
  -4  -6   5   95.29    7.94
  -4  -6   6  238.47   10.67
  -4  -6   6  117.70    8.53
  -4  -6   7    2.18    1.84
  -4  -6   8   -0.23    0.67
  -4  -6   8    0.14    0.67
  -4  -6   9   30.53    3.26
  -4  -6   9   -1.56    0.82
  -4  -5 -13  220.62    8.43
  -4  -5 -12  199.06    9.42
  -4  -5 -11    3.23    1.60
  -4  -5 -11    2.90    1.29
  -4  -5 -10  218.69   11.13
  -4  -5 -10  229.73   11.48
  -4  -5  -9   52.10    5.59
  -4  -5  -9   54.43    5.68
  -4  -5  -8   12.08    2.93
  -4  -5  -7   22.07    3.86
  -4  -5  -6  118.49    8.29
  -4  -5  -5   55.17    5.56
  -4  -5  -5   55.36    5.08
  -4  -5  -4   16.68    2.75
  -4  -5  -4   16.70    2.93
  -4  -5  -4   17.27    3.00
  -4  -5  -3  156.73    8.65
  -4  -5  -3  155.69    8.63
  -4  -5  -3  143.20    8.14
  -4  -5  -2   23.27    5.10
  -4  -5  -2   22.96    3.29
  -4  -5  -2   23.73    3.42
  -4  -5  -2   18.30    2.96
  -4  -5  -1  103.49    6.99
  -4  -5  -1  103.60   10.95
  -4  -5  -1   89.71    6.68
  -4  -5   0  445.86   24.20
  -4  -5   0  495.90   15.33
  -4  -5   0  452.46   14.74
  -4  -5   1   60.19    5.53
  -4  -5   1   59.94    9.21
  -4  -5   1   69.76    5.87
  -4  -5   2  607.96   17.64
  -4  -5   2  621.57   17.51
  -4  -5   3   17.96    3.22
  -4  -5   3   15.97    2.97
  -4  -5   3   15.18    3.95
  -4  -5   4  276.04   12.22
  -4  -5   4  253.83   11.30
  -4  -5   4  283.33   13.77
  -4  -5   5  791.10   22.87
  -4  -5   5  676.67   18.68
  -4  -5   6  225.74   12.29
  -4  -5   6  219.13   10.28
  -4  -5   7    8.81    2.82
  -4  -5   8    1.14    1.22
  -4  -5   8    0.67    1.00
  -4  -5   9    1.58    1.05
  -4  -5   9    0.17    0.92
  -4  -5  10   12.49    1.98
  -4  -4 -13   67.84    4.96
  -4  -4 -13   81.68    5.52
  -4  -4 -12  159.01    8.75
  -4  -4 -12  137.76    7.83
  -4  -4 -11   14.18    2.84
  -4  -4 -11   15.71    3.03
  -4  -4 -10  369.42   14.64
  -4  -4 -10  369.75   14.59
  -4  -4  -9    4.01    1.85
  -4  -4  -9    5.24    2.30
  -4  -4  -8  213.05   10.89
  -4  -4  -8  221.48   11.38
  -4  -4  -7   24.59    3.70
  -4  -4  -6   14.42    2.84
  -4  -4  -5    5.81    1.68
  -4  -4  -5    9.86    2.37
  -4  -4  -4   83.47    5.75
  -4  -4  -4   97.21    6.57
  -4  -4  -4   95.75    6.73
  -4  -4  -3   45.76    4.33
  -4  -4  -3   38.19    4.23
  -4  -4  -3   50.51    4.65
  -4  -4  -2  302.62   11.09
  -4  -4  -2  313.61   11.45
  -4  -4  -1   71.58    5.47
  -4  -4  -1   73.62    5.53
  -4  -4  -1   73.19    8.64
  -4  -4   0   43.16    4.26
  -4  -4   0   38.30    4.64
  -4  -4   0   42.96    4.33
  -4  -4   1  616.36   16.26
  -4  -4   1  586.93   15.94
  -4  -4   1  641.48   18.78
  -4  -4   2    0.63    0.78
  -4  -4   2    2.75    1.62
  -4  -4   2    1.48    1.15
  -4  -4   3  240.49   10.67
  -4  -4   3  249.17   10.66
  -4  -4   4   43.46    5.38
  -4  -4   4   39.60    4.45
  -4  -4   4   40.98    4.44
  -4  -4   5  800.78   19.99
  -4  -4   5  947.17   24.77
  -4  -4   6  198.57   11.52
  -4  -4   7  110.41    7.81
  -4  -4   7  107.57    8.39
  -4  -4   8   30.54    4.15
  -4  -4   8   37.00    4.39
  -4  -4   9    2.46    1.27
  -4  -4   9    6.13    1.78
  -4  -4  10   22.02    2.67
  -4  -4  10   27.04    3.11
  -4  -3 -14   29.83    3.14
  -4  -3 -13  177.46    8.41
  -4  -3 -13  208.75    9.20
  -4  -3 -12  352.63   12.94
  -4  -3 -12  352.43   12.84
  -4  -3 -12  353.59   13.24
  -4  -3 -11  226.63   11.22
  -4  -3 -10    3.65    1.79
  -4  -3 -10    2.68    1.38
  -4  -3  -9    0.05    1.07
  -4  -3  -9    0.81    0.99
  -4  -3  -8   37.05    4.55
  -4  -3  -8   36.76    4.45
  -4  -3  -7  291.52   11.87
  -4  -3  -7  300.27   12.05
  -4  -3  -6  153.89    8.51
  -4  -3  -5   34.44    3.91
  -4  -3  -5   26.28    3.18
  -4  -3  -4   25.52    3.32
  -4  -3  -4   21.58    2.90
  -4  -3  -3    0.47    0.82
  -4  -3  -3    1.26    0.96
  -4  -3  -2   13.10    2.24
  -4  -3  -2   12.81    2.13
  -4  -3  -1  225.24    9.10
  -4  -3  -1  224.06    9.15
  -4  -3   0  253.80    9.98
  -4  -3   0  238.96    9.51
  -4  -3   0  246.78   10.70
  -4  -3   1  219.03    9.45
  -4  -3   1  193.76    8.77
  -4  -3   2  275.24   10.68
  -4  -3   2  267.20   10.62
  -4  -3   3   85.53    6.19
  -4  -3   3   98.24    7.23
  -4  -3   3   81.95    5.99
  -4  -3   4  517.42   15.33
  -4  -3   4  501.69   15.17
  -4  -3   5  136.36    9.15
  -4  -3   6   88.99    7.53
  -4  -3   6   66.81    6.09
  -4  -3   7   12.05    2.70
  -4  -3   7   12.05    2.89
  -4  -3   8  283.48   12.48
  -4  -3   8  271.36   11.81
  -4  -3   9    0.28    0.92
  -4  -3   9   -0.06    0.71
  -4  -3  10   47.54    4.08
  -4  -3  10   61.63    4.86
  -4  -2 -14    3.51    1.19
  -4  -2 -13  226.55    9.79
  -4  -2 -13  243.88   10.18
  -4  -2 -12  456.73   15.13
  -4  -2 -12  448.76   15.10
  -4  -2 -12  471.91   14.92
  -4  -2 -11    1.33    1.40
  -4  -2 -11   -1.33    1.11
  -4  -2 -10  265.32   12.52
  -4  -2 -10  266.01   12.34
  -4  -2 -10  239.52   11.01
  -4  -2  -9    2.64    1.64
  -4  -2  -9    2.42    1.16
  -4  -2  -8  591.92   17.67
  -4  -2  -8  583.82   17.38
  -4  -2  -7   11.14    2.36
  -4  -2  -7   16.53    2.82
  -4  -2  -6  113.33    7.08
  -4  -2  -6  116.63    7.22
  -4  -2  -5  117.59    6.78
  -4  -2  -5  124.43    6.89
  -4  -2  -4  253.30    9.94
  -4  -2  -4  246.07    9.67
  -4  -2  -4  234.00    9.53
  -4  -2  -3  883.96   18.75
  -4  -2  -3  852.68   17.85
  -4  -2  -2   57.89    4.55
  -4  -2  -1   28.20    3.21
  -4  -2   0   73.49    5.31
  -4  -2   0   83.14    5.93
  -4  -2   1  160.23    8.04
  -4  -2   1  190.04    9.21
  -4  -2   2    7.13    2.03
  -4  -2   2    5.28    1.60
  -4  -2   2    6.00    1.74
  -4  -2   3  274.17   10.68
  -4  -2   3  281.64   11.81
  -4  -2   4  189.69    9.35
  -4  -2   4  179.44    9.34
  -4  -2   4  197.30   10.24
  -4  -2   5    1.59    1.19
  -4  -2   5    2.14    1.26
  -4  -2   6   18.96    3.66
  -4  -2   6   15.89    3.11
  -4  -2   7  101.01    7.88
  -4  -2   7   96.63    7.21
  -4  -2   8   11.59    2.69
  -4  -2   8    8.99    2.25
  -4  -2   9   83.39    6.27
  -4  -2   9   89.32    6.22
  -4  -2  10   -0.11    0.79
  -4  -2  10    2.17    0.92
  -4  -2  11   25.54    2.79
  -4  -1 -14  113.65    6.36
  -4  -1 -13   11.77    2.35
  -4  -1 -13    7.81    1.95
  -4  -1 -12   48.18    5.03
  -4  -1 -12   46.17    4.93
  -4  -1 -12   47.78    4.76
  -4  -1 -11  315.20   12.47
  -4  -1 -11  306.28   12.90
  -4  -1 -11  314.29   13.08
  -4  -1 -10    8.30    2.23
  -4  -1 -10    6.64    1.85
  -4  -1  -9  388.76   14.58
  -4  -1  -9  357.99   13.00
  -4  -1  -9  389.70   14.45
  -4  -1  -8   80.23    6.44
  -4  -1  -8   90.69    6.79
  -4  -1  -8   89.40    6.72
  -4  -1  -8   84.10    6.00
  -4  -1  -7  162.17    8.02
  -4  -1  -7  191.11    9.45
  -4  -1  -7  189.80    9.30
  -4  -1  -6    5.50    1.85
  -4  -1  -6    5.77    1.81
  -4  -1  -5    0.49    0.80
  -4  -1  -5    0.58    0.73
  -4  -1  -5   -0.22    0.66
  -4  -1  -4  232.93    9.53
  -4  -1  -4  250.56    9.76
  -4  -1  -4  248.74    9.85
  -4  -1  -3 1888.88   26.70
  -4  -1  -2 1689.24   25.25
  -4  -1  -1 1797.05   25.58
  -4  -1   0   73.75    5.35
  -4  -1   0   76.32    5.43
  -4  -1   1    6.75    1.72
  -4  -1   1    6.48    1.69
  -4  -1   2   43.94    4.53
  -4  -1   2   45.82    4.46
  -4  -1   2   38.15    3.71
  -4  -1   3  272.89   11.03
  -4  -1   3  285.41   11.42
  -4  -1   3  245.79   10.01
  -4  -1   4    0.23    0.94
  -4  -1   4   -1.96    1.46
  -4  -1   4   -1.93    1.07
  -4  -1   5   16.84    2.95
  -4  -1   5   16.25    3.10
  -4  -1   6   62.21    6.07
  -4  -1   6   58.51    5.57
  -4  -1   7   20.69    3.17
  -4  -1   7   23.67    3.83
  -4  -1   7   20.99    3.57
  -4  -1   8  315.46   12.73
  -4  -1   8  279.62   11.47
  -4  -1   8  286.22   12.41
  -4  -1   9   18.16    2.86
  -4  -1   9   21.06    3.29
  -4  -1  10   51.85    4.59
  -4  -1  10   47.56    4.14
  -4  -1  11    1.22    0.81
  -4   0 -14    1.66    0.89
  -4   0 -13    5.22    1.63
  -4   0 -13    5.63    1.69
  -4   0 -12  395.50   14.40
  -4   0 -12  405.91   13.88
  -4   0 -11   65.31    5.98
  -4   0 -11   60.69    5.51
  -4   0 -11   60.92    5.87
  -4   0 -10   27.90    4.05
  -4   0 -10   24.54    3.87
  -4   0 -10   25.91    3.62
  -4   0  -9  455.23   15.85
  -4   0  -9  432.82   14.26
  -4   0  -8   10.64    2.40
  -4   0  -8    8.43    2.14
  -4   0  -8    8.25    2.00
  -4   0  -7    8.43    2.06
  -4   0  -7    8.59    2.29
  -4   0  -7    6.44    1.72
  -4   0  -7    9.09    2.11
  -4   0  -6  425.04   14.23
  -4   0  -6  420.01   13.75
  -4   0  -6  401.62   13.30
  -4   0  -5   15.55    2.61
  -4   0  -5   15.74    2.61
  -4   0  -4  561.27   14.77
  -4   0  -4  586.86   15.16
  -4   0  -3   18.45    2.70
  -4   0  -3   16.12    2.50
  -4   0  -2 1181.92   21.28
  -4   0  -1  222.96    9.29
  -4   0  -1  221.15    9.12
  -4   0   0    0.64    0.75
  -4   0   0    0.10    0.70
  -4   0   1  271.37   10.53
  -4   0   1  250.74   10.19
  -4   0   2    5.20    1.59
  -4   0   2    4.80    1.58
  -4   0   2    4.80    1.40
  -4   0   3  257.90   11.03
  -4   0   3  238.02   10.25
  -4   0   3  259.88   10.47
  -4   0   4   45.71    4.90
  -4   0   4   47.37    4.71
  -4   0   5   26.74    3.89
  -4   0   5   28.60    3.82
  -4   0   6  114.86    7.97
  -4   0   6  122.00    8.03
  -4   0   7   45.18    5.13
  -4   0   7   42.35    4.46
  -4   0   7   51.17    5.37
  -4   0   8  155.47    9.01
  -4   0   8  147.41    8.68
  -4   0   8  144.14    8.12
  -4   0   9  173.93    8.49
  -4   0   9  192.43    9.40
  -4   0  10   64.21    5.05
  -4   1 -14   56.58    4.30
  -4   1 -13   11.39    2.24
  -4   1 -12    3.63    1.56
  -4   1 -12    2.10    1.19
  -4   1 -11    2.93    1.57
  -4   1 -11    3.07    1.31
  -4   1 -10   13.11    2.85
  -4   1 -10   11.37    2.48
  -4   1  -9   26.10    3.78
  -4   1  -9   31.04    3.89
  -4   1  -9   29.97    4.03
  -4   1  -8   65.41    5.99
  -4   1  -8   55.61    5.27
  -4   1  -8   61.91    5.74
  -4   1  -8   59.30    5.20
  -4   1  -7   26.51    3.82
  -4   1  -7   23.19    3.10
  -4   1  -7   23.95    3.59
  -4   1  -6   12.50    2.68
  -4   1  -6    8.70    1.90
  -4   1  -6   11.30    2.39
  -4   1  -5  165.97    8.92
  -4   1  -5  173.53    8.92
  -4   1  -4  344.49   12.60
  -4   1  -3  153.48    8.42
  -4   1  -3  135.05    7.10
  -4   1  -2   12.00    2.35
  -4   1  -2   13.01    2.32
  -4   1  -2    9.65    2.05
  -4   1  -1  328.45   11.56
  -4   1  -1  330.03   11.47
  -4   1   0  225.08    9.67
  -4   1   0  202.25    9.29
  -4   1   1   20.08    2.73
  -4   1   1   23.02    3.16
  -4   1   1   20.46    3.02
  -4   1   2    1.80    1.01
  -4   1   2    4.33    1.60
  -4   1   2    3.03    1.27
  -4   1   3    8.99    2.12
  -4   1   3    7.54    2.00
  -4   1   4    1.35    1.19
  -4   1   4    2.05    1.29
  -4   1   5  402.17   14.12
  -4   1   5  365.77   14.24
  -4   1   6   25.54    3.90
  -4   1   6   28.02    3.90
  -4   1   7  193.57   10.34
  -4   1   7  170.59    8.93
  -4   1   7  208.24   10.46
  -4   1   8  147.35    8.44
  -4   1   8  132.71    7.72
  -4   1   9   51.08    4.80
  -4   1  10    4.82    1.47
  -4   2 -14   11.87    1.91
  -4   2 -13    0.65    0.73
  -4   2 -12    3.17    1.36
  -4   2 -11   87.18    6.87
  -4   2 -11   82.69    6.30
  -4   2 -10   81.09    6.26
  -4   2 -10   76.62    6.67
  -4   2  -9    1.87    1.68
  -4   2  -9    1.53    1.11
  -4   2  -9    2.13    1.41
  -4   2  -8    2.97    1.69
  -4   2  -8    4.35    1.68
  -4   2  -8    2.71    1.35
  -4   2  -7   55.02    4.90
  -4   2  -7   54.88    5.57
  -4   2  -7   53.02    5.20
  -4   2  -6   16.43    3.06
  -4   2  -6   15.23    2.68
  -4   2  -6   15.01    2.49
  -4   2  -5   12.94    2.46
  -4   2  -5   19.65    3.31
  -4   2  -4  155.36    7.92
  -4   2  -4  150.32    7.75
  -4   2  -4  174.25    9.14
  -4   2  -3  284.39   10.81
  -4   2  -3  279.12   11.45
  -4   2  -2   43.57    4.37
  -4   2  -2   41.73    4.53
  -4   2  -1   23.26    3.40
  -4   2  -1   25.04    3.35
  -4   2   0  423.58   13.63
  -4   2   0  370.10   13.10
  -4   2   1   43.52    4.47
  -4   2   1   47.76    4.50
  -4   2   2  200.44    9.47
  -4   2   2  210.18   10.05
  -4   2   3  120.68    7.93
  -4   2   3  120.12    7.57
  -4   2   4  227.52   11.19
  -4   2   4  211.14   10.40
  -4   2   5   22.96    3.66
  -4   2   5   22.70    3.67
  -4   2   6    0.29    0.83
  -4   2   6   -0.29    1.24
  -4   2   7   10.21    2.47
  -4   2   7    7.55    2.16
  -4   2   8   30.89    3.94
  -4   3 -13   17.53    2.43
  -4   3 -12   33.53    3.71
  -4   3 -11  237.43   10.32
  -4   3 -10   66.15    5.65
  -4   3  -9    3.87    1.84
  -4   3  -9    3.73    1.65
  -4   3  -9    3.21    1.37
  -4   3  -8  106.05    7.20
  -4   3  -8  105.85    7.71
  -4   3  -8  104.07    7.84
  -4   3  -7   68.74    5.74
  -4   3  -7   74.99    6.63
  -4   3  -7   76.11    6.43
  -4   3  -6   31.48    3.72
  -4   3  -6   29.84    3.91
  -4   3  -6   33.74    4.44
  -4   3  -5   50.62    4.50
  -4   3  -5   61.23    6.52
  -4   3  -5   61.90    5.84
  -4   3  -5   54.09    5.03
  -4   3  -4  324.48   13.02
  -4   3  -4  319.45   12.94
  -4   3  -3  127.39    8.17
  -4   3  -3  121.70    7.46
  -4   3  -2  124.95    7.55
  -4   3  -2  120.03    7.87
  -4   3  -1  106.30    7.04
  -4   3  -1  107.91    7.42
  -4   3   0  411.55   14.41
  -4   3   0  417.12   14.09
  -4   3   1  233.83   10.78
  -4   3   2    0.42    0.98
  -4   3   3   93.55    7.13
  -4   3   4  198.98   10.53
  -4   3   5   97.38    7.43
  -4   3   6   26.43    3.80
  -4   4 -12  104.98    5.99
  -4   4 -11   -0.76    1.51
  -4   4 -10   -2.00    1.79
  -4   4  -9   -1.59    1.84
  -4   4  -9   -0.59    1.18
  -4   4  -8   70.04    6.43
  -4   4  -8   59.78    5.25
  -4   4  -7   23.98    3.29
  -4   4  -7   26.74    4.17
  -4   4  -6  625.75   19.29
  -4   4  -6  570.76   16.22
  -4   4  -5   17.31    3.37
  -4   4  -5   28.73    6.26
  -4   4  -4   12.16    2.86
  -4   4  -4   14.12    3.42
  -4   4  -3  348.04   14.28
  -4   4  -3  397.73   15.83
  -4   4  -2  315.24   13.58
  -4   4  -2  305.55   12.37
  -4   4  -2  307.64   12.79
  -4   4  -1  310.40   13.32
  -4   4  -1  322.21   12.73
  -4   4   0  304.97   12.48
  -4   4   0  308.54   13.08
  -4   4   1   25.78    3.71
  -4   4   2  114.73    7.96
  -4   4   3   14.79    3.03
  -4   4   4   13.43    2.97
  -4   4   5  107.88    7.42
  -4   4   6   45.80    4.56
  -4   5 -11   54.28    4.20
  -4   5 -10   20.48    3.02
  -4   5  -9    1.25    0.77
  -4   5  -9   25.83    3.58
  -4   5  -8    2.61    1.34
  -4   5  -8   49.38    4.80
  -4   5  -7   77.57    6.13
  -4   5  -7    1.99    1.36
  -4   5  -6    7.47    2.36
  -4   5  -6  116.17    7.39
  -4   5  -5   83.31    7.15
  -4   5  -4   39.45    7.75
  -4   5  -4   23.33    3.96
  -4   5  -3  136.55   13.23
  -4   5  -3   69.62    6.76
  -4   5  -2  222.12   11.73
  -4   5  -2  227.57   11.03
  -4   5  -1   11.81    2.63
  -4   5  -1   11.75    2.68
  -4   5  -1   13.55    3.07
  -4   5   0  208.02   10.95
  -4   5   0  231.06   11.57
  -4   5   1  360.28   14.43
  -4   5   2   13.11    3.01
  -4   5   3  289.64   12.62
  -4   5   4  127.56    8.44
  -4   5   5   41.06    4.63
  -4   6  -9    7.03    1.76
  -4   6  -8   43.97    4.57
  -4   6  -7   84.91    6.65
  -4   6  -6  747.87   20.15
  -4   6  -5    2.27    1.70
  -4   6  -4    0.02    1.00
  -4   6  -3   66.12    5.75
  -4   6  -3   88.80    7.36
  -4   6  -2  435.58   15.03
  -4   6  -2  470.19   16.36
  -4   6  -1   42.13    4.94
  -4   6  -1   46.22    5.01
  -4   6   0   56.53    5.45
  -4   6   0   56.41    5.63
  -4   6   1    2.13    1.90
  -4   6   1    2.97    1.40
  -4   6   2   19.00    4.40
  -4   6   2   16.28    3.02
  -4   6   3   86.71    8.47
  -4   6   3   74.77    6.31
  -4   6   4   -1.21    0.84
  -4   6   4    1.36    1.30
  -4   6   5   15.61    2.70
  -4   6   6    1.40    0.91
  -4   7  -8    6.04    1.50
  -4   7  -7   87.01    6.02
  -4   7  -6   -0.16    0.77
  -4   7  -5   64.27    5.56
  -4   7  -4    4.39    1.61
  -4   7  -3  136.99    8.31
  -4   7  -2    1.31    0.97
  -4   7  -1   67.74    5.62
  -4   7  -1   64.09    5.57
  -4   7   0  194.91    9.43
  -4   7   1   20.91    3.09
  -4   7   2    1.54    0.90
  -4   7   3   21.93    2.95
  -4   8  -5    6.82    1.64
  -4   8  -4    1.94    1.05
  -4   8  -3   -0.24    0.67
  -4   8  -2   32.66    3.45
  -3 -10  -6   98.47    6.04
  -3 -10  -5    2.37    1.18
  -3 -10  -4  217.29    9.59
  -3 -10  -4  181.00    8.27
  -3 -10  -3   51.87    4.77
  -3 -10  -3   62.19    5.25
  -3 -10  -2    3.65    1.45
  -3 -10  -2    3.08    1.38
  -3 -10  -1    1.46    1.21
  -3 -10  -1    0.75    0.89
  -3 -10  -1    2.81    1.40
  -3 -10   0    3.00    1.26
  -3 -10   0    1.16    1.12
  -3 -10   0    2.03    1.34
  -3 -10   1   54.31    5.11
  -3 -10   1   46.40    4.73
  -3 -10   2   -0.23    0.76
  -3 -10   2   -0.30    0.70
  -3 -10   3   14.87    2.51
  -3 -10   3   14.79    2.46
  -3 -10   4    7.36    1.67
  -3  -9  -8   45.19    4.31
  -3  -9  -7   63.76    5.50
  -3  -9  -6  240.79   11.08
  -3  -9  -5  269.36   12.16
  -3  -9  -4   59.96    5.85
  -3  -9  -4   65.33    5.90
  -3  -9  -4   69.17    6.01
  -3  -9  -3  125.32    8.34
  -3  -9  -3  124.60    8.38
  -3  -9  -2    6.18    2.09
  -3  -9  -2    3.33    1.58
  -3  -9  -2    6.12    1.93
  -3  -9  -1   10.69    2.64
  -3  -9  -1   11.13    2.48
  -3  -9  -1    9.59    2.50
  -3  -9   0  220.91   11.23
  -3  -9   0  194.00   10.54
  -3  -9   0  192.45   10.62
  -3  -9   1    0.83    1.14
  -3  -9   1    2.79    1.51
  -3  -9   1    0.11    0.97
  -3  -9   2   31.90    4.08
  -3  -9   2   32.76    4.35
  -3  -9   2   32.14    4.45
  -3  -9   3    5.77    1.73
  -3  -9   3    7.64    2.37
  -3  -9   4    0.44    0.67
  -3  -9   4    0.51    0.95
  -3  -9   5    0.31    0.70
  -3  -9   6    0.91    0.96
  -3  -9   6   28.39    3.22
  -3  -8 -10   22.18    2.93
  -3  -8  -9   77.22    6.03
  -3  -8  -8  358.59   13.88
  -3  -8  -7  363.27   14.46
  -3  -8  -6  105.13    8.11
  -3  -8  -5    0.25    0.77
  -3  -8  -5    0.86    0.92
  -3  -8  -5   -0.16    1.15
  -3  -8  -4  420.37   15.41
  -3  -8  -4  466.07   16.47
  -3  -8  -3  162.58    9.83
  -3  -8  -3  134.43    8.68
  -3  -8  -3  149.82    9.38
  -3  -8  -2  157.78    9.71
  -3  -8  -2  141.65    9.17
  -3  -8  -2  153.05    9.45
  -3  -8  -1    3.06    1.81
  -3  -8  -1    1.87    1.48
  -3  -8  -1    0.55    1.04
  -3  -8   0  377.36   15.24
  -3  -8   0  355.28   14.54
  -3  -8   0  343.84   14.21
  -3  -8   1   10.15    2.64
  -3  -8   1   10.33    2.75
  -3  -8   1   10.54    2.80
  -3  -8   2  172.93   10.40
  -3  -8   2  191.73   10.51
  -3  -8   2  209.20   10.77
  -3  -8   3  339.95   13.93
  -3  -8   3  390.56   15.42
  -3  -8   3  380.33   13.95
  -3  -8   4    9.37    2.31
  -3  -8   4    9.12    2.62
  -3  -8   5   38.07    4.61
  -3  -8   5   29.31    3.72
  -3  -8   6   70.04    5.76
  -3  -8   7   53.30    4.43
  -3  -8   7   -0.37    0.73
  -3  -8   8    0.73    0.75
  -3  -7 -11   21.86    2.91
  -3  -7 -10  316.90   12.40
  -3  -7  -9   30.47    4.22
  -3  -7  -8   22.57    3.80
  -3  -7  -7    4.84    1.91
  -3  -7  -6  116.39    7.90
  -3  -7  -6  115.90    8.60
  -3  -7  -5  659.58   18.71
  -3  -7  -5  683.75   19.32
  -3  -7  -4  139.64    8.77
  -3  -7  -4  181.50   10.04
  -3  -7  -3  451.30   15.84
  -3  -7  -3  435.46   15.54
  -3  -7  -3  417.26   14.86
  -3  -7  -2  126.61    8.29
  -3  -7  -2  142.42    8.99
  -3  -7  -2  133.21    8.67
  -3  -7  -1   66.93    6.00
  -3  -7  -1   50.11    9.12
  -3  -7  -1   68.88    6.31
  -3  -7  -1   65.56    6.12
  -3  -7   0    1.95    1.56
  -3  -7   0    5.36    3.29
  -3  -7   0    1.80    1.18
  -3  -7   1  109.79    7.75
  -3  -7   1   87.24   11.59
  -3  -7   1  110.28    8.02
  -3  -7   1   80.47   11.52
  -3  -7   2    3.23    2.70
  -3  -7   2    2.90    2.61
  -3  -7   2    6.01    2.14
  -3  -7   2    3.59    1.61
  -3  -7   3    0.53    0.89
  -3  -7   3   -0.04    1.24
  -3  -7   3   -0.32    0.99
  -3  -7   4    1.72    1.23
  -3  -7   4    3.06    1.49
  -3  -7   5   93.22    7.51
  -3  -7   5   90.24    6.67
  -3  -7   6   31.30    4.16
  -3  -7   7    1.52    1.36
  -3  -7   7   86.34    6.20
  -3  -7   8   -0.89    0.96
  -3  -7   9   -0.27    0.70
  -3  -6 -12    0.06    0.57
  -3  -6 -11   42.63    4.51
  -3  -6 -10    0.28    0.82
  -3  -6  -9   86.29    7.20
  -3  -6  -8  247.70   12.27
  -3  -6  -7  227.82   11.69
  -3  -6  -6   50.33    5.07
  -3  -6  -6   59.09    5.94
  -3  -6  -5   74.30    6.10
  -3  -6  -5   60.33    5.40
  -3  -6  -4  273.73   11.55
  -3  -6  -4  219.09   10.31
  -3  -6  -3   89.38    6.65
  -3  -6  -3   69.40    5.82
  -3  -6  -3   79.91    6.24
  -3  -6  -2  323.67   12.18
  -3  -6  -2  320.97   12.47
  -3  -6  -2  321.71   20.18
  -3  -6  -1  184.91    9.52
  -3  -6  -1  190.99    9.33
  -3  -6  -1  192.84   15.68
  -3  -6  -1  169.80   13.61
  -3  -6   0  116.59    7.51
  -3  -6   0  112.54   11.51
  -3  -6   0  108.64    7.16
  -3  -6   0   99.75   11.43
  -3  -6   1   98.54    7.02
  -3  -6   1   95.70    6.86
  -3  -6   1   96.28   11.36
  -3  -6   2  407.00   14.06
  -3  -6   2  371.76   23.54
  -3  -6   2  403.14   13.81
  -3  -6   3   -0.39    1.05
  -3  -6   3   -0.74    1.85
  -3  -6   3   -0.10    1.19
  -3  -6   3    0.14    1.29
  -3  -6   4   99.95    7.53
  -3  -6   4   90.83    6.91
  -3  -6   4   92.09   12.51
  -3  -6   5    2.13    1.39
  -3  -6   6  298.96   12.69
  -3  -6   7   59.43    7.30
  -3  -6   8    0.28    1.00
  -3  -6   9   -0.73    0.92
  -3  -6  10    9.76    1.89
  -3  -5 -12   58.87    5.06
  -3  -5 -11   59.82    5.60
  -3  -5 -10  191.31   10.38
  -3  -5  -9   11.34    2.76
  -3  -5  -9    9.37    2.42
  -3  -5  -8    4.48    1.89
  -3  -5  -7    8.50    2.38
  -3  -5  -6    0.32    0.97
  -3  -5  -5   40.48    4.25
  -3  -5  -5   31.49    3.79
  -3  -5  -5   41.84    4.49
  -3  -5  -4   45.29    4.52
  -3  -5  -4   45.13    4.46
  -3  -5  -3  178.75    8.67
  -3  -5  -3  207.46    9.36
  -3  -5  -2   63.78    5.21
  -3  -5  -2   55.94    7.39
  -3  -5  -2   65.71    5.26
  -3  -5  -2   54.83    4.77
  -3  -5  -1    8.19    2.95
  -3  -5  -1    9.00    1.92
  -3  -5  -1    6.92    1.83
  -3  -5  -1    8.91    2.20
  -3  -5  -1    9.97    3.10
  -3  -5   0   14.40    2.64
  -3  -5   0   16.67    2.66
  -3  -5   0   15.53    4.21
  -3  -5   0   18.50    2.89
  -3  -5   1  637.06   16.19
  -3  -5   1  666.91   16.93
  -3  -5   1  725.44   17.49
  -3  -5   1  760.46   29.50
  -3  -5   2  125.18    7.60
  -3  -5   2  116.35    7.20
  -3  -5   3  515.89   15.77
  -3  -5   3  591.11   16.18
  -3  -5   4   78.65    6.36
  -3  -5   4   69.24    5.69
  -3  -5   5  193.40   10.03
  -3  -5   6  101.07    7.14
  -3  -5   7   14.31    3.45
  -3  -5   8   54.84    5.81
  -3  -5   9   23.23    3.86
  -3  -5  10    0.68    0.45
  -3  -5  10   42.12    4.27
  -3  -5  11  103.12    5.68
  -3  -4 -14   70.99    4.74
  -3  -4 -13    0.18    0.64
  -3  -4 -12   62.83    5.44
  -3  -4 -11    1.13    1.08
  -3  -4 -10   10.66    2.55
  -3  -4 -10    9.11    2.40
  -3  -4  -9    5.31    1.90
  -3  -4  -9    4.22    1.84
  -3  -4  -8   16.46    3.07
  -3  -4  -8   13.53    2.73
  -3  -4  -7    7.66    2.14
  -3  -4  -6    3.49    1.37
  -3  -4  -5  259.11   10.46
  -3  -4  -4  212.51    8.98
  -3  -4  -4  205.13    9.25
  -3  -4  -3   62.56    4.72
  -3  -4  -3   73.94    7.29
  -3  -4  -2   72.83    5.02
  -3  -4  -2   80.27    6.45
  -3  -4  -1  149.10   11.06
  -3  -4   0   17.06    2.52
  -3  -4   0   22.34    2.94
  -3  -4   0   21.27    2.79
  -3  -4   0   22.11    4.44
  -3  -4   1  331.91   11.17
  -3  -4   1  317.27   10.79
  -3  -4   1  296.88   10.34
  -3  -4   2   79.00    5.50
  -3  -4   2   78.77    5.65
  -3  -4   3    2.44    1.22
  -3  -4   3    0.76    0.74
  -3  -4   4  328.66   12.20
  -3  -4   4  358.86   21.11
  -3  -4   5   41.16    4.44
  -3  -4   5   42.56    7.91
  -3  -4   6  216.19   11.92
  -3  -4   6  196.49   17.74
  -3  -4   7   59.01    6.35
  -3  -4   8  283.70   13.33
  -3  -4   9   11.78    2.57
  -3  -4   9    4.99    1.94
  -3  -4  10   39.19    4.25
  -3  -4  11   17.53    2.55
  -3  -3 -14   49.34    4.15
  -3  -3 -13  189.04    9.11
  -3  -3 -12   10.77    2.28
  -3  -3 -11   25.14    3.79
  -3  -3 -10  136.11    8.68
  -3  -3 -10  144.45    8.91
  -3  -3  -9  183.74    9.80
  -3  -3  -9  185.86    9.93
  -3  -3  -8   15.44    2.89
  -3  -3  -8   18.34    3.09
  -3  -3  -7    7.73    1.96
  -3  -3  -6   52.19    4.70
  -3  -3  -5  735.99   16.71
  -3  -3  -3  233.53   10.72
  -3  -3  -2   22.53    3.64
  -3  -3  -2   18.82    2.51
  -3  -3   3  647.04   15.32
  -3  -3   3  634.21   14.70
  -3  -3   4  288.68   12.14
  -3  -3   4  270.04   17.57
  -3  -3   5   12.90    2.91
  -3  -3   5   10.63    2.06
  -3  -3   5   10.34    3.84
  -3  -3   6  366.97   14.52
  -3  -3   6  337.52   22.74
  -3  -3   7  419.74   27.27
  -3  -3   7  585.66   18.95
  -3  -3   8    3.41    1.57
  -3  -3   9  111.05    7.80
  -3  -3   9  141.43    8.60
  -3  -3  10   72.28    5.83
  -3  -3  11  154.64    7.78
  -3  -3  11  150.78    7.69
  -3  -3  12    6.78    1.45
  -3  -2 -14  159.12    7.67
  -3  -2 -13   14.09    2.58
  -3  -2 -12   41.38    4.59
  -3  -2 -11   41.50    4.77
  -3  -2 -10  372.46   14.28
  -3  -2 -10  366.23   13.99
  -3  -2  -9  463.29   15.40
  -3  -2  -9  461.37   15.20
  -3  -2  -8  380.10   13.31
  -3  -2  -8  362.44   12.81
  -3  -2  -7   13.40    2.49
  -3  -2  -7   13.29    2.48
  -3  -2  -6  300.07   10.67
  -3  -2  -3   64.73    4.36
  -3  -2  -2  582.45   15.13
  -3  -2   2  570.26   21.40
  -3  -2   3  394.74   12.68
  -3  -2   3  425.34   19.68
  -3  -2   4   19.85    2.64
  -3  -2   4   29.08    3.69
  -3  -2   4   26.58    5.59
  -3  -2   5   94.07    6.88
  -3  -2   5   85.42   10.45
  -3  -2   6  216.06   10.83
  -3  -2   6  175.28   16.23
  -3  -2   7   89.08    6.68
  -3  -2   7  109.85    7.93
  -3  -2   7   94.12   12.86
  -3  -2   8   15.59    3.03
  -3  -2   8   13.23    2.85
  -3  -2   9  494.05   15.97
  -3  -2   9  565.81   17.27
  -3  -2  10  172.28    9.08
  -3  -2  11   64.53    5.18
  -3  -2  11   61.38    5.03
  -3  -2  12   27.03    2.93
  -3  -2  12   26.04    2.90
  -3  -1 -15    0.68    0.65
  -3  -1 -14   69.84    5.19
  -3  -1 -13   -1.56    1.13
  -3  -1 -12  163.48    9.08
  -3  -1 -12  171.87    9.23
  -3  -1 -11   58.03    5.47
  -3  -1 -11   60.70    5.66
  -3  -1 -11   58.55    5.56
  -3  -1 -10   20.99    3.45
  -3  -1  -9 1115.92   23.63
  -3  -1  -9 1098.68   23.06
  -3  -1  -8   10.49    2.23
  -3  -1  -8   12.15    2.52
  -3  -1  -7   59.96    5.01
  -3  -1  -7   59.34    5.03
  -3  -1  -6  218.92    8.94
  -3  -1  -6  219.05    8.91
  -3  -1   2  590.18   20.42
  -3  -1   3    1.57    1.11
  -3  -1   3    0.66    1.43
  -3  -1   4  227.33   15.01
  -3  -1   4  248.22   10.29
  -3  -1   5   25.89    3.30
  -3  -1   5   27.97    3.63
  -3  -1   5   32.61    6.33
  -3  -1   6  466.73   14.23
  -3  -1   6  473.67   25.39
  -3  -1   7 1072.15   22.42
  -3  -1   7 1140.75   24.17
  -3  -1   8   26.71    3.88
  -3  -1   8   30.21    4.13
  -3  -1   9  237.29   11.04
  -3  -1  10  112.85    7.40
  -3  -1  10  104.11    7.13
  -3  -1  11   10.75    2.22
  -3  -1  11   13.71    2.53
  -3  -1  12    2.80    0.99
  -3  -1  12    0.69    0.60
  -3   0 -15   20.41    2.42
  -3   0 -14   16.85    2.56
  -3   0 -13  141.27    7.99
  -3   0 -12  163.65    9.27
  -3   0 -12  178.95    9.37
  -3   0 -11  294.92   12.59
  -3   0 -11  277.07   11.73
  -3   0 -11  274.55   11.87
  -3   0 -11  300.93   12.35
  -3   0 -10  594.40   17.39
  -3   0 -10  544.08   16.14
  -3   0 -10  592.66   17.55
  -3   0 -10  600.89   16.94
  -3   0  -9   56.01    5.04
  -3   0  -9   62.16    5.50
  -3   0  -9   63.62    5.30
  -3   0  -8  297.68   11.53
  -3   0  -8  279.92   10.65
  -3   0  -7   13.53    2.40
  -3   0  -7   15.17    2.57
  -3   0  -7   12.13    2.14
  -3   0  -7   13.42    2.26
  -3   0  -7   14.81    2.51
  -3   0  -6 1162.95   20.94
  -3   0  -6 1183.45   20.92
  -3   0   3   96.72    5.84
  -3   0   3  104.93    8.73
  -3   0   3   82.30    5.13
  -3   0   4  810.92   17.00
  -3   0   4  895.31   28.30
  -3   0   5    1.82    1.38
  -3   0   5    0.58    0.96
  -3   0   5   -0.07    0.82
  -3   0   6   59.36    5.45
  -3   0   6   52.24    4.82
  -3   0   7  270.11   11.67
  -3   0   7  241.30   10.80
  -3   0   7  264.73   11.10
  -3   0   8    2.46    1.44
  -3   0   8    3.68    1.63
  -3   0   8    2.62    1.36
  -3   0   9    7.00    2.16
  -3   0   9    6.05    1.90
  -3   0  10   -0.37    0.72
  -3   0  10    1.58    0.95
  -3   0  11   16.59    2.70
  -3   0  11   16.25    2.66
  -3   0  12   26.19    2.91
  -3   0  12   23.83    2.75
  -3   1 -14   55.66    4.49
  -3   1 -13   31.31    3.71
  -3   1 -12  692.35   19.09
  -3   1 -12  741.53   19.02
  -3   1 -11   37.90    4.42
  -3   1 -11   35.50    4.56
  -3   1 -10   18.54    3.22
  -3   1 -10   15.85    2.87
  -3   1  -9  260.52   11.10
  -3   1  -9  257.00   11.49
  -3   1  -9  270.88   11.49
  -3   1  -9  270.93   10.99
  -3   1  -8    2.28    1.21
  -3   1  -8    1.55    1.02
  -3   1  -8    1.63    1.01
  -3   1  -7   42.33    4.35
  -3   1  -7   44.20    4.10
  -3   1  -7   45.09    4.51
  -3   1  -6   17.34    2.70
  -3   1  -6   17.97    2.77
  -3   1  -6   15.79    2.41
  -3   1  -5    6.72    1.64
  -3   1  -1  797.87   16.23
  -3   1   3   -0.19    0.74
  -3   1   3    2.87    1.14
  -3   1   4    1.44    0.98
  -3   1   4    2.52    1.20
  -3   1   4    1.95    0.84
  -3   1   5   38.32    3.91
  -3   1   5   39.97    4.09
  -3   1   5   45.07    4.59
  -3   1   6   76.01    5.80
  -3   1   6   84.69    6.23
  -3   1   6   93.86    6.77
  -3   1   7   42.52    4.67
  -3   1   7   41.40    4.49
  -3   1   7   49.47    5.19
  -3   1   8   69.76    5.91
  -3   1   8   86.10    6.77
  -3   1   9  388.40   14.13
  -3   1   9  327.87   12.77
  -3   1  10    0.47    0.80
  -3   1  10    0.15    0.70
  -3   1  11    0.38    0.72
  -3   2 -14   27.94    3.06
  -3   2 -13   12.08    2.22
  -3   2 -12    1.99    1.10
  -3   2 -11  491.24   15.75
  -3   2 -11  477.51   16.25
  -3   2 -10  101.96    7.17
  -3   2 -10   94.24    7.32
  -3   2  -9    9.38    2.49
  -3   2  -9   13.26    2.99
  -3   2  -8   23.35    3.28
  -3   2  -8   22.25    3.37
  -3   2  -8   25.08    3.53
  -3   2  -7  139.55    7.56
  -3   2  -7  134.33    7.99
  -3   2  -7  128.82    7.57
  -3   2  -6  993.47   21.24
  -3   2  -6  965.10   18.95
  -3   2  -6  985.32   19.93
  -3   2  -5   33.14    3.79
  -3   2  -5   33.13    3.34
  -3   2  -5   37.05    3.72
  -3   2  -4    0.60    0.80
  -3   2  -3   85.77    6.60
  -3   2  -2   27.85    3.88
  -3   2  -1   20.22    3.30
  -3   2   0  223.03   11.61
  -3   2   1    2.03    0.97
  -3   2   2    0.73    0.86
  -3   2   2    0.58    0.79
  -3   2   3   94.57    6.23
  -3   2   3   83.79    5.59
  -3   2   4  382.76   12.04
  -3   2   4  425.17   13.16
  -3   2   5    5.15    1.57
  -3   2   5    9.21    2.00
  -3   2   5    4.90    1.58
  -3   2   6    2.68    1.20
  -3   2   6    2.62    1.15
  -3   2   6    4.06    1.59
  -3   2   7  230.33   10.87
  -3   2   7  256.23   11.26
  -3   2   7  259.85   11.61
  -3   2   8  189.59    9.84
  -3   2   8  243.60   11.28
  -3   2   9    4.16    1.67
  -3   2  10   10.22    2.30
  -3   3 -14    5.61    1.31
  -3   3 -13   21.27    2.87
  -3   3 -12   14.96    2.61
  -3   3 -11   70.87    5.93
  -3   3 -10  143.35    8.50
  -3   3  -9   11.31    2.48
  -3   3  -9    9.01    2.41
  -3   3  -8  132.30    8.48
  -3   3  -8  136.52    7.92
  -3   3  -8  137.87    8.52
  -3   3  -7   15.45    2.96
  -3   3  -7   15.87    2.66
  -3   3  -7   17.12    3.07
  -3   3  -6  206.39   10.15
  -3   3  -6  203.11    9.07
  -3   3  -6  187.56    9.26
  -3   3  -5    1.37    1.37
  -3   3  -5    2.52    1.33
  -3   3  -5    2.14    0.97
  -3   3  -5   -0.13    0.76
  -3   3  -4  101.26    6.72
  -3   3  -4   90.76    5.99
  -3   3  -4   91.63    5.64
  -3   3  -4   81.41    6.17
  -3   3  -4   94.35    8.43
  -3   3  -3  236.86    9.57
  -3   3  -3  304.56   11.38
  -3   3  -3  305.43   14.69
  -3   3  -3  240.32    8.78
  -3   3  -2  186.27    8.39
  -3   3  -2  212.75    9.48
  -3   3  -1  553.10   15.33
  -3   3  -1  583.55   21.11
  -3   3  -1  557.82   14.43
  -3   3   0    7.79    1.78
  -3   3   0    6.10    1.71
  -3   3   0    4.82    2.15
  -3   3   1   73.88    5.45
  -3   3   1   55.25    4.81
  -3   3   2  193.80    8.94
  -3   3   2  203.70    9.39
  -3   3   3  131.62    7.69
  -3   3   3  136.91    7.60
  -3   3   4    1.96    1.28
  -3   3   4    0.69    0.72
  -3   3   5  513.65   16.00
  -3   3   5  485.68   15.66
  -3   3   6   40.24    4.57
  -3   3   6   41.59    4.84
  -3   3   7  386.07   14.40
  -3   3   8   17.47    3.09
  -3   4 -13   35.99    3.44
  -3   4 -12   19.94    2.87
  -3   4 -11  415.91   13.66
  -3   4 -10  165.79    9.01
  -3   4  -9   29.37    3.86
  -3   4  -8   56.69    5.68
  -3   4  -8   60.52    5.43
  -3   4  -7   26.57    3.64
  -3   4  -7   26.70    4.00
  -3   4  -6   10.62    2.22
  -3   4  -6    8.23    2.16
  -3   4  -5  159.10    9.15
  -3   4  -5  149.62    7.88
  -3   4  -4   31.24    5.41
  -3   4  -4   27.93    3.50
  -3   4  -4   29.22    5.40
  -3   4  -4   31.55    3.49
  -3   4  -4   36.04    4.38
  -3   4  -3  510.14   15.86
  -3   4  -3  463.57   14.21
  -3   4  -3  501.80   21.59
  -3   4  -3  445.81   15.46
  -3   4  -3  440.55   11.93
  -3   4  -2    7.62    2.05
  -3   4  -2    8.08    2.11
  -3   4  -2    8.53    2.07
  -3   4  -2    8.81    3.07
  -3   4  -1   29.02    3.64
  -3   4  -1   31.24    3.96
  -3   4  -1   32.51    5.74
  -3   4   0    3.98    1.58
  -3   4   0    6.25    1.75
  -3   4   0    9.06    3.10
  -3   4   1    2.82    1.34
  -3   4   1    4.15    2.22
  -3   4   1    2.01    1.15
  -3   4   2   61.66    5.52
  -3   4   2   44.00    7.35
  -3   4   3    0.46    0.84
  -3   4   4   30.73    4.08
  -3   4   4   20.43    3.48
  -3   4   5   -0.39    1.28
  -3   4   5    0.75    0.97
  -3   4   6   49.72    4.97
  -3   4   6   30.65    4.11
  -3   4   7    1.72    1.22
  -3   4   8    9.10    2.40
  -3   4   9   -0.04    0.52
  -3   5 -12    4.41    1.40
  -3   5 -11   32.42    3.54
  -3   5 -10    0.60    1.59
  -3   5  -9   11.63    2.50
  -3   5  -9    7.44    1.92
  -3   5  -8   27.04    3.98
  -3   5  -8   25.57    3.43
  -3   5  -7    4.13    1.86
  -3   5  -7    3.20    1.52
  -3   5  -6    7.54    2.55
  -3   5  -6    1.71    1.12
  -3   5  -5   54.63    5.75
  -3   5  -5   67.00    5.72
  -3   5  -4  296.88   12.16
  -3   5  -4  290.70   12.92
  -3   5  -4  310.83   10.76
  -3   5  -3   77.36    6.29
  -3   5  -3   76.56    6.70
  -3   5  -3   63.31    8.59
  -3   5  -2   72.76    6.13
  -3   5  -2   63.81    6.05
  -3   5  -2   51.87    7.89
  -3   5  -2   69.47    7.49
  -3   5  -1   12.41    3.01
  -3   5  -1   13.08    2.79
  -3   5  -1   11.83    2.46
  -3   5  -1    9.73    3.56
  -3   5   0    3.73    1.61
  -3   5   0    6.64    2.08
  -3   5   0    3.56    2.27
  -3   5   1   92.07    6.92
  -3   5   1   82.34    6.59
  -3   5   2    7.76    2.20
  -3   5   2    2.19    1.98
  -3   5   3  264.23   12.02
  -3   5   4  144.39    8.85
  -3   5   4  117.95    7.52
  -3   5   5  562.41   17.39
  -3   5   5  479.98   15.42
  -3   5   6   66.76    5.81
  -3   5   7    5.41    1.71
  -3   5   8    8.08    1.86
  -3   6 -11   77.94    4.65
  -3   6 -10   57.68    5.10
  -3   6  -9   75.83    5.96
  -3   6  -9  151.82    7.50
  -3   6  -8    0.34    0.96
  -3   6  -8   80.08    6.24
  -3   6  -7  496.41   16.80
  -3   6  -7  537.90   14.56
  -3   6  -6  183.57   10.51
  -3   6  -6  329.57   11.16
  -3   6  -5  270.09   12.83
  -3   6  -5  448.44   12.91
  -3   6  -4  225.17   11.71
  -3   6  -3  129.57    8.39
  -3   6  -3  142.99    9.30
  -3   6  -2   27.35    4.21
  -3   6  -2   27.72    3.96
  -3   6  -1    4.78    2.89
  -3   6  -1    3.15    1.79
  -3   6  -1    2.88    1.56
  -3   6   0   20.85    4.98
  -3   6   0   13.84    3.05
  -3   6   0   16.48    3.13
  -3   6   1  648.41   23.22
  -3   6   1  588.43   18.59
  -3   6   2  229.75   11.73
  -3   6   2  274.21   14.88
  -3   6   3  149.16   11.03
  -3   6   4   51.08    6.87
  -3   6   5   23.61    3.26
  -3   6   6   28.71    3.48
  -3   6   8    4.90    1.46
  -3   7  -8   27.30    3.50
  -3   7  -7  201.14   10.15
  -3   7  -6   96.57    7.32
  -3   7  -5   24.11    3.82
  -3   7  -4   64.64    6.17
  -3   7  -3    7.19    2.42
  -3   7  -2  245.30   11.57
  -3   7  -2  245.28   12.08
  -3   7  -1   48.94    5.20
  -3   7  -1   50.40    5.46
  -3   7   0  322.55   13.39
  -3   7   0  289.16   12.74
  -3   7   1   98.08    7.15
  -3   7   1  114.28    8.03
  -3   7   2  237.79   11.46
  -3   7   3    1.21    0.82
  -3   7   4   14.66    2.78
  -3   7   5   24.81    3.41
  -3   7   6    5.70    1.43
  -3   8  -7   12.92    2.29
  -3   8  -6   10.58    2.21
  -3   8  -5    0.93    1.14
  -3   8  -4   40.86    4.51
  -3   8  -3  172.84    9.35
  -3   8  -2  117.89    7.74
  -3   8  -1   67.63    5.77
  -3   8   0   77.26    6.01
  -3   8   0   64.94    5.48
  -3   8   1  493.59   14.96
  -3   8   2   52.55    4.79
  -3   8   3    2.79    1.10
  -3   8   4    6.49    1.54
  -3   9  -4   37.84    3.63
  -3   9  -3    5.02    1.46
  -3   9  -2   12.97    2.12
  -2 -10  -6   68.94    5.09
  -2 -10  -5    1.91    1.22
  -2 -10  -4    5.51    1.58
  -2 -10  -4    1.43    0.97
  -2 -10  -3   26.39    3.45
  -2 -10  -3   19.04    2.96
  -2 -10  -2    4.30    1.73
  -2 -10  -2    8.14    2.17
  -2 -10  -1    4.43    1.55
  -2 -10  -1    1.45    1.19
  -2 -10  -1    2.82    1.64
  -2 -10   0   -0.27    0.77
  -2 -10   0    0.89    0.83
  -2 -10   0    1.13    0.88
  -2 -10   1   -0.12    0.79
  -2 -10   1    1.26    1.15
  -2 -10   1    0.56    0.81
  -2 -10   2   13.49    2.60
  -2 -10   2   14.42    2.99
  -2 -10   2   14.51    2.62
  -2 -10   3   70.85    5.23
  -2 -10   3   80.04    6.25
  -2 -10   3   71.51    5.52
  -2 -10   4    7.93    1.73
  -2 -10   4    8.73    1.93
  -2 -10   5   16.44    2.49
  -2  -9  -8   36.86    3.86
  -2  -9  -7  104.80    7.01
  -2  -9  -6    1.10    0.95
  -2  -9  -5   24.91    3.53
  -2  -9  -4   23.56    3.49
  -2  -9  -4   25.97    3.73
  -2  -9  -3    5.18    2.02
  -2  -9  -3    6.64    2.00
  -2  -9  -2  224.35   11.39
  -2  -9  -2  182.06   10.76
  -2  -9  -1  115.12    8.27
  -2  -9   0   37.95    4.78
  -2  -9   1   81.67    6.78
  -2  -9   1   86.03    7.42
  -2  -9   2   50.96    5.33
  -2  -9   2   51.92    5.52
  -2  -9   3    3.15    1.35
  -2  -9   3    3.09    1.67
  -2  -9   4    6.82    1.69
  -2  -9   4    7.24    2.05
  -2  -9   5   19.07    3.22
  -2  -9   5   13.05    2.40
  -2  -9   6    5.98    1.69
  -2  -9   7   51.15    4.14
  -2  -8 -10  120.88    6.46
  -2  -8  -9   40.08    4.32
  -2  -8  -8   47.11    5.07
  -2  -8  -7   63.54    6.09
  -2  -8  -6  143.24    8.37
  -2  -8  -5   32.39    4.22
  -2  -8  -4   41.86    5.05
  -2  -8  -4   37.25    4.79
  -2  -8  -3  277.61   12.80
  -2  -8  -2  743.30   20.80
  -2  -8  -1    0.62    1.39
  -2  -8   0   29.27    4.21
  -2  -8   1   83.82    6.94
  -2  -8   2  452.03   15.85
  -2  -8   3   13.08    2.75
  -2  -8   3   15.35    3.19
  -2  -8   4   12.74    2.68
  -2  -8   4   14.90    2.95
  -2  -8   5   38.58    4.42
  -2  -8   6   42.12    4.78
  -2  -8   7   33.53    3.94
  -2  -7 -10   68.46    5.67
  -2  -7  -9   -0.66    1.09
  -2  -7  -8  258.46   12.28
  -2  -7  -6    7.71    2.07
  -2  -7  -5  164.12    9.38
  -2  -7  -5  129.40    8.26
  -2  -7  -4    4.40    1.62
  -2  -7  -3  762.31   32.94
  -2  -7  -3 1077.48   24.28
  -2  -7  -2  221.09   11.02
  -2  -7  -2  217.91   17.61
  -2  -7  -1    7.11    3.18
  -2  -7  -1   12.27    2.65
  -2  -7   0  130.05    8.29
  -2  -7   0   97.84   12.26
  -2  -7   0  127.33   13.49
  -2  -7   1  211.63   10.52
  -2  -7   1  192.36   17.08
  -2  -7   2    3.73    1.62
  -2  -7   2    5.81    3.22
  -2  -7   2    2.57    2.53
  -2  -7   3  309.31   12.53
  -2  -7   3  268.20   20.67
  -2  -7   3  262.71   20.64
  -2  -7   4   34.44    7.73
  -2  -7   4   41.77    4.51
  -2  -7   4   43.50    5.04
  -2  -7   4   30.01    7.69
  -2  -7   5   77.04    6.22
  -2  -7   7  111.96    7.63
  -2  -7   9   -1.26    0.92
  -2  -6 -11    0.97    1.01
  -2  -6 -10   18.50    3.27
  -2  -6  -9    0.73    1.08
  -2  -6  -8    6.54    2.23
  -2  -6  -5   49.49    4.89
  -2  -6  -4 1184.48   23.71
  -2  -6  -4 1011.81   34.15
  -2  -6  -3   47.22    7.20
  -2  -6  -3   42.93    4.61
  -2  -6  -2 1070.59   33.95
  -2  -6  -1  336.48   18.68
  -2  -6  -1  329.06   19.53
  -2  -6   0  189.84   14.75
  -2  -6   0  204.55   14.90
  -2  -6   1  649.33   27.24
  -2  -6   1  713.49   28.77
  -2  -6   2  265.11   10.93
  -2  -6   2  222.93   16.40
  -2  -6   3   82.66   10.46
  -2  -6   3   83.65    6.17
  -2  -6   4    0.78    1.13
  -2  -6   4    0.75    0.99
  -2  -6   5    8.94    2.23
  -2  -6   5   12.75    4.68
  -2  -6   6  110.20   13.68
  -2  -6   6   90.03   12.43
  -2  -6   7    1.76    1.10
  -2  -6   9    3.18    1.63
  -2  -6  10    0.28    0.97
  -2  -6  11    7.41    1.56
  -2  -5 -11  169.15    8.94
  -2  -5 -10    1.40    0.72
  -2  -5  -9   35.85    4.61
  -2  -5  -8  772.43   20.75
  -2  -5  -5  123.81    7.14
  -2  -5  -4  662.01   23.36
  -2  -5  -4  617.34   15.76
  -2  -5  -3  932.83   26.64
  -2  -5  -3  796.98   17.85
  -2  -5  -2   95.29    8.52
  -2  -5  -2   75.39    8.31
  -2  -5  -1  225.64   14.08
  -2  -5  -1  195.11   12.27
  -2  -5   0   88.84    8.83
  -2  -5   0   93.54    9.23
  -2  -5   1  428.23   20.42
  -2  -5   1  368.08   11.78
  -2  -5   2  191.69   13.82
  -2  -5   2  130.76    7.19
  -2  -5   3    1.77    0.93
  -2  -5   3    0.70    1.45
  -2  -5   3    2.04    1.94
  -2  -5   4   77.57    5.83
  -2  -5   4   86.66   10.15
  -2  -5   5  127.35   13.06
  -2  -5   6  147.06   15.02
  -2  -5   7  355.55   24.62
  -2  -5   9    0.16    1.19
  -2  -5  11   18.41    2.71
  -2  -4 -14    9.75    1.77
  -2  -4 -10    2.45    1.22
  -2  -4  -9  567.21   17.53
  -2  -4  -8    8.53    2.26
  -2  -4  -7  235.83   10.54
  -2  -4  -4  407.03   15.40
  -2  -4  -3  366.56   14.02
  -2  -4  -2  614.44   19.98
  -2  -4  -2  578.19   17.56
  -2  -4  -1   49.92    5.82
  -2  -4  -1   51.19    5.42
  -2  -4   0    4.28    1.97
  -2  -4   2  212.83   13.18
  -2  -4   3    9.99    3.15
  -2  -4   4    5.50    2.81
  -2  -4   5   68.08    8.96
  -2  -4   6  433.65   13.66
  -2  -4   6  458.74   24.64
  -2  -4   7   52.24    8.87
  -2  -4   8   -0.29    1.87
  -2  -4   8    1.68    1.32
  -2  -4   9   60.04    6.10
  -2  -4  11   22.49    3.15
  -2  -4  12    4.12    1.25
  -2  -3 -14  148.11    7.18
  -2  -3 -10   59.19    5.47
  -2  -3  -9   65.47    5.68
  -2  -3  -8   13.79    2.62
  -2  -3  -8   10.93    2.26
  -2  -3  -7   12.79    2.42
  -2  -3  -6   56.06    4.69
  -2  -3  -4  783.38   17.13
  -2  -3  -3  135.35    6.72
  -2  -3  -2  111.66    6.24
  -2  -3  -2  102.28    6.91
  -2  -3  -1   66.70    5.91
  -2  -3   1  544.17   18.25
  -2  -3   2  369.88   15.75
  -2  -3   3  621.76   21.72
  -2  -3   4   37.40    5.81
  -2  -3   5   29.61    5.57
  -2  -3   6    9.01    3.54
  -2  -3   7   18.19    3.67
  -2  -3   7   18.37    5.34
  -2  -3   8   46.84    5.54
  -2  -3   8   45.81    8.68
  -2  -3   9  238.38   11.64
  -2  -3  10   -0.74    1.29
  -2  -3  11  172.55    8.87
  -2  -3  12   29.73    3.29
  -2  -3  13  284.67    9.04
  -2  -2 -14  109.82    6.38
  -2  -2 -13   33.04    3.90
  -2  -2 -10    0.87    0.80
  -2  -2  -9  401.47   13.67
  -2  -2  -9  412.90   13.64
  -2  -2  -8  263.85   10.66
  -2  -2  -8  273.97   10.78
  -2  -2  -7  469.26   13.60
  -2  -2  -7  449.00   13.18
  -2  -2  -3   23.15    1.92
  -2  -2  -2  613.82   13.56
  -2  -2  -2  590.40   10.16
  -2  -2   1  309.48   12.58
  -2  -2   2  519.88   17.23
  -2  -2   3  334.14   14.76
  -2  -2   4  232.95   13.36
  -2  -2   5   63.19    7.58
  -2  -2   6    1.66    1.21
  -2  -2   6   -0.40    1.67
  -2  -2   7   28.92    3.85
  -2  -2   7   25.19    5.65
  -2  -2   8   11.63    2.74
  -2  -2   8   13.13    4.63
  -2  -2   9    3.25    1.62
  -2  -2  10    6.49    1.92
  -2  -2  11    1.96    1.08
  -2  -2  12   40.66    3.98
  -2  -2  12   45.45    4.34
  -2  -2  13   -0.04    0.61
  -2  -1 -15    7.94    1.54
  -2  -1 -14    2.98    1.25
  -2  -1 -13    1.62    1.07
  -2  -1 -12   18.66    2.99
  -2  -1 -12   21.99    3.47
  -2  -1 -11    9.12    2.18
  -2  -1 -10  112.31    7.15
  -2  -1 -10  117.27    7.42
  -2  -1  -9   18.10    2.92
  -2  -1  -9   16.95    2.72
  -2  -1  -8  240.63   10.01
  -2  -1  -8  219.99    9.37
  -2  -1  -8  209.35    8.80
  -2  -1  -2 3179.38   22.51
  -2  -1   1  253.74   10.38
  -2  -1   2  452.25   14.80
  -2  -1   3    4.13    1.85
  -2  -1   3    2.88    1.44
  -2  -1   4 1128.56   27.66
  -2  -1   4 1135.66   30.68
  -2  -1   4 1190.69   28.47
  -2  -1   5   47.35    6.22
  -2  -1   5   48.69    7.13
  -2  -1   5   50.87    6.63
  -2  -1   6  124.45   11.40
  -2  -1   6  110.47    6.91
  -2  -1   6  132.42   11.48
  -2  -1   6  125.57   12.29
  -2  -1   7   91.27   10.62
  -2  -1   7  114.53    7.39
  -2  -1   7  122.86    7.14
  -2  -1   7  113.07   11.65
  -2  -1   7  120.63   13.09
  -2  -1   8   43.57    8.53
  -2  -1   8   41.82    7.81
  -2  -1   8   46.87    4.65
  -2  -1   9 1242.68   24.64
  -2  -1   9  941.51   40.06
  -2  -1  10    9.71    2.28
  -2  -1  11    4.77    1.61
  -2  -1  11    4.01    1.50
  -2  -1  12    4.52    1.49
  -2  -1  12    4.00    1.48
  -2  -1  13   95.83    5.43
  -2  -1  13  111.57    6.04
  -2   0 -15    1.84    0.87
  -2   0 -14   21.67    2.85
  -2   0 -14   35.28    3.68
  -2   0 -13    3.36    1.46
  -2   0 -13    5.88    1.72
  -2   0 -12   37.22    4.31
  -2   0 -12   36.30    4.17
  -2   0 -11  459.91   15.32
  -2   0 -11  466.26   15.26
  -2   0 -11  473.15   15.36
  -2   0 -10   84.16    6.38
  -2   0 -10   82.33    6.26
  -2   0 -10   87.92    6.41
  -2   0  -9   92.21    6.41
  -2   0  -9   74.20    5.68
  -2   0  -9   85.16    6.07
  -2   0  -8  273.07   10.35
  -2   0  -8  297.80   10.88
  -2   0  -7    2.98    1.13
  -2   0  -1 8454.90   27.84
  -2   0   1   90.58    5.65
  -2   0   2  445.04   16.14
  -2   0   2  401.85   13.15
  -2   0   3  327.45   12.93
  -2   0   3  377.03   16.47
  -2   0   4   65.71    7.24
  -2   0   4   58.57    6.92
  -2   0   4   63.83    6.34
  -2   0   5  216.87   14.26
  -2   0   5  180.03    7.52
  -2   0   5  184.59   13.38
  -2   0   5  200.38   12.35
  -2   0   6    3.70    1.97
  -2   0   6    1.78    0.77
  -2   0   6    0.77    2.55
  -2   0   6    2.81    1.13
  -2   0   6    3.29    2.18
  -2   0   7  245.99   10.24
  -2   0   7  291.86   10.96
  -2   0   7  275.41   19.52
  -2   0   7  303.43   18.58
  -2   0   7  298.49   20.38
  -2   0   8  209.53    9.84
  -2   0   8  180.61   15.75
  -2   0   8  224.65   19.54
  -2   0   9  114.26    7.49
  -2   0  10  169.17    9.26
  -2   0  10  159.06    9.01
  -2   0  11    4.09    1.63
  -2   0  11    4.23    1.71
  -2   0  12   17.72    2.82
  -2   0  12   17.46    2.65
  -2   0  13    3.06    1.12
  -2   1 -14   85.94    5.70
  -2   1 -13  103.27    7.02
  -2   1 -13  117.58    7.42
  -2   1 -12   18.25    3.07
  -2   1 -12   17.82    3.06
  -2   1 -11  121.52    8.05
  -2   1 -11  119.90    7.83
  -2   1 -11  132.43    8.15
  -2   1 -10   50.98    5.16
  -2   1 -10   52.24    5.03
  -2   1 -10   49.68    4.91
  -2   1  -9  156.84    8.57
  -2   1  -9  154.54    8.24
  -2   1  -9  151.03    7.91
  -2   1  -8    0.54    0.69
  -2   1  -8    0.12    0.63
  -2   1  -8    1.27    0.90
  -2   1  -8    0.31    0.65
  -2   1  -8    1.32    0.99
  -2   1  -7   20.09    2.69
  -2   1  -7   18.43    2.63
  -2   1  -7   18.38    2.56
  -2   1  -3  458.59   11.91
  -2   1  -2    3.13    0.99
  -2   1  -1  110.91    5.54
  -2   1   2   25.69    2.99
  -2   1   2   36.35    4.83
  -2   1   3  293.15   11.52
  -2   1   3  331.43   15.50
  -2   1   4  768.38   20.63
  -2   1   4  756.07   26.00
  -2   1   5  455.85   12.15
  -2   1   5  509.68   23.41
  -2   1   5  474.28   18.37
  -2   1   6  349.75   11.73
  -2   1   6  394.86   12.19
  -2   1   6  341.69   17.65
  -2   1   6  359.81   21.35
  -2   1   6  400.08   12.19
  -2   1   7    0.49    0.96
  -2   1   7    0.25    0.81
  -2   1   7    0.83    2.44
  -2   1   8  568.86   16.36
  -2   1   8  576.66   16.42
  -2   1   8  560.60   31.15
  -2   1   9  138.50    8.55
  -2   1   9  138.88    8.52
  -2   1  10   28.77    3.86
  -2   1  10   34.00    4.24
  -2   1  11   48.95    4.70
  -2   1  11   56.32    5.27
  -2   1  11   51.46    4.95
  -2   1  12    1.20    0.95
  -2   1  12    0.97    0.64
  -2   1  12   -0.21    0.49
  -2   2 -14   -0.87    0.83
  -2   2 -13   98.32    6.49
  -2   2 -12    1.93    1.29
  -2   2 -12    1.70    1.17
  -2   2 -11   23.97    3.55
  -2   2 -11   25.39    3.73
  -2   2 -10  152.48    8.78
  -2   2 -10  143.22    8.73
  -2   2 -10  144.77    8.42
  -2   2  -9  267.94   11.16
  -2   2  -9  268.17   11.60
  -2   2  -9  258.34   10.68
  -2   2  -9  268.08   10.99
  -2   2  -8  478.09   14.05
  -2   2  -8  473.49   14.54
  -2   2  -8  468.51   14.01
  -2   2  -8  463.10   13.56
  -2   2  -7  275.97   10.07
  -2   2  -7  260.99   10.23
  -2   2  -7  263.62   10.01
  -2   2  -7  265.53    9.80
  -2   2  -6   18.08    2.56
  -2   2  -6   18.35    2.54
  -2   2  -6   15.08    2.35
  -2   2  -6   15.76    2.30
  -2   2  -4  168.62    9.33
  -2   2  -3 1411.89   25.18
  -2   2  -2  154.52    8.38
  -2   2  -1   85.81    6.07
  -2   2   1   16.46    3.01
  -2   2   2  756.69   22.42
  -2   2   3 1242.43   31.72
  -2   2   4   67.63    8.22
  -2   2   4   63.41    4.61
  -2   2   5 1007.74   18.81
  -2   2   5  972.13   18.93
  -2   2   5 1080.78   35.90
  -2   2   5  892.34   18.58
  -2   2   6  258.11   10.26
  -2   2   6  241.93   10.02
  -2   2   6  248.97   18.74
  -2   2   7  610.40   16.45
  -2   2   7  626.17   32.23
  -2   2   7  609.81   16.68
  -2   2   8  202.18   10.02
  -2   2   8  195.48    9.92
  -2   2   9    8.92    2.29
  -2   2   9    7.62    1.99
  -2   2   9   10.79    2.72
  -2   2  10  317.85   12.61
  -2   2  10  317.97   12.83
  -2   2  11   11.87    2.41
  -2   3 -14   71.62    4.73
  -2   3 -13   25.65    3.19
  -2   3 -12   50.60    4.88
  -2   3 -11    4.98    1.97
  -2   3 -11    5.50    1.77
  -2   3 -10 1033.58   22.48
  -2   3 -10 1014.43   23.49
  -2   3 -10 1039.28   22.88
  -2   3  -9   46.89    4.72
  -2   3  -9   46.17    5.01
  -2   3  -9   46.82    4.79
  -2   3  -8   -0.36    0.88
  -2   3  -8    0.12    0.99
  -2   3  -8    0.63    0.84
  -2   3  -8    0.27    0.83
  -2   3  -7  495.77   14.52
  -2   3  -7  487.37   13.83
  -2   3  -7  469.30   14.38
  -2   3  -7  511.68   14.71
  -2   3  -6   79.18    5.59
  -2   3  -6   67.92    5.53
  -2   3  -6   78.30    5.63
  -2   3  -6   78.16    5.37
  -2   3  -5  153.72    7.99
  -2   3  -5  154.40    7.48
  -2   3  -5  155.10    7.59
  -2   3  -5  153.06    7.15
  -2   3  -4 1145.99   28.10
  -2   3  -3  254.86   12.58
  -2   3  -2  109.14    8.25
  -2   3  -1  251.14   12.40
  -2   3   2    1.49    1.28
  -2   3   3  186.89    8.34
  -2   3   3  193.13    8.20
  -2   3   4  239.86    9.73
  -2   3   4  230.06    9.26
  -2   3   4  256.47   16.85
  -2   3   5   12.02    2.35
  -2   3   5   14.03    2.50
  -2   3   5   11.72    2.25
  -2   3   5   16.86    4.84
  -2   3   6  172.76    8.85
  -2   3   6  169.80    8.88
  -2   3   6  168.37   16.30
  -2   3   7   -1.07    1.92
  -2   3   7    1.81    1.19
  -2   3   7    1.40    1.10
  -2   3   8 1357.66   26.56
  -2   3   9    9.43    2.40
  -2   4 -13  130.99    6.74
  -2   4 -12   26.71    3.42
  -2   4 -11  354.29   12.92
  -2   4 -10   21.17    3.47
  -2   4 -10   23.13    3.44
  -2   4  -9   41.01    4.76
  -2   4  -9   40.45    4.56
  -2   4  -8  629.62   17.69
  -2   4  -8  593.50   16.69
  -2   4  -7    4.30    1.63
  -2   4  -7    3.84    1.60
  -2   4  -7    6.21    1.79
  -2   4  -6   94.09    6.93
  -2   4  -6  100.67    6.67
  -2   4  -6   90.72    6.14
  -2   4  -5  154.58    8.60
  -2   4  -5  152.67   12.02
  -2   4  -5  141.03    7.64
  -2   4  -5  140.02    7.35
  -2   4  -4  128.26    7.65
  -2   4  -4  113.34    6.67
  -2   4  -4  115.08    6.65
  -2   4  -4  140.41   11.05
  -2   4  -4  134.17    6.85
  -2   4  -3   24.89    3.33
  -2   4  -3   19.86    5.38
  -2   4  -3   27.97    4.84
  -2   4  -3   21.72    2.92
  -2   4  -3   18.87    2.51
  -2   4  -2  129.69    7.34
  -2   4  -2  122.81    6.88
  -2   4  -2  112.85    5.75
  -2   4  -1  253.10   10.28
  -2   4  -1  185.86    8.20
  -2   4  -1  273.60   15.08
  -2   4  -1  187.37    6.64
  -2   4   0   24.69    3.27
  -2   4   0   22.24    2.94
  -2   4   0   28.53    4.98
  -2   4   1    5.32    1.70
  -2   4   1    4.36    1.27
  -2   4   1    5.42    1.54
  -2   4   2    3.78    1.22
  -2   4   2    3.52    1.42
  -2   4   3  411.37   13.26
  -2   4   4    0.16    1.01
  -2   4   5   15.22    2.63
  -2   4   5    6.05    3.11
  -2   4   6    4.00    2.71
  -2   4  11    3.65    1.47
  -2   5 -13   -0.72    0.69
  -2   5 -12   27.05    3.07
  -2   5 -11    5.30    1.35
  -2   5 -10  340.13   13.04
  -2   5 -10  357.32   12.95
  -2   5  -9  191.96   10.07
  -2   5  -9  192.42    9.72
  -2   5  -8   12.56    2.79
  -2   5  -8   16.26    2.92
  -2   5  -8   16.33    2.93
  -2   5  -7  133.87    8.34
  -2   5  -7  128.89    8.47
  -2   5  -7  136.68    8.01
  -2   5  -6   79.30    6.63
  -2   5  -6   85.69    6.47
  -2   5  -6   73.26    5.66
  -2   5  -5   27.22    3.89
  -2   5  -5   23.94    3.38
  -2   5  -5   24.26    5.36
  -2   5  -5   21.27    2.95
  -2   5  -4  126.98   11.89
  -2   5  -4  118.86    7.51
  -2   5  -4  108.35    6.82
  -2   5  -4  126.00    8.07
  -2   5  -4  120.15    6.82
  -2   5  -3   63.93    5.36
  -2   5  -3   56.94    8.30
  -2   5  -3   51.83    5.13
  -2   5  -3   59.83    8.07
  -2   5  -2    7.69    3.88
  -2   5  -2   12.55    2.43
  -2   5  -2   11.09    2.54
  -2   5  -2   15.90    4.46
  -2   5  -1   16.59    2.81
  -2   5  -1   20.14    3.23
  -2   5  -1   15.59    2.43
  -2   5  -1   19.38    4.67
  -2   5  -1   10.93    3.06
  -2   5   0    6.44    1.71
  -2   5   0    4.66    1.93
  -2   5   0    7.43    2.97
  -2   5   1    4.27    1.35
  -2   5   1    4.68    1.73
  -2   5   1    5.15    1.65
  -2   5   1    4.47    2.47
  -2   5   2  104.45    6.71
  -2   5   2  105.89    7.00
  -2   5   2  104.16   11.37
  -2   5   2  102.98    7.24
  -2   5   3   58.93    5.47
  -2   5   3   60.53    5.18
  -2   5   4  149.28    8.76
  -2   5   4  150.98    8.60
  -2   5   5   51.73    5.29
  -2   5   6  106.37    7.80
  -2   5   7   71.33    6.62
  -2   5   8   12.99    3.28
  -2   5   9    3.17    1.43
  -2   5  10    0.96    0.69
  -2   6 -12   46.03    3.46
  -2   6 -11   53.16    4.28
  -2   6 -10   10.41    2.33
  -2   6  -9   73.06    6.06
  -2   6  -9   85.33    6.23
  -2   6  -8  106.52    7.42
  -2   6  -8  112.36    7.21
  -2   6  -8  101.85    7.47
  -2   6  -7   81.08    6.53
  -2   6  -7   82.49    6.95
  -2   6  -7   95.09    6.85
  -2   6  -6  281.66   11.84
  -2   6  -6  293.64   13.17
  -2   6  -6  310.61   11.67
  -2   6  -5  843.06   19.94
  -2   6  -5  852.02   18.85
  -2   6  -4    6.98    2.29
  -2   6  -4    2.90    2.05
  -2   6  -3   19.60    3.18
  -2   6  -3   17.30    3.30
  -2   6  -3   12.43    4.14
  -2   6  -2  251.97   11.80
  -2   6  -2  235.03   10.31
  -2   6  -2  260.99   11.59
  -2   6  -2  245.88   18.08
  -2   6  -1  148.02    9.05
  -2   6  -1  147.41    8.06
  -2   6  -1  167.14    9.33
  -2   6  -1  150.98   14.52
  -2   6  -1  150.39   14.98
  -2   6   0    0.59    0.96
  -2   6   0    2.08    3.11
  -2   6   0    0.23    0.90
  -2   6   0    0.73    1.06
  -2   6   0   -0.02    1.46
  -2   6   1    0.35    1.65
  -2   6   1    1.30    1.03
  -2   6   1    2.76    1.59
  -2   6   1    3.06    1.48
  -2   6   1    2.66    2.09
  -2   6   2   17.60    2.87
  -2   6   2   17.73    4.93
  -2   6   2   13.95    4.54
  -2   6   2   16.30    2.99
  -2   6   3   12.92    4.03
  -2   6   3   10.85    2.41
  -2   6   4   79.82    8.82
  -2   6   4   64.36    5.73
  -2   6   5  191.12    9.86
  -2   6   6    1.40    1.24
  -2   6   7   12.09    2.52
  -2   6   8   23.62    3.32
  -2   6   9    7.01    1.73
  -2   6   9   17.19    2.62
  -2   7 -10  142.48    6.66
  -2   7  -9  137.62    7.12
  -2   7  -8    0.90    0.82
  -2   7  -8  190.28    8.09
  -2   7  -7    1.69    1.05
  -2   7  -7    1.89    0.97
  -2   7  -6   84.27    6.27
  -2   7  -6   98.48    7.70
  -2   7  -5   97.10    7.69
  -2   7  -4   20.54    3.61
  -2   7  -3   61.32    6.14
  -2   7  -2  312.08   12.35
  -2   7  -2  345.10   14.54
  -2   7  -2  346.26   13.95
  -2   7  -1    2.36    1.59
  -2   7  -1    0.74    0.64
  -2   7  -1    1.12    1.24
  -2   7   0   24.58    3.80
  -2   7   0   26.55    3.60
  -2   7   0   26.36    4.07
  -2   7   1  270.14   11.54
  -2   7   1  272.69   12.72
  -2   7   1  277.59   12.63
  -2   7   2   32.61    4.05
  -2   7   2   40.88    5.01
  -2   7   3   24.34    3.48
  -2   7   3   28.03    4.17
  -2   7   4    0.05    1.06
  -2   7   4    0.36    0.77
  -2   7   5   27.68    4.01
  -2   7   5   25.19    3.58
  -2   7   6   62.08    5.25
  -2   7   6   69.29    6.03
  -2   7   7   11.72    2.33
  -2   7   7   11.92    2.26
  -2   7   8    4.17    1.32
  -2   7   8    3.01    0.95
  -2   8  -8    2.23    0.94
  -2   8  -7   29.93    3.74
  -2   8  -6    0.68    0.86
  -2   8  -5   34.22    4.40
  -2   8  -4    4.20    1.79
  -2   8  -3   18.06    3.35
  -2   8  -2    0.17    1.01
  -2   8  -1   62.27    6.01
  -2   8  -1   54.10    4.98
  -2   8  -1   59.19    5.73
  -2   8   0  234.80   10.52
  -2   8   0  271.89   12.14
  -2   8   0  246.11   11.72
  -2   8   1  465.49   14.58
  -2   8   1  478.98   15.79
  -2   8   2    2.47    1.56
  -2   8   2    2.91    1.21
  -2   8   3  196.78    9.32
  -2   8   3  205.10   10.26
  -2   8   4   86.36    5.99
  -2   8   4   88.56    6.53
  -2   8   5   12.52    2.39
  -2   8   5    9.46    1.90
  -2   8   6   13.38    2.29
  -2   8   6    9.87    1.81
  -2   9  -6    1.58    0.86
  -2   9  -5   25.54    3.27
  -2   9  -4   89.86    6.28
  -2   9  -3    9.28    2.16
  -2   9  -2   80.55    6.14
  -2   9  -1    1.60    1.17
  -2   9   0   43.53    4.36
  -2   9   2  333.77   11.70
  -2   9   3   32.70    3.55
  -1 -10  -4   -0.13    0.60
  -1 -10  -3  128.99    7.36
  -1 -10  -3   27.00    3.36
  -1 -10  -2   -0.52    0.93
  -1 -10  -2    1.50    1.05
  -1 -10  -1  105.09    7.03
  -1 -10   0   62.52    5.38
  -1 -10   1    7.51    2.02
  -1 -10   2   25.82    3.40
  -1 -10   3    1.75    0.91
  -1 -10   3    0.24    0.73
  -1 -10   4   44.80    3.86
  -1 -10   4   30.97    3.39
  -1  -9  -7    3.67    1.57
  -1  -9  -5    0.89    0.78
  -1  -9  -4    7.34    2.12
  -1  -9  -3   13.65    2.85
  -1  -9  -2  185.09   10.49
  -1  -9   2  170.34    9.73
  -1  -9   3   46.12    4.93
  -1  -9   4    5.67    1.75
  -1  -9   5   32.36    3.85
  -1  -9   7   11.63    2.10
  -1  -8  -9   69.11    5.25
  -1  -8  -8    7.03    2.14
  -1  -8  -5   40.22    4.60
  -1  -8  -4   67.10    6.33
  -1  -8   4  206.51   10.30
  -1  -8   8   36.31    3.81
  -1  -7  -9   46.18    4.84
  -1  -7  -8    0.24    0.75
  -1  -7  -5   28.19    4.01
  -1  -7  -5   18.84    5.99
  -1  -7  -4  179.04   17.26
  -1  -7  -3   29.92    6.92
  -1  -7  -2  599.80   29.81
  -1  -7  -1   84.92   11.25
  -1  -7   0    7.21    2.94
  -1  -7   1   25.98    6.44
  -1  -7   2   26.24    6.26
  -1  -7   2   20.58    5.72
  -1  -7   3   13.89    4.77
  -1  -7   3   15.46    5.05
  -1  -7   4    5.71    3.39
  -1  -7   4    8.45    3.94
  -1  -6  -9   19.00    3.31
  -1  -6  -6   37.14    8.02
  -1  -6  -5  116.84   13.01
  -1  -6  -4   12.45    4.11
  -1  -6  -3  121.40   11.91
  -1  -6  -2  222.46   15.89
  -1  -6  -1   85.40    9.76
  -1  -6   0   42.35    6.79
  -1  -6   0   39.24    6.72
  -1  -6   1   81.86    9.48
  -1  -6   1   92.98   10.31
  -1  -6   2   95.75   10.54
  -1  -6   2   84.84   10.10
  -1  -6   3  972.85   34.21
  -1  -6   3  997.16   34.28
  -1  -6   4   13.48    4.43
  -1  -6   5  300.53   20.41
  -1  -6   5  257.69   18.35
  -1  -6   6   11.25    4.05
  -1  -6   6    3.15    2.49
  -1  -5  -9   89.90    6.98
  -1  -5  -6  103.42   11.74
  -1  -5  -5   56.83    8.06
  -1  -5  -4   17.84    4.39
  -1  -5  -3   12.25    3.24
  -1  -5  -2  115.63    9.98
  -1  -5  -1  257.55   14.20
  -1  -5  -1  229.48   14.05
  -1  -5   0   28.10    4.73
  -1  -5   0   25.04    4.61
  -1  -5   1  244.06   14.43
  -1  -5   1  207.76   13.30
  -1  -5   2  230.37   14.38
  -1  -5   3  237.85   15.66
  -1  -5   3  253.62   14.63
  -1  -5   4  929.05   31.40
  -1  -5   4  799.83   28.61
  -1  -5   5    8.56    3.23
  -1  -5   5   12.34    3.87
  -1  -5   6  159.49   14.42
  -1  -5   6  168.37   14.59
  -1  -5   7  173.45   15.85
  -1  -5   7  210.72   17.57
  -1  -5   8    3.12    2.32
  -1  -5   8    6.28    3.25
  -1  -5  12   28.06    2.93
  -1  -4  -9  101.76    7.20
  -1  -4  -8   65.01    5.60
  -1  -4  -6  299.48   17.86
  -1  -4  -5   15.89    3.71
  -1  -4  -4  618.35   20.94
  -1  -4  -3  977.10   24.46
  -1  -4  -2  279.83   12.87
  -1  -4  -1 2468.83   37.53
  -1  -4  -1 2411.71   39.11
  -1  -4   0   43.18    5.08
  -1  -4   0   45.72    5.37
  -1  -4   1  743.71   22.44
  -1  -4   2  140.78    9.93
  -1  -4   2  160.44   10.04
  -1  -4   3   28.11    4.59
  -1  -4   4  185.47   12.38
  -1  -4   5   10.18    3.37
  -1  -4   6    1.76    1.36
  -1  -4   7   14.99    4.62
  -1  -4   8   -0.64    3.17
  -1  -4  12   10.25    1.95
  -1  -3 -14  196.01    7.80
  -1  -3  -8  210.80    9.64
  -1  -3  -6  370.14   17.76
  -1  -3  -5  544.86   19.11
  -1  -3  -4 2085.22   33.12
  -1  -3  -3  107.96    6.94
  -1  -3  -2 1023.68   20.07
  -1  -3  -1 3320.48   38.44
  -1  -3  -1 3462.57   36.86
  -1  -3   0 1853.69   29.69
  -1  -3   1    5.80    1.70
  -1  -3   2  267.44   11.62
  -1  -3   3  248.81   11.96
  -1  -3   4 2572.60   41.72
  -1  -3   5    7.48    2.57
  -1  -3   6    4.43    2.35
  -1  -3   7   20.35    4.92
  -1  -3   8    2.28    2.79
  -1  -3   9   44.40    8.12
  -1  -3  11   48.92    4.78
  -1  -3  12   72.77    5.38
  -1  -3  13    1.51    0.80
  -1  -2 -14    0.74    0.60
  -1  -2 -13  249.47   10.45
  -1  -2 -11    6.05    1.87
  -1  -2 -10  356.68   13.40
  -1  -2  -9  197.14    9.52
  -1  -2  -8    0.76    0.67
  -1  -2  -5  422.05   15.40
  -1  -2  -4   11.35    2.27
  -1  -2  -3 3386.20   31.86
  -1  -2  -2 2307.02   23.81
  -1  -2  -1 1000.83   15.33
  -1  -2  -1 1037.53   17.24
  -1  -2   1  327.73   10.72
  -1  -2   2 1466.36   15.46
  -1  -2   2 1789.77   25.89
  -1  -2   3    0.08    0.85
  -1  -2   3    0.22    0.79
  -1  -2   4    4.09    1.38
  -1  -2   4    0.18    1.15
  -1  -2   4    0.40    1.26
  -1  -2   5    4.74    2.21
  -1  -2   5    4.75    1.77
  -1  -2   5    4.49    2.25
  -1  -2   6   64.36    7.49
  -1  -2   6   66.16    7.32
  -1  -2   6   65.77    7.63
  -1  -2   7   11.77    3.71
  -1  -2   7    9.93    3.47
  -1  -2   7    9.04    3.35
  -1  -2   8   10.13    3.59
  -1  -2   8    6.81    3.09
  -1  -2   9    9.39    4.41
  -1  -2   9   10.58    3.91
  -1  -2  10   82.49    6.39
  -1  -2  11  119.32    7.48
  -1  -2  12    7.23    1.84
  -1  -2  13   14.98    2.49
  -1  -1 -14  119.12    6.54
  -1  -1 -13   10.83    2.24
  -1  -1 -13    5.94    1.69
  -1  -1 -12    7.98    2.10
  -1  -1 -12    8.68    2.15
  -1  -1 -11    7.56    2.20
  -1  -1 -10    1.98    1.17
  -1  -1  -9   18.58    3.01
  -1  -1  -8  665.70   16.35
  -1  -1  -3  798.60   12.95
  -1  -1  -2  205.18    4.65
  -1  -1  -1 1125.60   12.92
  -1  -1   0  721.57   12.53
  -1  -1   1   59.03    3.93
  -1  -1   2   66.47    5.03
  -1  -1   2   56.12    4.36
  -1  -1   2   57.87    3.91
  -1  -1   3   42.53    4.60
  -1  -1   3   40.07    4.19
  -1  -1   3   44.51    4.25
  -1  -1   4    8.03    2.10
  -1  -1   4    8.72    2.51
  -1  -1   5    1.93    1.25
  -1  -1   5    2.31    1.54
  -1  -1   6    2.91    1.95
  -1  -1   6    0.58    1.96
  -1  -1   7   30.78    5.88
  -1  -1   7   28.53    5.39
  -1  -1   7   32.78    6.03
  -1  -1   8   33.90    7.05
  -1  -1   8   25.01    5.99
  -1  -1   8   32.60    6.42
  -1  -1   9    4.05    3.14
  -1  -1   9    2.80    1.27
  -1  -1   9    3.00    3.44
  -1  -1   9    2.21    1.91
  -1  -1  10  717.73   18.19
  -1  -1  10  560.86   31.98
  -1  -1  11  232.34   10.55
  -1  -1  12   -0.51    0.87
  -1  -1  12    0.86    1.07
  -1  -1  13    3.84    1.36
  -1  -1  14   13.69    2.10
  -1  -1  14   11.39    1.87
  -1   0 -14   14.73    2.33
  -1   0 -14   19.72    2.69
  -1   0 -13   35.21    4.03
  -1   0 -13   35.76    3.97
  -1   0 -12  173.92    9.42
  -1   0 -12  176.75    9.28
  -1   0 -11  190.73    9.99
  -1   0 -11  200.00   10.01
  -1   0 -10  167.79    9.11
  -1   0  -9   74.49    5.78
  -1   0  -8    6.76    1.57
  -1   0  -8    6.58    1.65
  -1   0  -8    9.08    1.94
  -1   0  -1  903.58    7.55
  -1   0   1 1283.39   15.05
  -1   0   1 1474.75   19.89
  -1   0   2  842.60   15.72
  -1   0   2  815.02   17.53
  -1   0   3  321.76   12.52
  -1   0   3  354.58   13.06
  -1   0   4  447.88   17.06
  -1   0   4  413.13   15.81
  -1   0   5  266.86   14.80
  -1   0   5  246.31   13.75
  -1   0   6   70.56    8.61
  -1   0   6   76.15    8.46
  -1   0   7    3.67    2.63
  -1   0   7    4.42    2.41
  -1   0   7    3.45    1.19
  -1   0   8  219.27   16.73
  -1   0   8  189.45   15.98
  -1   0   8  196.21    8.76
  -1   0   9  140.40   14.33
  -1   0   9  136.08   15.02
  -1   0   9  140.36    7.93
  -1   0   9  129.48   14.75
  -1   0  10   22.15    3.29
  -1   0  10    6.90    4.42
  -1   0  11   17.81    3.07
  -1   0  11   18.44    3.07
  -1   0  12   14.33    2.74
  -1   0  13    2.22    1.15
  -1   0  13    2.84    1.27
  -1   0  14   25.95    2.84
  -1   1 -14    8.42    1.86
  -1   1 -14    6.21    1.53
  -1   1 -13   20.82    3.13
  -1   1 -13   22.17    3.12
  -1   1 -12  425.91   14.41
  -1   1 -12  412.16   14.53
  -1   1 -11  681.51   18.79
  -1   1 -11  662.90   18.14
  -1   1 -10    1.31    0.71
  -1   1 -10    0.00    0.84
  -1   1 -10    1.92    1.23
  -1   1  -9    2.72    1.11
  -1   1  -9    4.97    1.69
  -1   1  -9    4.35    1.59
  -1   1  -9    3.58    1.30
  -1   1  -8  180.49    8.06
  -1   1  -8  169.23    8.25
  -1   1  -8  200.85    8.98
  -1   1  -8  183.70    8.37
  -1   1  -7   48.85    4.18
  -1   1  -2    3.48    1.03
  -1   1  -1   58.07    3.49
  -1   1   0  990.55   13.82
  -1   1   1    6.64    1.56
  -1   1   1    6.71    0.92
  -1   1   2 1422.42   24.78
  -1   1   2 1313.15   23.10
  -1   1   3  384.62   14.26
  -1   1   3  393.80   14.65
  -1   1   4  435.86   17.17
  -1   1   4  419.97   17.28
  -1   1   5   73.84    7.75
  -1   1   5   87.68    8.83
  -1   1   6  138.47   11.71
  -1   1   6  149.35   12.66
  -1   1   7  402.00   11.94
  -1   1   7  466.46   23.44
  -1   1   7  446.95   23.65
  -1   1   8    3.47    3.50
  -1   1   8    3.07    1.25
  -1   1   8    0.30    0.72
  -1   1   8    0.34    1.42
  -1   1   9   27.87    3.71
  -1   1   9   21.29    4.94
  -1   1   9   30.20    7.28
  -1   1   9   21.80    6.19
  -1   1   9   31.28    3.86
  -1   1  10  146.99    8.79
  -1   1  10  138.48    8.26
  -1   1  11    5.81    1.78
  -1   1  11    3.24    1.44
  -1   1  12    2.91    1.24
  -1   1  12    0.60    0.95
  -1   1  13   16.90    2.62
  -1   1  13   16.97    2.61
  -1   2 -14   25.04    2.87
  -1   2 -14   27.00    3.24
  -1   2 -13    6.59    1.79
  -1   2 -13    5.55    1.68
  -1   2 -12   44.03    4.80
  -1   2 -12   43.22    4.55
  -1   2 -11    2.32    1.57
  -1   2 -11    1.89    1.31
  -1   2 -10   59.80    5.23
  -1   2 -10   59.05    5.47
  -1   2 -10   57.25    5.31
  -1   2  -9    4.19    1.46
  -1   2  -9    2.52    1.10
  -1   2  -9    3.33    1.40
  -1   2  -8   11.84    2.11
  -1   2  -8   11.03    2.15
  -1   2  -8    9.55    2.08
  -1   2  -8   11.92    2.25
  -1   2  -7   25.76    2.96
  -1   2  -7   22.12    2.94
  -1   2  -7   24.47    3.03
  -1   2  -7   25.63    3.00
  -1   2  -3   12.66    2.39
  -1   2  -2   17.61    2.77
  -1   2  -1  662.47   14.76
  -1   2   0  190.74    6.12
  -1   2   1    3.96    1.29
  -1   2   2   48.72    4.92
  -1   2   3  285.39   13.39
  -1   2   3  275.27   12.96
  -1   2   4  272.36   14.44
  -1   2   4  295.89   15.01
  -1   2   5 1538.09   37.53
  -1   2   5 1264.13   34.54
  -1   2   6  130.30    6.62
  -1   2   6  129.86   12.23
  -1   2   6  123.33    6.52
  -1   2   6  130.68   12.23
  -1   2   7   33.60    6.72
  -1   2   7   41.32    4.06
  -1   2   7   51.96    8.35
  -1   2   7   40.46    4.05
  -1   2   8  616.31   16.33
  -1   2   8  583.88   15.83
  -1   2   9  607.44   17.05
  -1   2   9  594.28   16.63
  -1   2  10   25.86    3.75
  -1   2  10   26.32    3.76
  -1   2  10   25.57    3.56
  -1   2  11   92.75    7.03
  -1   2  11   89.03    6.76
  -1   2  11   80.97    6.10
  -1   2  12   37.08    4.04
  -1   2  13    1.07    0.70
  -1   3 -14   18.06    2.28
  -1   3 -13   31.19    3.50
  -1   3 -13   33.53    3.94
  -1   3 -12    3.47    1.56
  -1   3 -12    4.13    1.54
  -1   3 -11  103.37    7.13
  -1   3 -11  113.43    7.42
  -1   3 -11  108.59    7.57
  -1   3 -10    2.91    1.41
  -1   3 -10    2.03    1.27
  -1   3 -10    3.64    1.43
  -1   3  -9   30.09    3.86
  -1   3  -9   37.36    4.23
  -1   3  -9   29.10    3.76
  -1   3  -8    2.71    1.16
  -1   3  -8    1.93    1.14
  -1   3  -8    4.18    1.52
  -1   3  -7  160.35    7.64
  -1   3  -7  151.62    7.64
  -1   3  -7  158.60    7.79
  -1   3  -6  127.39    6.52
  -1   3  -6  129.19    7.03
  -1   3  -6  130.89    6.71
  -1   3  -6  124.80    6.64
  -1   3  -4  364.58   14.98
  -1   3  -3    7.69    2.24
  -1   3  -2  374.33   14.09
  -1   3  -1  298.35   12.12
  -1   3   0  386.09    9.05
  -1   3   1   51.42    4.51
  -1   3   2  146.35    8.89
  -1   3   3  481.27   18.30
  -1   3   4  583.68   23.31
  -1   3   4  448.92   19.84
  -1   3   5    3.47    1.26
  -1   3   5   -1.57    4.98
  -1   3   5    4.80    2.54
  -1   3   5    2.38    0.95
  -1   3   6  608.09   15.19
  -1   3   6  632.01   28.27
  -1   3   6  652.92   15.75
  -1   3   6  671.24   29.02
  -1   3   7   95.35    6.31
  -1   3   7   85.85    6.04
  -1   3   7   84.20   11.34
  -1   3   7   85.26    5.97
  -1   3   8  568.30   16.38
  -1   3   8  534.85   30.76
  -1   3   8  520.63   15.73
  -1   3   8  531.09   15.70
  -1   3   9   26.72    3.93
  -1   3   9   29.80    3.87
  -1   3   9   28.33    3.78
  -1   3  10  291.65   11.97
  -1   3  10  310.68   12.31
  -1   3  11  327.04   12.24
  -1   3  12   25.63    3.13
  -1   4 -13    5.40    1.42
  -1   4 -12   61.89    5.09
  -1   4 -11   48.02    4.87
  -1   4 -11   45.77    4.72
  -1   4 -11   48.00    5.19
  -1   4 -10  640.97   18.27
  -1   4 -10  627.53   17.76
  -1   4 -10  607.98   18.29
  -1   4  -9  246.91   11.14
  -1   4  -9  245.93   10.82
  -1   4  -9  228.37   11.03
  -1   4  -8   17.26    2.91
  -1   4  -8   15.72    2.94
  -1   4  -8   12.77    2.49
  -1   4  -7   15.60    2.61
  -1   4  -7   13.54    2.44
  -1   4  -7   16.65    2.81
  -1   4  -6   73.89    5.79
  -1   4  -6   90.17    5.89
  -1   4  -6   88.23    5.82
  -1   4  -6   93.09    6.18
  -1   4  -5   63.12    5.29
  -1   4  -5   67.28    4.91
  -1   4  -5   65.39    4.80
  -1   4  -5   65.23    5.02
  -1   4  -5   71.75    7.95
  -1   4  -4    9.00    2.68
  -1   4  -4    9.79    1.82
  -1   4  -3   19.73    3.81
  -1   4  -2  934.84   26.01
  -1   4  -1   68.70    6.84
  -1   4   0  181.75   11.13
  -1   4   2   19.43    3.57
  -1   4   3   87.95    8.39
  -1   4   4  188.03   13.78
  -1   4   5  405.68   22.17
  -1   4   6    3.24    1.12
  -1   4   6    3.26    1.45
  -1   4   7    2.36    1.14
  -1   4   7    0.33    1.32
  -1   4   8   11.42    2.35
  -1   4   9  286.86   11.52
  -1   4  10  301.76   11.57
  -1   4  11    0.77    0.71
  -1   4  12    7.25    1.70
  -1   5 -12  112.35    6.46
  -1   5 -11   31.25    3.90
  -1   5 -11   31.58    3.65
  -1   5 -10  207.10   10.20
  -1   5 -10  196.40    9.61
  -1   5  -9   27.35    3.98
  -1   5  -9   26.97    3.69
  -1   5  -8   30.11    3.97
  -1   5  -8   26.49    3.61
  -1   5  -7  903.91   20.32
  -1   5  -7  863.52   20.05
  -1   5  -6  124.74    8.01
  -1   5  -6  125.48    7.39
  -1   5  -6  116.08    7.03
  -1   5  -5  151.03    8.69
  -1   5  -5  151.62   12.78
  -1   5  -5  151.83    7.94
  -1   5  -5  147.88    7.64
  -1   5  -4  131.15    7.12
  -1   5  -4  147.87    8.37
  -1   5  -4  131.30    7.01
  -1   5  -4  147.18   12.16
  -1   5  -3  571.73   15.91
  -1   5  -3  498.04   13.74
  -1   5  -3  548.23   15.02
  -1   5  -3  580.10   23.19
  -1   5  -3  493.76   12.78
  -1   5  -3  443.59   12.56
  -1   5  -2    7.73    1.77
  -1   5  -2    7.09    1.76
  -1   5  -2    8.76    1.94
  -1   5  -2   10.25    3.38
  -1   5  -1  223.10    9.73
  -1   5  -1  238.63    9.64
  -1   5  -1  251.60   15.32
  -1   5   0    1.01    1.28
  -1   5   0    5.73    1.59
  -1   5   0    4.82    1.40
  -1   5   0    3.45    1.34
  -1   5   0    6.46    2.67
  -1   5   1    9.77    2.07
  -1   5   1    3.13    2.43
  -1   5   1    9.78    2.16
  -1   5   1    9.06    2.93
  -1   5   2    9.73    2.65
  -1   5   2   14.40    2.55
  -1   5   3   52.00    5.37
  -1   5   3   62.30    5.00
  -1   5   4   59.56    5.22
  -1   5   5   17.07    2.86
  -1   5   9  149.49    9.18
  -1   5  10  143.25    8.46
  -1   5  11   71.04    5.38
  -1   6 -12   25.15    2.62
  -1   6 -11    0.93    0.97
  -1   6 -11    9.72    2.12
  -1   6 -10    1.64    1.06
  -1   6 -10    4.20    1.66
  -1   6  -9   48.90    5.00
  -1   6  -9   46.53    4.67
  -1   6  -8  331.98   13.13
  -1   6  -8  329.46   12.63
  -1   6  -7   86.67    7.07
  -1   6  -7   95.69    7.08
  -1   6  -7   94.48    6.79
  -1   6  -6 1150.16   25.67
  -1   6  -6 1140.01   23.32
  -1   6  -6 1154.14   23.18
  -1   6  -5    0.72    0.93
  -1   6  -5    0.58    1.11
  -1   6  -5    3.80    1.58
  -1   6  -4 1151.71   24.84
  -1   6  -4 1091.25   36.53
  -1   6  -4 1056.22   19.69
  -1   6  -4 1100.12   21.84
  -1   6  -3   45.16    4.51
  -1   6  -3   45.77    4.76
  -1   6  -3   44.95    4.93
  -1   6  -3   38.86    6.65
  -1   6  -3   32.13    3.69
  -1   6  -2  186.06    9.30
  -1   6  -2  187.10    9.68
  -1   6  -2  189.66    9.03
  -1   6  -2  174.15   14.47
  -1   6  -1   54.80    5.01
  -1   6  -1   56.13    4.91
  -1   6  -1   56.73    5.41
  -1   6  -1   51.24    8.01
  -1   6   0   96.05    6.67
  -1   6   0   89.09    6.11
  -1   6   0   96.63    7.00
  -1   6   0   91.83   10.57
  -1   6   1  173.40    9.18
  -1   6   1  144.13   13.79
  -1   6   1  155.82    8.14
  -1   6   1  164.98    9.12
  -1   6   1  155.69   13.90
  -1   6   2   93.18    6.91
  -1   6   2   81.48   11.70
  -1   6   2   85.15    6.55
  -1   6   2   86.46    6.23
  -1   6   2   81.10   10.29
  -1   6   3   20.18    3.14
  -1   6   3   17.27    5.46
  -1   6   3   13.53    4.28
  -1   6   4  532.06   16.09
  -1   6   5   20.55    3.43
  -1   6   6  119.21    8.16
  -1   6   7   55.03    5.41
  -1   6   8    4.34    1.54
  -1   6   9  233.63   10.30
  -1   6  10   37.37    4.05
  -1   7 -10   -0.16    0.70
  -1   7 -10  104.71    5.61
  -1   7  -9   -0.17    0.83
  -1   7  -9   98.99    6.54
  -1   7  -8  168.69    9.09
  -1   7  -8  259.09    9.95
  -1   7  -7  463.01   15.31
  -1   7  -7  491.11   13.88
  -1   7  -6  194.46   10.75
  -1   7  -6  184.93    9.70
  -1   7  -5   56.22    5.33
  -1   7  -5   65.29    6.33
  -1   7  -4    0.57    1.37
  -1   7  -4    0.07    1.15
  -1   7  -3  144.95    9.29
  -1   7  -3  157.37    8.84
  -1   7  -2   88.88   11.13
  -1   7  -2  106.65    7.29
  -1   7  -2  108.00    8.03
  -1   7  -2  101.33    7.44
  -1   7  -1  118.26    7.58
  -1   7  -1   99.20   12.18
  -1   7  -1  101.05    7.37
  -1   7  -1  110.07    8.08
  -1   7   0   78.22    6.16
  -1   7   0   67.60   10.26
  -1   7   0   75.04    6.38
  -1   7   0   84.74    7.12
  -1   7   1  225.59   11.20
  -1   7   1  211.22   10.97
  -1   7   1  215.71   10.29
  -1   7   1  199.53   17.60
  -1   7   2    2.76    1.35
  -1   7   2    1.04    0.83
  -1   7   2    1.97    1.41
  -1   7   3  197.07    9.99
  -1   7   3  199.30   10.88
  -1   7   4    9.47    2.44
  -1   7   4    9.18    2.33
  -1   7   5   73.58    6.28
  -1   7   5   72.56    6.60
  -1   7   6   64.87    5.86
  -1   7   6   59.04    5.84
  -1   7   7   19.71    3.29
  -1   7   7   18.93    3.09
  -1   7   8    3.46    1.37
  -1   7   8    1.56    0.97
  -1   7   9    0.47    0.65
  -1   8  -9   89.30    5.54
  -1   8  -8  107.13    6.52
  -1   8  -7   38.81    4.36
  -1   8  -7   38.86    4.09
  -1   8  -6   84.79    6.81
  -1   8  -6   72.96    5.73
  -1   8  -5   21.49    3.67
  -1   8  -4  183.46   10.50
  -1   8  -3    6.91    2.21
  -1   8  -2  269.40   12.92
  -1   8  -2  263.67   11.58
  -1   8  -1   34.48    4.23
  -1   8  -1   40.00    5.03
  -1   8   0   35.40    4.30
  -1   8   0   34.79    4.60
  -1   8   0   37.71    4.73
  -1   8   1    2.10    1.52
  -1   8   1    3.01    1.43
  -1   8   1    0.91    0.99
  -1   8   2  247.19   11.28
  -1   8   2  247.12   11.58
  -1   8   3   32.16    4.08
  -1   8   3   38.62    4.76
  -1   8   4   47.06    4.82
  -1   8   4   46.49    5.08
  -1   8   5   24.91    3.44
  -1   8   5   22.63    3.46
  -1   8   6    3.06    1.35
  -1   8   6    1.91    1.19
  -1   8   7   27.95    3.26
  -1   8   7   36.64    3.73
  -1   8   8   31.03    3.12
  -1   9  -7   11.03    1.98
  -1   9  -6   24.00    3.22
  -1   9  -5   -0.02    0.69
  -1   9  -4    4.81    1.78
  -1   9  -3  115.54    7.82
  -1   9  -2   16.18    2.94
  -1   9  -1   51.11    5.27
  -1   9   0   -0.36    0.93
  -1   9   0   -1.03    1.05
  -1   9   1   40.88    4.43
  -1   9   1   38.72    4.42
  -1   9   2    4.45    1.62
  -1   9   2    4.08    1.41
  -1   9   2    3.44    1.39
  -1   9   3   83.79    6.04
  -1   9   3   81.70    6.19
  -1   9   4    0.71    0.69
  -1   9   4    1.23    0.81
  -1   9   5   73.72    5.26
  -1   9   5   85.63    5.54
  -1  10  -4   17.38    2.51
  -1  10  -3    8.09    1.80
  -1  10  -2   14.83    2.48
  -1  10  -1   39.11    3.99
  -1  10   0   24.26    3.04
   0 -10  -3    2.33    1.15
   0 -10  -2   45.14    4.36
   0 -10  -1   37.16    4.10
   0 -10   0   58.81    5.16
   0 -10   1   32.07    3.84
   0 -10   2   12.18    2.34
   0 -10   3   61.49    4.81
   0 -10   4   43.10    3.79
   0  -9  -4    1.21    1.13
   0  -9   5  111.45    6.73
   0  -8  -8   14.81    2.48
   0  -7  -4   16.79    5.90
   0  -7  -3   36.93    8.13
   0  -7  -2  164.42   16.59
   0  -7  -1   36.65    7.55
   0  -7   0   53.69    8.98
   0  -7   1  450.12   26.06
   0  -7   2  102.51   12.25
   0  -7   3   49.60    8.61
   0  -7   4   44.20    8.54
   0  -6  -6  454.22   29.71
   0  -6  -5  135.45   15.33
   0  -6  -4   78.09   10.82
   0  -6  -3   46.60    8.23
   0  -6  -2   -1.49    2.56
   0  -6  -1   91.24   10.33
   0  -6   0  183.78   14.64
   0  -6   1  234.04   16.12
   0  -6   2  123.78   12.24
   0  -6   2  155.65   13.45
   0  -6   3  175.10   14.31
   0  -6   3  168.00   14.27
   0  -6   4  483.96   24.54
   0  -6   4  543.82   26.41
   0  -6   5  199.04   16.28
   0  -6   5  231.03   18.04
   0  -6   6  179.97   16.46
   0  -6   6  163.87   15.29
   0  -5  -7  332.75   24.65
   0  -5  -6   66.91   10.51
   0  -5  -5   -0.46    1.67
   0  -5  -4  289.35   18.37
   0  -5  -3   12.44    3.84
   0  -5  -2    0.80    1.41
   0  -5  -1   32.73    5.58
   0  -5   0  230.01   13.99
   0  -5   1  304.27   16.11
   0  -5   1  279.84   15.85
   0  -5   2   32.59    5.45
   0  -5   2   34.73    5.49
   0  -5   3  197.91   14.00
   0  -5   3  211.20   14.02
   0  -5   4    1.35    1.41
   0  -5   4    5.33    2.42
   0  -5   5  137.50   12.08
   0  -5   5  145.22   11.64
   0  -5   6  302.85   19.03
   0  -5   6  304.43   18.35
   0  -5   7  107.94   12.05
   0  -5   7  112.71   11.97
   0  -5   8  195.42   17.08
   0  -4  -6  132.72   13.15
   0  -4  -5   57.69    7.93
   0  -4  -4  225.74   14.08
   0  -4  -3   17.79    3.95
   0  -4  -2  130.65    9.39
   0  -4  -1   71.55    6.89
   0  -4   0  617.58   20.04
   0  -4   0  659.25   20.34
   0  -4   1    2.88    1.78
   0  -4   1    9.15    2.52
   0  -4   2  532.27   18.57
   0  -4   2  465.99   14.91
   0  -4   3   21.94    4.17
   0  -4   3   22.31    3.64
   0  -4   4   49.17    6.29
   0  -4   4   42.01    5.20
   0  -4   5    4.19    1.98
   0  -4   5    6.17    2.27
   0  -4   6   33.12    5.59
   0  -4   7  460.86   22.08
   0  -4   8   95.61   11.13
   0  -4   9   10.18    4.02
   0  -3 -13   70.31    4.91
   0  -3 -11  247.55   11.23
   0  -3 -10    3.68    1.47
   0  -3  -9  380.30   13.94
   0  -3  -8   31.47    3.86
   0  -3  -7   88.38    6.09
   0  -3  -6    8.59    3.51
   0  -3  -5  117.64   10.22
   0  -3  -4    1.76    1.76
   0  -3  -3  301.11   13.32
   0  -3  -2   99.52    6.97
   0  -3  -1 1245.17   23.67
   0  -3   0  551.22   15.42
   0  -3   0  474.85   14.73
   0  -3   1   18.62    3.14
   0  -3   1   14.28    2.21
   0  -3   2  912.56   21.58
   0  -3   2  948.77   18.59
   0  -3   3    3.23    1.41
   0  -3   4   14.32    2.76
   0  -3   4   15.81    3.17
   0  -3   5   14.19    2.78
   0  -3   5   16.53    3.41
   0  -3   6  270.35   15.07
   0  -3   6  227.42   12.24
   0  -3   7    8.85    3.22
   0  -3   8    7.96    3.30
   0  -3   9   75.30   10.28
   0  -2 -13   15.48    2.50
   0  -2 -13   16.95    2.53
   0  -2 -12   12.49    2.54
   0  -2 -11  167.59    9.53
   0  -2 -10    0.93    1.02
   0  -2  -9    5.92    1.85
   0  -2  -8  162.93    8.49
   0  -2  -7   95.85    6.10
   0  -2  -5  123.45    9.53
   0  -2  -4 1126.07   25.37
   0  -2  -3  112.02    7.03
   0  -2  -2    0.33    0.82
   0  -2  -1  557.20   12.93
   0  -2   0 3631.52   32.10
   0  -2   0 3735.06   32.63
   0  -2   1   81.72    5.16
   0  -2   1   70.52    3.74
   0  -2   2   21.24    2.63
   0  -2   3   44.39    3.52
   0  -2   4 1725.05   27.22
   0  -2   4 1754.07   26.57
   0  -2   5   52.42    4.52
   0  -2   5   66.99    5.88
   0  -2   5   71.99    6.26
   0  -2   6   24.00    4.07
   0  -2   6   29.55    4.59
   0  -2   7   -0.13    1.20
   0  -2   7    1.73    1.41
   0  -2   8   16.07    4.50
   0  -2   8   11.16    3.44
   0  -2   9   32.63    6.81
   0  -2   9   32.89    6.59
   0  -2  10    5.75    3.28
   0  -2  13   89.60    6.02
   0  -2  14    3.84    1.13
   0  -1 -14    0.62    0.65
   0  -1 -13   12.49    2.42
   0  -1 -13   12.54    2.16
   0  -1 -12   18.75    3.19
   0  -1 -12   15.96    2.75
   0  -1 -11   81.55    6.74
   0  -1 -10    6.87    2.15
   0  -1  -9   39.87    4.46
   0  -1  -8   25.06    3.34
   0  -1  -7   34.67    3.57
   0  -1  -3  625.38   15.21
   0  -1  -2  576.99   11.80
   0  -1  -1   48.58    2.82
   0  -1   0 1319.03   13.50
   0  -1   0 1328.25   10.08
   0  -1   1 2283.96   13.99
   0  -1   2 2173.37   20.38
   0  -1   3   42.98    3.66
   0  -1   3   41.63    3.74
   0  -1   4   55.74    3.82
   0  -1   4   66.56    5.14
   0  -1   4   62.43    5.26
   0  -1   5  331.59   13.37
   0  -1   5  352.14   14.13
   0  -1   6  207.44   11.93
   0  -1   6  206.92   12.07
   0  -1   7  415.56   19.27
   0  -1   7  399.14   18.73
   0  -1   8    1.99    1.43
   0  -1   8    2.49    2.07
   0  -1   9   40.71    7.60
   0  -1   9   34.28    6.75
   0  -1  10  369.43   25.83
   0  -1  10  342.08   22.88
   0  -1  12  285.75   11.79
   0  -1  13  123.83    7.28
   0  -1  14   56.65    4.35
   0   0 -14    0.22    0.50
   0   0 -13   66.88    5.54
   0   0 -13   56.64    4.73
   0   0 -12   28.04    3.89
   0   0 -12   22.77    3.21
   0   0 -11    0.89    0.97
   0   0 -11    1.83    1.07
   0   0 -10  567.37   17.34
   0   0  -9    0.64    1.03
   0   0  -8   42.00    4.26
   0   0  -7    1.85    0.72
   0   0   1  595.83    5.80
   0   0   1  625.77    7.81
   0   0   2   61.10    2.76
   0   0   2   67.11    3.70
   0   0   3   63.76    4.43
   0   0   4  707.32   17.29
   0   0   5  426.52   15.79
   0   0   6  412.53   17.52
   0   0   7    3.77    2.30
   0   0   7    2.09    1.76
   0   0   8   40.58    6.90
   0   0   8   36.00    3.48
   0   0   9    0.55    2.65
   0   0   9   -0.86    1.92
   0   0   9    0.21    0.68
   0   0  10  432.10   28.74
   0   0  10  444.92   26.84
   0   0  11    0.49    0.93
   0   0  12   25.06    3.63
   0   0  13   70.95    5.64
   0   0  14   -0.83    0.87
   0   0  14   -0.20    0.71
   0   1 -14   56.62    4.50
   0   1 -13  100.09    6.21
   0   1 -13  117.33    7.41
   0   1 -12  278.07   11.97
   0   1 -12  253.38   10.71
   0   1 -11   55.73    5.52
   0   1 -11   47.21    4.75
   0   1 -10  447.10   15.17
   0   1 -10  429.94   14.05
   0   1  -9   47.00    4.73
   0   1  -9   37.97    4.10
   0   1  -8    2.67    1.04
   0   1  -8    2.26    1.18
   0   1  -8    3.20    1.26
   0   1  -7  368.95   11.75
   0   1   1   48.80    3.12
   0   1   2  547.63   12.42
   0   1   3  580.63   14.88
   0   1   4  834.79   20.70
   0   1   5  262.56   13.18
   0   1   6  642.44   23.36
   0   1   7   32.59    6.04
   0   1   8   23.27    5.32
   0   1   8   31.34    6.88
   0   1   8   22.08    2.75
   0   1   9   33.96    3.88
   0   1   9   25.77    7.04
   0   1   9   36.66    7.40
   0   1  10    7.66    2.08
   0   1  10    4.08    3.01
   0   1  11   82.81    6.53
   0   1  12   20.55    3.35
   0   1  13   16.63    2.83
   0   1  13   19.14    3.07
   0   1  14    0.98    0.71
   0   2 -14    6.26    1.58
   0   2 -13   95.48    6.47
   0   2 -12   16.75    2.72
   0   2 -12   16.70    3.01
   0   2 -11    5.40    1.87
   0   2 -11    4.10    1.51
   0   2 -10   10.51    2.28
   0   2 -10   12.00    2.58
   0   2 -10   11.19    2.34
   0   2  -9   34.39    3.91
   0   2  -9   33.96    4.07
   0   2  -9   35.45    4.01
   0   2  -8   11.00    1.98
   0   2  -8   11.24    2.24
   0   2  -8    9.24    2.00
   0   2  -7    1.90    0.76
   0   2  -7    0.76    0.69
   0   2  -7    0.54    0.50
   0   2  -3   50.41    4.48
   0   2   1  623.20   13.44
   0   2   2    2.14    1.34
   0   2   3  117.51    8.19
   0   2   4 1095.51   27.34
   0   2   5  132.78   10.65
   0   2   6 1377.59   37.49
   0   2   7   87.71   10.96
   0   2   7   85.73    5.37
   0   2   8  180.75    8.40
   0   2   8  146.97   14.05
   0   2   8  178.09   16.86
   0   2   8  128.65    6.85
   0   2   9    4.75    1.67
   0   2   9    6.08    3.27
   0   2  10    2.45    1.41
   0   2  10   -3.31    2.70
   0   2  11  174.48    9.66
   0   2  11  164.92    9.33
   0   2  12   15.41    2.89
   0   2  12   14.98    2.93
   0   2  13   23.88    3.31
   0   2  14   13.16    2.11
   0   3 -14  175.04    7.46
   0   3 -13  170.85    8.35
   0   3 -12  270.07   10.62
   0   3 -12  315.46   12.25
   0   3 -11    7.18    1.87
   0   3 -11    8.80    2.30
   0   3 -11    8.03    2.01
   0   3 -10  277.65   11.62
   0   3 -10  283.12   11.63
   0   3 -10  299.74   12.33
   0   3  -9   86.96    6.18
   0   3  -9   87.22    6.36
   0   3  -9   86.05    6.46
   0   3  -8   10.91    2.17
   0   3  -8    7.32    1.94
   0   3  -8    7.63    1.92
   0   3  -7   12.06    2.13
   0   3  -7   11.34    2.19
   0   3  -7   11.41    2.12
   0   3  -6  257.76    8.99
   0   3  -6  251.68    9.43
   0   3  -4   14.98    3.10
   0   3  -3    4.33    1.60
   0   3  -2 1079.02   22.09
   0   3  -1   17.11    2.81
   0   3   0  534.88   14.76
   0   3   2   89.66    6.80
   0   3   3  319.90   14.06
   0   3   4   10.58    4.04
   0   3   5  142.08   12.03
   0   3   6    5.88    1.63
   0   3   6    4.42    1.34
   0   3   6    7.58    1.70
   0   3   7  101.96    6.18
   0   3   7  110.17    6.75
   0   3   7   83.09    5.59
   0   3   7  118.39   14.19
   0   3   8   31.08    3.68
   0   3   8   29.20    3.66
   0   3   8   27.72    6.48
   0   3   8   27.12    3.33
   0   3   9  403.93   14.18
   0   3   9  420.85   14.41
   0   3  10    3.38    1.76
   0   3  10    6.93    2.10
   0   3  11  269.91   11.83
   0   3  12   30.03    3.88
   0   3  13   96.89    6.10
   0   4 -13   15.44    2.49
   0   4 -12   92.31    6.06
   0   4 -12  113.71    7.28
   0   4 -11   95.26    6.65
   0   4 -11   99.28    6.65
   0   4 -11   99.63    7.14
   0   4 -10  248.62   11.09
   0   4 -10  228.97   10.40
   0   4 -10  253.72   11.42
   0   4  -9   13.35    2.61
   0   4  -9   11.85    2.63
   0   4  -9   11.29    2.45
   0   4  -8  125.21    7.48
   0   4  -8  124.15    7.48
   0   4  -8  128.83    7.76
   0   4  -7  491.45   13.82
   0   4  -7  503.91   14.30
   0   4  -7  491.59   14.43
   0   4  -6   31.37    3.34
   0   4  -6   31.99    3.51
   0   4  -6   31.39    3.55
   0   4  -5    5.22    1.40
   0   4  -5    3.74    1.10
   0   4  -5    4.07    1.27
   0   4  -5    4.32    1.32
   0   4  -4   46.93    5.94
   0   4  -3   22.37    3.89
   0   4  -2  556.85   18.96
   0   4  -1    4.50    1.72
   0   4   0  695.52   20.24
   0   4   3    6.45    2.60
   0   4   4  216.68   13.85
   0   4   5   34.91    5.87
   0   4   5   42.22    3.82
   0   4   6  119.65   11.88
   0   4   6  124.21    6.90
   0   4   7   14.11    3.86
   0   4   7   43.67    4.32
   0   4   8  441.84   14.30
   0   4   8  393.21   26.55
   0   4   8  435.03   27.48
   0   4   9  142.53    8.50
   0   4  10  129.26    8.08
   0   4  11   28.22    3.74
   0   4  12  147.11    7.81
   0   4  13   -0.41    0.73
   0   5 -12    1.03    0.87
   0   5 -11   51.89    4.86
   0   5 -11   42.55    3.99
   0   5 -11   58.57    5.39
   0   5 -10    3.58    1.63
   0   5 -10    2.63    1.54
   0   5 -10    3.48    1.36
   0   5  -9   25.76    3.63
   0   5  -9   25.03    3.54
   0   5  -9   24.20    3.73
   0   5  -8  300.51   11.84
   0   5  -8  272.23   11.36
   0   5  -8  286.99   12.13
   0   5  -7  134.69    7.79
   0   5  -7  134.00    7.81
   0   5  -7  136.06    8.05
   0   5  -6  327.43   11.31
   0   5  -6  332.20   11.80
   0   5  -6  320.10   11.97
   0   5  -5  135.90    8.10
   0   5  -5  144.15    7.26
   0   5  -5  145.19    7.53
   0   5  -5  142.69    7.66
   0   5  -5  157.49    8.22
   0   5  -4    1.44    1.24
   0   5  -4    2.09    1.15
   0   5  -4    2.24    1.81
   0   5  -4    1.99    1.00
   0   5  -3  208.48    9.49
   0   5  -3  198.74    8.51
   0   5  -3  219.98   13.60
   0   5  -3  183.60    7.66
   0   5  -3  169.26    7.40
   0   5  -3  182.34    7.86
   0   5  -2   27.63    3.23
   0   5  -2   25.12    2.94
   0   5  -2   28.94    3.42
   0   5  -2   30.80    3.23
   0   5  -1  232.77    8.62
   0   5  -1  257.35   10.00
   0   5  -1  249.14    9.37
   0   5   0  237.44   13.90
   0   5   1   33.38    3.57
   0   5   1   33.48    3.37
   0   5   1   35.90    5.46
   0   5   2    0.13    0.47
   0   5   3   12.68    2.22
   0   5   3   12.08    2.13
   0   5   3    9.08    1.92
   0   5   4  252.70    9.77
   0   5   5    1.24    0.87
   0   5   6   59.63    5.14
   0   5   7  398.37   13.61
   0   5   7  390.54   25.97
   0   5   8  286.56   11.84
   0   5   9   47.22    4.89
   0   5  10    4.03    1.74
   0   5  10    4.63    1.59
   0   5  11  140.29    8.39
   0   5  12    3.33    1.23
   0   6 -11   16.31    2.60
   0   6 -10   64.81    5.54
   0   6 -10   61.15    4.94
   0   6  -9   10.81    2.41
   0   6  -9    8.44    2.08
   0   6  -8    5.17    1.80
   0   6  -8    2.56    1.26
   0   6  -7   73.56    6.03
   0   6  -7   72.25    5.87
   0   6  -6  200.58   10.50
   0   6  -6  195.18    9.48
   0   6  -6  180.52    8.96
   0   6  -5  249.72   11.68
   0   6  -5  245.84   10.22
   0   6  -5  230.76    9.72
   0   6  -5  264.60   11.17
   0   6  -4  560.03   25.43
   0   6  -4  497.71   14.18
   0   6  -4  537.62   16.86
   0   6  -4  466.65   13.10
   0   6  -4  542.39   15.17
   0   6  -3  178.50    8.89
   0   6  -3  169.53   13.61
   0   6  -3  168.05    7.94
   0   6  -3  175.40    7.76
   0   6  -3  180.30    9.53
   0   6  -3  170.47    8.22
   0   6  -2  146.74    7.85
   0   6  -2  175.43   13.68
   0   6  -2  111.06    6.22
   0   6  -2  136.51    7.15
   0   6  -2  145.13    8.37
   0   6  -1  252.11   10.40
   0   6  -1  263.29   11.15
   0   6  -1  260.66   10.09
   0   6  -1  225.13    8.98
   0   6   0  200.09    8.81
   0   6   0  205.79    9.85
   0   6   0  210.56    9.51
   0   6   0  197.54   14.50
   0   6   1   95.67    6.51
   0   6   1   85.09    5.78
   0   6   1   73.85    5.32
   0   6   1   88.80    6.50
   0   6   1   85.19    9.79
   0   6   2   -0.09    0.66
   0   6   2    0.76    0.96
   0   6   2   -1.12    1.29
   0   6   2    0.09    0.53
   0   6   2   -0.43    1.12
   0   6   3   42.41    4.45
   0   6   3   36.20    4.25
   0   6   3   54.89    5.25
   0   6   3   44.98    4.37
   0   6   3   44.97    7.46
   0   6   4   81.04    6.00
   0   6   4   72.61    5.86
   0   6   5  108.14    7.65
   0   6   5  126.89    7.71
   0   6   6  436.33   15.22
   0   6   6  547.76   16.47
   0   6   7   77.45    6.54
   0   6   8    1.34    1.39
   0   6   9   28.35    4.02
   0   6   9    6.44    1.90
   0   6  10    5.51    1.80
   0   6  10    1.68    1.10
   0   6  11   49.06    4.38
   0   7 -11    0.43    0.60
   0   7 -10    1.08    1.04
   0   7  -9   49.44    4.79
   0   7  -9  121.03    6.35
   0   7  -8    2.83    1.51
   0   7  -8   96.74    6.07
   0   7  -7    5.95    1.88
   0   7  -7    5.89    1.98
   0   7  -6   13.07    2.85
   0   7  -6   14.88    2.85
   0   7  -5  541.90   18.00
   0   7  -5  513.00   15.66
   0   7  -5  502.44   13.58
   0   7  -4   53.07    5.67
   0   7  -4   42.13    7.68
   0   7  -4   49.07    4.81
   0   7  -4   49.98    5.06
   0   7  -3   58.84    5.93
   0   7  -3   50.33    8.21
   0   7  -3   56.13    4.92
   0   7  -3   53.17    5.05
   0   7  -2  116.97    8.14
   0   7  -2  116.17    7.60
   0   7  -2   97.24   11.22
   0   7  -2  109.97    6.91
   0   7  -1  500.67   16.17
   0   7  -1  526.82   17.22
   0   7  -1  550.15   16.08
   0   7  -1  494.74   25.55
   0   7  -1  465.91   13.91
   0   7   0   65.54    6.07
   0   7   0   60.40    5.34
   0   7   0   59.52    9.08
   0   7   0   61.27    5.64
   0   7   0   52.49    4.67
   0   7   1   46.70    5.12
   0   7   1   45.99    4.67
   0   7   1   50.35    5.16
   0   7   1   39.57    4.17
   0   7   1   47.63    8.24
   0   7   2  177.37    8.85
   0   7   2  202.04    9.76
   0   7   2  203.79   10.49
   0   7   2  195.25   10.28
   0   7   2  181.75   16.22
   0   7   3   31.04    3.86
   0   7   3   29.28    3.94
   0   7   3   32.90    4.12
   0   7   3   30.83    4.26
   0   7   3   31.24    6.78
   0   7   4   14.87    2.65
   0   7   4   19.78    3.39
   0   7   4   17.28    3.05
   0   7   5   64.91    5.80
   0   7   5   78.80    6.78
   0   7   5   77.99    6.44
   0   7   6   31.19    4.00
   0   7   6   48.57    5.33
   0   7   6   45.39    4.91
   0   7   7    1.86    1.05
   0   7   7    3.00    1.37
   0   7   7    3.65    1.58
   0   7   8    8.71    2.20
   0   7   9   18.51    2.89
   0   7  10  145.26    7.29
   0   8 -10   13.07    1.99
   0   8  -9    2.06    1.09
   0   8  -8    9.47    2.13
   0   8  -7   20.96    3.17
   0   8  -7   17.46    2.87
   0   8  -6  237.18   11.34
   0   8  -6  246.54   10.75
   0   8  -5   34.69    4.49
   0   8  -5   31.01    3.82
   0   8  -4  179.49   10.42
   0   8  -4  157.03    8.41
   0   8  -4  154.75    8.68
   0   8  -3  133.21    9.10
   0   8  -3  112.32    7.27
   0   8  -2  107.00    8.08
   0   8  -2  101.29    7.31
   0   8  -2   86.68    6.32
   0   8  -1  143.71    9.36
   0   8  -1  141.32    8.72
   0   8   0    7.26    2.09
   0   8   0    4.24    1.98
   0   8   1  601.73   18.86
   0   8   1  626.62   17.95
   0   8   1  597.36   18.51
   0   8   2  359.70   14.33
   0   8   2  364.36   13.73
   0   8   2  333.62   13.77
   0   8   3    3.86    1.63
   0   8   3    3.61    1.46
   0   8   3    3.61    1.71
   0   8   4   97.41    7.17
   0   8   4   95.70    7.31
   0   8   5   19.92    3.22
   0   8   5   21.63    3.47
   0   8   6  188.58    9.62
   0   8   6  206.55    9.99
   0   8   7  106.54    6.91
   0   8   8   34.29    3.67
   0   8   9  108.86    5.94
   0   9  -8  135.15    6.23
   0   9  -7    7.77    1.64
   0   9  -6  184.95    8.26
   0   9  -6  213.50    9.70
   0   9  -5  161.89    8.97
   0   9  -4   47.96    5.12
   0   9  -3  123.29    8.29
   0   9  -2   48.19    5.30
   0   9  -1  222.51   11.28
   0   9  -1  224.80   10.56
   0   9   0  253.70   11.35
   0   9   0  238.67   11.66
   0   9   1   45.39    4.79
   0   9   1   37.72    4.71
   0   9   2    0.32    0.94
   0   9   2   -0.57    1.09
   0   9   3    1.60    1.22
   0   9   3    0.68    0.77
   0   9   4    2.03    1.14
   0   9   5   31.09    3.71
   0   9   6  218.58    9.22
   0   9   7  132.32    6.64
   0  10  -5    3.52    1.18
   0  10  -4   68.20    5.20
   0  10  -3   74.08    5.67
   0  10  -2   13.47    2.52
   0  10  -1   28.81    3.67
   0  10   0   61.19    5.33
   0  10   1   40.93    4.04
   0  10   1   34.25    3.90
   0  10   2   50.72    4.43
   0  10   3    1.50    0.97
   0  10   4    1.74    0.85
   1  -9  -4    2.23    1.04
   1  -7  -1  200.55   18.61
   1  -7   0   58.49   10.07
   1  -7   1   95.87   12.91
   1  -7   2   85.24   11.91
   1  -7   3  129.24   14.87
   1  -6  -5   29.43    7.93
   1  -6  -4  423.66   14.35
   1  -6  -4  458.77   28.41
   1  -6  -3   16.51    5.02
   1  -6  -2   61.44    9.73
   1  -6  -1  179.72   15.65
   1  -6   0   93.72   11.07
   1  -6   1   51.47    8.32
   1  -6   2  172.36   15.15
   1  -6   3   35.16    6.96
   1  -6   4 1184.43   39.95
   1  -6   5   -1.14    1.87
   1  -6   6  967.93   38.78
   1  -5  -6 1165.13   46.68
   1  -5  -5   19.38    5.69
   1  -5  -5   15.88    2.90
   1  -5  -4   58.57    5.10
   1  -5  -4   43.31    7.92
   1  -5  -3   61.97    9.04
   1  -5  -3   56.65    4.94
   1  -5  -2   20.92    5.11
   1  -5  -2   14.67    2.44
   1  -5  -1    9.15    3.23
   1  -5   0    2.79    1.70
   1  -5   1  236.94   15.38
   1  -5   2    4.79    2.47
   1  -5   3  569.25   24.01
   1  -5   4  145.40   12.41
   1  -5   4  131.59   11.47
   1  -5   5  154.55   13.31
   1  -5   5  149.01   12.53
   1  -5   6  108.62   11.81
   1  -5   7  748.30   32.18
   1  -5   8   22.14    5.82
   1  -4 -10  309.50   12.48
   1  -4  -9  303.25   12.76
   1  -4  -8   15.84    2.98
   1  -4  -6    4.63    1.82
   1  -4  -6    1.56    1.93
   1  -4  -5  414.45   23.91
   1  -4  -5  387.20   13.00
   1  -4  -4  193.19   14.73
   1  -4  -4  181.13    8.49
   1  -4  -3   93.65    9.56
   1  -4  -2   23.37    4.61
   1  -4  -1  139.52   10.46
   1  -4   0  157.90   10.83
   1  -4   1   85.89    7.83
   1  -4   2  772.26   23.94
   1  -4   3   19.80    3.86
   1  -4   3   17.20    3.64
   1  -4   4   11.56    3.27
   1  -4   4   11.95    3.08
   1  -4   4    7.78    2.24
   1  -4   5   59.17    6.41
   1  -4   5   61.73    7.05
   1  -4   6   55.49    7.92
   1  -4   6   77.95    8.20
   1  -4   7   11.04    3.38
   1  -4   8   14.01    4.12
   1  -4   9  145.77   14.26
   1  -3 -12   26.93    3.34
   1  -3 -11  326.57   12.90
   1  -3 -10  308.95   12.98
   1  -3  -9   27.91    3.96
   1  -3  -8  555.25   16.68
   1  -3  -6  624.19   16.40
   1  -3  -5    3.18    1.19
   1  -3  -5    4.52    2.43
   1  -3  -4  544.17   22.29
   1  -3  -3  534.15   19.84
   1  -3  -2  127.44    9.31
   1  -3  -1   60.64    5.95
   1  -3   0  532.61   17.10
   1  -3   1  268.11   11.80
   1  -3   2  365.52   13.97
   1  -3   2  354.99   13.14
   1  -3   3    6.01    1.85
   1  -3   3    5.45    1.68
   1  -3   4  349.97   13.68
   1  -3   5  774.80   22.04
   1  -3   6  137.40    9.76
   1  -3   6  141.76   10.99
   1  -3   7  156.70   12.09
   1  -3   8   -0.29    1.05
   1  -3   9   37.11    6.98
   1  -3  10    0.42    0.98
   1  -2 -13    0.19    0.59
   1  -2 -12   38.69    4.36
   1  -2 -11   94.33    7.18
   1  -2 -10   25.21    3.95
   1  -2  -9  587.54   17.75
   1  -2  -8  631.12   17.35
   1  -2  -6  121.68    6.76
   1  -2  -5 1281.02   34.59
   1  -2  -4  230.04   11.07
   1  -2  -4  294.79   15.03
   1  -2  -3  278.99   13.18
   1  -2  -2   54.44    5.33
   1  -2  -1    1.48    1.47
   1  -2   0  183.57    8.33
   1  -2   1  655.64   15.22
   1  -2   1  398.13    6.28
   1  -2   2   13.55    2.45
   1  -2   2   20.99    2.57
   1  -2   3   11.11    1.95
   1  -2   3    5.80    0.86
   1  -2   4  320.39   10.98
   1  -2   4  243.95    7.80
   1  -2   5  408.63   13.79
   1  -2   5  342.03   11.49
   1  -2   6  410.52   16.22
   1  -2   6  413.08   17.96
   1  -2   6  379.74   14.25
   1  -2   7   19.56    3.71
   1  -2   7   24.90    4.61
   1  -2   8   11.07    3.45
   1  -2   9    0.71    1.47
   1  -2  10   50.73    8.79
   1  -1 -13   14.62    2.50
   1  -1 -12    2.04    0.99
   1  -1 -11    4.90    1.96
   1  -1 -10  162.41    9.58
   1  -1  -9   29.48    3.96
   1  -1  -8   -0.11    0.75
   1  -1  -7  405.30   13.42
   1  -1  -7  428.47   13.20
   1  -1  -6  129.73    7.20
   1  -1  -4  365.99   10.62
   1  -1  -3  420.25   14.94
   1  -1  -3  349.04   10.75
   1  -1  -2 1256.97   23.24
   1  -1  -2 1226.07   20.68
   1  -1  -1    5.74    1.73
   1  -1  -1    7.21    1.82
   1  -1   0 1165.69   16.33
   1  -1   1   58.48    3.45
   1  -1   2    2.47    1.20
   1  -1   2    6.50    1.00
   1  -1   3   88.78    5.32
   1  -1   4  562.02   12.90
   1  -1   4  494.31   13.82
   1  -1   5    0.92    0.85
   1  -1   5    1.55    0.72
   1  -1   5    0.78    0.97
   1  -1   6    8.57    2.66
   1  -1   6    8.49    2.28
   1  -1   7   48.98    5.78
   1  -1   7   49.52    6.42
   1  -1   8  182.59   13.50
   1  -1   8  183.09   13.25
   1  -1   9    2.95    1.57
   1  -1   9    7.31    2.99
   1  -1  10    1.75    2.65
   1  -1  12  417.10   13.77
   1  -1  13   19.36    2.85
   1  -1  14   10.27    2.18
   1   0 -13    2.40    1.25
   1   0 -12   15.33    2.89
   1   0 -11   18.77    3.40
   1   0 -10   27.50    4.09
   1   0  -9  150.94    8.81
   1   0  -8  201.19    9.58
   1   0  -7    2.94    1.44
   1   0  -7    5.15    1.51
   1   0  -2  790.16   13.06
   1   0  -1 1181.30   16.06
   1   0  -1 1349.97   18.97
   1   0   0  628.41   11.54
   1   0   0  539.65    9.41
   1   0   1  922.71    7.84
   1   0   1  955.04   14.18
   1   0   2 2560.23   25.04
   1   0   2 2821.06   23.77
   1   0   3 1859.02   24.71
   1   0   4    4.55    1.73
   1   0   4    3.43    1.38
   1   0   5   82.11    6.83
   1   0   5   76.77    5.97
   1   0   6  339.44   14.98
   1   0   7  140.56   10.78
   1   0   8    7.00    2.66
   1   0   9   78.01   10.07
   1   0   9   67.79    9.14
   1   0  10  179.00   16.96
   1   0  10  145.61   14.54
   1   0  11  196.12    9.58
   1   0  12  187.02    9.36
   1   0  13   35.78    3.93
   1   0  14   23.91    3.23
   1   1 -14   12.13    1.96
   1   1 -13    5.37    1.64
   1   1 -12    0.98    0.98
   1   1 -11  255.92   11.79
   1   1 -10  715.81   19.61
   1   1  -9    2.00    1.35
   1   1  -8   29.50    3.75
   1   1  -8   32.87    4.00
   1   1  -7   30.44    3.74
   1   1  -7   27.75    3.35
   1   1   0  743.62    8.59
   1   1   2  164.58    7.02
   1   1   3  816.56   16.91
   1   1   4  500.78   14.77
   1   1   5  443.01   15.71
   1   1   6  102.41    8.45
   1   1   7  307.48   16.44
   1   1   8  647.11   14.93
   1   1   8  786.99   29.64
   1   1   9   15.62    2.60
   1   1   9   17.60    5.27
   1   1  10    1.26    1.11
   1   1  10   -0.28    2.17
   1   1  10   -0.55    2.43
   1   1  11    6.50    2.08
   1   1  12   10.47    2.43
   1   1  13    8.20    1.95
   1   1  13   12.05    2.53
   1   1  14  132.88    7.30
   1   2 -13   11.00    2.15
   1   2 -12    3.17    1.51
   1   2 -11  115.22    7.91
   1   2 -10   79.15    6.51
   1   2  -9   13.11    2.72
   1   2  -8    9.04    2.25
   1   2  -8    9.41    1.97
   1   2  -8   10.46    2.39
   1   2  -7    9.44    2.28
   1   2  -7    7.41    1.62
   1   2  -7   13.52    2.49
   1   2  -6   60.86    4.89
   1   2  -6   62.35    4.84
   1   2  -1  324.26    9.17
   1   2   0  934.95   14.76
   1   2   1  945.41   12.51
   1   2   2 2388.60   25.16
   1   2   3 3524.79   36.03
   1   2   4    7.66    2.11
   1   2   5  421.34   16.53
   1   2   6  463.55   19.39
   1   2   7  689.70   14.83
   1   2   7 1033.28   32.02
   1   2   8    0.67    0.86
   1   2   8   -1.55    1.78
   1   2   9  211.04    9.36
   1   2   9  249.71   19.71
   1   2  10  376.48   13.20
   1   2  10  370.66   27.05
   1   2  11   11.30    2.74
   1   2  11    9.09    2.27
   1   2  12    1.11    1.06
   1   2  12   -0.01    1.27
   1   2  13  280.58   11.44
   1   2  14    1.70    0.92
   1   3 -13    3.07    1.12
   1   3 -12   93.25    6.50
   1   3 -11   46.07    4.94
   1   3 -10  363.56   12.80
   1   3 -10  409.93   14.67
   1   3  -9   41.72    4.32
   1   3  -9   46.42    4.92
   1   3  -8    2.20    1.35
   1   3  -8    0.76    0.89
   1   3  -8    0.95    0.94
   1   3  -7   24.84    3.44
   1   3  -7   24.35    2.98
   1   3  -7   22.23    3.15
   1   3  -6    4.54    1.57
   1   3  -6    5.76    1.36
   1   3  -6    5.18    1.53
   1   3  -2  258.02   10.87
   1   3  -1    6.30    1.67
   1   3   0 1802.32   26.09
   1   3   1 3371.24   29.02
   1   3   2  871.74   19.10
   1   3   3  119.67    7.95
   1   3   4 2028.91   36.70
   1   3   5  509.83   20.40
   1   3   6  335.21   10.42
   1   3   6  426.24   20.66
   1   3   7   61.79    4.95
   1   3   7   59.52    4.72
   1   3   8  246.60   10.19
   1   3   8  247.09   10.10
   1   3   9  139.08    7.99
   1   3   9  163.88    8.83
   1   3   9  188.23   20.33
   1   3  10   43.38    4.82
   1   3  11   24.39    3.65
   1   3  12  100.38    7.15
   1   3  13   64.42    5.04
   1   3  13   74.43    5.78
   1   3  14  221.13    8.63
   1   4 -13    1.19    0.79
   1   4 -12   13.55    2.43
   1   4 -11  201.19    9.19
   1   4 -11  245.12   10.83
   1   4 -10   95.81    6.71
   1   4 -10   94.23    7.05
   1   4  -9  530.37   15.51
   1   4  -9  536.98   16.53
   1   4  -8    2.31    1.11
   1   4  -8    3.17    1.65
   1   4  -7   14.03    2.62
   1   4  -7   12.28    2.24
   1   4  -7   14.68    2.70
   1   4  -6    0.94    0.72
   1   4  -6    1.66    0.96
   1   4  -6    2.61    1.22
   1   4  -6    2.31    0.96
   1   4  -5   11.17    1.99
   1   4  -5    7.45    1.69
   1   4  -5   12.83    2.37
   1   4  -4  145.95    6.64
   1   4  -4  143.54    6.83
   1   4  -3   27.03    4.42
   1   4  -2  151.24    9.44
   1   4  -1  854.19   22.64
   1   4   0   43.42    5.04
   1   4   1 2369.75   36.19
   1   4   2  231.39   10.45
   1   4   3 1036.44   25.07
   1   4   4  645.52   22.90
   1   4   5   11.31    1.92
   1   4   5   50.58    8.30
   1   4   6  260.63    9.72
   1   4   6  226.72    8.79
   1   4   7  212.58   18.37
   1   4   7  113.02    6.78
   1   4   8   64.07    5.43
   1   4   8  143.43   17.86
   1   4   9  107.34    7.31
   1   4   9  114.43   15.61
   1   4  10    5.04    1.95
   1   4  10    4.71    1.56
   1   4  11    7.88    2.10
   1   4  11    5.72    1.56
   1   4  12    2.97    1.23
   1   4  13   19.29    2.79
   1   4  13   93.66    6.04
   1   5 -12   40.87    3.50
   1   5 -12   59.46    4.73
   1   5 -11   22.20    3.00
   1   5 -11   21.65    3.14
   1   5 -10  302.80   11.79
   1   5 -10  292.51   11.96
   1   5  -9  111.87    7.33
   1   5  -9  110.16    7.51
   1   5  -8    4.45    1.62
   1   5  -8    5.27    1.86
   1   5  -7  208.03    9.48
   1   5  -7  198.01    9.64
   1   5  -6  169.02    7.97
   1   5  -6  171.13    8.56
   1   5  -5   11.83    2.39
   1   5  -5   10.10    2.27
   1   5  -5   10.60    1.99
   1   5  -5    3.55    1.50
   1   5  -5    9.23    1.98
   1   5  -4  788.54   16.48
   1   5  -4  792.28   17.29
   1   5  -3  218.68    9.76
   1   5  -3  229.25    8.67
   1   5  -3  229.17    8.80
   1   5  -2  197.84    9.03
   1   5  -2  203.60    8.29
   1   5  -2  201.27    7.90
   1   5  -1  250.32   14.28
   1   5   0   30.13    4.89
   1   5   1  266.52   14.17
   1   5   2  106.50    5.83
   1   5   2  123.76    9.84
   1   5   3   14.70    2.41
   1   5   3   10.38    2.01
   1   5   4   15.26    2.42
   1   5   4   13.59    2.39
   1   5   5   48.63    4.44
   1   5   5   34.31    4.73
   1   5   6  110.08    6.91
   1   5   6   84.19    9.54
   1   5   6   94.66    6.33
   1   5   7  256.60   10.79
   1   5   7  216.35   17.97
   1   5   8    1.82    8.41
   1   5   8   38.27    4.38
   1   5   9  103.62    7.44
   1   5   9   89.79    6.93
   1   5  10  125.21    8.24
   1   5  10  139.29    8.56
   1   5  11   52.26    5.17
   1   5  11   72.30    5.95
   1   5  12   35.73    3.90
   1   6 -11   31.88    3.46
   1   6 -10   33.49    3.82
   1   6  -9   70.63    5.82
   1   6  -8  117.00    7.59
   1   6  -8   96.37    6.91
   1   6  -7  347.91   12.65
   1   6  -7  309.50   12.32
   1   6  -6    2.31    1.23
   1   6  -6   11.89    2.80
   1   6  -5  301.36   12.48
   1   6  -5  298.34   10.98
   1   6  -5  335.03   12.63
   1   6  -4   13.37    2.77
   1   6  -4   15.21    2.44
   1   6  -4   15.24    2.70
   1   6  -3  945.38   21.74
   1   6  -3  934.44   31.64
   1   6  -3  889.90   18.42
   1   6  -3  967.25   19.74
   1   6  -2  103.08    7.07
   1   6  -2   93.38    6.36
   1   6  -2  103.10   10.21
   1   6  -2   97.66    6.00
   1   6  -2  100.38    6.15
   1   6  -1   87.03    6.37
   1   6  -1   92.83    5.96
   1   6  -1   87.98    9.45
   1   6  -1   73.08    5.10
   1   6  -1   84.86    5.59
   1   6   0   37.82    4.16
   1   6   0   39.66    3.91
   1   6   0   37.41    3.98
   1   6   0   45.16    6.76
   1   6   0   28.40    3.14
   1   6   0   41.19    3.97
   1   6   1   91.04    5.93
   1   6   1   95.99    6.58
   1   6   1   86.30    6.10
   1   6   1   95.83    5.99
   1   6   1   95.76   10.03
   1   6   2  195.58    9.42
   1   6   2  211.92    9.45
   1   6   2  199.43    9.23
   1   6   2  208.10    8.98
   1   6   2  203.26   14.59
   1   6   3  137.48    7.74
   1   6   3  120.80    7.15
   1   6   3  111.53    7.05
   1   6   3  121.88   11.70
   1   6   3  121.04    7.38
   1   6   4    9.82    2.24
   1   6   4   12.31    2.36
   1   6   4    8.60    2.07
   1   6   4   10.03    2.41
   1   6   5  121.21    7.86
   1   6   5  116.40    7.38
   1   6   6   60.75    5.54
   1   6   7  404.70   14.41
   1   6   8  116.26    7.90
   1   6   9   27.05    3.88
   1   6  10   54.19    5.19
   1   6  11    0.86    0.76
   1   6  11    0.72    1.15
   1   6  12    5.78    1.44
   1   6  12    0.91    0.61
   1   7 -11   24.24    2.65
   1   7 -10   34.72    3.66
   1   7  -9   13.57    2.48
   1   7  -8  153.13    8.35
   1   7  -7   -0.14    0.92
   1   7  -6  175.14    9.07
   1   7  -6  172.08    9.65
   1   7  -5   98.95    7.54
   1   7  -5  100.35    6.82
   1   7  -5  110.36    7.61
   1   7  -4    7.45    2.09
   1   7  -4    7.74    2.24
   1   7  -4    7.22    1.84
   1   7  -3   15.91    3.18
   1   7  -3   14.81    2.59
   1   7  -3   11.87    3.86
   1   7  -3   18.78    3.08
   1   7  -2   25.49    3.83
   1   7  -2   25.73    3.63
   1   7  -2   25.73    3.30
   1   7  -2   21.56    5.24
   1   7  -2   25.74    3.49
   1   7  -1   28.45    3.97
   1   7  -1   29.42    3.85
   1   7  -1   27.76    5.97
   1   7  -1   24.50    3.16
   1   7  -1   24.30    3.34
   1   7   0    8.44    2.04
   1   7   0    6.60    2.12
   1   7   0    8.80    3.52
   1   7   0    7.58    1.92
   1   7   1   80.84    6.41
   1   7   1   83.87    6.17
   1   7   1   84.37    6.13
   1   7   1   86.95    6.85
   1   7   1   75.67    9.96
   1   7   2  621.03   16.84
   1   7   2  620.66   17.59
   1   7   2  606.01   16.64
   1   7   2  617.58   17.97
   1   7   2  590.31   28.26
   1   7   3   28.46    3.87
   1   7   3   28.22    3.72
   1   7   3   29.86    3.79
   1   7   3   23.90    5.84
   1   7   3   25.70    3.77
   1   7   4  220.07   10.69
   1   7   4  212.64   10.27
   1   7   4  214.06   10.58
   1   7   4  186.00   16.66
   1   7   4  192.13   10.04
   1   7   5   25.85    4.01
   1   7   5   27.60    3.91
   1   7   6   10.42    2.91
   1   7   6   13.47    2.86
   1   7   7   84.75    7.13
   1   7   7  107.30    7.58
   1   7   8    1.20    0.98
   1   7   8    0.15    0.87
   1   7   9   30.28    4.10
   1   7   9   49.83    4.90
   1   7  10    0.59    0.61
   1   7  10   -0.20    0.71
   1   7  11    1.47    0.80
   1   8 -10    1.31    0.74
   1   8  -9   29.60    3.26
   1   8  -8   50.42    4.58
   1   8  -7  110.37    6.90
   1   8  -6   39.34    4.32
   1   8  -6   35.10    4.29
   1   8  -5    4.13    1.74
   1   8  -5    4.19    1.51
   1   8  -4  205.78   11.09
   1   8  -4  206.46    9.71
   1   8  -4  214.86   10.53
   1   8  -3  454.60   16.59
   1   8  -3  414.13   14.35
   1   8  -2   53.81    5.79
   1   8  -2   44.84    4.36
   1   8  -2   52.94    5.06
   1   8  -1  216.83   11.44
   1   8  -1  209.87   10.63
   1   8  -1  218.64   10.11
   1   8   0   21.52    3.44
   1   8   0   20.77    3.83
   1   8   0   18.10    2.91
   1   8   1   39.97    4.59
   1   8   1   34.61    4.14
   1   8   1   40.25    5.08
   1   8   2    3.61    1.69
   1   8   2    3.64    1.73
   1   8   2    4.09    1.67
   1   8   3  223.87   11.18
   1   8   3  249.53   11.56
   1   8   3  247.12   11.00
   1   8   3  229.89   11.52
   1   8   4   64.68    5.90
   1   8   4   68.18    5.99
   1   8   4   67.61    5.93
   1   8   4   65.58    5.97
   1   8   5   46.23    4.90
   1   8   5   51.39    5.26
   1   8   6   25.64    3.65
   1   8   6   24.39    3.47
   1   8   7  186.64    9.37
   1   8   7  208.34   10.03
   1   8   8    6.09    1.63
   1   8   8    5.53    1.57
   1   8   9  103.31    6.26
   1   8   9   29.45    3.17
   1   9  -8   30.66    3.08
   1   9  -7   12.23    2.09
   1   9  -6    2.21    1.08
   1   9  -6    3.87    1.49
   1   9  -5   39.85    4.07
   1   9  -5   39.53    4.47
   1   9  -4    7.24    2.24
   1   9  -4    5.05    1.61
   1   9  -3   43.27    4.61
   1   9  -3   48.91    5.32
   1   9  -2  187.82   10.47
   1   9  -2  169.79    8.94
   1   9  -1   16.97    3.41
   1   9  -1   16.18    2.82
   1   9   0    8.01    2.06
   1   9   0    9.09    2.49
   1   9   0    8.33    2.09
   1   9   1    0.98    1.25
   1   9   1    0.99    1.09
   1   9   1    0.04    0.70
   1   9   2  170.59    9.39
   1   9   2  168.24    9.90
   1   9   2  155.99    8.36
   1   9   3   15.82    2.91
   1   9   3   12.32    2.41
   1   9   4    9.45    2.25
   1   9   4    9.29    2.04
   1   9   5    1.86    1.11
   1   9   5    0.26    0.47
   1   9   6   40.49    4.24
   1   9   6   30.24    3.38
   1   9   7    5.04    1.58
   1   9   8  328.61   10.38
   1  10  -3    1.61    0.89
   1  10  -2   13.67    2.36
   1  10  -2   24.23    3.55
   1  10  -1    9.02    2.20
   1  10  -1    5.97    1.55
   1  10   0   47.77    4.17
   1  10   0   71.62    5.99
   1  10   1  106.42    6.78
   1  10   2    1.42    0.91
   1  10   3  129.99    7.37
   1  10   4   -0.24    0.65
   1  10   5   11.63    2.06
   2  -6  -5  164.48    9.40
   2  -6  -4   57.72    5.51
   2  -6  -3   11.38    2.51
   2  -6  -3    2.05    2.43
   2  -6  -2   14.98    2.83
   2  -6  -2   10.92    4.83
   2  -6  -2   18.68    6.28
   2  -6  -1    1.94    1.25
   2  -6  -1   -1.88    2.43
   2  -6   0   -2.34    2.53
   2  -6   0   -0.12    2.64
   2  -6   1  100.24   12.80
   2  -6   1  156.64   16.85
   2  -6   2  226.08   18.41
   2  -6   2  218.52   20.29
   2  -6   3    9.91    4.07
   2  -6   3   15.78    5.07
   2  -6   4    3.24    2.06
   2  -6   4    5.51    3.54
   2  -6   5  677.50   32.85
   2  -6   5  758.43   37.28
   2  -5  -9    5.09    1.62
   2  -5  -8   22.55    3.48
   2  -5  -6  118.62    8.08
   2  -5  -5   55.61    5.42
   2  -5  -5   38.89    9.46
   2  -5  -4  131.98   15.86
   2  -5  -4  171.08    9.42
   2  -5  -3   54.56    9.70
   2  -5  -3   62.31    5.61
   2  -5  -3   63.48   10.27
   2  -5  -2  117.32    7.53
   2  -5  -2  108.44   12.50
   2  -5  -2  124.63   14.23
   2  -5  -1    9.19    2.69
   2  -5  -1    8.42    3.67
   2  -5  -1    9.09    4.21
   2  -5   0    5.66    1.78
   2  -5   0    3.46    2.17
   2  -5   0    3.55    2.70
   2  -5   1   13.71    2.78
   2  -5   1   20.71    5.05
   2  -5   1   21.19    5.75
   2  -5   2   12.36    4.05
   2  -5   2    8.15    4.09
   2  -5   3   59.03    8.39
   2  -5   3   69.70   10.33
   2  -5   4  116.98   11.91
   2  -5   4  125.21   13.75
   2  -5   5   21.78    5.31
   2  -5   5   19.64    5.62
   2  -5   7   74.89   10.05
   2  -4 -11   40.08    3.84
   2  -4 -10    3.64    1.51
   2  -4  -9   68.20    5.99
   2  -4  -8  136.56    8.63
   2  -4  -6   19.76    3.33
   2  -4  -5   15.11    2.73
   2  -4  -5    9.48    4.18
   2  -4  -4    0.96    1.07
   2  -4  -4   -0.76    2.66
   2  -4  -4   -0.38    1.38
   2  -4  -3  482.55   25.18
   2  -4  -3  484.55   14.55
   2  -4  -3  443.15   23.77
   2  -4  -2   10.32    2.62
   2  -4  -2    5.81    3.05
   2  -4  -2    7.81    3.36
   2  -4  -1    6.29    1.85
   2  -4  -1    5.11    2.86
   2  -4  -1   10.37    3.95
   2  -4   0   18.85    3.04
   2  -4   0   26.11    4.95
   2  -4   1  298.36   16.33
   2  -4   2  125.05   10.53
   2  -4   2  163.43   13.69
   2  -4   3   24.95    4.78
   2  -4   3   32.75    6.40
   2  -4   4  151.98   11.79
   2  -4   4  153.70   13.56
   2  -4   5  153.56   13.61
   2  -4   5  175.61   13.15
   2  -4   6   90.14    9.69
   2  -4   7    2.64    2.04
   2  -3 -11    2.58    1.23
   2  -3 -10   18.35    3.18
   2  -3  -9    9.75    2.46
   2  -3  -8 1337.85   27.22
   2  -3  -6  184.70    9.84
   2  -3  -6  164.32    8.96
   2  -3  -5   12.66    2.44
   2  -3  -5   12.33    2.33
   2  -3  -5   11.31    4.30
   2  -3  -4  260.58   10.45
   2  -3  -4  243.05   15.51
   2  -3  -4  266.09   18.33
   2  -3  -3  226.46    9.26
   2  -3  -3  230.64   15.98
   2  -3  -3  201.35   14.28
   2  -3  -2    1.95    1.41
   2  -3  -2    4.28    2.43
   2  -3  -1   97.29    8.88
   2  -3  -1  122.04   10.85
   2  -3   0  607.47   20.93
   2  -3   0  711.78   25.36
   2  -3   1  194.47   11.46
   2  -3   1  254.23   15.22
   2  -3   2  101.76    8.12
   2  -3   2  113.75   10.23
   2  -3   3  250.69   12.73
   2  -3   3  279.27   16.02
   2  -3   4 1085.39   27.18
   2  -3   4 1238.26   34.06
   2  -3   5  173.20   12.69
   2  -3   5  173.05   11.12
   2  -3   6   81.04    8.06
   2  -3   6   72.87    8.10
   2  -3   6   69.13    8.15
   2  -3   7  474.51   23.00
   2  -3   8   -3.79    2.42
   2  -3   8   -0.77    1.16
   2  -3   9   33.89    7.05
   2  -2 -12   10.39    2.08
   2  -2 -11   11.01    2.36
   2  -2 -10  319.43   13.42
   2  -2  -9   11.46    2.77
   2  -2  -8  203.93   10.46
   2  -2  -6  225.81   10.02
   2  -2  -6  260.12   11.32
   2  -2  -5 1013.03   20.87
   2  -2  -5 1000.82   19.87
   2  -2  -4   61.19    4.71
   2  -2  -4   63.86    6.95
   2  -2  -4   53.88    7.92
   2  -2  -3 1317.40   30.90
   2  -2  -3 1594.98   37.85
   2  -2  -2  785.20   23.94
   2  -2  -2  734.32   23.36
   2  -2  -1   19.56    3.57
   2  -2  -1   16.04    3.85
   2  -2   0    3.59    1.61
   2  -2   0    5.63    2.45
   2  -2   1   99.57    6.98
   2  -2   1   76.16    7.52
   2  -2   2  160.81    8.62
   2  -2   2  173.43   11.30
   2  -2   3 1448.89   25.31
   2  -2   3 1331.41   30.58
   2  -2   4  174.08   10.98
   2  -2   4  181.59    9.16
   2  -2   5  742.45   22.52
   2  -2   5  708.53   19.30
   2  -2   6   14.80    3.58
   2  -2   6   15.30    3.27
   2  -2   7  254.69   15.97
   2  -2   7  253.61   16.51
   2  -2   8  426.90   21.40
   2  -2   8  456.68   23.07
   2  -2   9  233.67   17.23
   2  -2  10  109.09   12.73
   2  -2  14    0.87    0.52
   2  -1 -12    0.99    0.91
   2  -1 -11   54.29    5.43
   2  -1 -10   33.10    4.41
   2  -1  -9  144.61    8.98
   2  -1  -8  586.32   17.51
   2  -1  -7    1.14    1.16
   2  -1  -7    1.83    1.20
   2  -1  -6  349.81   12.24
   2  -1  -6  359.69   12.23
   2  -1  -5  395.70   12.13
   2  -1  -5  425.22   12.59
   2  -1  -4  710.39   20.20
   2  -1  -3  270.29   12.47
   2  -1  -2   23.96    3.70
   2  -1  -2   29.16    4.56
   2  -1  -1  640.94   18.45
   2  -1  -1  698.78   19.40
   2  -1   0  381.27   14.36
   2  -1   0  365.45   12.45
   2  -1   1  120.84    7.88
   2  -1   1  114.15    6.36
   2  -1   2    2.42    0.91
   2  -1   2    2.94    1.62
   2  -1   3  403.29   10.36
   2  -1   3  437.53   15.33
   2  -1   4  280.74    9.00
   2  -1   4  296.76   12.72
   2  -1   4  273.94   12.36
   2  -1   5    4.70    2.11
   2  -1   5    4.52    1.65
   2  -1   6   74.01    7.54
   2  -1   7   21.08    4.39
   2  -1   7   24.78    5.03
   2  -1   8    2.45    2.32
   2  -1   8    0.69    1.13
   2  -1   9  147.28   13.57
   2  -1  10   50.01    8.67
   2  -1  14   86.03    5.74
   2   0 -13    4.20    1.25
   2   0 -12   16.10    2.77
   2   0 -11    4.55    1.71
   2   0 -10  165.39    9.67
   2   0  -9  107.04    7.67
   2   0  -8  220.89   10.75
   2   0  -8  219.93   10.41
   2   0  -7  323.06   12.62
   2   0  -7  313.91   11.93
   2   0  -7  288.48   11.33
   2   0  -6    3.52    1.46
   2   0  -6    2.42    1.26
   2   0  -6    4.33    1.52
   2   0  -5  201.89    8.72
   2   0  -5  186.30    8.33
   2   0  -2  347.53    8.48
   2   0  -1   93.17    4.81
   2   0  -1  103.70    6.74
   2   0   0 5579.93   40.16
   2   0   0 4840.20   45.86
   2   0   1 9196.38   47.45
   2   0   1 9999.00   64.48
   2   0   2 1586.21   14.41
   2   0   2 1625.86   26.44
   2   0   3 1176.19   23.83
   2   0   3 1215.63   23.67
   2   0   4  200.82    4.45
   2   0   4  353.06   13.81
   2   0   5  210.04   11.74
   2   0   6   74.18    7.66
   2   0   6   62.03    6.96
   2   0   7    4.60    2.43
   2   0   7    3.92    1.99
   2   0   8  331.68   18.45
   2   0   9   92.25   10.57
   2   0  10   71.51   10.39
   2   0  13    3.97    1.75
   2   0  14   38.09    3.94
   2   1 -13  103.79    5.93
   2   1 -12    5.12    1.56
   2   1 -11    5.11    1.85
   2   1 -10   13.10    3.00
   2   1  -9 1142.73   25.00
   2   1  -9 1124.87   24.93
   2   1  -8   44.32    4.84
   2   1  -8   44.42    4.80
   2   1  -7  120.16    7.46
   2   1  -7  120.39    7.35
   2   1  -6  128.74    7.47
   2   1  -6  129.40    7.42
   2   1  -6  114.93    6.94
   2   1  -5   47.20    4.26
   2   1  -5   44.96    4.13
   2   1   0 1498.11   21.98
   2   1   1 3443.14   34.98
   2   1   2 3457.21   37.44
   2   1   3 1145.16   23.62
   2   1   4    0.38    0.94
   2   1   5  119.08    9.22
   2   1   6  199.39   12.24
   2   1   7   27.03    5.01
   2   1   8  277.34   16.95
   2   1   9   18.36    4.82
   2   1  10  116.36   13.66
   2   1  12   22.83    3.60
   2   1  13    0.47    0.98
   2   1  14    3.19    1.27
   2   1  15   11.35    1.88
   2   1  15    9.81    1.76
   2   2 -13    0.44    0.62
   2   2 -12   44.79    4.43
   2   2 -11    0.54    0.94
   2   2 -10    6.66    1.98
   2   2  -9    6.30    2.30
   2   2  -9    5.49    2.02
   2   2  -8    6.95    2.02
   2   2  -8    8.53    2.27
   2   2  -7   25.28    3.62
   2   2  -7   26.23    3.60
   2   2  -6    2.00    1.35
   2   2  -6    0.45    0.98
   2   2  -6    1.82    1.20
   2   2  -5   53.21    4.47
   2   2   1 1507.78   16.12
   2   2   3   34.76    4.09
   2   2   4  572.49   17.57
   2   2   5  268.00   12.96
   2   2   6  121.87    9.80
   2   2   7  489.40   12.93
   2   2   7  540.32   22.25
   2   2   8  289.80   10.73
   2   2   8  304.15   18.90
   2   2   9  436.37   13.94
   2   2   9  431.30   24.65
   2   2  10    0.37    1.14
   2   2  10    0.12    2.39
   2   2  11   79.94    6.58
   2   2  12   35.82    4.42
   2   2  13   38.74    4.36
   2   2  14  110.13    6.59
   2   2  14  115.06    6.76
   2   3 -12   33.32    3.65
   2   3 -11  160.00    8.75
   2   3 -10    0.59    1.15
   2   3  -9  330.56   13.53
   2   3  -9  309.81   12.82
   2   3  -8   55.74    5.44
   2   3  -8   44.72    4.25
   2   3  -8   56.91    5.50
   2   3  -7   17.56    3.09
   2   3  -7   15.65    2.45
   2   3  -7   19.11    3.09
   2   3  -6    3.77    1.57
   2   3  -6    3.24    1.08
   2   3  -6    3.13    1.40
   2   3  -5   26.97    3.34
   2   3  -5   33.86    3.74
   2   3  -5   31.55    3.18
   2   3  -5   28.07    3.33
   2   3  -1  591.65   15.18
   2   3   0   27.98    3.09
   2   3   1   58.22    4.42
   2   3   1   39.33    2.63
   2   3   2  105.35    6.07
   2   3   2   94.24    5.38
   2   3   3  133.43    7.50
   2   3   4  777.01   20.51
   2   3   5   26.16    4.27
   2   3   6   61.10    7.22
   2   3   6   54.94    4.27
   2   3   7   12.73    3.74
   2   3   7    9.78    1.96
   2   3   8   10.36    2.19
   2   3   8   12.83    3.59
   2   3   9   90.77   12.66
   2   3   9   68.75    5.69
   2   3  10   69.23    5.97
   2   3  10   84.40   13.87
   2   3  11   29.03    4.03
   2   3  12  455.66   15.42
   2   3  13   44.66    4.48
   2   3  13   47.44    4.70
   2   3  14  141.55    7.05
   2   3  14  167.78    7.80
   2   4 -12    5.14    1.40
   2   4 -11   22.52    3.19
   2   4 -10   12.16    2.56
   2   4  -9  127.22    7.43
   2   4  -9  166.92    9.23
   2   4  -8    2.52    1.79
   2   4  -8    1.41    1.04
   2   4  -8    0.68    1.04
   2   4  -7   51.56    5.32
   2   4  -7   52.44    4.51
   2   4  -7   53.48    5.03
   2   4  -6  490.68   15.26
   2   4  -6  486.00   13.35
   2   4  -5   58.11    5.00
   2   4  -5   62.79    4.68
   2   4  -5   45.43    4.19
   2   4  -5   58.21    5.06
   2   4  -4    3.96    1.24
   2   4  -4    3.57    1.42
   2   4  -4    4.66    1.26
   2   4  -3    7.02    1.56
   2   4  -3    8.66    1.77
   2   4  -2  205.70   11.24
   2   4  -1  741.37   20.14
   2   4   0    4.84    1.77
   2   4   1   60.18    5.65
   2   4   2  519.31   16.57
   2   4   2  452.74   12.94
   2   4   3  437.83   15.82
   2   4   4  481.68   18.53
   2   4   5  428.79   11.96
   2   4   5  489.21   21.35
   2   4   5  462.36   12.25
   2   4   6   29.48    3.43
   2   4   6   26.97    3.20
   2   4   7  227.10    9.78
   2   4   7  218.70    9.31
   2   4   8    8.61    2.12
   2   4   8   10.15    2.28
   2   4   9  580.22   16.85
   2   4   9  618.48   17.35
   2   4   9  569.33   34.53
   2   4  10    2.69    1.52
   2   4  10    2.75    1.40
   2   4  11   90.44    6.81
   2   4  11   89.16    6.99
   2   4  12   29.35    3.78
   2   4  12   32.20    3.99
   2   4  13   14.33    2.34
   2   4  13   14.52    2.59
   2   5 -11   15.05    2.39
   2   5 -10   13.93    2.39
   2   5 -10   15.37    2.64
   2   5  -9    0.13    0.83
   2   5  -9    1.44    1.18
   2   5  -8    3.05    1.51
   2   5  -8    3.51    1.37
   2   5  -7  498.18   16.01
   2   5  -7  507.93   14.56
   2   5  -7  471.65   14.74
   2   5  -6  154.72    8.52
   2   5  -6  157.06    8.00
   2   5  -5  118.11    6.76
   2   5  -5  123.36    7.60
   2   5  -4   92.87    5.77
   2   5  -4   82.35    5.77
   2   5  -3    0.99    0.86
   2   5  -3    2.43    1.23
   2   5  -3    0.98    0.74
   2   5  -2  166.64    7.78
   2   5  -2  175.41    7.63
   2   5  -2  167.48    7.45
   2   5  -2  157.97    8.27
   2   5  -1  375.36   11.64
   2   5  -1  364.07   11.29
   2   5  -1  390.47   11.03
   2   5  -1  377.18   12.41
   2   5   0   84.66    5.34
   2   5   0   94.65    8.28
   2   5   0   91.01    5.94
   2   5   0   88.40    5.33
   2   5   1  193.78    7.83
   2   5   1  182.41    8.41
   2   5   2   90.03    5.61
   2   5   2  100.20    8.62
   2   5   2   90.80    5.97
   2   5   3  933.01   18.43
   2   5   3  792.38   16.35
   2   5   3  909.82   26.82
   2   5   3  832.46   18.17
   2   5   4  583.68   14.43
   2   5   4  542.30   13.84
   2   5   5  144.88    7.51
   2   5   5  131.57    6.95
   2   5   6    1.47    1.03
   2   5   6    3.46    1.22
   2   5   7    6.23    1.79
   2   5   7    6.03    1.80
   2   5   7    9.21    2.20
   2   5   8  725.57   18.08
   2   5   8  705.35   18.74
   2   5   9   35.27    4.30
   2   5   9   37.65    4.33
   2   5   9   35.14    4.45
   2   5  10    2.95    1.56
   2   5  10    2.32    1.38
   2   5  10    1.64    1.04
   2   5  11  151.70    8.42
   2   5  11  171.40    8.66
   2   6 -11   10.90    1.83
   2   6 -10   13.98    2.37
   2   6  -9  105.90    6.70
   2   6  -8  141.55    7.96
   2   6  -7    2.89    1.36
   2   6  -6  137.45    7.73
   2   6  -5   11.38    2.45
   2   6  -5   11.50    2.31
   2   6  -4    0.94    1.13
   2   6  -4    0.56    0.79
   2   6  -4    0.65    0.73
   2   6  -3   94.48    6.08
   2   6  -3   90.16    6.11
   2   6  -3   98.57    7.20
   2   6  -2  247.49   11.11
   2   6  -2  227.04   15.27
   2   6  -2  242.38    9.58
   2   6  -2  241.82    9.72
   2   6  -1  657.90   16.84
   2   6  -1  646.31   15.89
   2   6  -1  632.44   15.48
   2   6  -1  665.05   15.60
   2   6  -1  636.90   17.56
   2   6   0  189.31    8.65
   2   6   0  185.38    8.49
   2   6   0  207.67   14.02
   2   6   0  188.14    8.41
   2   6   0  189.87    9.40
   2   6   0  186.56    8.45
   2   6   1  339.16   11.34
   2   6   1  348.86   11.67
   2   6   1  370.29   19.10
   2   6   1  335.63   12.36
   2   6   2 1052.65   20.42
   2   6   2 1057.03   20.65
   2   6   2 1059.92   22.20
   2   6   3   41.38    4.26
   2   6   3   39.22    3.98
   2   6   3   44.90    7.01
   2   6   3   39.38    4.37
   2   6   4 1130.63   23.24
   2   6   4 1177.22   22.39
   2   6   4 1094.48   34.69
   2   6   5   50.98    5.14
   2   6   5   48.36    4.69
   2   6   6   91.27    6.28
   2   6   6   95.49    6.74
   2   6   7    1.99    1.36
   2   6   7    0.39    0.90
   2   6   8    9.10    2.34
   2   6   9   -0.27    0.79
   2   6  10   20.92    3.28
   2   6  11    1.10    0.96
   2   6  12   -0.06    0.87
   2   7 -10   58.08    4.31
   2   7  -9   -0.82    0.79
   2   7  -8   95.04    6.47
   2   7  -7  116.65    7.28
   2   7  -6   40.98    4.32
   2   7  -5   87.87    6.24
   2   7  -5   95.25    7.21
   2   7  -5   81.60    6.78
   2   7  -4   48.51    4.76
   2   7  -4   50.01    5.06
   2   7  -4   49.15    5.40
   2   7  -3  320.18   11.94
   2   7  -3  328.69   12.49
   2   7  -3  320.69   13.67
   2   7  -2    3.75    1.37
   2   7  -2    1.53    1.31
   2   7  -2    2.87    1.65
   2   7  -2    2.87    1.25
   2   7  -1  199.67   10.12
   2   7  -1  179.02   14.61
   2   7  -1  202.23    9.25
   2   7  -1  196.20    9.24
   2   7  -1  200.51   10.61
   2   7   0  135.21    8.06
   2   7   0  118.70    7.16
   2   7   0  120.02   11.90
   2   7   0  130.45    7.29
   2   7   0  140.19    8.68
   2   7   0  132.87    7.56
   2   7   1   10.67    2.34
   2   7   1   12.89    2.80
   2   7   1   11.51    2.35
   2   7   1   10.02    2.12
   2   7   1   12.00    2.28
   2   7   1    7.97    3.10
   2   7   2  239.95   10.47
   2   7   2  225.85   10.28
   2   7   2  220.38   11.09
   2   7   3 1120.01   23.08
   2   7   3 1082.77   22.53
   2   7   4    4.60    1.94
   2   7   4    5.13    1.91
   2   7   4    2.15    2.07
   2   7   5  189.76   10.22
   2   7   5  160.35    9.05
   2   7   6   10.05    2.50
   2   7   6    6.25    2.26
   2   7   7   10.15    2.67
   2   7   7    9.35    2.20
   2   7   8  268.46   12.74
   2   7   8  238.29   11.05
   2   7   9    0.11    1.03
   2   7   9   -0.50    0.95
   2   7  10   51.98    5.29
   2   7  10   57.77    4.91
   2   7  11    0.18    0.62
   2   7  11   -3.02    1.06
   2   8  -9  133.33    6.42
   2   8  -8    0.85    0.58
   2   8  -7   37.26    3.93
   2   8  -6   40.31    4.19
   2   8  -5   45.73    4.59
   2   8  -4   13.30    2.84
   2   8  -4   11.89    2.34
   2   8  -4   15.72    3.08
   2   8  -3   15.69    2.74
   2   8  -3   18.20    3.05
   2   8  -3   18.45    3.56
   2   8  -2  437.27   13.93
   2   8  -2  479.68   15.41
   2   8  -2  471.17   17.15
   2   8  -1   87.39    6.25
   2   8  -1   84.41    6.43
   2   8  -1   90.20    7.49
   2   8   0   31.36    4.21
   2   8   0   26.61    3.41
   2   8   0   28.07    4.30
   2   8   0   28.40    3.77
   2   8   1    0.32    1.17
   2   8   1   -0.52    1.10
   2   8   1   -0.11    1.38
   2   8   2  741.53   19.72
   2   8   2  683.94   20.53
   2   8   2  722.53   19.04
   2   8   3  283.00   12.26
   2   8   3  284.08   12.24
   2   8   4   48.71    5.03
   2   8   4   45.35    4.95
   2   8   5   29.75    3.99
   2   8   5   35.88    4.35
   2   8   6  190.44    9.90
   2   8   6  156.62    9.04
   2   8   7   64.09    6.01
   2   8   7   64.53    5.62
   2   8   8   46.61    4.75
   2   8   8   41.70    4.36
   2   8   9   32.77    3.86
   2   8   9   33.38    3.62
   2   8  10   66.47    4.84
   2   9  -7   67.67    4.71
   2   9  -6    7.18    1.75
   2   9  -5   16.61    2.68
   2   9  -4    8.33    1.89
   2   9  -4    9.21    2.15
   2   9  -3    4.25    1.70
   2   9  -3    4.26    1.55
   2   9  -2   49.79    4.51
   2   9  -2   53.83    5.16
   2   9  -2   56.11    5.84
   2   9  -1   92.32    6.66
   2   9  -1   97.00    7.67
   2   9   0   39.19    5.06
   2   9   0   35.72    4.20
   2   9   1  129.34    8.25
   2   9   1  123.27    7.60
   2   9   2  234.02   11.07
   2   9   2  237.13   10.63
   2   9   3    4.64    1.75
   2   9   3    4.97    1.56
   2   9   4   33.67    4.12
   2   9   4   28.77    3.69
   2   9   5   28.92    3.79
   2   9   5   27.82    3.59
   2   9   6   -0.50    0.83
   2   9   6    0.47    0.98
   2   9   7  102.81    6.47
   2   9   7  107.88    6.51
   2   9   8   27.01    3.06
   2   9   8   28.13    3.07
   2  10  -4    6.82    1.44
   2  10  -2   13.67    2.44
   2  10  -1    0.48    0.80
   2  10   0    0.88    0.77
   2  10   1    1.77    1.15
   2  10   2    6.73    1.83
   2  10   2    6.43    1.66
   2  10   3   33.34    3.76
   2  10   3   27.87    3.27
   2  10   4    5.93    1.59
   2  10   4    6.88    1.80
   2  10   5    2.08    0.89
   2  10   5    1.79    1.00
   2  10   6   74.87    4.95
   3  -7  -3    3.04    1.29
   3  -6  -7   11.41    2.27
   3  -6  -5   30.01    3.85
   3  -6  -4   35.11    4.31
   3  -6  -3  121.99    8.12
   3  -6  -2  206.62   10.62
   3  -6  -1  513.35   16.64
   3  -6   0   19.63    3.66
   3  -6   1    8.72    3.27
   3  -6   2   29.34    4.24
   3  -6   3  107.05    8.24
   3  -5  -9   27.73    3.10
   3  -5  -8   35.68    3.98
   3  -5  -6  110.10    7.60
   3  -5  -5  625.91   18.55
   3  -5  -4  131.08    8.56
   3  -5  -3  301.25   13.11
   3  -5  -2    6.88    2.37
   3  -5  -2    0.22    1.91
   3  -5  -2    4.09    3.23
   3  -5  -1   91.29    7.38
   3  -5  -1   76.58   12.21
   3  -5  -1   80.22   12.23
   3  -5   0   15.16    3.80
   3  -5   0    7.06    4.15
   3  -5   0    5.21    3.57
   3  -5   1    7.14    1.67
   3  -5   1   13.08    4.65
   3  -5   1   13.35    4.75
   3  -5   2   54.51    5.80
   3  -5   2   62.03   10.49
   3  -5   2   60.19    9.39
   3  -5   3   49.61    8.47
   3  -5   3   68.46   11.04
   3  -5   4  272.53   21.99
   3  -5   5   39.70    8.13
   3  -4 -10   95.44    5.77
   3  -4  -9   -1.14    0.90
   3  -4  -8   44.35    4.79
   3  -4  -6   59.17    5.70
   3  -4  -5   -1.24    1.56
   3  -4  -4   30.21    4.20
   3  -4  -3    2.03    1.98
   3  -4  -3   -0.03    1.85
   3  -4  -3   -3.56    2.70
   3  -4  -2   70.98    6.37
   3  -4  -2   59.41    9.94
   3  -4  -2   62.10   10.07
   3  -4  -1    1.33    2.01
   3  -4  -1   -2.85    2.60
   3  -4   0    1.76    2.08
   3  -4   0    8.30    3.50
   3  -4   0    4.37    3.12
   3  -4   1   36.47    7.24
   3  -4   1   33.34    4.25
   3  -4   1   33.95    6.44
   3  -4   2   10.24    3.53
   3  -4   2    6.79    3.19
   3  -4   3  566.96   28.58
   3  -4   3  500.19   23.63
   3  -4   4   37.47    7.28
   3  -4   5  152.95   14.96
   3  -4   6    8.03    3.55
   3  -4   6   11.24    4.11
   3  -4   7   18.35    5.54
   3  -4   8   41.62    8.28
   3  -3 -10   13.83    2.51
   3  -3  -9  226.66   10.70
   3  -3  -8   13.83    3.02
   3  -3  -6   43.42    4.91
   3  -3  -6   49.77    5.41
   3  -3  -5  502.34   16.10
   3  -3  -5  501.07   16.48
   3  -3  -4    1.36    1.28
   3  -3  -4   -1.26    1.66
   3  -3  -3  142.30    8.34
   3  -3  -3  166.43   14.81
   3  -3  -3  141.79   14.68
   3  -3  -2  233.64   10.71
   3  -3  -2  223.45   16.89
   3  -3  -2  208.91   17.08
   3  -3  -1   67.58    5.93
   3  -3  -1   77.54    9.81
   3  -3  -1   73.69    9.41
   3  -3   0    3.17    1.75
   3  -3   0    5.99    1.49
   3  -3   0    7.15    3.12
   3  -3   0    7.66    2.95
   3  -3   1  439.28   12.25
   3  -3   1  513.27   21.87
   3  -3   2  218.06   16.00
   3  -3   2  188.48    8.14
   3  -3   2  201.68   13.32
   3  -3   3  324.69   19.52
   3  -3   3  281.15   15.28
   3  -3   4  116.43   11.78
   3  -3   5   -0.69    1.45
   3  -3   6  174.36   14.74
   3  -3   6  184.73   14.92
   3  -3   7   12.10    4.30
   3  -3   8  106.35   12.69
   3  -3   8   98.46   12.57
   3  -3   9    0.70    1.40
   3  -2 -11   20.31    2.89
   3  -2 -10    9.09    2.13
   3  -2  -9    5.44    1.84
   3  -2  -8  227.39   11.38
   3  -2  -7  245.44   11.46
   3  -2  -7  257.93   12.55
   3  -2  -6    2.79    1.30
   3  -2  -6    3.50    1.62
   3  -2  -5    4.72    1.54
   3  -2  -5    8.16    2.26
   3  -2  -4  471.54   14.66
   3  -2  -4  478.64   15.18
   3  -2  -3   75.08    5.72
   3  -2  -3   68.17    8.77
   3  -2  -2    5.12    2.79
   3  -2  -2    1.25    1.85
   3  -2  -1    1.43    1.68
   3  -2  -1    2.30    2.27
   3  -2   0  257.97   15.85
   3  -2   0  288.58   15.55
   3  -2   1   19.24    3.78
   3  -2   1   18.13    4.27
   3  -2   2   24.95    5.01
   3  -2   2   28.14    4.46
   3  -2   3  101.07    9.85
   3  -2   3   82.28    7.07
   3  -2   4    1.42    1.59
   3  -2   5   36.00    6.39
   3  -2   5   34.23    5.91
   3  -2   6 1018.67   33.65
   3  -2   6 1017.81   31.79
   3  -2   7  128.07   12.50
   3  -2   8   20.52    5.97
   3  -2   8   23.14    5.59
   3  -2   9    1.44    2.03
   3  -2   9    8.47    3.72
   3  -1 -11    0.93    0.95
   3  -1 -10    2.76    1.40
   3  -1  -9  343.00   13.83
   3  -1  -8   45.31    5.49
   3  -1  -8   69.82    6.38
   3  -1  -7   46.82    5.37
   3  -1  -7   35.78    4.48
   3  -1  -6   79.68    6.26
   3  -1  -6   92.32    7.10
   3  -1  -6   72.78    6.10
   3  -1  -5   43.32    4.43
   3  -1  -5   44.99    4.82
   3  -1  -5   37.56    4.12
   3  -1  -4    1.58    1.00
   3  -1  -4    1.36    0.95
   3  -1  -3   -2.73    2.38
   3  -1  -2  229.75   14.02
   3  -1  -1  678.65   23.72
   3  -1  -1  662.48   23.76
   3  -1   0   41.80    5.48
   3  -1   0   38.27    5.78
   3  -1   1  869.37   26.48
   3  -1   1  731.93   20.65
   3  -1   2  219.30   10.11
   3  -1   2  179.11   12.42
   3  -1   3   44.61    5.62
   3  -1   3   45.81    6.29
   3  -1   4  293.40   15.29
   3  -1   4  267.42   14.78
   3  -1   5    6.48    2.57
   3  -1   5    6.46    2.54
   3  -1   6   16.85    4.09
   3  -1   7   44.96    7.14
   3  -1   8    3.22    2.14
   3  -1   8    3.80    2.89
   3  -1   9  234.76   18.26
   3  -1   9  225.67   18.39
   3  -1  10   12.88    4.48
   3   0 -12   28.78    3.13
   3   0 -11   17.41    2.95
   3   0 -10    0.16    1.25
   3   0  -9    8.04    2.25
   3   0  -8    2.79    1.71
   3   0  -8    3.18    1.61
   3   0  -7  266.42   12.42
   3   0  -7  255.35   11.64
   3   0  -7  261.83   11.75
   3   0  -6   45.66    4.53
   3   0  -6   56.95    5.52
   3   0  -6   55.40    5.16
   3   0  -5    0.39    1.11
   3   0  -5   -0.19    1.15
   3   0  -5    1.19    1.03
   3   0  -4  781.83   17.48
   3   0  -4  815.23   17.92
   3   0  -1  178.02    9.38
   3   0   0  667.78   19.01
   3   0   1    2.52    1.46
   3   0   2  473.22   17.26
   3   0   3  382.82   16.40
   3   0   4   57.06    6.71
   3   0   5  657.53   23.78
   3   0   6 1183.14   33.23
   3   0   7   11.22    4.17
   3   0   7   18.46    4.78
   3   0   8  265.88   17.97
   3   0   9   57.04    8.99
   3   0  10  582.36   16.42
   3   0  10  548.79   28.97
   3   0  11  286.88   11.85
   3   0  12  178.26    9.31
   3   0  13  125.60    7.37
   3   0  15   22.45    2.62
   3   1 -12    1.76    0.84
   3   1 -11   12.02    2.46
   3   1 -10  111.76    7.77
   3   1  -9  246.68   11.73
   3   1  -9  270.83   12.35
   3   1  -8   25.20    3.83
   3   1  -8   26.17    3.93
   3   1  -7 1121.59   25.30
   3   1  -7 1140.24   24.14
   3   1  -7 1070.65   23.62
   3   1  -6  475.63   15.57
   3   1  -6  478.71   14.98
   3   1  -6  449.42   14.53
   3   1  -5   30.51    3.82
   3   1  -5   29.37    3.60
   3   1  -4  203.64    9.18
   3   1  -4  207.24    9.05
   3   1   0   58.77    5.47
   3   1   1    0.46    1.05
   3   1   2  136.24    9.03
   3   1   3   75.99    7.29
   3   1   4  183.85   11.95
   3   1   5   41.46    6.16
   3   1   6  231.89   15.50
   3   1   7   52.51    7.75
   3   1   8    8.86    1.97
   3   1   8   10.83    3.97
   3   1   9 1088.13   21.79
   3   1   9 1023.99   36.98
   3   1  10   23.40    3.50
   3   1  10   16.88    5.19
   3   1  11   62.38    5.66
   3   1  12  169.79    9.23
   3   1  13    1.73    1.14
   3   1  14   71.14    5.43
   3   1  14   66.03    4.93
   3   1  15    1.45    0.85
   3   2 -12   25.12    2.88
   3   2 -11   59.88    5.09
   3   2 -10  152.98    8.85
   3   2  -9  493.72   16.70
   3   2  -9  517.48   16.90
   3   2  -8   12.29    2.69
   3   2  -8   11.81    2.65
   3   2  -7   96.11    7.46
   3   2  -7   96.76    7.01
   3   2  -7   90.07    6.86
   3   2  -6  164.53    9.24
   3   2  -6  162.60    8.79
   3   2  -6  162.16    8.79
   3   2  -5   85.01    6.30
   3   2  -5   77.93    5.75
   3   2  -5   74.87    5.78
   3   2  -4   26.34    3.36
   3   2  -4   28.87    3.38
   3   2  -4   22.32    2.91
   3   2  -3  348.65   11.28
   3   2   5   57.24    6.86
   3   2   6  353.44   17.81
   3   2   7    8.11    1.70
   3   2   7   11.77    3.46
   3   2   8  308.46   19.22
   3   2   8  364.36   12.16
   3   2   9  466.09   25.77
   3   2   9  465.39   14.47
   3   2  10  310.46   23.22
   3   2  10  362.97   13.43
   3   2  11   43.08    4.86
   3   2  12   36.71    4.38
   3   2  13   11.58    2.49
   3   2  13   12.26    2.54
   3   2  14  159.42    7.70
   3   2  14  156.93    7.89
   3   3 -11  139.89    7.39
   3   3 -10   65.64    5.59
   3   3  -9  136.64    8.61
   3   3  -9  128.48    8.18
   3   3  -8    2.55    1.63
   3   3  -8    3.03    1.40
   3   3  -7  460.68   15.71
   3   3  -7  423.83   15.06
   3   3  -6  312.90   12.86
   3   3  -6  325.80   12.69
   3   3  -6  295.80   12.02
   3   3  -5   11.65    2.42
   3   3  -5   11.56    2.51
   3   3  -5   10.50    1.95
   3   3  -5   10.71    2.21
   3   3  -4  227.21    9.75
   3   3  -4  242.51    8.85
   3   3  -3  708.58   16.51
   3   3  -3  567.36   14.08
   3   3   2   20.58    3.11
   3   3   3  172.25    9.72
   3   3   4   77.75    7.08
   3   3   5  675.58   14.69
   3   3   5  779.25   24.26
   3   3   6   50.49    4.25
   3   3   6   46.26    4.08
   3   3   6   45.83    6.50
   3   3   7    7.29    1.89
   3   3   7    7.66    2.95
   3   3   7    7.26    1.94
   3   3   8   16.33    2.88
   3   3   8   15.08    2.69
   3   3   9  167.41   16.41
   3   3   9  186.59    9.49
   3   3  10  173.71    9.56
   3   3  10  151.07    8.84
   3   3  11   21.40    3.64
   3   3  11   24.91    3.69
   3   3  12   12.90    2.73
   3   3  12   15.98    2.95
   3   3  13  213.05    9.85
   3   3  13  200.18    9.40
   3   3  14   52.81    4.36
   3   4 -11   14.56    2.19
   3   4 -10   33.58    3.76
   3   4  -9   13.34    2.83
   3   4  -9   10.29    2.23
   3   4  -8  278.05   12.39
   3   4  -8  254.01   11.23
   3   4  -7   53.68    5.49
   3   4  -7   47.33    4.35
   3   4  -7   47.63    4.89
   3   4  -6  208.37   10.37
   3   4  -6  197.22    8.90
   3   4  -5   47.56    4.82
   3   4  -5   45.04    4.20
   3   4  -4  359.63   12.60
   3   4  -4  342.11   11.01
   3   4  -4  341.90   12.07
   3   4  -3    1.84    0.91
   3   4  -3    1.63    1.22
   3   4  -3    2.14    1.15
   3   4  -2   79.30    5.28
   3   4  -2   77.17    5.55
   3   4  -2   75.49    5.06
   3   4  -1  325.18   10.36
   3   4  -1  308.12    9.66
   3   4   0   23.47    2.76
   3   4   3   66.00    4.59
   3   4   4  206.23    8.27
   3   4   5  269.26    9.84
   3   4   5  266.49   14.97
   3   4   6   -1.92    3.68
   3   4   6    3.45    1.48
   3   4   7    5.88    1.69
   3   4   7    8.03    2.05
   3   4   8   13.81    2.83
   3   4   8   20.14    6.25
   3   4   8   16.29    3.01
   3   4   9    4.23    1.76
   3   4   9    6.17    2.19
   3   4  10    8.78    2.37
   3   4  10   12.89    2.80
   3   4  11    1.87    1.24
   3   4  11    0.56    1.06
   3   4  12   79.74    6.36
   3   4  12   75.22    6.03
   3   4  13    0.15    1.35
   3   5  -9  117.19    6.64
   3   5  -8   93.43    7.10
   3   5  -8   92.51    6.24
   3   5  -7   17.40    3.17
   3   5  -7   13.44    2.52
   3   5  -6  103.73    7.42
   3   5  -6  108.87    6.88
   3   5  -5  176.33    9.37
   3   5  -5  180.86    8.71
   3   5  -4   76.81    6.03
   3   5  -4   80.22    5.59
   3   5  -4   84.21    6.29
   3   5  -3  480.34   14.44
   3   5  -3  516.46   14.46
   3   5  -2  109.51    6.57
   3   5  -2   91.22    6.10
   3   5  -2  108.82    6.45
   3   5  -1  639.50   15.61
   3   5  -1  653.55   15.12
   3   5   0   14.98    2.43
   3   5   0   17.03    2.49
   3   5   1    6.99    1.71
   3   5   1    2.78    1.26
   3   5   2   67.61    5.06
   3   5   2   48.27    4.21
   3   5   3  290.65   10.76
   3   5   3  233.33    9.35
   3   5   4   47.82    4.53
   3   5   4   41.89    4.03
   3   5   5   42.71    4.55
   3   5   5   35.59    3.98
   3   5   5   33.36    3.61
   3   5   6    0.69    0.78
   3   5   7    7.26    1.97
   3   5   8    6.07    1.92
   3   5   9    9.46    2.39
   3   5  10  191.17    9.88
   3   5  11   64.04    5.57
   3   5  12   72.05    5.57
   3   5  13   57.47    4.36
   3   6  -9   25.17    3.05
   3   6  -8    0.41    0.63
   3   6  -7  205.56    9.97
   3   6  -7  269.63   10.62
   3   6  -6  294.75   11.27
   3   6  -5    1.41    1.04
   3   6  -4   92.19    6.39
   3   6  -4   95.72    6.90
   3   6  -3    0.62    0.89
   3   6  -3   -0.23    0.78
   3   6  -2  394.84   13.22
   3   6  -2  399.52   12.81
   3   6  -2  399.19   13.04
   3   6  -1   97.79    6.51
   3   6  -1   92.24    6.17
   3   6  -1   91.30    6.06
   3   6   0  107.90    6.98
   3   6   0  111.22    7.09
   3   6   0  112.39    6.74
   3   6   1  190.78    9.06
   3   6   1  207.04    9.37
   3   6   1  198.56    9.05
   3   6   2  327.28   11.60
   3   6   2  292.23   11.18
   3   6   3   85.09    6.21
   3   6   3   77.92    5.74
   3   6   4  247.00   10.89
   3   6   4  212.04    9.55
   3   6   5   86.22    6.71
   3   6   5   68.74    5.50
   3   6   6   61.83    5.84
   3   6   6   50.50    4.87
   3   6   7  222.86   10.50
   3   6   7  210.74    9.93
   3   6   8  229.23   10.72
   3   6   8  214.13   10.10
   3   6   9   82.07    7.28
   3   6   9   78.12    6.27
   3   6   9   67.06    5.57
   3   6  10   -0.09    0.84
   3   6  10    0.37    1.11
   3   6  11   35.78    4.36
   3   6  12    0.15    0.70
   3   7  -9   29.65    3.07
   3   7  -8   13.85    2.30
   3   7  -7   86.57    6.00
   3   7  -6   24.93    3.28
   3   7  -5   94.99    6.52
   3   7  -4    0.50    1.23
   3   7  -4    2.45    1.42
   3   7  -3    1.15    1.19
   3   7  -3    1.10    1.32
   3   7  -2    4.43    2.02
   3   7  -2    5.60    1.63
   3   7  -1  100.55    7.03
   3   7  -1  109.46    7.08
   3   7  -1  108.88    7.08
   3   7   0    1.42    1.32
   3   7   0    2.43    1.20
   3   7   0    1.99    1.27
   3   7   1   57.36    5.44
   3   7   1   62.48    5.43
   3   7   1   58.56    5.26
   3   7   1   55.96    5.04
   3   7   2  133.53    8.04
   3   7   2  128.29    7.84
   3   7   2  136.21    8.04
   3   7   3  455.14   14.90
   3   7   3  449.30   14.66
   3   7   3  432.82   14.41
   3   7   4  177.79    9.41
   3   7   4  165.99    9.07
   3   7   5  833.35   21.33
   3   7   5  751.62   19.14
   3   7   6  130.43    8.59
   3   7   6  104.57    7.23
   3   7   7    2.93    1.51
   3   7   7    3.47    1.45
   3   7   8   23.23    3.87
   3   7   9   29.37    4.22
   3   7  10  300.04   12.01
   3   7  11   19.53    2.82
   3   8  -8    0.37    0.56
   3   8  -7   65.65    4.85
   3   8  -6   73.92    5.37
   3   8  -5   33.97    3.76
   3   8  -4   10.97    2.48
   3   8  -4    7.56    1.89
   3   8  -3  390.81   13.39
   3   8  -3  401.65   14.14
   3   8  -2  183.89    9.23
   3   8  -2  203.07   10.05
   3   8  -1   11.74    2.53
   3   8  -1   13.93    2.61
   3   8   0  294.35   11.67
   3   8   0  347.64   12.87
   3   8   1    0.47    0.81
   3   8   1    0.74    1.05
   3   8   1    0.69    0.79
   3   8   1    3.05    1.39
   3   8   2  151.14    8.99
   3   8   2  132.75    8.03
   3   8   2  144.32    8.47
   3   8   3  143.87    8.70
   3   8   3  132.20    8.00
   3   8   3  145.20    8.61
   3   8   4  448.98   15.30
   3   8   4  433.08   15.25
   3   8   5    0.14    1.11
   3   8   5    0.46    0.80
   3   8   6  113.30    7.64
   3   8   6   96.44    6.87
   3   8   7  383.64   13.88
   3   8   7  289.02   11.47
   3   8   8  373.60   13.30
   3   8   9   72.36    5.50
   3   8  10   18.57    2.62
   3   9  -7    0.93    0.64
   3   9  -6   34.65    3.38
   3   9  -5    0.29    0.73
   3   9  -4    0.69    0.76
   3   9  -3    6.74    1.79
   3   9  -3    6.38    1.67
   3   9  -2   28.96    3.45
   3   9  -2   35.43    4.17
   3   9  -1    0.48    0.79
   3   9  -1    0.93    0.96
   3   9   0  176.36    8.50
   3   9   0  206.23   10.03
   3   9   1   11.02    2.43
   3   9   2    3.27    1.33
   3   9   2    2.62    1.20
   3   9   3  116.00    7.59
   3   9   3  134.16    8.07
   3   9   4   60.29    5.45
   3   9   4   65.99    5.59
   3   9   5  230.28   10.27
   3   9   5  274.23   11.29
   3   9   6  188.48    8.89
   3   9   6  247.81   10.39
   3   9   7   65.89    5.15
   3   9   8   44.86    3.97
   3  10  -4    6.10    1.37
   3  10  -3   12.86    2.02
   3  10  -2   -0.38    0.80
   3  10  -2   -0.20    0.32
   3  10  -1   54.70    4.66
   3  10   0    3.01    1.25
   3  10   1    1.64    1.07
   3  10   2    3.05    1.20
   3  10   3   55.41    4.66
   3  10   4  289.58   10.26
   3  10   5    4.26    1.33
   3  10   6  109.70    5.73
   4  -7  -2    2.26    1.18
   4  -7  -1   12.43    2.16
   4  -6  -4   -0.08    0.81
   4  -6  -3   69.01    5.64
   4  -6  -2   13.92    2.65
   4  -6  -1    2.34    1.44
   4  -6   0   64.64    5.86
   4  -6   1   46.64    5.19
   4  -6   2  512.24   17.07
   4  -6   3  111.68    8.14
   4  -6   4   -3.42    2.83
   4  -6   6  537.62   18.15
   4  -5  -7    2.50    1.06
   4  -5  -5   54.22    5.11
   4  -5  -4  131.84    8.26
   4  -5  -3  297.12   12.77
   4  -5  -2   12.87    2.79
   4  -5  -1  365.50   14.46
   4  -5   0  271.44   12.96
   4  -5   1   41.76    7.58
   4  -5   2  193.85   11.32
   4  -5   3   43.30    4.41
   4  -5   4    3.86    3.43
   4  -4  -8    3.29    1.27
   4  -4  -7  159.18    8.58
   4  -4  -6   62.56    5.60
   4  -4  -5  108.53    7.65
   4  -4  -4   11.33    2.45
   4  -4  -3   14.60    3.10
   4  -4  -2  135.14    8.97
   4  -4  -1   17.26    5.80
   4  -4  -1   22.75    6.91
   4  -4   0  368.19   15.78
   4  -4   0  237.59   21.57
   4  -4   1  324.36   14.40
   4  -4   1  322.01   24.30
   4  -4   2  346.43   15.31
   4  -4   2  322.97   24.54
   4  -4   3  255.34   21.71
   4  -4   4    8.61    3.50
   4  -4   4    9.93    4.50
   4  -4   5   10.30    4.34
   4  -4   5   16.46    5.61
   4  -3  -9   18.24    2.70
   4  -3  -8  362.83   12.84
   4  -3  -6   31.52    4.19
   4  -3  -6   31.55    4.35
   4  -3  -5   99.43    7.49
   4  -3  -5  100.45    7.69
   4  -3  -4  195.33   10.57
   4  -3  -4  202.39   10.85
   4  -3  -3   97.92    7.40
   4  -3  -3   84.94    6.99
   4  -3  -2   -3.97    3.42
   4  -3  -2    2.05    2.28
   4  -3  -1  172.02   16.94
   4  -3  -1  196.99   18.55
   4  -3   0  415.02   15.73
   4  -3   0  347.42   24.26
   4  -3   1  118.46    7.87
   4  -3   1  108.86    6.80
   4  -3   2  127.13    7.51
   4  -3   2  137.33   14.61
   4  -3   3  135.56    7.83
   4  -3   3  108.68   12.44
   4  -3   3  110.68   13.55
   4  -3   4  271.11   19.19
   4  -3   4  331.49   22.78
   4  -3   5   46.80    8.61
   4  -3   5   63.09   10.05
   4  -3   6   30.82    7.21
   4  -3   6   27.87    6.94
   4  -3   7   64.87   10.81
   4  -2 -10   88.81    5.54
   4  -2  -9   18.22    2.89
   4  -2  -8   30.21    3.97
   4  -2  -7    6.85    2.13
   4  -2  -6    1.14    1.30
   4  -2  -6    0.55    1.13
   4  -2  -5   22.62    3.49
   4  -2  -5   23.76    4.03
   4  -2  -4  238.51   11.37
   4  -2  -4  242.77   11.84
   4  -2  -3  121.15    8.08
   4  -2  -2  248.18   11.48
   4  -2  -1   72.46    7.63
   4  -2  -1   50.95    8.66
   4  -2   0  348.94   14.17
   4  -2   0  383.33   12.46
   4  -2   0  377.52   22.59
   4  -2   1   20.99    2.90
   4  -2   1   15.78    2.60
   4  -2   1   15.67    4.13
   4  -2   1   17.46    4.99
   4  -2   2   34.39    6.27
   4  -2   2   34.76    3.70
   4  -2   2   37.18    7.11
   4  -2   2   37.08    4.00
   4  -2   3  254.32   17.81
   4  -2   3  266.58   10.16
   4  -2   3  289.20   19.41
   4  -2   4  160.31   14.22
   4  -2   4  164.21    7.93
   4  -2   4  142.05   14.00
   4  -2   5   10.98    4.05
   4  -2   5   18.56    5.38
   4  -2   6   16.39    4.91
   4  -2   7   52.96    9.18
   4  -2   8    3.03    2.37
   4  -1 -10    4.42    1.44
   4  -1  -9   46.97    4.79
   4  -1  -8  159.97    9.25
   4  -1  -7  200.72   11.20
   4  -1  -7  195.70   10.39
   4  -1  -6   25.92    3.66
   4  -1  -6   26.17    4.08
   4  -1  -6   20.65    3.26
   4  -1  -5  351.39   13.48
   4  -1  -5  376.66   15.01
   4  -1  -4    0.37    0.94
   4  -1  -4    1.68    1.70
   4  -1  -4   -0.51    0.76
   4  -1  -3   14.40    3.07
   4  -1  -3    7.36    1.97
   4  -1  -2    7.02    3.09
   4  -1  -2    3.56    1.30
   4  -1  -1   29.35    5.10
   4  -1  -1   22.85    3.17
   4  -1   0  192.87   10.18
   4  -1   0  187.98    8.47
   4  -1   0  193.02    8.91
   4  -1   0  211.45   14.19
   4  -1   0  167.71    8.07
   4  -1   1  301.86   10.82
   4  -1   1  320.75   17.85
   4  -1   1  287.68   10.53
   4  -1   1  316.27   19.33
   4  -1   2   13.05    4.06
   4  -1   2   11.66    2.14
   4  -1   2    9.78    1.85
   4  -1   2   10.31    1.90
   4  -1   2   10.45    3.74
   4  -1   3  169.06   13.64
   4  -1   3  144.67    7.23
   4  -1   3  122.94    6.52
   4  -1   3  155.54   13.52
   4  -1   4  310.52   19.30
   4  -1   4  324.67   11.21
   4  -1   5  172.20   14.62
   4  -1   5  179.04    8.89
   4  -1   6   12.27    4.47
   4  -1   7   22.02    6.06
   4  -1   8   47.70    8.95
   4  -1   8   54.40    9.59
   4  -1   9   21.72    6.20
   4  -1   9   30.66    7.48
   4  -1  12    4.37    1.57
   4  -1  13   10.84    2.13
   4   0 -10   68.49    5.46
   4   0  -9  190.34    9.72
   4   0  -8  111.71    7.66
   4   0  -8  150.10    9.11
   4   0  -7   46.57    5.41
   4   0  -7   34.23    4.59
   4   0  -7   43.49    5.04
   4   0  -6  100.32    7.08
   4   0  -6  115.69    8.45
   4   0  -6  103.63    7.72
   4   0  -5   27.55    3.75
   4   0  -5   27.84    4.20
   4   0  -5   25.81    3.71
   4   0  -4   47.76    4.78
   4   0  -4   44.79    5.01
   4   0  -4   45.97    4.86
   4   0  -3  252.62   10.57
   4   0  -3  258.64   10.68
   4   0  -2    1.43    2.15
   4   0  -2    2.87    1.22
   4   0  -1  239.68   11.04
   4   0  -1  252.81    9.82
   4   0  -1  264.22   10.39
   4   0   0    1.03    0.99
   4   0   0    0.24    0.86
   4   0   0    1.03    0.66
   4   0   1  235.00    9.28
   4   0   1  233.49    9.30
   4   0   1  206.76    8.44
   4   0   1  245.38   14.96
   4   0   2 1239.73   20.88
   4   0   2 1198.42   20.15
   4   0   2 1231.40   33.76
   4   0   3   16.88    2.42
   4   0   3   21.52    2.74
   4   0   3   23.00    4.87
   4   0   4  658.25   16.02
   4   0   4  682.40   26.83
   4   0   5   13.84    2.30
   4   0   5   15.51    4.19
   4   0   6  334.00   10.90
   4   0   6  404.13   22.23
   4   0   7    6.59    1.72
   4   0   7    5.16    3.00
   4   0   8    5.69    3.60
   4   0   8   10.24    4.70
   4   0   9  401.27   25.62
   4   0  12  413.01   14.23
   4   0  13    5.22    1.45
   4   0  14    1.36    0.94
   4   1 -10   53.54    4.79
   4   1  -9   20.40    3.30
   4   1  -8  259.58   11.96
   4   1  -8  308.41   12.98
   4   1  -7   28.13    4.36
   4   1  -7   16.11    3.65
   4   1  -7   20.73    3.37
   4   1  -6   55.65    5.89
   4   1  -6   57.73    5.71
   4   1  -6   52.78    5.47
   4   1  -5   14.17    3.00
   4   1  -5   16.22    2.97
   4   1  -4   -0.89    1.00
   4   1  -4    0.12    1.49
   4   1  -4    2.02    1.25
   4   1  -3  207.19    9.18
   4   1  -3  292.29   11.43
   4   1  -2   22.50    1.82
   4   1  -2   56.04    5.10
   4   1  -1    7.41    1.93
   4   1  -1    6.52    1.78
   4   1   0   65.75    4.89
   4   1   0   71.10    5.14
   4   1   0   69.67    5.09
   4   1   1 1689.88   24.56
   4   1   1 1652.72   24.13
   4   1   1 1681.91   23.92
   4   1   2 1802.31   24.21
   4   1   2 1815.81   24.62
   4   1   2 1742.10   24.22
   4   1   2 1817.82   40.12
   4   1   3 1905.25   25.93
   4   1   3 2034.75   43.78
   4   1   4  300.00   11.15
   4   1   4  296.21   17.57
   4   1   5    1.11    0.77
   4   1   5    1.41    2.00
   4   1   6    4.95    1.50
   4   1   7  187.63    8.72
   4   1   7  177.70   15.29
   4   1   8   87.94    6.35
   4   1   8   77.77   11.14
   4   1   9  385.20   13.89
   4   1   9  341.33   22.94
   4   1  10    7.99    2.31
   4   1  11  327.61   13.21
   4   1  12   49.99    5.09
   4   1  13   10.77    2.37
   4   1  14  127.42    6.80
   4   2 -10   -0.15    0.72
   4   2  -9   93.73    6.82
   4   2  -9   91.82    6.66
   4   2  -8    8.82    2.27
   4   2  -8   10.64    2.44
   4   2  -7   95.09    7.73
   4   2  -7   90.43    7.22
   4   2  -7   90.00    7.07
   4   2  -6   13.53    2.91
   4   2  -6   19.67    3.38
   4   2  -6   12.65    2.73
   4   2  -5    2.02    1.47
   4   2  -5    2.93    1.36
   4   2  -5    2.91    1.34
   4   2  -4  185.86    9.73
   4   2  -4  188.74    9.49
   4   2  -3  283.26   11.30
   4   2  -2    5.96    1.76
   4   2  -1  131.33    6.71
   4   2  -1  177.03    8.59
   4   2   0   60.30    4.77
   4   2   0   62.66    4.84
   4   2   0   70.15    5.16
   4   2   1   28.24    3.31
   4   2   1   33.14    3.48
   4   2   1   34.54    3.50
   4   2   2   52.96    4.27
   4   2   2   59.97    4.51
   4   2   2   58.30    4.57
   4   2   3  930.51   18.21
   4   2   3  922.86   18.03
   4   2   4  244.35    9.00
   4   2   4  268.57    9.88
   4   2   5  157.79    7.39
   4   2   6  119.98    6.79
   4   2   6  134.52   12.40
   4   2   7   15.18    2.57
   4   2   7   16.03    4.27
   4   2   8  637.02   17.13
   4   2   8  551.29   27.65
   4   2   9    0.40    1.16
   4   2   9   -5.94    3.51
   4   2  10  262.27   11.86
   4   2  10  234.17   10.55
   4   2  11    0.08    0.75
   4   2  11    0.87    1.28
   4   2  12  515.82   16.40
   4   2  12  428.29   13.90
   4   2  13  321.71   12.02
   4   2  14    4.95    1.44
   4   3 -10   41.05    3.76
   4   3  -9    0.64    0.87
   4   3  -9    1.53    1.03
   4   3  -8  263.37   11.82
   4   3  -8  257.74   11.28
   4   3  -7   10.43    2.53
   4   3  -7    9.91    2.34
   4   3  -6   62.64    6.17
   4   3  -6   75.79    6.47
   4   3  -6   62.70    5.71
   4   3  -5  113.96    7.93
   4   3  -5  123.99    8.02
   4   3  -4  581.50   17.24
   4   3  -4  593.32   16.96
   4   3  -3   80.08    6.27
   4   3  -3   86.01    6.23
   4   3  -2  291.99   10.67
   4   3  -2  302.78   11.91
   4   3  -1  201.64    8.65
   4   3  -1  213.11    9.64
   4   3   0  262.83    9.69
   4   3   0  244.93    9.71
   4   3   0  273.53   10.46
   4   3   1  197.33    8.64
   4   3   1  216.03    8.90
   4   3   2   10.90    2.13
   4   3   2    9.43    1.93
   4   3   2   10.40    1.94
   4   3   3    1.43    1.13
   4   3   3    0.03    0.73
   4   3   4   16.15    4.24
   4   3   4   23.71    3.02
   4   3   4   26.12    3.44
   4   3   4   23.67    3.04
   4   3   5   30.55    3.52
   4   3   5   32.43    4.39
   4   3   5   32.90    3.68
   4   3   5   31.00    5.74
   4   3   6  170.66    8.34
   4   3   6  177.66   13.70
   4   3   7  271.40   10.97
   4   3   7  294.81   19.05
   4   3   8   34.24    4.21
   4   3   8   37.32    7.74
   4   3   9   -0.48    1.34
   4   3   9   -0.50    0.79
   4   3  10    2.52    1.46
   4   3  10   -0.51    1.09
   4   3  11  249.84   11.47
   4   3  11  220.04   10.45
   4   3  12  364.66   13.35
   4   3  13  218.88    9.64
   4   3  14   27.70    3.09
   4   4  -8   30.85    4.12
   4   4  -7  110.17    7.70
   4   4  -6  151.89    9.15
   4   4  -6  133.59    7.37
   4   4  -5  858.90   21.25
   4   4  -5  797.76   18.24
   4   4  -4   33.30    4.08
   4   4  -4   41.90    4.65
   4   4  -4   39.51    4.09
   4   4  -3  257.27   11.22
   4   4  -3  249.95    9.99
   4   4  -2    0.55    0.69
   4   4  -2    0.89    1.08
   4   4  -2   -0.30    0.97
   4   4  -1  613.36   15.72
   4   4  -1  627.33   17.02
   4   4   0   43.69    4.21
   4   4   0   33.83    3.67
   4   4   0   42.97    4.49
   4   4   0   35.25    3.49
   4   4   1   53.79    4.57
   4   4   1   52.94    4.23
   4   4   2  223.37    9.09
   4   4   2  280.54   10.46
   4   4   2  290.96   10.55
   4   4   2  239.69    9.31
   4   4   3   43.52    4.07
   4   4   3   39.55    3.92
   4   4   3   48.04    4.41
   4   4   3   48.93    4.48
   4   4   4   82.51    5.83
   4   4   4   87.21    6.28
   4   4   4   86.50    6.07
   4   4   5    6.27    1.70
   4   4   5    5.20    1.58
   4   4   5    6.98    2.17
   4   4   5    6.68    1.82
   4   4   6   14.86    2.86
   4   4   6   13.11    2.46
   4   4   6   12.77    3.02
   4   4   6   15.28    2.73
   4   4   7   24.45    3.47
   4   4   8  193.01    9.75
   4   4   9    4.75    1.66
   4   4  10  362.69   13.74
   4   4  11   20.14    3.34
   4   4  12  153.47    8.57
   4   4  13   98.29    6.25
   4   4  13   11.78    2.33
   4   5  -8    1.21    1.13
   4   5  -7   17.11    3.02
   4   5  -7   13.75    2.34
   4   5  -6  236.35   11.22
   4   5  -6  217.31    9.52
   4   5  -5  700.57   19.29
   4   5  -5  672.10   17.20
   4   5  -4  290.20   12.27
   4   5  -4  283.95   11.11
   4   5  -3   20.60    3.26
   4   5  -3   18.74    2.99
   4   5  -3   19.87    3.21
   4   5  -2  653.13   17.29
   4   5  -2  646.36   17.86
   4   5  -2  624.44   16.45
   4   5  -1   57.53    5.11
   4   5  -1   58.34    5.57
   4   5  -1   59.71    4.96
   4   5   0  447.74   13.85
   4   5   0  462.01   14.66
   4   5   0  458.00   13.26
   4   5   1  102.93    6.64
   4   5   1  107.27    6.99
   4   5   1  107.81    6.49
   4   5   2   25.14    3.30
   4   5   2   21.62    3.08
   4   5   3  159.75    8.21
   4   5   3  147.22    7.90
   4   5   3  154.40    8.33
   4   5   4   14.15    2.67
   4   5   4   13.97    2.79
   4   5   4   17.72    2.96
   4   5   5   58.37    5.37
   4   5   5   48.61    4.95
   4   5   5   56.29    5.23
   4   5   6  120.85    8.11
   4   5   6  113.45    7.38
   4   5   6   94.83    7.08
   4   5   6  108.38    7.31
   4   5   7   20.03    3.75
   4   5   7   20.07    3.40
   4   5   7   16.26    3.25
   4   5   7   21.07    3.40
   4   5   8    7.53    2.43
   4   5   8    7.93    2.67
   4   5   8    7.79    2.46
   4   5   8    7.81    2.18
   4   5   9   63.65    5.86
   4   5   9   29.52    4.33
   4   5  10  238.89   11.06
   4   5  10   99.84    7.54
   4   5  11    0.07    0.99
   4   5  11    1.55    1.17
   4   5  11   -0.46    0.70
   4   5  11    0.29    0.74
   4   5  12  231.05    9.88
   4   5  12  202.60    9.27
   4   5  13  102.17    6.08
   4   5  13  256.40    9.16
   4   6  -8   -0.20    0.61
   4   6  -7   17.96    2.84
   4   6  -7   20.65    2.82
   4   6  -6  210.30   10.07
   4   6  -6  238.55    9.85
   4   6  -5  137.89    8.28
   4   6  -5  141.32    8.00
   4   6  -4   17.53    3.00
   4   6  -4   16.90    2.88
   4   6  -3   12.30    2.58
   4   6  -3   13.10    2.76
   4   6  -3   14.12    2.70
   4   6  -2    4.09    1.66
   4   6  -2    4.10    1.57
   4   6  -2    3.81    1.48
   4   6  -1  661.24   17.70
   4   6  -1  685.71   17.69
   4   6   0  117.20    7.45
   4   6   0  110.24    6.99
   4   6   1  201.50    9.79
   4   6   1  199.64    9.31
   4   6   2   39.16    4.45
   4   6   2   35.12    4.10
   4   6   3  696.43   18.10
   4   6   4    1.42    1.18
   4   6   4    1.84    1.09
   4   6   5  431.00   15.13
   4   6   5  369.57   13.61
   4   6   6    2.05    1.71
   4   6   6    1.22    1.32
   4   6   7    7.70    2.32
   4   6   7    6.78    2.10
   4   6   8   15.76    3.25
   4   6   8   13.45    2.69
   4   6   9   33.13    4.72
   4   6   9   30.74    3.93
   4   6  10   59.65    5.90
   4   6  10   49.71    4.84
   4   6  11    9.15    2.27
   4   6  11   12.57    2.28
   4   6  12    8.27    1.77
   4   7  -8    4.61    1.16
   4   7  -7   22.31    2.77
   4   7  -6   29.58    3.34
   4   7  -5   93.27    6.27
   4   7  -4   59.01    5.18
   4   7  -3   63.49    5.44
   4   7  -3   61.76    5.80
   4   7  -2   10.56    2.41
   4   7  -2    9.94    2.30
   4   7  -1    2.94    1.47
   4   7  -1    1.65    1.20
   4   7   0   93.52    7.10
   4   7   0   94.18    6.76
   4   7   0  101.22    6.98
   4   7   1    8.85    2.22
   4   7   1   11.13    2.49
   4   7   2   63.93    5.82
   4   7   2   56.14    5.33
   4   7   3    0.22    1.21
   4   7   3    1.40    1.24
   4   7   4  184.53    9.81
   4   7   5    2.10    1.60
   4   7   6   77.96    6.48
   4   7   7    5.43    1.98
   4   7   8    8.17    2.28
   4   7   9  105.43    7.44
   4   7  10    3.12    1.45
   4   7  11   12.86    2.24
   4   8  -7    3.12    1.00
   4   8  -6   13.30    2.14
   4   8  -5    3.28    1.21
   4   8  -4   25.11    3.24
   4   8  -3    0.46    1.01
   4   8  -3    0.82    0.96
   4   8  -2   15.74    2.77
   4   8  -2   17.64    3.03
   4   8  -1  525.34   15.53
   4   8  -1  554.46   16.69
   4   8   0  163.56    8.70
   4   8   0  173.30    9.28
   4   8   1   80.89    6.42
   4   8   1   80.72    6.18
   4   8   1   84.15    6.43
   4   8   2   13.52    2.65
   4   8   2   13.41    2.60
   4   8   2   15.33    2.77
   4   8   3  562.71   16.92
   4   8   3  591.47   17.21
   4   8   4   29.82    3.97
   4   8   4   33.46    4.23
   4   8   5   30.32    3.91
   4   8   5   33.21    4.24
   4   8   6    5.46    1.77
   4   8   6    6.97    2.10
   4   8   7   91.58    6.58
   4   8   7   77.26    5.97
   4   8   8    8.58    2.04
   4   8   8    7.29    1.76
   4   8   9   74.28    5.40
   4   8  10    1.62    0.85
   4   9  -5    5.68    1.35
   4   9  -4   18.95    2.51
   4   9  -3    6.31    1.48
   4   9  -2    4.36    1.57
   4   9  -2    4.71    1.52
   4   9  -1   23.46    3.13
   4   9  -1   23.76    3.32
   4   9   0   -0.14    0.96
   4   9   0    0.95    0.94
   4   9   1   13.37    2.35
   4   9   1   16.34    2.86
   4   9   2   81.31    5.63
   4   9   2  103.04    6.88
   4   9   3  278.98   10.96
   4   9   3  315.47   11.92
   4   9   4   12.31    2.29
   4   9   4   14.29    2.63
   4   9   5   38.66    4.07
   4   9   6   22.20    3.08
   4   9   7   26.02    3.25
   4   9   8  103.61    5.84
   4  10  -2   24.76    2.59
   4  10  -1   -0.58    0.63
   4  10  -1    0.04    0.30
   4  10   0    0.62    0.79
   4  10   1   22.09    3.02
   4  10   2   11.90    2.28
   4  10   3    0.27    0.59
   4  10   4    3.32    1.20
   4  10   5    1.70    1.03
   5  -6  -2  236.89    9.16
   5  -6  -1    3.24    1.30
   5  -6   0   63.61    5.21
   5  -6   1    8.76    2.19
   5  -6   2    9.30    2.32
   5  -6   3   22.40    3.40
   5  -6   4   18.51    3.43
   5  -6   5   70.13    5.68
   5  -6   6   24.69    3.44
   5  -5  -4  244.32    9.67
   5  -5  -3   -0.61    1.12
   5  -5  -2  227.02   10.31
   5  -5  -1    7.38    2.14
   5  -5   0   45.03    4.96
   5  -5   1    6.53    3.22
   5  -5   2  126.57    9.64
   5  -5   3  141.13   11.22
   5  -5   4   28.82    5.52
   5  -5   5   57.31    5.19
   5  -5   6   29.90    3.82
   5  -4  -6   19.67    2.75
   5  -4  -5  123.41    7.11
   5  -4  -4   74.70    5.92
   5  -4  -3   28.39    3.87
   5  -4  -2   14.68    3.02
   5  -4  -1   22.92    4.42
   5  -4   0   -5.37    6.12
   5  -4   1  106.98   10.70
   5  -4   2   58.19    9.15
   5  -4   3   11.72    5.02
   5  -4   4  345.78   15.64
   5  -4   4  292.48   11.79
   5  -4   5   10.91    2.29
   5  -4   6    5.49    1.65
   5  -4   7    2.46    1.18
   5  -3  -7   -0.19    0.80
   5  -3  -6   85.51    6.28
   5  -3  -5   15.65    2.82
   5  -3  -5   17.79    3.04
   5  -3  -4  245.63   11.39
   5  -3  -4  240.85   11.44
   5  -3  -3   10.37    2.56
   5  -3  -3   10.87    2.66
   5  -3  -2  320.57   13.46
   5  -3  -2  267.75   12.54
   5  -3   0   37.74    9.15
   5  -3   1   53.67    9.88
   5  -3   2  660.03   21.62
   5  -3   2  656.09   18.42
   5  -3   3    5.14    1.71
   5  -3   4  269.53   11.97
   5  -3   5   10.83    2.73
   5  -3   6   58.50    5.76
   5  -2  -8    1.57    1.03
   5  -2  -7   80.27    5.96
   5  -2  -6   24.55    3.67
   5  -2  -6   23.57    3.56
   5  -2  -5   -2.78    1.50
   5  -2  -5   -0.35    1.18
   5  -2  -4   12.92    2.62
   5  -2  -4   13.32    3.03
   5  -2  -3    8.61    2.53
   5  -2  -3    9.55    2.74
   5  -2  -2  210.47   11.19
   5  -2  -1   -4.39    6.11
   5  -2   0   59.73    9.03
   5  -2   1  360.69   15.58
   5  -2   1  456.55   15.26
   5  -2   2  176.96    9.36
   5  -2   2  134.97   15.22
   5  -2   3  452.05   15.41
   5  -2   3  447.28   14.95
   5  -2   4  122.50    8.21
   5  -2   4  120.65    7.79
   5  -2   4  111.91   14.30
   5  -2   5    1.88    0.89
   5  -2   5    1.07    2.19
   5  -2   6  233.50   10.72
   5  -2   7  274.48   11.49
   5  -2   8   -0.16    1.20
   5  -2   9    0.39    0.82
   5  -2  10    0.20    0.94
   5  -1  -8  351.15   11.95
   5  -1  -7  118.74    7.65
   5  -1  -6    1.60    1.20
   5  -1  -6    2.00    1.33
   5  -1  -5   94.10    7.08
   5  -1  -5  109.40    8.24
   5  -1  -4   10.26    2.42
   5  -1  -4   12.88    3.04
   5  -1  -3   72.13    6.28
   5  -1  -1    5.97    4.19
   5  -1   0   55.84    8.60
   5  -1   1  315.09   12.37
   5  -1   1  307.65   12.13
   5  -1   2 1676.12   28.21
   5  -1   2 1672.45   28.47
   5  -1   2 1387.98   25.46
   5  -1   2 1369.95   45.18
   5  -1   3    7.42    1.73
   5  -1   3   11.63    2.32
   5  -1   3   11.46    2.11
   5  -1   3   13.90    5.02
   5  -1   4  380.08   13.47
   5  -1   4  367.26   24.40
   5  -1   5    1.41    1.04
   5  -1   5    2.09    1.07
   5  -1   5    4.02    3.02
   5  -1   6  225.02   10.45
   5  -1   6  208.71   10.44
   5  -1   7   86.20    6.88
   5  -1   7   68.76   11.28
   5  -1   8   14.92    3.18
   5  -1   9  130.03    8.98
   5  -1  10    0.05    1.07
   5  -1  11   11.71    2.62
   5  -1  12    0.71    1.02
   5  -1  13    8.58    1.86
   5   0  -8  170.99    8.57
   5   0  -7    1.34    1.08
   5   0  -7    0.10    0.72
   5   0  -6   43.34    5.19
   5   0  -6   29.43    3.87
   5   0  -6   39.17    4.58
   5   0  -5    1.22    1.13
   5   0  -5    2.85    1.60
   5   0  -5    2.43    1.23
   5   0  -4   20.43    3.32
   5   0  -4   28.25    4.43
   5   0  -4   29.87    4.13
   5   0  -3  240.46   11.15
   5   0  -3  244.45   11.32
   5   0  -2   26.67    1.66
   5   0  -2   20.93    3.37
   5   0  -1  112.29    7.99
   5   0  -1  111.32    7.62
   5   0   0   55.28    5.37
   5   0   0   55.22    5.20
   5   0   1  144.24    8.01
   5   0   1  143.23    8.25
   5   0   1  156.26    8.60
   5   0   2  133.96    7.97
   5   0   2  131.24    7.97
   5   0   2  116.43   12.24
   5   0   3  351.55   12.83
   5   0   3  345.20   12.67
   5   0   3  341.18   12.16
   5   0   3  315.08   21.34
   5   0   4   50.70    4.85
   5   0   4   55.00    4.98
   5   0   4   44.75    4.47
   5   0   4   48.18    8.53
   5   0   5  293.64   11.70
   5   0   5  318.96   12.40
   5   0   5  284.74   11.32
   5   0   5  263.97   20.49
   5   0   6   19.21    3.16
   5   0   6   11.38    2.42
   5   0   6   12.99    4.71
   5   0   7  633.87   18.86
   5   0   7  662.29   17.71
   5   0   8   13.43    3.43
   5   0   8   16.67    2.94
   5   0   9  263.08   11.52
   5   0  10   19.12    2.99
   5   0  10   25.72    3.64
   5   0  11    6.31    1.68
   5   0  11    5.90    1.74
   5   0  12   69.80    5.24
   5   0  12   74.02    5.57
   5   0  13   93.82    6.54
   5   0  13  148.17    7.08
   5   1  -8   23.31    3.18
   5   1  -8   30.51    3.70
   5   1  -7  111.94    7.35
   5   1  -7  125.11    7.90
   5   1  -6   58.59    5.97
   5   1  -6   55.04    5.38
   5   1  -6   50.73    5.25
   5   1  -5    0.63    1.27
   5   1  -5    2.13    1.07
   5   1  -5   -0.12    0.79
   5   1  -4    2.57    1.54
   5   1  -4    2.34    1.60
   5   1  -3  376.85   14.09
   5   1  -2   30.28    4.05
   5   1  -1  -13.01    4.81
   5   1  -1    3.05    1.67
   5   1   0   12.09    2.95
   5   1   0    7.37    2.30
   5   1   1   77.93    5.96
   5   1   1   69.75    5.59
   5   1   1   77.06    6.13
   5   1   2  104.73    6.88
   5   1   2  117.37    7.31
   5   1   2  116.16    7.29
   5   1   3    0.12    0.89
   5   1   3    2.41    1.35
   5   1   3    1.59    1.07
   5   1   4    1.26    1.01
   5   1   4    1.81    1.29
   5   1   4    0.97    1.19
   5   1   5    5.76    1.97
   5   1   5    6.43    1.97
   5   1   6  107.35    7.71
   5   1   6  101.89    6.97
   5   1   7    2.19    1.22
   5   1   7   -0.03    2.95
   5   1   7    3.44    1.96
   5   1   8  100.53    6.89
   5   1   8   99.06    7.16
   5   1   9   15.80    2.86
   5   1   9   17.57    3.15
   5   1  10  226.14   10.56
   5   1  11    0.00    0.93
   5   1  12    1.95    1.14
   5   1  12    2.87    1.30
   5   1  13    2.20    1.10
   5   1  13    2.13    1.33
   5   1  13    3.00    1.25
   5   2  -8   12.59    2.38
   5   2  -8   12.34    2.23
   5   2  -7   30.38    4.02
   5   2  -7   30.12    3.77
   5   2  -6   75.18    6.80
   5   2  -6   81.22    6.66
   5   2  -6   63.87    5.66
   5   2  -5    1.81    1.46
   5   2  -5    1.69    1.25
   5   2  -4   54.39    5.79
   5   2  -4   57.91    5.77
   5   2  -3   19.47    3.34
   5   2  -2    0.57    1.31
   5   2  -1   56.68    5.69
   5   2   0   78.17    6.35
   5   2   1   23.23    3.36
   5   2   1   16.16    2.93
   5   2   2    0.54    0.66
   5   2   2    0.74    0.92
   5   2   2    1.15    0.91
   5   2   3  166.83    8.82
   5   2   3  198.34    9.44
   5   2   3  188.51    9.18
   5   2   3  190.81    9.15
   5   2   4   24.14    3.22
   5   2   4   24.58    3.39
   5   2   4   23.09    3.32
   5   2   5  312.33   12.29
   5   2   5  362.23   13.16
   5   2   6    3.96    1.46
   5   2   6    1.90    2.16
   5   2   6    5.77    2.04
   5   2   6    6.81    2.05
   5   2   7  173.50    8.97
   5   2   7  186.45    9.78
   5   2   8   26.98    3.81
   5   2   8   26.82    6.73
   5   2   8   28.79    4.61
   5   2   8   35.92    4.57
   5   2   9  488.20   15.83
   5   2   9  575.13   17.69
   5   2  10   71.84    6.12
   5   2  11   29.97    3.90
   5   2  12    2.59    1.35
   5   2  12    2.14    1.19
   5   2  13   54.01    4.57
   5   2  13   47.92    4.40
   5   3  -8   49.92    4.67
   5   3  -7  446.08   14.88
   5   3  -6  134.60    8.83
   5   3  -6  151.65    9.10
   5   3  -5  197.12   10.74
   5   3  -5  211.39   10.81
   5   3  -4    5.00    2.01
   5   3  -4    3.28    1.76
   5   3  -3  241.90   11.72
   5   3  -3  251.81   11.48
   5   3  -3  211.90    9.42
   5   3  -2   16.45    3.13
   5   3  -1   63.92    5.33
   5   3  -1   65.51    6.03
   5   3   0   41.77    4.30
   5   3   0   40.21    4.79
   5   3   1    3.13    1.22
   5   3   1    5.39    1.74
   5   3   1    2.91    1.31
   5   3   2  314.26   11.56
   5   3   2  319.11   12.15
   5   3   2  331.90   12.29
   5   3   3    6.34    1.67
   5   3   3    5.66    1.85
   5   3   3    7.27    1.96
   5   3   4   11.03    2.38
   5   3   4   12.87    2.57
   5   3   4   11.60    2.57
   5   3   5  102.78    7.14
   5   3   5   91.88    6.92
   5   3   6   49.65    4.95
   5   3   6   52.19    5.31
   5   3   6   50.49    5.14
   5   3   7   77.84    6.47
   5   3   7   94.44    7.57
   5   3   7   86.41    6.84
   5   3   8   23.78    3.61
   5   3   8   26.54    4.68
   5   3   8   26.98    3.94
   5   3   9   28.99    4.09
   5   3   9   31.53    4.61
   5   3   9   33.02    4.47
   5   3  10  125.71    8.20
   5   3  10  117.24    8.08
   5   3  11    7.62    2.09
   5   3  11    6.28    2.35
   5   3  11    6.14    1.91
   5   3  12   22.63    3.23
   5   3  12   16.28    3.39
   5   3  12   25.78    3.57
   5   3  13    6.10    1.65
   5   3  13    2.11    1.08
   5   3  13    7.51    1.79
   5   4  -8    2.65    1.28
   5   4  -7   45.12    4.69
   5   4  -6   91.07    6.93
   5   4  -5   60.29    5.76
   5   4  -5   68.58    6.23
   5   4  -4   46.91    5.13
   5   4  -4   51.62    5.49
   5   4  -4   49.31    4.56
   5   4  -3  268.60   12.06
   5   4  -3  309.65   13.22
   5   4  -3  282.59   11.14
   5   4  -2    0.03    0.95
   5   4  -2    1.15    1.46
   5   4  -1  110.58    7.27
   5   4  -1  116.09    8.18
   5   4   0   49.70    4.89
   5   4   0   49.86    5.35
   5   4   1    7.75    2.01
   5   4   1    7.01    1.88
   5   4   1    8.66    2.35
   5   4   2   31.03    3.97
   5   4   2   31.33    3.96
   5   4   2   29.94    3.96
   5   4   3    1.48    0.84
   5   4   3    2.43    1.31
   5   4   3    3.93    1.80
   5   4   4   -0.25    0.85
   5   4   4   -0.54    1.25
   5   4   4    0.99    0.98
   5   4   5   13.44    2.56
   5   4   5   14.05    2.98
   5   4   5   17.97    3.11
   5   4   6   75.15    6.57
   5   4   6   70.80    6.14
   5   4   7  102.59    7.51
   5   4   7  100.44    8.12
   5   4   7  114.69    7.93
   5   4   8   -0.20    1.58
   5   4   8    0.58    1.15
   5   4   8    1.96    1.31
   5   4   9   11.95    2.66
   5   4   9   15.55    3.19
   5   4   9   13.09    3.00
   5   4  10  155.86    9.22
   5   4  10  169.54    9.59
   5   4  11    3.40    1.32
   5   4  11    1.16    1.48
   5   4  11    3.75    1.62
   5   4  12   -0.45    1.10
   5   4  12    0.37    0.95
   5   4  12    0.30    0.69
   5   4  13   40.85    3.70
   5   4  13  152.36    7.32
   5   5  -8   76.97    5.19
   5   5  -7    0.52    1.00
   5   5  -6    5.68    1.76
   5   5  -5   33.10    4.23
   5   5  -5   30.79    3.55
   5   5  -4   33.84    4.37
   5   5  -4   30.74    3.69
   5   5  -3   12.17    2.62
   5   5  -3    8.66    2.23
   5   5  -2  289.62   12.64
   5   5  -1  325.62   12.97
   5   5  -1  370.54   14.51
   5   5   0  413.78   14.34
   5   5   0  383.84   14.74
   5   5   1   30.28    4.01
   5   5   1   30.98    4.12
   5   5   2  166.60    9.23
   5   5   2  162.15    9.32
   5   5   3   77.64    6.38
   5   5   4  154.19    8.65
   5   5   4  167.96    9.34
   5   5   4  170.08    9.41
   5   5   5  148.71    8.40
   5   5   5  152.04    8.45
   5   5   5  165.76    9.29
   5   5   5  179.80    9.94
   5   5   6   23.50    3.48
   5   5   6   22.65    3.39
   5   5   6   24.86    3.77
   5   5   6   24.50    3.75
   5   5   7   39.83    4.68
   5   5   7   37.67    4.81
   5   5   7   45.12    5.26
   5   5   8   85.56    6.75
   5   5   8   83.69    6.93
   5   5   8   90.95    7.16
   5   5   9   15.27    3.05
   5   5   9   13.19    2.79
   5   5   9   12.00    2.73
   5   5  10   22.85    3.37
   5   5  10   19.39    3.25
   5   5  10   25.39    3.69
   5   5  11   41.21    4.14
   5   5  11   27.76    3.53
   5   5  12    0.37    0.57
   5   5  12    1.52    1.00
   5   6  -7    4.60    1.31
   5   6  -6  258.62   10.39
   5   6  -6  262.75    9.14
   5   6  -5   76.89    5.99
   5   6  -5   75.40    5.44
   5   6  -4   97.56    6.97
   5   6  -4  105.52    6.79
   5   6  -3  319.51   12.89
   5   6  -3  355.76   12.71
   5   6  -2   16.76    3.01
   5   6  -2   19.61    3.21
   5   6  -2   18.66    3.12
   5   6  -1  106.83    7.59
   5   6  -1   98.15    6.94
   5   6   0   20.02    3.30
   5   6   0   17.82    3.20
   5   6   0   18.31    3.01
   5   6   1  159.27    9.19
   5   6   1  137.13    8.76
   5   6   1  139.12    8.08
   5   6   2  536.18   16.93
   5   6   2  503.04   16.69
   5   6   2  516.56   15.31
   5   6   3  131.45    8.48
   5   6   3  117.91    7.97
   5   6   3  125.64    7.66
   5   6   4  169.64    9.42
   5   6   4  188.74    9.71
   5   6   5   63.30    5.74
   5   6   5   67.94    6.09
   5   6   5   77.21    6.23
   5   6   6   10.27    2.33
   5   6   6    9.25    2.17
   5   6   6    8.03    2.23
   5   6   7   26.34    3.75
   5   6   7   20.94    3.37
   5   6   7   28.31    3.99
   5   6   8  110.30    7.45
   5   6   8  111.72    7.84
   5   6   9  133.32    8.06
   5   6   9  124.70    7.99
   5   6  10    7.91    1.95
   5   6  10    9.75    2.25
   5   6  11    7.31    1.64
   5   6  11   13.82    2.36
   5   7  -6   17.87    2.33
   5   7  -5  198.76    8.19
   5   7  -4   15.37    2.56
   5   7  -3   31.48    3.70
   5   7  -2  210.91    9.81
   5   7  -2  192.46    9.70
   5   7  -1    1.18    1.17
   5   7  -1    1.39    1.20
   5   7   0    6.97    1.90
   5   7   0    5.57    2.07
   5   7   0    6.18    1.69
   5   7   1  242.95   11.31
   5   7   1  216.95   10.22
   5   7   2   88.71    6.96
   5   7   2   79.97    6.20
   5   7   3  242.72   11.41
   5   7   3  223.18   10.33
   5   7   4   95.36    7.24
   5   7   4   77.69    6.23
   5   7   5    3.15    1.39
   5   7   5    5.88    1.89
   5   7   6   18.18    3.06
   5   7   7    1.06    0.71
   5   7   8  133.69    7.77
   5   7   8  112.81    6.94
   5   7   9    3.15    1.31
   5   7   9    2.56    1.08
   5   7  10   72.36    5.04
   5   8  -5   22.17    2.50
   5   8  -4  221.17    8.48
   5   8  -3    9.14    1.94
   5   8  -2  115.28    6.89
   5   8  -2   99.23    6.64
   5   8  -1  209.54    9.41
   5   8  -1  178.82    9.07
   5   8   0   51.62    4.74
   5   8   0   41.23    4.38
   5   8   1  616.20   17.43
   5   8   1  592.20   16.33
   5   8   1  581.61   16.39
   5   8   2  183.74    9.62
   5   8   2  172.69    8.78
   5   8   2  174.19    9.00
   5   8   3  337.33   13.01
   5   8   3  325.90   12.02
   5   8   3  302.96   11.94
   5   8   4    9.22    2.11
   5   8   4    9.65    2.34
   5   8   4    9.27    2.09
   5   8   5    1.63    1.05
   5   8   5    2.83    1.53
   5   8   6   17.87    2.94
   5   8   6   18.54    2.91
   5   8   7    0.23    0.70
   5   8   7    0.31    0.78
   5   8   8  242.55    9.73
   5   8   8  215.81    9.04
   5   8   9   80.94    5.12
   5   9  -3   -0.39    0.59
   5   9  -2  104.22    5.74
   5   9  -1  172.21    7.69
   5   9  -1  154.14    7.74
   5   9   0   30.99    3.39
   5   9   0   28.52    3.37
   5   9   1   56.63    4.62
   5   9   1   63.35    5.07
   5   9   2    7.18    1.69
   5   9   2    7.35    1.70
   5   9   3   12.95    2.35
   5   9   3   10.43    1.94
   5   9   3   12.29    2.24
   5   9   4   91.73    6.01
   5   9   4   86.17    5.88
   5   9   5   21.73    2.85
   5   9   5   21.36    2.90
   5   9   6    4.72    1.40
   5   9   6    4.02    1.23
   5   9   7  111.42    5.86
   6  -5  -1   38.77    3.59
   6  -5   0    1.74    0.98
   6  -5   1    9.49    2.09
   6  -5   2   28.90    3.51
   6  -5   3   40.20    3.79
   6  -5   4   -8.60    3.66
   6  -5   5   25.87    4.40
   6  -5   6  110.34    7.14
   6  -4  -3    4.13    1.24
   6  -4  -2   16.65    2.62
   6  -4  -1    0.26    0.95
   6  -4   0   27.37    3.68
   6  -4   1   47.75    3.71
   6  -4   3  149.16   10.22
   6  -4   4  172.15   11.62
   6  -4   5   38.89    6.83
   6  -4   7  -15.23    5.77
   6  -3  -4   19.91    2.77
   6  -3  -3  219.75    9.74
   6  -3  -3  183.32    8.82
   6  -3  -2  147.45    8.57
   6  -3  -2  144.84    8.24
   6  -3  -1  137.35    8.54
   6  -3  -1  133.62    8.32
   6  -3   0   21.51    2.13
   6  -3   1  163.66    8.81
   6  -3   2   72.19    9.46
   6  -3   3  267.68   15.28
   6  -3   4   41.96    4.83
   6  -3   5    6.28    2.00
   6  -3   6    1.65    1.24
   6  -3   7    5.52    1.61
   6  -3   8   28.94    3.59
   6  -3   9   34.89    3.74
   6  -2  -5    2.57    1.20
   6  -2  -5    2.31    0.99
   6  -2  -4   17.67    2.82
   6  -2  -4   19.79    3.15
   6  -2  -3   42.27    4.64
   6  -2  -3   52.23    5.24
   6  -2  -2   21.41    3.41
   6  -2  -2   16.68    3.22
   6  -2  -1  125.54    8.40
   6  -2   0   34.13    7.87
   6  -2   1  168.06   11.60
   6  -2   2   84.72   12.23
   6  -2   3  -18.64   10.83
   6  -2   3   47.59    5.46
   6  -2   4   95.60    7.27
   6  -2   5   38.74    4.55
   6  -2   5   48.31    5.12
   6  -2   6   -3.33    2.44
   6  -2   6    1.17    1.11
   6  -2   7   20.02    2.93
   6  -2   7   22.72    3.32
   6  -2   8    9.04    1.58
   6  -2   9   59.74    5.36
   6  -2  11   42.56    3.98
   6  -1  -6   68.09    4.95
   6  -1  -5   85.09    6.42
   6  -1  -5   74.47    5.71
   6  -1  -4   92.01    6.56
   6  -1  -4  124.59    8.25
   6  -1  -3   -1.35    1.13
   6  -1  -3    0.83    1.09
   6  -1  -2    6.65    2.24
   6  -1  -1   14.05    3.27
   6  -1   1  163.63   12.62
   6  -1   2   36.62    8.79
   6  -1   2   23.66    5.25
   6  -1   3   12.91    3.43
   6  -1   3    6.37    2.14
   6  -1   4  392.19   14.86
   6  -1   4  444.40   15.81
   6  -1   5  262.70   12.49
   6  -1   5  242.29   11.60
   6  -1   6   23.20    3.59
   6  -1   6   26.74    3.92
   6  -1   7   11.90    2.20
   6  -1   7   18.44    3.25
   6  -1   7   15.14    2.88
   6  -1   8    0.26    0.95
   6  -1   8   -0.44    0.98
   6  -1   9  128.04    7.82
   6  -1   9  112.07    7.12
   6  -1  10   32.05    3.74
   6  -1  10   24.02    3.13
   6  -1  11   30.47    3.38
   6   0  -6   75.51    5.85
   6   0  -6   52.40    4.46
   6   0  -5   28.61    3.93
   6   0  -5   19.10    2.92
   6   0  -4    1.77    1.64
   6   0  -4   -0.22    1.20
   6   0  -4    0.64    0.76
   6   0  -3    1.35    0.94
   6   0  -3    0.20    1.39
   6   0  -3    2.66    1.28
   6   0  -2   62.42    5.72
   6   0  -2   67.21    5.92
   6   0  -1   18.31    3.44
   6   0  -1   11.80    2.58
   6   0   0   17.88    7.16
   6   0   0   93.12    7.20
   6   0   1   93.87    9.52
   6   0   1   60.26    5.85
   6   0   2    3.42    5.21
   6   0   2    2.05    1.49
   6   0   3  207.04   10.76
   6   0   3  209.52   11.02
   6   0   3  205.24   10.72
   6   0   4   13.01    2.70
   6   0   4   11.29    2.52
   6   0   5  609.10   19.02
   6   0   5  604.50   18.63
   6   0   5  562.61   17.25
   6   0   6   90.74    7.03
   6   0   6   90.44    7.30
   6   0   6   85.04    6.82
   6   0   7   94.62    7.25
   6   0   7  112.70    7.75
   6   0   8  160.65    9.29
   6   0   8  142.79    8.74
   6   0   9   15.23    2.91
   6   0   9   13.40    2.88
   6   0  10  244.64   10.80
   6   0  10  272.85   11.54
   6   0  11    0.66    0.85
   6   0  11    1.55    1.06
   6   0  12   38.31    3.70
   6   0  12   25.72    3.11
   6   1  -6    1.03    1.22
   6   1  -6   -0.10    0.83
   6   1  -5    2.90    1.49
   6   1  -5    2.64    1.44
   6   1  -4   -1.11    1.46
   6   1  -4    1.08    0.90
   6   1  -3    1.87    1.33
   6   1  -3    1.81    1.06
   6   1  -2   -0.34    1.36
   6   1  -1   62.51    6.19
   6   1   0  113.09    8.36
   6   1   1   67.01    7.64
   6   1   1   46.00    5.19
   6   1   2  519.26   17.05
   6   1   2  479.64   16.64
   6   1   2  486.09   16.65
   6   1   3 1545.21   29.04
   6   1   3 1570.04   29.56
   6   1   3 1517.31   29.13
   6   1   4    1.97    1.38
   6   1   4    2.19    1.65
   6   1   5  362.16   14.58
   6   1   5  347.52   14.10
   6   1   5  383.06   14.39
   6   1   6   15.25    3.25
   6   1   6   16.33    3.25
   6   1   6   13.75    2.80
   6   1   7   47.66    5.26
   6   1   7   52.59    5.63
   6   1   7   45.79    5.04
   6   1   8   20.71    3.55
   6   1   8   29.25    4.14
   6   1   8   23.64    3.65
   6   1   9  379.63   14.29
   6   1   9  404.78   15.02
   6   1   9  385.93   14.21
   6   1  10   67.05    5.96
   6   1  10   66.31    5.73
   6   1  11   18.55    3.08
   6   1  11   18.52    2.93
   6   1  12   27.29    3.29
   6   1  12   19.33    2.82
   6   1  12   18.55    2.62
   6   2  -7    1.20    0.89
   6   2  -6    4.89    1.53
   6   2  -5   58.05    5.66
   6   2  -5   62.73    5.57
   6   2  -4   69.89    6.45
   6   2  -4   79.65    6.53
   6   2  -3   83.81    7.18
   6   2  -3   86.12    6.94
   6   2  -2  117.56    8.20
   6   2  -1   -1.37    1.35
   6   2   0   32.81    4.65
   6   2   1   -0.36    1.63
   6   2   2  485.65   16.20
   6   2   2  477.82   16.50
   6   2   2  501.33   17.36
   6   2   3    9.05    2.89
   6   2   3    7.40    2.36
   6   2   4  699.22   19.73
   6   2   4  654.89   19.47
   6   2   4  713.04   19.92
   6   2   5 1044.34   24.64
   6   2   5 1034.04   24.02
   6   2   5 1122.34   24.83
   6   2   5 1155.61   24.73
   6   2   6  118.71    8.10
   6   2   6  126.87    8.54
   6   2   6  131.21    8.53
   6   2   7  386.12   14.57
   6   2   7  416.28   15.36
   6   2   7  383.36   14.77
   6   2   8  180.17   10.07
   6   2   8  209.01   11.05
   6   2   8  192.07   10.40
   6   2   9  122.64    8.37
   6   2   9  122.19    8.31
   6   2  10   62.42    5.93
   6   2  10   59.95    5.65
   6   2  11    9.57    2.29
   6   2  11    7.37    1.93
   6   2  12   32.99    3.72
   6   2  12   37.09    3.84
   6   3  -7  163.11    7.54
   6   3  -6   33.20    3.81
   6   3  -5  274.75   11.87
   6   3  -5  283.71   11.70
   6   3  -4   71.09    6.27
   6   3  -4   91.30    6.91
   6   3  -3  140.61    9.03
   6   3  -3  155.04    9.32
   6   3  -2    2.54    0.96
   6   3  -2    1.63    1.31
   6   3  -1  199.34   10.88
   6   3   0    2.74    1.94
   6   3   1   -0.16    1.76
   6   3   2    2.35    1.98
   6   3   2    3.31    1.56
   6   3   2    4.03    1.59
   6   3   2    1.42    1.63
   6   3   3  331.00   13.38
   6   3   3  343.34   13.07
   6   3   3  348.76   13.90
   6   3   3  365.03   14.62
   6   3   4  130.23    8.50
   6   3   4  116.24    8.13
   6   3   4  110.64    8.09
   6   3   5   20.85    3.62
   6   3   5   14.27    3.01
   6   3   5   16.39    3.29
   6   3   6  144.01    9.03
   6   3   6  156.80    9.40
   6   3   6  149.93    9.36
   6   3   7   28.19    4.10
   6   3   7   26.81    4.00
   6   3   7   30.28    4.33
   6   3   8  227.51   11.14
   6   3   8  235.57   11.57
   6   3   8  221.78   11.47
   6   3   9    0.85    1.15
   6   3   9    1.34    1.09
   6   3  10    3.95    1.69
   6   3  10    2.68    1.31
   6   3  11   83.26    6.40
   6   3  11  107.45    7.09
   6   3  12    0.45    0.68
   6   3  12   -0.10    0.73
   6   3  12   -1.14    1.09
   6   4  -7   27.34    3.03
   6   4  -6   13.80    2.32
   6   4  -5   15.74    2.79
   6   4  -4  107.46    7.25
   6   4  -4  124.31    7.89
   6   4  -3    5.16    1.90
   6   4  -3    2.19    1.48
   6   4  -2  210.23   10.73
   6   4  -2  220.71    9.97
   6   4  -1   21.18    3.58
   6   4  -1   27.06    3.98
   6   4   0   13.04    3.34
   6   4   1    4.33    1.77
   6   4   1    3.21    1.89
   6   4   2    2.83    1.44
   6   4   2    1.56    1.74
   6   4   3  126.52    8.14
   6   4   3  122.29    8.28
   6   4   3  131.09    9.12
   6   4   4   10.77    2.63
   6   4   4   12.20    2.88
   6   4   4   11.62    2.91
   6   4   5    0.51    1.30
   6   4   5    2.71    1.73
   6   4   6   43.20    4.92
   6   4   6   42.76    5.05
   6   4   6   41.30    4.98
   6   4   7    4.92    1.84
   6   4   7    2.68    1.54
   6   4   7    3.98    1.65
   6   4   8    1.73    1.16
   6   4   8    2.10    1.63
   6   4   8    1.52    1.17
   6   4   9   43.01    4.69
   6   4   9   47.63    5.08
   6   4   9   47.80    5.22
   6   4  10   42.75    4.45
   6   4  10   34.00    4.50
   6   4  10   50.41    5.07
   6   4  11  170.84    8.37
   6   4  11  157.52    8.18
   6   4  11  170.92    8.71
   6   4  12   29.06    3.08
   6   4  12   21.42    2.71
   6   5  -6   23.39    2.92
   6   5  -5  403.98   13.04
   6   5  -4   43.13    4.59
   6   5  -3   58.49    5.46
   6   5  -3   44.89    4.28
   6   5  -2   23.34    3.74
   6   5  -2   24.98    3.45
   6   5  -1  321.16   13.57
   6   5   0    2.85    1.71
   6   5   1   51.47    5.25
   6   5   1   54.59    6.00
   6   5   2   66.08    5.98
   6   5   2   61.52    6.19
   6   5   3  134.16    8.61
   6   5   3  118.24    7.90
   6   5   3  128.52    8.86
   6   5   4    1.27    1.27
   6   5   4    1.14    1.01
   6   5   4    1.29    1.37
   6   5   5    3.70    1.66
   6   5   5    4.52    1.89
   6   5   6   79.17    6.43
   6   5   6   82.72    6.83
   6   5   7   21.35    3.35
   6   5   7   25.79    3.68
   6   5   7   25.90    3.90
   6   5   8   28.41    3.77
   6   5   8   35.82    4.34
   6   5   8   36.22    4.52
   6   5   9    4.85    1.57
   6   5   9    6.28    1.90
   6   5   9    5.86    2.05
   6   5  10   39.63    3.93
   6   5  10   37.04    4.02
   6   5  10   47.83    4.69
   6   5  11   28.90    3.19
   6   5  11   51.38    4.52
   6   6  -5   64.82    4.76
   6   6  -4   34.82    3.83
   6   6  -4   34.59    3.37
   6   6  -3    5.83    1.77
   6   6  -3    7.28    1.74
   6   6  -2   36.79    4.34
   6   6  -2   45.40    4.37
   6   6  -1   23.53    3.53
   6   6  -1   22.62    3.31
   6   6   0  124.13    8.24
   6   6   1    2.22    1.39
   6   6   1    1.22    1.27
   6   6   2    3.76    1.54
   6   6   2    6.77    2.15
   6   6   3    5.89    2.03
   6   6   3    4.69    1.72
   6   6   4  356.58   13.87
   6   6   4  326.38   13.55
   6   6   5   -0.20    1.08
   6   6   5    0.09    1.02
   6   6   6  255.82   11.51
   6   6   7    6.73    2.09
   6   6   8    9.48    2.24
   6   6   9   19.99    2.82
   6   6   9   26.71    3.46
   6   6  10   94.05    5.90
   6   7  -4    8.62    1.58
   6   7  -3   15.91    2.34
   6   7  -2   -0.02    0.47
   6   7  -2    1.44    0.94
   6   7  -1   57.87    4.96
   6   7  -1   88.11    5.93
   6   7   0    5.59    1.56
   6   7   0    8.69    2.16
   6   7   1   25.23    3.38
   6   7   2   13.96    2.81
   6   7   3   46.93    4.89
   6   7   4    7.69    2.20
   6   7   5   61.42    5.52
   6   7   6    0.16    0.90
   6   7   7   12.51    2.47
   6   7   8    0.64    0.96
   6   7   9    2.73    1.16
   6   8  -3    0.97    0.64
   6   8  -2   53.94    4.09
   6   8  -1    1.30    0.93
   6   8   0  348.96   11.08
   6   8   1   43.80    4.08
   6   8   2   28.53    3.34
   6   8   3    2.63    1.22
   6   8   3    3.30    1.31
   6   8   4  466.54   14.03
   6   8   4  469.07   13.26
   6   8   5    0.56    0.88
   6   8   5   -0.01    0.48
   6   8   6   55.12    4.72
   6   8   6   40.43    3.54
   6   8   7    6.61    1.57
   6   9   1   24.86    2.68
   6   9   2   21.10    2.48
   7  -3   0   32.17    3.34
   7  -3   1   50.93    4.43
   7  -3   2   92.90    6.13
   7  -3   5  155.09    8.97
   7  -3   6   39.24    5.83
   7  -3   7   47.06    5.79
   7  -2  -1    2.71    1.03
   7  -2  -1    1.79    1.03
   7  -2   0   18.97    2.96
   7  -2   0   18.65    2.96
   7  -2   1   82.51    6.18
   7  -2   2  126.21    7.56
   7  -2   4   21.94    5.94
   7  -2   5   85.15    9.27
   7  -2   6   17.19    6.05
   7  -2   6   15.07    3.31
   7  -2   7   35.92    5.88
   7  -2   7  170.77    8.16
   7  -2   8   36.11    3.90
   7  -1  -3   96.65    6.13
   7  -1  -2    8.34    1.68
   7  -1  -2   18.87    2.96
   7  -1  -1   30.11    3.53
   7  -1  -1   47.57    4.86
   7  -1   0   13.98    2.61
   7  -1   1  273.09   11.75
   7  -1   3  167.96   10.74
   7  -1   4   45.18    8.54
   7  -1   4   33.00    4.39
   7  -1   5   76.93   10.18
   7  -1   5  195.07    9.79
   7  -1   6  -26.67    8.92
   7  -1   6  119.85    7.81
   7  -1   7  129.13    7.63
   7  -1   7   78.27    5.99
   7  -1   8    8.20    2.36
   7  -1   8    1.89    1.16
   7  -1   9   17.53    2.89
   7  -1   9   11.78    2.12
   7  -1  10   23.45    2.99
   7   0  -4    0.32    0.77
   7   0  -3   35.48    4.06
   7   0  -2   87.73    6.59
   7   0  -1    8.31    2.49
   7   0   1   16.22    4.13
   7   0   2  100.78    7.17
   7   0   2  223.78   10.64
   7   0   3   13.01    5.52
   7   0   3   -1.21    1.01
   7   0   4   43.42    8.87
   7   0   4   18.41    3.28
   7   0   5   21.06    3.65
   7   0   5   13.55    2.79
   7   0   6   16.89    3.18
   7   0   6   13.65    2.73
   7   0   7   32.73    4.10
   7   0   7   32.04    3.97
   7   0   8   78.73    6.11
   7   0   8   86.87    6.42
   7   0   8   73.78    5.63
   7   0   9    2.34    1.20
   7   0   9    2.17    1.00
   7   0  10   91.94    5.82
   7   0  10  102.43    6.12
   7   1  -4    0.48    0.92
   7   1  -3   30.29    3.72
   7   1  -3   20.64    2.82
   7   1  -2  153.99    8.94
   7   1  -2  138.01    7.71
   7   1  -1    8.47    2.15
   7   1   0   65.55    5.76
   7   1   1   29.33    4.19
   7   1   2   13.07    2.95
   7   1   3  114.70    8.37
   7   1   4   11.69    2.91
   7   1   4   12.46    2.99
   7   1   5    3.07    1.75
   7   1   5   -1.16    1.42
   7   1   6    0.46    1.40
   7   1   6    3.08    1.57
   7   1   7   64.92    6.17
   7   1   7   80.63    6.60
   7   1   7   78.66    6.42
   7   1   8    9.28    2.36
   7   1   8    7.68    2.25
   7   1   9   -0.17    1.18
   7   1   9    2.17    1.05
   7   1  10    7.87    1.94
   7   1  10    6.68    1.66
   7   2  -4   24.28    3.21
   7   2  -4   18.97    2.66
   7   2  -3   41.58    4.48
   7   2  -3   35.26    3.88
   7   2  -2    1.13    1.10
   7   2  -2    1.33    1.19
   7   2  -1    0.05    1.36
   7   2  -1    9.02    2.47
   7   2   0    1.68    1.39
   7   2   1   51.59    5.66
   7   2   2    5.02    2.20
   7   2   3    6.19    2.43
   7   2   4   13.20    3.13
   7   2   4    7.47    2.48
   7   2   5   55.95    5.67
   7   2   5   60.70    6.21
   7   2   6  181.54   10.02
   7   2   6  206.40   10.78
   7   2   7   12.95    4.09
   7   2   7    7.53    2.12
   7   2   7    8.78    2.22
   7   2   8  154.66    8.88
   7   2   8  163.39    8.95
   7   2   9   10.17    2.39
   7   2   9    9.98    2.18
   7   2  10  236.61    9.92
   7   2  10  254.05   10.20
   7   2  10  260.59   10.25
   7   2  11    9.09    1.82
   7   2  11    9.27    1.83
   7   3  -4  102.99    6.21
   7   3  -4  131.00    6.91
   7   3  -3    1.66    0.97
   7   3  -3    1.59    1.20
   7   3  -2  102.11    7.05
   7   3  -2  105.10    7.19
   7   3  -1   -0.16    1.33
   7   3  -1    0.20    1.19
   7   3   0   41.42    4.76
   7   3   1   94.68    7.61
   7   3   2   26.65    4.05
   7   3   3   51.19    5.67
   7   3   4    0.25    1.11
   7   3   4    5.45    2.14
   7   3   5   98.18    7.59
   7   3   5   91.87    7.19
   7   3   5   97.41    7.65
   7   3   6  391.98   13.96
   7   3   6  385.60   14.52
   7   3   6  406.97   15.15
   7   3   7   76.73    6.47
   7   3   7   68.55    6.06
   7   3   8   25.39    3.65
   7   3   8   30.00    4.04
   7   3   9   79.46    5.92
   7   3   9   79.78    6.03
   7   3   9   87.48    6.36
   7   3  10   63.36    5.07
   7   3  10   71.37    5.37
   7   4  -4   10.05    1.94
   7   4  -3   73.00    5.44
   7   4  -2   39.26    4.26
   7   4  -1   22.43    3.37
   7   4   0    6.99    1.96
   7   4   1   61.76    6.13
   7   4   2    0.46    1.11
   7   4   3   14.00    3.32
   7   4   4   24.98    3.41
   7   4   4   27.05    4.36
   7   4   5  271.42   11.22
   7   4   5  290.20   12.46
   7   4   6   16.17    2.81
   7   4   6   16.24    3.03
   7   4   6   18.83    3.35
   7   4   7  114.24    7.18
   7   4   7  118.13    7.71
   7   4   8    0.22    0.72
   7   4   8    1.73    1.11
   7   4   8    2.61    1.34
   7   4   9   12.09    2.36
   7   4   9   11.16    2.31
   7   4  10  128.40    6.82
   7   4  10  142.25    7.29
   7   5  -3    3.53    1.09
   7   5  -2   27.82    3.51
   7   5  -1    0.93    1.09
   7   5  -1    0.09    0.55
   7   5   0  138.71    8.20
   7   5   0  125.41    7.06
   7   5   1  230.39   11.03
   7   5   2   46.03    5.24
   7   5   3  133.76    7.76
   7   5   3  163.53    9.59
   7   5   4   30.16    3.79
   7   5   4   30.19    4.15
   7   5   5   13.13    2.60
   7   5   5   13.82    2.86
   7   5   6  481.31   14.88
   7   5   6  530.91   16.59
   7   5   7    5.63    1.73
   7   5   7    3.09    1.29
   7   5   7    5.15    1.77
   7   5   8   22.43    3.09
   7   5   8   15.74    2.51
   7   5   8   20.35    3.26
   7   5   9   17.68    2.61
   7   5   9   19.69    2.96
   7   6  -2   18.08    2.59
   7   6  -1    2.63    1.26
   7   6  -1    0.82    0.83
   7   6   0   63.14    5.29
   7   6   0   69.77    5.16
   7   6   1    8.40    2.00
   7   6   1    9.42    2.04
   7   6   2    8.64    2.08
   7   6   3   26.23    3.43
   7   6   3   30.45    4.00
   7   6   4  130.97    7.57
   7   6   4  142.84    8.46
   7   6   5  286.97   11.13
   7   6   5  280.46   11.67
   7   6   6  101.74    6.62
   7   6   6  108.30    7.00
   7   6   7   31.25    3.59
   7   6   7   24.95    3.25
   7   6   8    3.94    1.23
   7   7   0   17.89    2.39
   7   7   1    0.59    0.65
   7   7   2  158.66    7.60
   7   7   4   32.30    3.53
   7   7   5   12.88    2.24
   7   7   6    4.57    1.32
   7   7   7   11.67    1.99
   8   1   1  110.76    6.67
   8   1   4    3.58    1.13
   8   1   5    4.22    1.19
   8   2   1    6.74    1.67
   8   2   1    6.79    1.68
   8   2   2  105.21    6.39
   8   2   3  125.12    7.18
   8   2   4   90.86    6.29
   8   2   5  650.82   16.78
   8   2   6  308.98   11.24
   8   2   7   72.04    5.24
   8   3   0   50.16    4.18
   8   3   1    5.77    1.48
   8   3   2   10.28    2.18
   8   3   3   76.27    5.89
   8   3   4    1.46    1.13
   8   3   5  173.39    8.95
   8   3   6   19.67    3.09
   8   3   7    0.41    0.80
   8   4   1   13.92    2.29
   8   4   2   44.07    4.21
   8   4   3   30.81    3.77
   8   4   4   56.75    5.05
   8   4   5   17.86    3.05
   8   4   6    3.03    1.28
   8   5   2   23.11    2.88
   8   5   3   30.00    3.36
   8   5   4  139.08    7.30
   8   5   5    0.39    0.66
   0   0   0    0.00    0.00


TITL DGC-SG-2 in P1
REM P1 (#1 in standard setting)
CELL 1.54184   7.042289   9.293588  12.802480  89.1166  75.4762  77.2425
ZERR    3.00   0.000621   0.000903   0.000647   0.0065   0.0067   0.0079
LATT -1
SFAC C H N O
UNIT 33.00 30.00 3.00 3.00
TREF
HKLF 4
END
_computing_structure_solution     'SHELXT 2014/5 (Sheldrick, 2014)'
_computing_structure_solution     'SHELXT 2014/5 (Sheldrick, 2014)'
;
_shelx_hkl_checksum              22542
loop_
_space_group_symop_operation_xyz
'x, y, z'
'-x, -y, -z'
loop_
_atom_site_label
_atom_site_type_symbol
_atom_site_fract_x
_atom_site_fract_y
_atom_site_fract_z
_atom_site_U_iso_or_equiv
_atom_site_adp_type
_atom_site_occupancy
_atom_site_site_symmetry_order
_atom_site_calc_flag
_atom_site_refinement_flags_posn
_atom_site_refinement_flags_adp
S001 S 0.37099(8) 0.30054(6) 0.23256(4) 0.0166(2) Uani 1 1 d . .
O002 O 0.2468(2) 0.38679(19) 0.17210(13) 0.0218(4) Uani 1 1 d . .
O003 O 0.3258(3) 0.16670(18) 0.27727(13) 0.0227(4) Uani 1 1 d . .
O004 O 0.4809(3) 0.60285(19) 0.16048(13) 0.0229(4) Uani 1 1 d . .
O005 O 0.1430(3) 0.83356(19) 0.55983(13) 0.0247(4) Uani 1 1 d . .
N006 N 0.3595(3) 0.4075(2) 0.34174(15) 0.0167(5) Uani 1 1 d . .
C007 C 0.3236(3) 0.5615(3) 0.34202(18) 0.0151(5) Uani 1 1 d . .
C008 C 0.2408(3) 0.4988(3) 0.51688(18) 0.0156(5) Uani 1 1 d . .
C009 C 0.2517(3) 0.6191(3) 0.44544(18) 0.0156(5) Uani 1 1 d . .
C00A C 0.3079(3) 0.3672(3) 0.45149(18) 0.0163(5) Uani 1 1 d . .
C00B C 0.3791(3) 0.6529(3) 0.24933(19) 0.0174(5) Uani 1 1 d . .
C00C C 0.6725(4) 0.3025(3) 0.05328(19) 0.0213(6) Uani 1 1 d . .
H00C H 0.5745 0.3561 0.0220 0.026 Uiso 1 1 calc R U
C00D C 0.7678(4) 0.1828(3) 0.20713(19) 0.0194(5) Uani 1 1 d . .
H00D H 0.7321 0.1560 0.2785 0.023 Uiso 1 1 calc R U
C00E C 0.2255(4) 0.8715(3) 0.3728(2) 0.0204(5) Uani 1 1 d . .
H00E H 0.1817 0.9734 0.3830 0.024 Uiso 1 1 calc R U
C00F C 0.3185(4) 0.2292(3) 0.49615(19) 0.0192(5) Uani 1 1 d . .
H00F H 0.3638 0.1427 0.4530 0.023 Uiso 1 1 calc R U
C00G C 0.3078(4) 0.8142(3) 0.2736(2) 0.0209(6) Uani 1 1 d . .
H00G H 0.3215 0.8776 0.2166 0.025 Uiso 1 1 calc R U
C00H C 0.2007(3) 0.7786(3) 0.46852(19) 0.0177(5) Uani 1 1 d . .
C00I C 0.6234(4) 0.2624(2) 0.15929(18) 0.0169(5) Uani 1 1 d . .
C00J C 0.1810(3) 0.4925(3) 0.62892(19) 0.0192(5) Uani 1 1 d . .
H00J H 0.1365 0.5784 0.6727 0.023 Uiso 1 1 calc R U
C00K C 0.9655(4) 0.1439(3) 0.1471(2) 0.0232(6) Uani 1 1 d . .
H00K H 1.0635 0.0913 0.1788 0.028 Uiso 1 1 calc R U
C00L C 0.8717(4) 0.2608(3) -0.0054(2) 0.0257(6) Uani 1 1 d . .
H00L H 0.9064 0.2862 -0.0771 0.031 Uiso 1 1 calc R U
C00M C 0.2585(4) 0.2263(3) 0.6076(2) 0.0219(6) Uani 1 1 d . .
H00M H 0.2642 0.1356 0.6398 0.026 Uiso 1 1 calc R U
C00N C 0.1896(4) 0.3557(3) 0.6732(2) 0.0227(6) Uani 1 1 d . .
H00N H 0.1489 0.3494 0.7477 0.027 Uiso 1 1 calc R U
C00O C 1.0201(4) 0.1825(3) 0.0399(2) 0.0233(6) Uani 1 1 d . .
C00P C 1.2364(4) 0.1397(3) -0.0249(2) 0.0332(7) Uani 1 1 d . .
H00A H 1.2882 0.2270 -0.0410 0.050 Uiso 1 1 calc R U
H00B H 1.2438 0.0889 -0.0910 0.050 Uiso 1 1 calc R U
H00H H 1.3147 0.0762 0.0162 0.050 Uiso 1 1 calc R U
loop_
_atom_site_aniso_label
_atom_site_aniso_U_11
_atom_site_aniso_U_22
_atom_site_aniso_U_33
_atom_site_aniso_U_23
_atom_site_aniso_U_13
_atom_site_aniso_U_12
S001 0.0156(4) 0.0177(4) 0.0171(3) -0.0022(2) -0.0035(2) -0.0051(3)
O002 0.0165(9) 0.0277(9) 0.0216(9) -0.0030(7) -0.0072(7) -0.0025(7)
O003 0.0268(10) 0.0194(9) 0.0242(9) 0.0003(7) -0.0042(7) -0.0122(7)
O004 0.0266(10) 0.0238(9) 0.0160(9) 0.0000(7) -0.0020(7) -0.0047(8)
O005 0.0246(10) 0.0246(9) 0.0224(9) -0.0085(8) -0.0065(7) 0.0013(8)
N006 0.0162(11) 0.0166(10) 0.0164(10) -0.0002(8) -0.0014(8) -0.0046(8)
C007 0.0124(12) 0.0148(12) 0.0183(12) -0.0004(10) -0.0052(9) -0.0023(10)
C008 0.0085(12) 0.0213(12) 0.0167(12) -0.0028(10) -0.0029(9) -0.0033(10)
C009 0.0101(12) 0.0182(12) 0.0188(12) 0.0005(10) -0.0045(9) -0.0030(10)
C00A 0.0105(12) 0.0212(12) 0.0186(12) 0.0018(10) -0.0048(9) -0.0053(10)
C00B 0.0146(12) 0.0206(12) 0.0188(12) 0.0025(10) -0.0069(10) -0.0050(10)
C00C 0.0215(14) 0.0223(13) 0.0206(13) 0.0019(10) -0.0064(10) -0.0046(11)
C00D 0.0207(13) 0.0201(12) 0.0188(12) -0.0003(10) -0.0067(10) -0.0056(10)
C00E 0.0165(13) 0.0153(12) 0.0287(14) -0.0017(10) -0.0064(10) -0.0015(10)
C00F 0.0155(12) 0.0199(13) 0.0226(13) 0.0028(10) -0.0055(9) -0.0044(10)
C00G 0.0190(13) 0.0185(13) 0.0259(13) 0.0045(11) -0.0067(10) -0.0049(10)
C00H 0.0101(12) 0.0204(13) 0.0225(13) -0.0034(10) -0.0053(9) -0.0018(10)
C00I 0.0174(13) 0.0149(11) 0.0184(12) -0.0031(10) -0.0042(10) -0.0040(10)
C00J 0.0112(12) 0.0268(13) 0.0190(12) -0.0025(10) -0.0025(9) -0.0043(10)
C00K 0.0203(13) 0.0192(13) 0.0325(14) -0.0023(11) -0.0119(11) -0.0033(11)
C00L 0.0241(14) 0.0302(14) 0.0202(13) -0.0018(11) 0.0002(10) -0.0074(12)
C00M 0.0182(13) 0.0252(13) 0.0242(13) 0.0089(11) -0.0070(10) -0.0074(11)
C00N 0.0167(13) 0.0358(15) 0.0170(12) 0.0067(11) -0.0038(10) -0.0096(11)
C00O 0.0193(14) 0.0203(13) 0.0310(14) -0.0046(11) -0.0042(11) -0.0079(11)
C00P 0.0212(15) 0.0347(15) 0.0405(16) -0.0081(13) -0.0009(12) -0.0070(12)
loop_
_atom_type_symbol
_atom_type_description
_atom_type_scat_dispersion_real
_atom_type_scat_dispersion_imag
_atom_type_scat_source
C C 0.0181 0.0091 'International Tables Vol C Tables 4.2.6.8 and 6.1.1.4'
H H 0.0000 0.0000 'International Tables Vol C Tables 4.2.6.8 and 6.1.1.4'
N N 0.0311 0.0180 'International Tables Vol C Tables 4.2.6.8 and 6.1.1.4'
O O 0.0492 0.0322 'International Tables Vol C Tables 4.2.6.8 and 6.1.1.4'
S S 0.3331 0.5567 'International Tables Vol C Tables 4.2.6.8 and 6.1.1.4'
loop_
_geom_angle_atom_site_label_1
_geom_angle_atom_site_label_2
_geom_angle_atom_site_label_3
_geom_angle
O002 S001 O003 120.19(10)
O002 S001 N006 106.98(10)
O003 S001 N006 104.27(9)
O002 S001 C00I 110.66(10)
O003 S001 C00I 108.20(11)
N006 S001 C00I 105.40(10)
C007 N006 C00A 107.27(18)
C007 N006 S001 123.39(15)
C00A N006 S001 125.38(15)
C009 C007 N006 110.1(2)
C009 C007 C00B 122.3(2)
N006 C007 C00B 127.1(2)
C00J C008 C00A 120.1(2)
C00J C008 C009 133.0(2)
C00A C008 C009 106.93(19)
C007 C009 C008 108.1(2)
C007 C009 C00H 121.2(2)
C008 C009 C00H 130.6(2)
C00F C00A C008 121.6(2)
C00F C00A N006 130.8(2)
C008 C00A N006 107.6(2)
O004 C00B C007 123.8(2)
O004 C00B C00G 121.8(2)
C007 C00B C00G 114.4(2)
C00I C00C C00L 118.3(2)
C00I C00C H00C 120.9
C00L C00C H00C 120.9
C00K C00D C00I 118.9(2)
C00K C00D H00D 120.5
C00I C00D H00D 120.5
C00G C00E C00H 122.3(2)
C00G C00E H00E 118.9
C00H C00E H00E 118.9
C00M C00F C00A 117.1(2)
C00M C00F H00F 121.5
C00A C00F H00F 121.5
C00E C00G C00B 122.7(2)
C00E C00G H00G 118.7
C00B C00G H00G 118.7
O005 C00H C009 123.0(2)
O005 C00H C00E 121.3(2)
C009 C00H C00E 115.7(2)
C00C C00I C00D 121.6(2)
C00C C00I S001 119.51(19)
C00D C00I S001 118.74(18)
C00N C00J C008 118.3(2)
C00N C00J H00J 120.8
C008 C00J H00J 120.8
C00D C00K C00O 120.9(2)
C00D C00K H00K 119.5
C00O C00K H00K 119.5
C00O C00L C00C 121.8(2)
C00O C00L H00L 119.1
C00C C00L H00L 119.1
C00F C00M C00N 122.0(2)
C00F C00M H00M 119.0
C00N C00M H00M 119.0
C00J C00N C00M 121.0(2)
C00J C00N H00N 119.5
C00M C00N H00N 119.5
C00L C00O C00K 118.5(2)
C00L C00O C00P 121.0(2)
C00K C00O C00P 120.5(2)
C00O C00P H00A 109.5
C00O C00P H00B 109.5
H00A C00P H00B 109.5
C00O C00P H00H 109.5
H00A C00P H00H 109.5
H00B C00P H00H 109.5
loop_
_geom_bond_atom_site_label_1
_geom_bond_atom_site_label_2
_geom_bond_distance
S001 O002 1.4203(18)
S001 O003 1.4275(17)
S001 N006 1.7025(19)
S001 C00I 1.750(2)
O004 C00B 1.218(3)
O005 C00H 1.217(3)
N006 C007 1.397(3)
N006 C00A 1.426(3)
C007 C009 1.365(3)
C007 C00B 1.472(3)
C008 C00J 1.394(3)
C008 C00A 1.414(3)
C008 C009 1.436(3)
C009 C00H 1.462(3)
C00A C00F 1.391(3)
C00B C00G 1.482(4)
C00C C00I 1.381(3)
C00C C00L 1.386(4)
C00C H00C 0.9300
C00D C00K 1.382(4)
C00D C00I 1.386(3)
C00D H00D 0.9300
C00E C00G 1.323(4)
C00E C00H 1.484(4)
C00E H00E 0.9300
C00F C00M 1.384(3)
C00F H00F 0.9300
C00G H00G 0.9300
C00J C00N 1.379(4)
C00J H00J 0.9300
C00K C00O 1.394(4)
C00K H00K 0.9300
C00L C00O 1.383(4)
C00L H00L 0.9300
C00M C00N 1.399(4)
C00M H00M 0.9300
C00N H00N 0.9300
C00O C00P 1.508(4)
C00P H00A 0.9600
C00P H00B 0.9600
C00P H00H 0.9600
