#------------------------------------------------------------------------------
#$Date: 2019-11-10 06:54:59 +0200 (Sun, 10 Nov 2019) $
#$Revision: 225760 $
#$URL: file:///home/coder/svn-repositories/cod/cif/4/51/56/4515616.cif $
#------------------------------------------------------------------------------
#
# This file is available in the Crystallography Open Database (COD),
# http://www.crystallography.net/
#
# All data on this site have been placed in the public domain by the
# contributors.
#
data_4515616
loop_
_publ_author_name
'Xiong, Xiaodong'
'Yeung, Ying-Yeung'
_publ_section_title
;
 Ammonium Salt-Catalyzed Highly Practical Ortho-Selective Monohalogenation
 and Phenylselenation of Phenols: Scope and Applications
;
_journal_issue                   5
_journal_name_full               'ACS Catalysis'
_journal_page_first              4033
_journal_paper_doi               10.1021/acscatal.8b00327
_journal_volume                  8
_journal_year                    2018
_chemical_formula_sum            'C8 H6 Br Cl O3'
_chemical_formula_weight         265.49
_space_group_crystal_system      monoclinic
_space_group_IT_number           14
_space_group_name_Hall           '-P 2ybc'
_space_group_name_H-M_alt        'P 1 21/c 1'
_atom_sites_solution_hydrogens   geom
_audit_creation_method           SHELXL-2014/6
_cell_angle_alpha                90
_cell_angle_beta                 93.138(4)
_cell_angle_gamma                90
_cell_formula_units_Z            4
_cell_length_a                   4.1058(4)
_cell_length_b                   17.9301(19)
_cell_length_c                   12.4296(15)
_cell_measurement_reflns_used    395
_cell_measurement_temperature    296(2)
_cell_measurement_theta_max      15
_cell_measurement_theta_min      15
_cell_volume                     913.66(17)
_computing_cell_refinement       'BRUKER D8VENTURE DIFFRACTOMETER'
_computing_data_collection       'BRUKER D8VENTURE DIFFRACTOMETER'
_computing_data_reduction        'BRUKER D8VENTURE DIFFRACTOMETER'
_computing_molecular_graphics    'BRUKER SHELXTL'
_computing_publication_material  'BRUKER SHELXTL'
_computing_structure_refinement  'SHELXL-2014/6 (Sheldrick, 2014)'
_diffrn_ambient_temperature      296(2)
_diffrn_measured_fraction_theta_full 0.993
_diffrn_measured_fraction_theta_max 0.994
_diffrn_measurement_device_type  'BRUKER D8VENTURE DIFFRACTOMETER'
_diffrn_measurement_method       'PHI & OMEGA SCAN'
_diffrn_radiation_type           MoK\a
_diffrn_radiation_wavelength     0.71073
_diffrn_reflns_av_R_equivalents  0.0455
_diffrn_reflns_av_unetI/netI     0.0319
_diffrn_reflns_Laue_measured_fraction_full 0.993
_diffrn_reflns_Laue_measured_fraction_max 0.994
_diffrn_reflns_limit_h_max       5
_diffrn_reflns_limit_h_min       -5
_diffrn_reflns_limit_k_max       23
_diffrn_reflns_limit_k_min       -23
_diffrn_reflns_limit_l_max       13
_diffrn_reflns_limit_l_min       -16
_diffrn_reflns_number            16577
_diffrn_reflns_point_group_measured_fraction_full 0.993
_diffrn_reflns_point_group_measured_fraction_max 0.994
_diffrn_reflns_theta_full        25.242
_diffrn_reflns_theta_max         27.880
_diffrn_reflns_theta_min         2.272
_exptl_absorpt_coefficient_mu    4.759
_exptl_absorpt_correction_T_max  0.7456
_exptl_absorpt_correction_T_min  0.2931
_exptl_absorpt_correction_type   multi-scan
_exptl_crystal_colour            colourless
_exptl_crystal_density_diffrn    1.930
_exptl_crystal_description       block
_exptl_crystal_F_000             520
_exptl_crystal_size_max          0.400
_exptl_crystal_size_mid          0.300
_exptl_crystal_size_min          0.200
_refine_diff_density_max         0.789
_refine_diff_density_min         -0.765
_refine_diff_density_rms         0.160
_refine_ls_extinction_method     none
_refine_ls_goodness_of_fit_ref   1.279
_refine_ls_hydrogen_treatment    constr
_refine_ls_matrix_type           full
_refine_ls_number_parameters     118
_refine_ls_number_reflns         2170
_refine_ls_number_restraints     0
_refine_ls_restrained_S_all      1.279
_refine_ls_R_factor_all          0.0752
_refine_ls_R_factor_gt           0.0600
_refine_ls_shift/su_max          0.000
_refine_ls_shift/su_mean         0.000
_refine_ls_structure_factor_coef Fsqd
_refine_ls_weighting_details
'w=1/[\s^2^(Fo^2^)+(0.0500P)^2^+5.7653P] where P=(Fo^2^+2Fc^2^)/3'
_refine_ls_weighting_scheme      calc
_refine_ls_wR_factor_gt          0.1801
_refine_ls_wR_factor_ref         0.1859
_reflns_Friedel_coverage         0.000
_reflns_number_gt                1742
_reflns_number_total             2170
_reflns_threshold_expression     'I > 2\s(I)'
_cod_data_source_file            cs8b00327_si_012.cif
_cod_data_source_block           xxd268
_cod_original_sg_symbol_H-M      'P 21/c'
_cod_database_code               4515616
_shelx_space_group_comment
;
The symmetry employed for this shelxl refinement is uniquely defined
by the following loop, which should always be used as a source of
symmetry information in preference to the above space-group names.
They are only intended as comments.
;
_shelx_estimated_absorpt_t_min   0.252
_shelx_estimated_absorpt_t_max   0.449
_shelxl_version_number           2014/6
_shelx_res_file
;
TITL P in P2(1)/c
CELL 0.71073   4.10580  17.93010  12.42960  90.0000  93.1377  90.0000
ZERR    4.00   0.00040   0.00190   0.00150   0.0000   0.0035   0.0000
LATT 1
SYMM -X, 0.5+Y, 0.5-Z
SFAC C  H  O  Cl Br
UNIT 32 24 12 4 4
REM C8 H6 Br Cl O3
REM D8VENTURE BLOCK COLOURLESS
L.S. 16
ACTA
FMAP 2
PLAN 20
SIZE 0.40 0.30 0.20
TEMP 23

WGHT    0.050000    5.765300
FVAR       0.21637
BR1   5    0.526514    0.480779    0.778039    11.00000    0.07738    0.03113 =
         0.05737   -0.00612    0.01849    0.00288
CL1   4    0.539437    0.784965    0.746975    11.00000    0.06593    0.02519 =
         0.03885    0.00557    0.02431    0.00033
O1    3    0.667336    0.629919    0.688833    11.00000    0.06809    0.03368 =
         0.03411   -0.00031    0.02597    0.00106
AFIX  83
H1    2    0.705606    0.671093    0.663733    11.00000   -1.50000
AFIX   0
O2    3   -0.043365    0.778558    1.041920    11.00000    0.09459    0.04090 =
         0.05699   -0.00342    0.04758    0.00530
O3    3    0.234775    0.844659    0.927910    11.00000    0.06536    0.02798 =
         0.05210   -0.00619    0.02761    0.00153
C1    1    0.505405    0.638138    0.779524    11.00000    0.03271    0.03708 =
         0.02422   -0.00150    0.00554   -0.00006
C2    1    0.419999    0.574525    0.833073    11.00000    0.03885    0.02693 =
         0.03415   -0.00408    0.00802    0.00177
C3    1    0.259935    0.578505    0.927417    11.00000    0.04860    0.03024 =
         0.04208    0.00734    0.01378   -0.00674
AFIX  43
H3A   2    0.207025    0.534950    0.963149    11.00000   -1.20000
AFIX   0
C4    1    0.178384    0.646320    0.968818    11.00000    0.04346    0.04136 =
         0.03442    0.00130    0.01585   -0.00163
AFIX  43
H4A   2    0.072153    0.648301    1.032946    11.00000   -1.20000
AFIX   0
C5    1    0.251840    0.712311    0.916520    11.00000    0.03373    0.02951 =
         0.03108   -0.00222    0.00652   -0.00080
C6    1    0.419772    0.707689    0.820944    11.00000    0.03306    0.02820 =
         0.03094    0.00144    0.00448   -0.00080
C7    1    0.133333    0.781874    0.968205    11.00000    0.04082    0.03959 =
         0.03116   -0.00306    0.00470    0.00230
C8    1    0.110006    0.912645    0.974831    11.00000    0.07512    0.02797 =
         0.06254   -0.00648    0.02392    0.00963
AFIX  33
H8A   2    0.198701    0.955204    0.939824    11.00000   -1.50000
H8B   2   -0.123570    0.913423    0.965243    11.00000   -1.50000
H8C   2    0.172647    0.914120    1.050353    11.00000   -1.50000

AFIX   0
HKLF 4

REM  P in P2(1)/c
REM R1 =  0.0600 for    1742 Fo > 4sig(Fo)  and  0.0752 for all    2170 data
REM    118 parameters refined using      0 restraints

END

WGHT      0.0500      5.7652

REM Highest difference peak  0.789,  deepest hole -0.765,  1-sigma level  0.160
Q1    1   0.3990  0.7810  0.7379  11.00000  0.05    0.79
Q2    1   0.5570  0.7631  0.7362  11.00000  0.05    0.70
Q3    1   0.5359  0.9051  0.8426  11.00000  0.05    0.65
Q4    1  -0.1070  0.6329  1.0161  11.00000  0.05    0.61
Q5    1   0.5658  0.6319  1.0236  11.00000  0.05    0.60
Q6    1   0.5934  0.7851  0.7752  11.00000  0.05    0.58
Q7    1   0.1802  0.6999  1.1530  11.00000  0.05    0.54
Q8    1   0.4536  0.6754  0.8135  11.00000  0.05    0.50
Q9    1   0.5215  0.8258  0.9609  11.00000  0.05    0.49
Q10   1   0.1649  0.6370  0.6983  11.00000  0.05    0.48
Q11   1   0.2506  0.4804  0.7867  11.00000  0.05    0.47
Q12   1   0.7959  0.4800  0.7804  11.00000  0.05    0.44
Q13   1  -0.0608  0.7007  1.1529  11.00000  0.05    0.44
Q14   1   0.5210  0.5577  0.9077  11.00000  0.05    0.43
Q15   1   0.3057  0.7146  0.8584  11.00000  0.05    0.42
Q16   1   0.4853  0.6433  0.7090  11.00000  0.05    0.41
Q17   1   0.1886  0.5291  0.8433  11.00000  0.05    0.41
Q18   1  -0.1310  0.8063  0.9940  11.00000  0.05    0.41
Q19   1   0.5485  0.7024  0.8578  11.00000  0.05    0.40
Q20   1   0.1659  0.7770  1.0541  11.00000  0.05    0.39
;
_shelx_res_checksum              86563
_shelx_hkl_file
;
   2   0   0  327.02   15.60
   2   0   0  342.15   15.92
  -2   0   0  341.28   15.96
  -2   0   0  321.16   15.60
   2   0   0  309.90   15.73
   2   0   0  345.21   15.68
   3   0   0  172.19    8.73
  -3   0   0  182.30    8.96
   3   0   0  179.98    8.34
   3   0   0  160.49    8.44
  -4   0   0   27.14    3.20
   4   0   0   23.28    1.75
   4   0   0   23.91    1.50
   5   0   0    1.47    0.93
  -5   0   0    2.83    2.08
   1  -1   0  158.57    7.45
   1  -1   0  156.67    7.51
   1  -1   0  158.58    7.61
   1  -1   0  161.48    7.45
  -1  -1   0  155.82    7.59
  -1   1   0  155.45    7.45
   1   1   0  165.77    7.48
   1   1   0  153.92    7.57
  -1   1   0  152.88    7.61
   2  -1   0   34.43    1.68
   2  -1   0   37.50    1.72
   2  -1   0   33.34    1.88
  -2  -1   0   36.44    2.12
   2  -1   0   34.13    1.70
   2  -1   0   30.72    2.06
   2   1   0   34.87    2.04
  -2   1   0   33.71    2.14
   2   1   0   38.46    1.80
   3  -1   0   10.26    0.91
   3  -1   0   11.08    1.47
  -3  -1   0   12.36    1.62
   3  -1   0   10.30    1.11
   3  -1   0   10.70    0.62
   3  -1   0   10.29    0.61
   3   1   0   11.75    0.92
  -3   1   0   11.78    1.63
   3   1   0   11.94    1.05
   3   1   0   10.43    1.28
   4  -1   0    1.15    0.53
  -4  -1   0   -0.38    2.10
   4  -1   0    3.10    0.72
   4  -1   0    1.76    0.74
   4   1   0    1.18    0.52
   4   1   0    0.50    0.66
  -4   1   0    2.74    1.60
   5  -1   0    0.30    0.90
  -5  -1   0    2.23    1.93
  -5   1   0    0.17    2.16
   5   1   0    1.09    0.90
   0   2   0    1.62    0.14
   1  -2   0  254.51   11.97
   1  -2   0  253.77   11.97
   1  -2   0  248.73   12.02
   1  -2   0  244.05   12.11
   1  -2   0  249.35   12.03
   1  -2   0  247.99   11.96
  -1   2   0  252.29   11.97
  -1   2   0  248.29   12.13
   1   2   0  276.33   12.00
  -1   2   0  255.21   12.03
   2  -2   0   58.43    2.73
   2  -2   0   57.16    2.75
   2  -2   0   56.51    2.91
   2  -2   0   58.02    2.73
   2  -2   0   58.72    2.75
   2  -2   0   55.97    3.10
  -2  -2   0   56.77    3.09
   2   2   0   56.86    2.88
  -2   2   0   53.43    3.23
   2   2   0   56.24    3.04
   3  -2   0   14.08    1.23
   3  -2   0   14.30    0.81
  -3  -2   0   15.27    1.69
   3  -2   0   14.98    1.18
   3  -2   0   11.71    1.61
   3  -2   0   13.99    0.79
   3   2   0   12.74    1.36
   3   2   0   14.30    1.02
   3   2   0   13.83    1.13
  -3   2   0   14.74    1.80
   4  -2   0    4.78    0.88
  -4  -2   0    4.47    1.57
   4  -2   0    3.86    0.80
   4  -2   0    4.59    0.65
   4   2   0    4.86    0.82
  -4   2   0    3.44    1.67
   4   2   0    4.94    0.66
   5  -2   0    0.13    1.13
  -5  -2   0    3.52    2.05
  -5   2   0    1.14    2.18
   5   2   0    1.40    0.90
   0  -3   0   -0.04    0.08
   0  -3   0   -0.14    0.08
   0  -3   0   -0.26    0.08
   0  -3   0   -0.06    0.12
   0  -3   0   -0.12    0.08
   0  -3   0   -0.13    0.08
   0  -3   0   -0.07    0.10
   0   3   0   -0.07    0.08
   0   3   0   -0.10    0.13
   0   3   0   -0.20    0.09
   1  -3   0   36.11    1.94
   1  -3   0   38.02    1.88
   1  -3   0   39.30    1.88
   1  -3   0   36.34    1.88
  -1  -3   0   44.03    1.93
   1  -3   0   38.14    2.07
  -1  -3   0   45.08    1.86
   1  -3   0   38.07    1.88
   1  -3   0   36.63    1.94
  -1   3   0   33.88    1.97
   1   3   0   40.17    1.92
  -1   3   0   36.89    2.08
  -1   3   0   38.56    1.89
   1   3   0   37.96    1.96
  -1   3   0   37.89    1.95
   2  -3   0    1.53    0.23
   2  -3   0    1.14    0.20
   2  -3   0    1.34    0.24
   2  -3   0    1.32    0.41
   2  -3   0    1.38    0.24
   2  -3   0    1.25    0.44
   2  -3   0    2.04    0.70
  -2   3   0    1.25    0.23
  -2   3   0    1.26    0.70
   3  -3   0   12.49    1.15
   3  -3   0   13.02    0.73
  -3  -3   0   13.62    1.61
   3  -3   0   13.49    1.20
   3  -3   0   12.67    1.71
   3  -3   0   13.95    0.73
   3  -3   0   13.09    0.79
   3  -3   0   13.88    0.85
   3   3   0   12.34    1.10
  -3   3   0   12.08    1.76
   3   3   0   13.30    1.34
   3   3   0   13.10    1.02
   4  -3   0    4.75    0.67
   4  -3   0    3.25    0.45
   4  -3   0    3.76    0.45
  -4  -3   0    6.90    1.73
   4  -3   0    3.85    0.73
   4   3   0    4.39    0.70
   4   3   0    3.27    0.74
  -4   3   0    6.74    1.97
  -5  -3   0    3.38    1.93
   5  -3   0    1.69    1.06
   5   3   0    1.20    0.93
  -5   3   0    2.97    2.36
   0  -4   0  368.65   17.00
   0  -4   0  377.11   16.98
   0  -4   0  346.95   16.97
   0  -4   0  358.68   16.97
   0   4   0  356.02   17.00
   0   4   0  349.04   16.97
   1  -4   0  356.98   16.96
   1  -4   0  360.17   16.96
   1  -4   0  358.71   17.00
   1  -4   0  378.24   16.96
  -1  -4   0  351.98   17.00
  -1  -4   0  357.45   16.93
  -1  -4   0  359.30   16.98
   1  -4   0  362.65   17.11
   1  -4   0  361.26   17.00
   1  -4   0  376.58   16.96
  -1   4   0  332.80   17.05
   1   4   0  366.43   16.94
  -1   4   0  362.66   16.96
   1   4   0  364.82   16.98
  -1   4   0  337.85   17.02
  -1   4   0  356.55   17.25
   1   4   0  357.19   16.99
   2  -4   0  337.00   16.04
  -2  -4   0  341.87   15.99
   2  -4   0  353.52   16.12
  -2  -4   0  341.79   16.29
   2  -4   0  351.89   16.06
   2  -4   0  337.03   16.17
   2  -4   0  334.32   16.05
   2  -4   0  342.02   16.37
  -2  -4   0  331.82   16.00
  -2  -4   0  334.38   16.00
  -2  -4   0  344.42   16.11
   2  -4   0  332.88   16.14
  -2   4   0  339.75   16.40
   2   4   0  349.10   16.11
   2   4   0  331.02   16.24
  -2   4   0  334.02   16.06
   2   4   0  334.31   16.00
   3  -4   0   46.42    2.61
   3  -4   0   47.01    2.32
   3  -4   0   43.42    2.50
   3  -4   0   48.28    2.34
   3  -4   0   48.28    2.29
  -3  -4   0   49.15    2.94
   3  -4   0   47.42    2.31
   3   4   0   44.19    2.51
  -3   4   0   45.02    3.14
   3   4   0   42.36    2.71
   3   4   0   48.40    2.46
   4  -4   0    6.01    0.59
   4  -4   0    6.89    1.01
   4  -4   0    5.95    0.98
  -4  -4   0    7.73    1.72
   4  -4   0    5.29    0.60
  -4   4   0    8.68    1.98
   4   4   0    5.52    0.85
   4   4   0    6.00    0.92
  -5  -4   0    0.11    1.72
   5  -4   0    0.28    0.97
   5   4   0    0.26    1.02
  -5   4   0    3.24    2.33
   0  -5   0   -0.23    0.15
   0  -5   0   -0.11    0.17
   0  -5   0   -0.13    0.21
   0  -5   0   -0.10    0.15
   0  -5   0   -0.06    0.14
   0  -5   0   -0.03    0.13
   0  -5   0   -0.03    0.15
   0   5   0    0.04    0.21
   0   5   0   -0.02    0.14
   1  -5   0   11.84    0.78
   1  -5   0   10.78    0.94
   1  -5   0   12.59    0.69
   1  -5   0   12.47    0.70
  -1  -5   0   10.85    0.64
   1  -5   0   12.42    0.71
  -1  -5   0   11.18    0.63
  -1  -5   0   10.85    0.72
  -1  -5   0   11.28    0.72
   1  -5   0   11.36    0.69
   1  -5   0   11.90    0.81
   1   5   0   11.17    0.64
  -1   5   0   10.39    0.95
  -1   5   0   11.05    0.70
  -1   5   0   10.36    0.86
   1   5   0   12.12    0.78
  -1   5   0   11.94    0.78
   1   5   0   11.28    0.69
   1   5   0   11.65    0.63
   2  -5   0   35.95    1.80
   2  -5   0   35.58    2.20
   2  -5   0   35.99    1.77
  -2  -5   0   34.50    1.85
   2  -5   0   35.92    1.79
   2  -5   0   33.54    1.91
   2  -5   0   34.24    1.79
  -2  -5   0   34.94    1.71
   2  -5   0   34.57    1.94
  -2  -5   0   34.86    1.71
  -2  -5   0   34.60    2.07
   2   5   0   34.75    1.99
  -2   5   0   35.19    2.25
   2   5   0   35.92    1.88
   3  -5   0    6.13    0.74
   3  -5   0    6.32    0.83
   3  -5   0    4.76    0.59
   3  -5   0    5.53    0.52
  -3  -5   0    7.99    1.31
   3  -5   0    4.85    0.60
   3  -5   0    5.46    0.54
  -3   5   0    8.74    1.66
   3   5   0    6.66    1.04
   3   5   0    5.09    0.80
   4  -5   0   -0.20    0.40
   4  -5   0   -0.32    0.74
   4  -5   0    0.19    0.32
  -4  -5   0   -0.74    1.28
   4  -5   0    0.40    0.65
   4   5   0    0.21    0.55
   4   5   0   -0.02    0.62
  -4   5   0    1.64    1.68
  -5  -5   0    0.99    1.78
   5  -5   0    0.54    1.06
   5   5   0    0.93    0.95
  -5   5   0    1.92    2.50
   0  -6   0  101.08    4.95
   0  -6   0  105.34    4.96
   0  -6   0   99.24    4.97
   0  -6   0  106.30    4.98
   0  -6   0  102.28    4.97
   0  -6   0  105.76    4.99
   0   6   0  104.78    4.96
   0   6   0  104.10    5.03
  -1  -6   0  215.63   10.17
   1  -6   0  221.52   10.19
   1  -6   0  211.33   10.18
   1  -6   0  209.73   10.18
  -1  -6   0  211.51   10.16
   1  -6   0  217.58   10.23
   1  -6   0  226.79   10.20
  -1  -6   0  213.19   10.22
  -1  -6   0  210.68   10.15
   1   6   0  208.59   10.15
   1   6   0  214.72   10.14
  -1   6   0  207.65   10.33
   1   6   0  218.71   10.23
  -1   6   0  221.17   10.24
  -1   6   0  208.48   10.27
   1   6   0  210.25   10.16
   2  -6   0   32.17    1.64
  -2  -6   0   30.47    1.55
   2  -6   0   29.57    1.77
   2  -6   0   30.47    1.63
  -2  -6   0   31.25    1.89
  -2  -6   0   31.40    1.54
   2  -6   0   29.87    1.77
  -2  -6   0   31.65    1.54
   2  -6   0   30.88    1.63
   2  -6   0   30.55    1.61
   2  -6   0   30.80    2.08
   2   6   0   30.84    1.79
  -2   6   0   31.09    2.13
   2   6   0   31.88    1.72
  -3  -6   0   25.12    1.98
   3  -6   0   24.96    1.39
  -3  -6   0   22.42    1.34
   3  -6   0   23.80    1.33
   3  -6   0   24.71    1.40
  -3  -6   0   23.35    1.23
   3  -6   0   25.78    1.74
   3  -6   0   23.62    1.60
   3  -6   0   25.64    1.37
   3   6   0   22.71    1.78
  -3   6   0   29.79    2.47
   3   6   0   24.93    1.53
   4  -6   0    6.67    0.71
   4  -6   0    7.35    0.83
   4  -6   0    6.08    0.57
   4  -6   0    7.87    1.11
   4  -6   0    6.61    1.07
   4  -6   0    5.85    0.70
  -4  -6   0    9.51    1.76
   4   6   0    6.95    1.09
  -4   6   0    9.49    2.19
   4   6   0    7.64    1.07
   5  -6   0    1.39    1.13
   5  -6   0    0.42    0.35
  -5  -6   0   -1.60    1.61
  -5   6   0   -0.20    2.76
   5   6   0    0.17    0.91
   0  -7   0   -0.57    0.24
   0  -7   0   -0.34    0.19
   0  -7   0   -0.49    0.20
   0  -7   0   -0.14    0.20
   0  -7   0   -0.30    0.22
   0  -7   0   -0.05    0.22
   0  -7   0   -0.21    0.29
   0   7   0    0.35    0.36
   0   7   0   -0.29    0.20
  -1  -7   0   32.58    1.62
   1  -7   0   30.83    1.71
   1  -7   0   29.18    1.73
   1  -7   0   30.28    1.64
   1  -7   0   30.67    1.67
   1  -7   0   30.15    1.85
  -1  -7   0   33.13    1.64
   1  -7   0   30.14    1.66
  -1   7   0   32.51    1.83
   1   7   0   37.25    1.63
  -1   7   0   31.15    1.87
  -1   7   0   31.23    1.72
   1   7   0   35.65    1.59
  -2  -7   0   19.29    1.45
  -2  -7   0   19.36    1.13
  -2  -7   0   23.36    1.36
  -2  -7   0   19.93    1.16
   2  -7   0   23.92    1.26
  -2  -7   0   18.91    1.15
   2  -7   0   26.60    1.27
  -2  -7   0   20.18    1.14
   2  -7   0   22.75    1.22
   2  -7   0   25.19    1.26
   2   7   0   22.91    1.38
  -3  -7   0    5.90    1.15
  -3  -7   0    3.42    0.38
   3  -7   0    4.08    0.58
   3  -7   0    4.55    0.78
   3  -7   0    4.73    0.63
  -3  -7   0    4.86    0.41
   3  -7   0    4.70    0.67
   3  -7   0    5.01    0.65
   3   7   0    5.07    0.91
   3   7   0    4.89    0.69
   3   7   0    5.56    0.65
   4  -7   0    3.22    0.91
   4  -7   0    2.22    0.57
   4  -7   0    2.69    0.72
   4  -7   0    2.00    0.52
   4  -7   0    2.09    0.47
   4   7   0    2.88    0.70
  -4   7   0    5.13    1.95
   5  -7   0    0.50    0.53
   5  -7   0    1.39    1.18
  -5   7   0    1.71    3.02
   5   7   0    0.20    0.96
   0  -8   0  101.01    4.92
   0  -8   0   96.23    4.89
   0  -8   0  103.65    4.97
   0  -8   0  101.74    4.89
   0  -8   0  101.11    4.91
   0  -8   0  103.22    4.87
   0  -8   0   96.29    4.90
   0   8   0  111.83    5.01
   0   8   0   95.48    4.92
  -1  -8   0   72.52    3.76
   1  -8   0   80.84    3.96
   1  -8   0   75.34    3.77
   1  -8   0   74.92    3.76
  -1  -8   0   71.41    3.74
   1  -8   0   81.54    3.80
   1  -8   0   83.09    3.87
  -1  -8   0   75.78    3.82
  -1  -8   0   78.21    3.76
   1  -8   0   78.89    3.80
  -1  -8   0   75.99    3.75
  -1  -8   0   73.23    3.74
   1  -8   0   75.73    3.81
  -1   8   0   76.82    3.83
   1   8   0   76.11    3.70
   1   8   0   78.44    3.87
  -1   8   0   79.93    3.97
  -2  -8   0   32.86    1.74
  -2  -8   0   31.75    2.08
  -2  -8   0   32.94    1.74
   2  -8   0   30.12    1.93
   2  -8   0   33.75    1.98
  -2  -8   0   33.06    1.91
   2  -8   0   36.05    1.85
   2  -8   0   33.64    1.83
  -2  -8   0   34.10    1.76
   2  -8   0   34.33    1.81
   2  -8   0   35.53    2.28
   2  -8   0   38.04    1.97
  -2  -8   0   33.72    1.74
   2   8   0   34.18    1.89
  -2   8   0   33.74    2.30
  -2   8   0   39.36    2.29
   2   8   0   32.32    1.76
   2   8   0   35.37    1.95
  -2   8   0   39.66    2.06
  -3  -8   0    9.46    0.60
   3  -8   0    6.66    0.84
  -3  -8   0   10.78    0.62
   3  -8   0    7.28    0.79
   3  -8   0    8.23    0.99
   3  -8   0    8.59    1.28
  -3  -8   0    8.66    0.66
  -3  -8   0   11.07    0.59
   3  -8   0    7.95    0.77
   3  -8   0    7.46    0.84
   3   8   0   11.54    1.07
   3   8   0   10.87    1.08
  -3   8   0   10.66    1.77
   4  -8   0    1.59    0.44
   4  -8   0    1.22    0.47
   4  -8   0    2.43    0.68
   4  -8   0    2.07    0.92
  -4  -8   0    4.62    1.44
  -4   8   0    6.10    2.11
   4   8   0    2.82    0.63
   4   8   0    3.52    0.77
   4   8   0    1.38    0.68
   5  -8   0    2.58    1.26
   5  -8   0    0.85    0.49
  -5   8   0    2.17    3.28
   0  -9   0    0.03    0.24
   0  -9   0   -0.43    0.27
   0  -9   0    0.02    0.32
   0  -9   0    0.05    0.28
   0  -9   0    0.05    0.28
   0  -9   0   -0.03    0.27
   0  -9   0    0.06    0.28
   0   9   0   -0.07    0.42
   0   9   0    0.08    0.25
  -1  -9   0    2.67    0.38
   1  -9   0    2.28    0.37
   1  -9   0    3.06    0.43
   1  -9   0    3.53    0.75
   1  -9   0    2.02    0.41
   1  -9   0    2.71    0.39
  -1  -9   0    4.24    0.56
   1  -9   0    2.92    0.46
  -1  -9   0    2.33    0.35
  -1  -9   0    3.87    0.54
  -1  -9   0    2.62    0.40
   1  -9   0    3.93    0.60
  -1   9   0    3.75    0.74
   1   9   0    2.76    0.51
  -1   9   0    3.57    0.65
   1   9   0    3.12    0.34
  -1   9   0    2.68    0.46
   2  -9   0    0.47    0.35
   2  -9   0    0.58    0.50
  -2  -9   0    0.51    0.24
  -2  -9   0    0.51    0.41
  -2  -9   0    0.35    0.25
   2  -9   0    0.12    0.35
  -2  -9   0    0.20    0.23
  -2  -9   0    0.97    0.59
   2  -9   0    0.30    0.90
   2  -9   0    0.23    0.34
   2  -9   0    0.30    0.37
   2  -9   0    0.29    0.46
  -2  -9   0    0.63    0.30
  -2   9   0    0.78    0.75
  -2   9   0    1.21    0.95
  -2   9   0    0.80    0.53
   2   9   0    0.56    0.49
   2   9   0    0.70    0.23
   3  -9   0    3.46    0.53
   3  -9   0    2.56    0.62
  -3  -9   0    3.93    1.04
   3  -9   0    3.22    0.49
  -3  -9   0    3.16    0.35
   3  -9   0    2.96    0.52
   3  -9   0    2.71    0.52
   3  -9   0    3.18    0.80
  -3  -9   0    3.02    0.56
  -3  -9   0    3.84    0.45
   3   9   0    2.34    0.64
   3   9   0    4.22    0.82
  -3   9   0    4.28    1.49
   3   9   0    3.21    0.45
   4  -9   0    4.60    1.04
   4  -9   0    4.46    0.62
   4  -9   0    4.28    0.66
  -4  -9   0    6.50    1.50
  -4   9   0    7.35    2.29
   4   9   0    5.85    0.81
   4   9   0    5.38    0.88
   0 -10   0   92.11    4.57
   0 -10   0   93.64    4.54
   0 -10   0   91.60    4.54
   0 -10   0   94.90    4.57
   0 -10   0   93.69    4.64
   0 -10   0   94.68    4.50
   0 -10   0   92.99    4.56
   0  10   0   89.51    4.67
   0  10   0   93.29    4.54
  -1 -10   0   61.06    3.11
   1 -10   0   60.96    3.15
   1 -10   0   61.01    3.13
   1 -10   0   64.38    3.12
   1 -10   0   62.80    3.25
   1 -10   0   64.23    3.16
  -1 -10   0   63.69    3.10
  -1 -10   0   60.04    3.09
  -1 -10   0   60.46    3.10
  -1 -10   0   61.76    3.19
  -1  10   0   62.49    3.20
  -1  10   0   62.20    3.31
   1  10   0   57.91    3.05
  -1  10   0   68.31    3.33
   1  10   0   62.13    3.25
   2 -10   0   55.84    2.84
   2 -10   0   53.08    2.84
  -2 -10   0   53.47    2.74
   2 -10   0   56.94    2.84
   2 -10   0   57.70    2.97
   2 -10   0   53.12    3.25
  -2 -10   0   54.77    2.91
   2 -10   0   54.87    2.94
   2 -10   0   56.99    2.81
  -2 -10   0   50.98    2.74
  -2 -10   0   53.66    2.74
  -2 -10   0   53.67    2.75
   2  10   0   55.68    2.97
   2  10   0   56.52    2.69
  -2  10   0   55.01    3.30
  -2  10   0   53.50    3.20
  -2  10   0   55.31    3.01
   3 -10   0    5.18    0.97
  -3 -10   0    4.21    0.44
   3 -10   0    3.76    0.59
  -3 -10   0    5.33    1.05
  -3 -10   0    4.41    0.73
  -3 -10   0    3.82    0.45
   3 -10   0    4.05    0.57
   3 -10   0    4.91    0.64
  -3 -10   0    3.29    0.40
   3 -10   0    3.08    0.63
   3 -10   0    3.61    0.69
   3  10   0    3.95    0.77
   3  10   0    4.37    0.53
   3  10   0    5.71    0.92
  -3  10   0    5.07    1.74
   4 -10   0    0.18    0.50
   4 -10   0   -0.20    0.89
   4 -10   0    0.22    0.46
  -4  10   0    0.05    1.95
   4  10   0    0.05    0.81
   4  10   0   -0.43    1.22
   0 -11   0    0.83    0.37
   0 -11   0    1.26    0.35
   0  11   0    0.40    0.30
  -1 -11   0    6.68    0.67
   1 -11   0    5.67    0.78
  -1 -11   0    6.50    0.65
  -1 -11   0    5.15    0.67
   1 -11   0    7.41    0.78
  -1 -11   0    6.11    0.74
   1 -11   0    7.85    0.69
   1 -11   0    9.22    1.09
  -1 -11   0    6.52    0.66
   1 -11   0    7.13    0.76
   1 -11   0    7.97    0.78
  -1  11   0    7.96    1.13
   1  11   0    6.12    1.01
   1  11   0    6.67    0.54
  -1  11   0    6.36    1.02
  -1  11   0    7.06    0.86
   2 -11   0    1.77    0.52
   2 -11   0    2.15    0.64
   2 -11   0    2.07    0.46
   2 -11   0    2.98    0.55
  -2 -11   0    1.97    0.55
   2 -11   0    2.53    0.59
   2 -11   0    2.26    0.60
   2 -11   0    2.91    1.11
  -2 -11   0    1.74    0.39
  -2 -11   0    2.21    0.37
  -2 -11   0    2.51    0.41
   2  11   0    2.69    0.70
   2  11   0    2.66    0.40
  -2  11   0    1.71    0.90
  -2  11   0    2.85    1.13
   3 -11   0    4.48    0.66
  -3 -11   0    3.62    0.52
   3 -11   0    3.16    0.56
   3 -11   0    4.07    0.63
   3 -11   0    3.78    0.64
   3 -11   0    3.34    0.75
  -3 -11   0    3.79    0.54
   3 -11   0    4.08    0.87
   3  11   0    4.27    0.58
  -3  11   0    4.11    1.60
   3  11   0    3.92    0.84
   4 -11   0    0.32    0.94
   4 -11   0   -0.06    0.54
   4 -11   0   -0.24    0.49
   4  11   0    1.38    0.90
  -4  11   0    0.53    2.16
   4  11   0    0.55    0.65
   0 -12   0   39.57    2.32
   0 -12   0   41.40    2.24
   0 -12   0   40.73    2.23
   0 -12   0   40.63    2.19
   0 -12   0   43.36    2.26
   0 -12   0   43.56    2.24
   0  12   0   42.14    2.19
   0  12   0   41.82    2.47
  -1 -12   0   24.10    1.41
  -1 -12   0   23.74    1.43
  -1 -12   0   22.67    1.43
  -1 -12   0   23.98    1.52
  -1 -12   0   24.13    1.44
   1  12   0   23.59    1.73
   1  12   0   26.24    1.34
   2 -12   0   11.39    1.29
   2 -12   0   11.76    1.57
   2 -12   0   11.26    1.01
  -2 -12   0   11.76    0.85
   2 -12   0   11.79    1.02
  -2 -12   0   13.53    1.34
   2 -12   0   11.72    1.10
  -2 -12   0   11.22    0.92
   2 -12   0   10.55    1.17
   2 -12   0   11.43    1.08
   2  12   0   11.52    1.31
  -2  12   0   12.80    1.65
  -2  12   0   12.32    1.75
   2  12   0   12.23    0.74
  -3 -12   0    0.87    0.36
   3 -12   0    0.19    0.54
   3 -12   0    0.42    0.55
   3 -12   0    1.62    0.83
   3 -12   0    0.81    0.51
   3 -12   0    0.34    0.56
  -3 -12   0    0.80    0.35
   3 -12   0    1.16    0.76
   3  12   0    1.59    0.35
  -3  12   0    0.13    1.65
   3  12   0    0.21    0.77
   4 -12   0    0.13    0.57
   4 -12   0   -0.40    0.95
   4 -12   0   -0.35    0.53
   4  12   0   -0.55    0.93
  -4  12   0    0.16    2.20
   0 -13   0    3.01    0.53
   0 -13   0    2.67    0.48
   0 -13   0    3.35    0.51
   0 -13   0    3.48    0.53
   0 -13   0    1.84    0.51
   0 -13   0    5.10    0.75
   0  13   0    1.72    0.43
  -1 -13   0    7.10    1.16
   1 -13   0   11.17    0.91
   1 -13   0   10.62    1.01
   1 -13   0    9.31    1.24
  -1 -13   0    7.30    0.83
   1 -13   0   11.36    1.03
   1 -13   0   11.21    0.97
  -1 -13   0    8.59    1.02
   1 -13   0   10.09    1.04
  -1  13   0   10.62    1.48
  -1  13   0   10.28    0.96
   2 -13   0   21.52    1.51
   2 -13   0   21.09    1.56
   2 -13   0   21.27    1.42
   2 -13   0   22.40    1.43
  -2 -13   0   21.18    1.33
   2 -13   0   18.14    1.85
   2 -13   0   23.07    1.94
   2 -13   0   22.18    1.49
  -2 -13   0   17.92    1.26
   2  13   0   21.25    1.15
  -2  13   0   21.80    1.99
   2  13   0   23.06    1.78
  -2  13   0   20.97    2.18
   3 -13   0   15.36    1.62
   3 -13   0   17.25    1.35
   3 -13   0   16.99    1.53
   3 -13   0   16.21    1.28
   3 -13   0   18.26    1.39
  -3 -13   0   15.74    1.09
   3  13   0   16.22    1.65
   3  13   0   16.70    1.03
  -3  13   0   15.09    2.45
   4 -13   0    0.47    0.62
   4 -13   0    2.52    1.01
   4 -13   0    1.42    0.64
  -4  13   0    1.96    2.35
   4  13   0    3.26    1.17
   0 -14   0  216.14   10.59
   0 -14   0  217.41   10.59
   0 -14   0  222.33   10.62
   0 -14   0  216.30   10.62
   0 -14   0  244.66   11.03
   0  14   0  202.51   10.75
   0  14   0  224.10   10.59
   1 -14   0   20.70    1.44
   1 -14   0   20.72    1.50
  -1 -14   0   25.44    1.39
   1 -14   0   21.90    1.51
  -1 -14   0   26.99    1.47
   1 -14   0   20.92    1.50
   1 -14   0   18.37    1.54
   1 -14   0   19.40    1.52
  -1  14   0   21.24    1.50
  -1  14   0   25.86    2.02
   2 -14   0    3.34    0.71
   2 -14   0    2.40    0.61
   2 -14   0    3.02    0.68
  -2 -14   0    1.90    0.51
   2 -14   0    2.89    0.71
   2 -14   0    2.45    0.71
   2 -14   0    2.77    1.16
   2  14   0    3.60    0.95
  -2  14   0    3.48    1.32
   2  14   0    2.65    0.37
  -2  14   0    3.32    1.17
   3 -14   0    4.18    0.71
   3 -14   0    4.67    0.78
  -3 -14   0    2.86    0.63
   3 -14   0    4.51    0.93
  -3  14   0    2.72    1.74
   3  14   0    4.77    1.05
   4 -14   0    0.60    0.61
   4 -14   0    0.54    0.73
   4 -14   0    0.18    1.01
   4  14   0   -0.40    1.10
  -4  14   0    0.86    2.30
   1 -15   0   45.46    2.39
   1 -15   0   41.25    2.35
   1 -15   0   40.87    2.29
   1 -15   0   39.21    2.40
   1 -15   0   40.57    2.35
  -1  15   0   38.14    2.77
   2 -15   0    0.72    0.63
   2 -15   0   -0.10    0.53
  -2 -15   0   -0.05    0.38
   2 -15   0    1.28    0.62
   2 -15   0    0.51    0.63
  -2 -15   0   -0.15    0.40
   2 -15   0    0.77    1.14
  -2  15   0    0.35    1.31
   2  15   0    1.08    1.00
   2  15   0    0.19    0.29
  -2  15   0    1.45    1.15
   3 -15   0    0.35    0.63
   3 -15   0    1.20    0.76
   3 -15   0   -0.34    0.58
  -3  15   0    1.13    1.77
   3  15   0   -0.50    0.96
   4 -15   0    0.87    1.19
   4 -15   0    0.98    0.80
   4 -15   0    1.73    0.70
  -4  15   0    1.59    2.46
   4  15   0    1.52    1.21
   0 -16   0  150.93    7.64
   0 -16   0  150.09    7.64
   0 -16   0  155.69    7.66
   0  16   0  162.85    8.07
   0  16   0  162.23    7.63
  -1 -16   0   15.79    1.20
   1 -16   0   16.35    1.43
   1 -16   0   15.39    1.43
   1 -16   0   18.82    1.42
   1 -16   0   12.38    1.65
  -1 -16   0   17.43    1.37
   1 -16   0   14.59    1.28
   1  16   0   17.06    1.98
   1  16   0   17.30    1.13
   2 -16   0   14.42    1.53
   2 -16   0   18.12    1.51
   2 -16   0   14.77    1.51
  -2 -16   0   15.26    1.21
  -2 -16   0   19.41    1.23
   2 -16   0   15.40    1.38
   2  16   0   17.19    1.03
  -2  16   0   14.24    2.33
   3 -16   0   12.36    1.39
   3 -16   0   13.10    1.63
   3 -16   0   12.63    1.35
   3  16   0   15.11    1.90
  -3  16   0   13.76    2.71
   0 -17   0   -0.33    0.58
   0 -17   0    0.45    0.58
   0 -17   0    0.58    0.56
   0  17   0    0.24    0.92
   0  17   0    0.60    0.51
   1 -17   0    0.76    0.61
   1 -17   0    0.93    0.66
   1 -17   0    0.74    0.70
  -1 -17   0    1.07    0.61
  -1 -17   0    1.51    0.53
   1 -17   0   -0.17    0.71
   1 -17   0    0.80    0.81
  -1  17   0    0.44    1.20
   2 -17   0   10.13    1.40
   2 -17   0   10.28    1.43
   2 -17   0   10.13    1.25
  -2 -17   0   10.50    1.08
   2  17   0   12.47    2.12
  -2  17   0   12.66    1.78
   3 -17   0    8.75    1.09
   3 -17   0   11.53    1.67
   3 -17   0   10.28    1.34
   3  17   0   10.37    1.53
   0 -18   0   14.16    1.27
   0 -18   0    9.35    1.24
   0 -18   0   12.82    1.32
   0  18   0   12.06    1.95
   1 -18   0   11.90    1.28
  -1 -18   0   14.99    1.37
   1 -18   0   13.93    1.52
   1 -18   0   13.88    1.45
  -1 -18   0   14.36    1.25
   1 -18   0   15.25    1.46
  -1  18   0   13.60    2.19
   1  18   0   17.02    2.11
   1  18   0   13.17    1.08
   2 -18   0    2.22    0.83
  -2 -18   0    1.88    0.61
   2 -18   0    2.89    0.77
   2 -18   0    1.80    0.80
   2  18   0    4.01    1.35
  -2  18   0    3.48    1.62
   3 -18   0    2.08    0.99
   3 -18   0    2.13    0.86
   3 -18   0    2.68    0.86
   3  18   0    2.26    1.37
   0 -19   0   -0.50    0.61
   0 -19   0   -0.12    0.64
   0 -19   0   -1.12    0.65
   0  19   0   -0.51    1.07
   1 -19   0   -0.92    0.83
   1 -19   0   -0.28    0.63
  -1 -19   0    0.29    0.61
  -1 -19   0    0.71    0.67
   1 -19   0    0.26    0.67
   1  19   0   -0.36    1.18
  -1  19   0    0.37    1.34
   2 -19   0    1.65    0.84
  -2 -19   0    3.38    0.68
   2 -19   0    2.46    0.83
   2 -19   0    1.90    0.80
  -2  19   0    1.53    1.45
   2  19   0    2.74    1.41
   3 -19   0    0.94    0.95
   3 -19   0    0.99    1.08
   3 -19   0    0.36    0.88
   3  19   0    1.39    1.50
   0 -20   0   47.36    2.70
   0 -20   0   41.36    2.72
   0 -20   0   48.13    2.75
   0  20   0   44.83    3.33
   1 -20   0   25.57    2.21
   1 -20   0   29.52    2.09
  -1 -20   0   26.62    2.12
   1 -20   0   26.46    1.92
   1  20   0   29.32    2.78
  -1  20   0   28.36    2.83
   2 -20   0   16.86    1.71
   2 -20   0   16.23    1.69
   2 -20   0   15.98    1.72
  -2 -20   0   14.84    1.48
  -2  20   0   16.34    2.08
   2  20   0   18.50    2.11
   0 -21   0   -1.05    0.84
   0 -21   0    1.07    0.79
   0 -21   0    0.57    0.69
   0  21   0    0.41    1.40
  -1 -21   0    3.14    0.97
   1 -21   0    1.68    0.89
  -1 -21   0    2.09    0.76
   1 -21   0    1.82    0.85
   1 -21   0    3.04    0.87
  -1  21   0   -0.92    1.44
   1  21   0    3.66    1.53
   2 -21   0    2.10    0.89
   2 -21   0    3.36    0.95
   2 -21   0    1.47    0.98
   2  21   0    5.13    1.65
  -2  21   0    2.62    1.66
   0 -22   0   21.75    2.04
   0 -22   0   26.36    2.00
   0 -22   0   23.95    1.90
   0  22   0   23.36    3.00
   1 -22   0   28.35    2.05
   1 -22   0   28.68    2.06
  -1 -22   0   27.65    1.98
   1 -22   0   27.60    2.15
  -1  22   0   22.76    3.07
   1  22   0   21.49    3.03
   0 -23   0   -0.11    1.02
   0 -23   0   -0.91    0.81
   0  23   0    3.32    2.11
   1 -23   0   -0.63    0.97
  -1 -23   0    0.36    0.78
   1 -23   0    0.42    0.98
   1 -23   0    0.64    0.88
   1  23   0    2.26    2.05
  -1  23   0    0.52    1.89
  -5   0   1    1.86    2.05
   5   0  -1    0.38    0.88
   4   0  -1    0.31    0.61
   4   0  -1   -0.21    0.54
  -4   0   1    0.86    2.09
   3   0  -1   -0.14    0.43
   3   0  -1   -0.31    0.41
   3   0  -1   -0.20    0.82
  -3   0   1   -0.11    1.03
  -2   0   1   -0.28    0.53
   2   0  -1   -0.06    0.30
   2   0  -1    0.07    0.59
   1   0  -1   -0.91    0.06
  -1   0   1   -0.57    0.15
  -1   0  -1   -0.89    0.09
   1   0   1   -0.89    0.08
   1   0   1   -1.12    0.30
   1   0   1   -0.84    0.09
  -1   0  -1   -0.94    0.31
   1   0   1   -0.81    0.09
  -1   0  -1   -0.88    0.08
   2   0   1   -0.20    0.21
   2   0   1   -0.14    0.10
  -2   0  -1    0.03    0.13
  -2   0  -1   -0.61    0.59
   2   0   1   -0.31    0.53
   2   0   1   -0.18    0.14
   3   0   1   -0.08    0.18
   3   0   1   -0.40    0.51
  -3   0  -1   -0.29    0.18
   3   0   1   -1.35    0.75
  -3   0  -1    0.13    1.00
   4   0   1    0.21    0.43
   4   0   1   -0.51    0.57
  -4   0  -1    1.04    1.51
   4   0   1    1.00    0.71
   5   0   1    0.41    0.91
  -5   0  -1   -0.13    2.03
   5  -1  -1    0.79    0.91
  -5  -1   1    3.82    1.90
   5   1  -1    0.69    0.88
  -5   1   1    0.27    2.14
   4  -1  -1   -0.35    0.64
   4  -1  -1    0.00    0.53
  -4  -1   1    0.74    1.68
   4   1  -1    0.23    0.61
   4   1  -1   -0.22    0.57
  -4   1   1    1.29    1.48
   3  -1  -1    0.81    0.86
  -3  -1   1    1.43    0.98
   3  -1  -1    1.02    0.51
   3   1  -1    1.13    0.49
   3   1  -1    1.01    0.46
  -3   1   1    0.89    1.07
   3   1  -1    1.16    0.86
   2  -1  -1    2.99    0.43
   2  -1  -1    2.31    0.25
   2  -1  -1    2.75    0.68
   2  -1  -1    2.60    0.27
  -2  -1   1    3.24    0.72
  -2   1   1    3.74    0.81
   2   1  -1    3.70    0.46
   1  -1  -1   28.09    1.35
   1  -1  -1   27.51    1.35
   1   1  -1   27.67    1.52
   1   1  -1   28.08    1.39
  -1   1   1   27.11    1.55
  -1   1   1   28.86    1.35
  -1   1   1   28.98    1.35
   1   1  -1   26.88    1.42
   1  -1   1  164.89    7.55
   1  -1   1  155.96    7.55
  -1  -1  -1  158.79    7.69
  -1  -1  -1  158.68    7.54
   1  -1   1  160.04    7.55
  -1  -1  -1  156.69    7.54
   1  -1   1  163.48    7.70
  -1   1  -1  151.66    7.69
   1   1   1  163.12    7.67
   1   1   1  166.62    7.55
   1   1   1  160.84    7.53
  -1   1  -1  146.17    7.55
  -1   1  -1  162.20    7.55
   1   1   1  164.32    7.54
  -2  -1  -1   26.57    1.40
  -2  -1  -1   27.93    1.84
   2  -1   1   28.01    1.43
   2  -1   1   29.17    1.40
   2  -1   1   27.90    1.80
  -2  -1  -1   30.82    1.40
  -2   1  -1   28.66    1.42
  -2   1  -1   26.89    1.85
   2   1   1   30.05    1.46
   2   1   1   28.69    1.40
   2   1   1   28.98    1.75
   3  -1   1   14.55    0.83
   3  -1   1   14.57    1.55
  -3  -1  -1   14.31    0.79
  -3  -1  -1   17.81    1.79
   3  -1   1   15.06    1.25
   3   1   1   13.06    1.21
  -3   1  -1   15.37    1.80
   3   1   1   15.35    0.99
   3   1   1   13.74    1.46
  -3   1  -1   14.02    0.82
   4  -1   1    4.67    0.59
   4  -1   1    4.21    0.88
   4  -1   1    4.83    0.73
   4   1   1    3.87    0.83
  -4   1  -1    3.97    1.63
   4   1   1    4.90    0.76
   5  -1   1   -0.07    1.05
  -5  -1  -1   -0.12    1.95
   5   1   1    0.57    0.92
  -5   1  -1    1.31    2.07
  -5  -2   1   -0.07    1.77
   5  -2  -1    1.62    0.94
   5   2  -1    0.16    0.92
  -5   2   1    0.32    2.05
   4  -2  -1    2.26    0.75
   4  -2  -1    2.20    0.63
  -4  -2   1    3.88    1.63
   4  -2  -1    2.14    0.76
   4   2  -1    2.13    0.69
  -4   2   1    3.06    1.55
   4   2  -1    1.78    0.61
   3  -2  -1   12.15    1.11
  -3  -2   1   12.05    1.56
   3  -2  -1   12.30    0.70
   3  -2  -1   11.84    0.67
   3  -2  -1   11.18    1.50
   3   2  -1   10.61    1.38
  -3   2   1   11.19    1.64
   3   2  -1   12.33    1.03
   3   2  -1   12.24    0.99
   2  -2  -1   60.34    2.78
   2  -2  -1   58.89    2.80
   2  -2  -1   55.34    3.17
   2  -2  -1   56.92    2.94
  -2  -2   1   57.99    3.14
   2  -2  -1   57.83    2.79
   2  -2  -1   59.30    2.78
   2   2  -1   60.70    2.91
  -2   2   1   55.58    3.20
   2   2  -1   58.10    2.90
   2   2  -1   56.60    3.10
  -1  -2   1   14.04    0.74
   1  -2  -1   15.26    0.77
  -1  -2   1   14.59    0.95
   1  -2  -1   14.92    1.00
  -1  -2   1   15.62    0.85
   1  -2  -1   14.15    0.77
   1  -2  -1   16.27    0.86
  -1  -2   1   14.74    0.74
   1  -2  -1   16.23    0.79
   1   2  -1   15.19    0.79
   1   2  -1   13.74    0.74
   1   2  -1   13.83    0.92
   1   2  -1   14.98    0.85
  -1   2   1   15.07    0.77
  -1   2   1   15.22    0.77
  -1   2   1   13.79    1.00
   0  -2   1   19.02    1.08
   0  -2  -1   21.42    1.07
   0  -2  -1   22.17    1.09
   0  -2  -1   18.42    1.10
   0  -2   1   18.34    1.07
   0  -2   1   19.43    1.07
   0  -2  -1   21.17    1.09
   0   2   1   23.09    1.08
   0   2  -1   20.44    1.08
   0   2  -1   19.87    1.07
   0   2   1   22.85    1.07
   0   2  -1   20.61    1.09
   0   2   1   23.48    1.12
   0   2   1   22.40    1.07
   1  -2   1   15.57    0.82
  -1  -2  -1   14.83    0.81
   1  -2   1   15.75    0.81
   1  -2   1   15.20    1.00
   1  -2   1   15.92    0.81
  -1  -2  -1   15.95    1.02
   1   2   1   15.80    0.78
   1   2   1   15.90    0.78
  -1   2  -1   14.54    1.01
  -1   2  -1   14.62    0.86
   1   2   1   15.06    0.93
  -1   2  -1   15.76    0.81
   1   2   1   16.23    0.82
  -2  -2  -1    1.26    0.17
   2  -2   1    1.17    0.34
  -2  -2  -1    1.12    0.66
   2  -2   1    0.55    0.40
   2  -2   1    1.16    0.19
  -2  -2  -1    0.91    0.15
   2  -2   1    1.13    0.22
   2  -2   1    1.32    0.63
   2   2   1    1.61    0.30
   2   2   1    1.46    0.58
  -2   2  -1    1.40    0.70
  -2   2  -1    1.02    0.20
  -2   2  -1    0.88    0.21
   2   2   1    1.40    0.17
   3  -2   1    9.14    0.87
   3  -2   1    8.65    0.54
   3  -2   1    7.98    0.52
  -3  -2  -1    8.51    0.58
  -3  -2  -1   10.02    1.54
   3  -2   1    8.38    0.64
   3  -2   1    8.25    1.05
   3  -2   1    8.08    1.39
  -3   2  -1    9.86    1.60
   3   2   1    9.00    1.20
   3   2   1    9.31    0.80
   4  -2   1    0.09    0.24
  -4  -2  -1    0.54    1.52
   4  -2   1    0.03    0.24
   4  -2   1   -0.12    0.45
   4  -2   1   -0.26    0.49
   4   2   1    0.17    0.47
   4   2   1   -0.15    0.65
  -4   2  -1   -0.78    1.45
  -5  -2  -1    1.37    1.85
   5  -2   1   -0.11    1.00
  -5   2  -1    0.56    2.21
   5   2   1    1.45    0.93
   5  -3  -1    1.27    0.99
  -5   3   1    1.99    2.26
   5   3  -1    1.51    0.91
  -4  -3   1   15.09    2.27
   4  -3  -1   11.82    1.42
   4  -3  -1   13.98    1.37
   4   3  -1   13.21    1.20
  -4   3   1   13.23    2.43
   4   3  -1   13.04    1.26
  -3  -3   1   32.97    2.33
   3  -3  -1   33.83    1.67
   3  -3  -1   30.44    2.38
   3  -3  -1   33.05    2.04
   3  -3  -1   32.29    1.97
   3  -3  -1   34.82    1.62
   3  -3  -1   35.52    1.69
   3   3  -1   33.85    1.88
  -3   3   1   32.37    2.51
   3   3  -1   30.49    2.18
   3   3  -1   33.06    1.88
   2  -3  -1   17.44    1.45
   2  -3  -1   19.51    1.00
   2  -3  -1   18.44    1.20
  -2  -3   1   19.17    1.40
   2  -3  -1   18.75    1.29
   2  -3  -1   19.40    1.02
   2  -3  -1   19.94    1.00
   2  -3  -1   19.78    1.03
   2   3  -1   20.41    1.16
  -2   3   1   20.68    1.23
   2   3  -1   19.71    1.17
  -2   3   1   18.24    1.50
   2   3  -1   18.50    1.36
   1  -3  -1    0.31    0.38
   1  -3  -1    0.32    0.32
   1  -3  -1    0.40    0.14
   1  -3  -1    0.28    0.16
  -1  -3   1    0.54    0.34
  -1  -3   1    0.60    0.23
  -1  -3   1    0.51    0.12
  -1  -3   1    0.31    0.10
  -1  -3   1    0.51    0.12
   1  -3  -1    0.20    0.17
   1  -3  -1    0.39    0.25
  -1   3   1    0.36    0.13
  -1   3   1    0.40    0.14
  -1   3   1    0.27    0.21
   1   3  -1    0.69    0.25
  -1   3   1    0.17    0.44
   1   3  -1    0.37    0.28
   1   3  -1    0.55    0.13
   0  -3  -1   91.77    4.40
   0  -3   1   89.39    4.41
   0  -3  -1   89.57    4.40
   0  -3   1   94.24    4.40
   0  -3   1   94.15    4.40
   0  -3   1   90.27    4.39
   0   3  -1   91.69    4.40
   0   3  -1   90.10    4.41
   0   3   1   91.59    4.39
   0   3   1  101.33    4.40
   0   3  -1   93.87    4.40
   0   3   1   89.98    4.44
   0   3  -1   89.38    4.39
   1  -3   1    3.76    0.33
   1  -3   1    4.06    0.37
  -1  -3  -1    4.03    0.34
   1  -3   1    3.82    0.33
   1  -3   1    3.28    0.59
  -1  -3  -1    3.45    0.50
   1   3   1    4.50    0.44
   1   3   1    3.68    0.26
  -1   3  -1    3.47    0.32
  -1   3  -1    3.41    0.33
  -1   3  -1    3.30    0.60
  -1   3  -1    3.33    0.44
   1   3   1    3.80    0.27
   2  -3   1   45.66    2.30
   2  -3   1   46.77    2.35
   2  -3   1   45.65    2.28
  -2  -3  -1   46.06    2.62
  -2  -3  -1   48.11    2.28
   2  -3   1   47.37    2.47
   2  -3   1   46.85    2.66
  -2  -3  -1   46.57    2.24
   2   3   1   45.45    2.53
  -2   3  -1   45.34    2.28
   2   3   1   47.95    2.24
  -2   3  -1   45.73    2.30
   2   3   1   49.30    2.34
   2   3   1   45.97    2.24
  -2   3  -1   44.78    2.72
   3  -3   1   28.53    1.44
   3  -3   1   27.66    1.48
  -3  -3  -1   28.42    2.22
   3  -3   1   29.58    1.51
   3  -3   1   27.60    1.62
   3  -3   1   26.78    1.48
   3  -3   1   27.69    1.90
   3  -3   1   29.98    2.21
   3   3   1   27.74    1.94
   3   3   1   29.18    1.58
  -3   3  -1   29.34    2.35
  -3   3  -1   28.31    1.49
   4  -3   1   13.28    1.55
  -4  -3  -1   15.02    2.25
   4  -3   1   12.59    0.83
   4  -3   1   13.27    1.01
   4  -3   1   12.45    1.11
   4  -3   1   12.53    0.82
   4   3   1   12.69    1.34
   4   3   1   12.30    1.04
  -4   3  -1   13.87    2.40
   5  -3   1    3.52    1.11
  -5  -3  -1    4.95    2.05
   5   3   1    4.27    1.03
  -5   3  -1    4.02    2.46
   5  -4  -1    0.76    1.00
  -5   4   1    4.43    2.33
   5   4  -1    1.20    0.89
   4  -4  -1    2.09    1.00
   4  -4  -1    1.89    0.32
  -4  -4   1    3.35    1.55
   4  -4  -1    2.01    0.73
   4  -4  -1    1.86    0.34
   4   4  -1    2.70    0.71
   4   4  -1    2.35    0.68
  -4   4   1    2.73    1.80
   3  -4  -1    0.38    0.25
   3  -4  -1    0.12    0.21
   3  -4  -1    0.48    0.29
   3  -4  -1   -0.01    0.21
   3  -4  -1    0.31    0.53
   3  -4  -1   -0.65    0.59
  -3  -4   1    0.19    0.89
   3   4  -1    0.61    0.48
   3   4  -1    0.33    0.43
  -3   4   1    0.84    1.14
   3   4  -1   -0.19    0.75
   2  -4  -1   25.20    1.28
   2  -4  -1   25.52    1.27
  -2  -4   1   24.74    1.18
   2  -4  -1   22.08    1.43
   2  -4  -1   25.85    1.25
   2  -4  -1   23.30    1.26
   2  -4  -1   25.73    1.56
  -2  -4   1   23.84    1.61
   2  -4  -1   23.01    1.70
  -2  -4   1   24.36    1.19
   2   4  -1   25.75    1.40
  -2   4   1   22.31    1.74
   2   4  -1   22.75    1.54
  -2   4   1   24.59    1.46
   1  -4  -1    9.16    0.76
   1  -4  -1    8.93    0.80
   1  -4  -1    8.84    0.55
   1  -4  -1    8.65    0.53
   1  -4  -1    8.87    0.55
  -1  -4   1    9.42    0.51
   1  -4  -1    9.08    0.64
  -1  -4   1    8.95    0.64
  -1  -4   1    8.95    0.50
  -1  -4   1    8.69    0.50
   1   4  -1    8.87    0.48
  -1   4   1    8.12    0.84
  -1   4   1    8.78    0.52
   1   4  -1    8.72    0.62
   0  -4   1   10.50    0.58
   0  -4   1   10.58    0.60
   0  -4  -1   10.58    0.58
   0  -4  -1    9.78    0.58
   0  -4  -1   10.52    0.68
   0  -4  -1   10.67    0.62
   0  -4   1   11.01    0.63
   0  -4   1   10.58    0.60
   0   4  -1   10.29    0.59
   0   4  -1   10.52    0.63
   0   4  -1   10.26    0.60
   0   4   1   10.65    0.58
   0   4  -1   10.46    0.58
   0   4   1    9.65    0.68
   0   4  -1   10.80    0.60
   0   4   1   10.24    0.58
   1  -4   1    1.60    0.25
   1  -4   1    1.38    0.22
   1  -4   1    1.29    0.34
   1  -4   1    1.35    0.22
   1  -4   1    2.33    0.54
  -1   4  -1    1.38    0.32
  -1   4  -1    1.22    0.22
  -1   4  -1    1.14    0.21
  -1   4  -1    1.53    0.65
   2  -4   1    1.30    0.30
   2  -4   1    3.16    0.76
   2  -4   1    1.83    0.37
  -2  -4  -1    2.82    0.73
   2  -4   1    1.51    0.29
  -2  -4  -1    1.91    0.27
   2  -4   1    1.58    0.46
  -2  -4  -1    1.49    0.36
   2   4   1    1.80    0.19
  -2   4  -1    1.50    0.78
   2   4   1    1.76    0.58
   2   4   1    1.99    0.21
  -2   4  -1    1.59    0.30
  -2   4  -1    1.75    0.26
   3  -4   1    4.04    0.66
   3  -4   1    3.91    0.44
  -3  -4  -1    5.18    1.20
  -3  -4  -1    3.53    0.34
   3  -4   1    3.99    0.78
   3  -4   1    3.31    0.46
   3  -4   1    3.74    0.45
   3  -4   1    3.96    0.42
  -3   4  -1    3.49    0.42
   3   4   1    4.36    0.54
  -3   4  -1    4.30    1.40
   3   4   1    4.18    0.94
   4  -4   1    0.92    0.81
   4  -4   1    0.18    0.34
   4  -4   1    0.67    0.55
  -4  -4  -1    0.51    1.37
   4  -4   1    0.01    0.49
   4   4   1    0.79    0.51
   4   4   1    0.13    0.65
  -4   4  -1    0.06    1.56
  -5  -4  -1    2.53    1.84
   5  -4   1    0.14    1.02
  -5   4  -1    1.43    2.48
   5   4   1    0.54    0.93
   5  -5  -1    0.72    0.99
  -5   5   1    0.91    2.46
   5   5  -1   -0.28    0.89
   4  -5  -1    0.08    0.37
   4  -5  -1    0.45    0.68
  -4  -5   1    0.14    1.29
   4  -5  -1    0.01    0.32
   4  -5  -1    0.61    0.75
   4   5  -1    0.65    0.58
  -4   5   1    2.29    1.69
   4   5  -1   -0.09    0.58
   3  -5  -1   -0.01    0.24
   3  -5  -1    0.18    0.28
  -3  -5   1    0.16    0.89
   3  -5  -1   -0.21    0.25
   3  -5  -1    0.06    0.30
   3  -5  -1   -0.61    0.53
   3  -5  -1    0.13    0.58
  -3   5   1    0.65    1.18
   3   5  -1   -0.11    0.43
   3   5  -1   -0.01    0.50
   3   5  -1   -0.33    0.69
   2  -5  -1    3.75    0.39
   2  -5  -1    2.85    0.39
  -2  -5   1    3.36    0.28
  -2  -5   1    4.41    0.57
   2  -5  -1    3.14    0.52
  -2  -5   1    3.51    0.28
  -2  -5   1    3.36    0.32
   2  -5  -1    3.61    0.43
  -2  -5   1    4.87    0.82
  -2  -5   1    3.40    0.30
   2  -5  -1    3.71    0.62
   2  -5  -1    3.97    0.86
   2  -5  -1    3.31    0.44
   2   5  -1    3.56    0.54
  -2   5   1    4.93    0.60
  -2   5   1    4.53    1.02
   2   5  -1    3.85    0.70
   1  -5  -1   55.29    2.74
   1  -5  -1   54.59    2.69
   1  -5  -1   56.49    2.68
   1  -5  -1   57.69    2.70
  -1  -5   1   49.28    2.69
   1  -5  -1   55.49    2.91
  -1  -5   1   56.46    2.75
  -1  -5   1   56.13    2.66
  -1  -5   1   50.11    2.65
   1  -5  -1   54.90    2.87
  -1   5   1   59.52    2.69
   1   5  -1   57.29    2.75
   1   5  -1   54.21    2.71
   1   5  -1   54.57    2.62
  -1   5   1   52.59    2.85
  -1   5   1   54.62    2.69
  -1   5   1   54.68    2.88
  -1   5   1   56.02    2.76
   0  -5   1    1.68    0.22
   0  -5   1    2.47    0.31
   0  -5   1    1.84    0.24
   0  -5   1    1.89    0.23
   0  -5  -1    1.77    0.27
   0  -5  -1    1.90    0.24
   0  -5  -1    2.25    0.28
   0  -5  -1    2.26    0.33
   0   5  -1    2.27    0.27
   0   5   1    2.36    0.38
   0   5  -1    1.75    0.25
   0   5   1    2.01    0.26
   0   5   1    2.13    0.28
   0   5  -1    1.59    0.29
   0   5  -1    2.08    0.33
   0   5   1    1.98    0.26
   0   5  -1    1.62    0.26
   1  -5   1   19.45    1.14
  -1  -5  -1   24.36    1.15
  -1  -5  -1   21.49    1.06
   1  -5   1   20.77    1.11
  -1  -5  -1   24.89    1.18
   1  -5   1   19.85    1.22
   1  -5   1   20.30    1.10
   1  -5   1   19.54    1.43
  -1   5  -1   19.32    1.19
  -1   5  -1   19.40    1.18
  -1   5  -1   18.58    1.11
  -1   5  -1   19.98    1.10
  -1   5  -1   19.65    1.34
   2  -5   1    0.59    0.34
  -2  -5  -1    0.56    0.64
   2  -5   1    0.33    0.24
  -2  -5  -1    0.81    0.16
   2  -5   1    0.08    0.40
  -2  -5  -1    0.76    0.34
  -2  -5  -1    0.76    0.18
   2  -5   1    0.64    0.27
   2  -5   1    0.11    0.25
   2  -5   1    0.54    0.72
   2   5   1    0.52    0.16
   2   5   1    0.71    0.35
   2   5   1    0.40    0.18
  -2   5  -1    0.31    0.21
  -2   5  -1    1.25    0.87
  -2   5  -1    0.26    0.28
   2   5   1    0.77    0.49
   3  -5   1    1.77    0.33
   3  -5   1    1.57    0.37
   3  -5   1    1.98    0.37
  -3  -5  -1    1.34    0.22
   3  -5   1    1.41    0.32
   3  -5   1    2.29    0.53
  -3  -5  -1    2.87    1.06
   3  -5   1    1.35    0.63
  -3   5  -1    1.84    1.22
   3   5   1    1.93    0.24
  -3   5  -1    1.22    0.38
   3   5   1    2.25    0.80
   3   5   1    1.66    0.49
   4  -5   1    0.92    0.26
   4  -5   1    1.11    0.29
   4  -5   1    1.02    0.41
   4  -5   1    1.66    0.83
  -4  -5  -1    2.16    1.46
   4  -5   1    1.35    0.39
   4  -5   1    0.42    0.52
   4   5   1    1.44    0.70
   4   5   1    1.38    0.57
  -4   5  -1    2.17    1.83
  -5  -5  -1    3.82    1.87
   5  -5   1    2.86    1.17
  -5   5  -1    1.70    2.57
   5   5   1    0.34    0.94
   5  -6  -1    7.66    1.31
   5   6  -1    7.61    1.39
  -5   6   1   13.41    3.03
   4  -6  -1    8.48    0.62
   4  -6  -1    7.77    0.84
   4  -6  -1    7.24    0.61
   4  -6  -1    9.65    1.52
   4  -6  -1    9.02    1.26
   4  -6  -1    8.56    0.73
  -4  -6   1    9.02    1.86
  -4   6   1   11.24    2.34
   4   6  -1    7.97    1.18
   4   6  -1    7.29    1.02
   3  -6  -1   48.90    2.42
   3  -6  -1   48.50    2.47
   3  -6  -1   52.00    2.73
   3  -6  -1   49.67    2.44
   3  -6  -1   47.31    2.72
   3  -6  -1   47.86    2.45
  -3  -6   1   48.12    2.98
   3   6  -1   51.13    2.62
  -3   6   1   49.44    3.26
   3   6  -1   47.37    2.54
   3   6  -1   41.72    3.09
  -2  -6   1  249.81   11.82
  -2  -6   1  257.15   11.95
   2  -6  -1  250.73   12.00
  -2  -6   1  251.52   11.81
   2  -6  -1  255.26   12.23
   2  -6  -1  252.52   11.89
   2  -6  -1  257.76   11.89
   2  -6  -1  259.86   11.88
  -2  -6   1  255.61   11.82
  -2  -6   1  249.69   12.05
   2  -6  -1  249.61   11.97
   2  -6  -1  242.85   11.87
  -2   6   1  244.20   12.22
  -2   6   1  224.59   12.18
   2   6  -1  248.34   11.85
   2   6  -1  261.80   11.96
   2   6  -1  235.84   12.00
   1  -6  -1  607.65   28.72
   1  -6  -1  578.43   28.76
   1  -6  -1  594.77   28.72
  -1  -6   1  621.72   28.71
  -1  -6   1  619.36   28.71
   1  -6  -1  570.50   29.05
   1  -6  -1  614.32   28.81
  -1  -6   1  623.66   28.78
   1  -6  -1  647.28   28.75
  -1  -6   1  609.15   28.70
  -1   6   1  629.85   28.73
  -1   6   1  607.76   28.73
  -1   6   1  601.17   28.88
  -1   6   1  609.17   28.79
   1   6  -1  608.61   28.77
  -1   6   1  595.36   28.85
   0  -6   1  629.96   28.76
   0  -6  -1  599.67   28.75
   0  -6  -1  571.53   28.75
   0   6  -1  628.13   28.76
   0   6   1  601.26   28.81
   0   6  -1  625.29   28.75
   1  -6   1  411.80   19.56
  -1  -6  -1  409.13   19.53
   1  -6   1  422.63   19.52
  -1  -6  -1  415.75   19.55
   1  -6   1  406.64   19.54
   1  -6   1  420.81   19.53
  -1  -6  -1  417.89   19.49
  -1  -6  -1  420.74   19.53
   1  -6   1  396.85   19.67
   1   6   1  424.02   19.49
   1   6   1  415.42   19.49
  -1   6  -1  420.29   19.57
   1   6   1  413.09   19.56
  -1   6  -1  407.38   19.67
  -1   6  -1  416.84   19.52
  -1   6  -1  415.88   19.59
   1   6   1  423.21   19.48
  -1   6  -1  370.19   19.57
   2  -6   1  122.47    6.11
   2  -6   1  122.18    6.19
   2  -6   1  129.33    6.08
  -2  -6  -1  127.62    6.12
   2  -6   1  127.35    6.41
   2  -6   1  126.32    6.08
   2  -6   1  123.69    6.06
  -2  -6  -1  126.39    6.28
  -2  -6  -1  127.17    6.02
  -2  -6  -1  124.58    6.02
   2   6   1  129.81    6.08
   2   6   1  124.47    6.19
   2   6   1  129.67    6.02
  -2   6  -1  127.16    6.48
   2   6   1  129.19    6.12
  -2   6  -1  121.23    6.08
  -3  -6  -1   47.54    2.93
   3  -6   1   48.11    2.37
   3  -6   1   47.45    2.67
   3  -6   1   44.09    2.53
   3  -6   1   46.70    2.35
   3  -6   1   45.58    2.40
   3  -6   1   47.68    2.41
  -3  -6  -1   46.20    2.29
  -3   6  -1   49.46    3.30
   3   6   1   43.64    2.66
   3   6   1   48.11    2.28
  -3   6  -1   44.98    2.40
   3   6   1   45.88    2.47
   4  -6   1    5.96    0.62
   4  -6   1    6.48    0.76
   4  -6   1   10.03    1.51
   4  -6   1    7.29    0.91
  -4  -6  -1    7.60    1.75
   4  -6   1    6.52    0.85
  -4   6  -1   10.68    2.40
   4   6   1    6.65    0.99
   4   6   1    4.84    0.88
  -5  -6  -1    1.20    1.81
   5  -6   1    0.27    1.19
   5  -6   1    0.27    0.37
   5   6   1    0.63    0.94
  -5   6  -1    0.69    2.85
   5  -7  -1    3.20    0.46
   5  -7  -1    3.93    1.21
  -5   7   1    5.61    3.06
   4  -7  -1   26.81    1.98
   4  -7  -1   30.29    2.16
   4  -7  -1   28.20    1.56
   4  -7  -1   27.13    1.61
   4  -7  -1   26.07    1.46
   4   7  -1   26.57    1.72
   4   7  -1   25.61    1.81
  -4   7   1   28.26    3.16
  -3  -7   1    6.45    1.28
  -3  -7   1    5.46    0.45
   3  -7  -1    6.29    0.63
   3  -7  -1    7.05    0.90
  -3  -7   1    5.55    0.43
   3  -7  -1    8.62    1.08
   3  -7  -1    8.01    0.68
   3  -7  -1    6.10    0.69
   3  -7  -1    7.48    0.72
   3   7  -1    5.54    1.00
   3   7  -1    5.15    0.79
   3   7  -1    6.71    0.80
  -3   7   1    8.43    1.58
  -2  -7   1   19.33    1.09
   2  -7  -1   22.17    1.20
   2  -7  -1   20.40    1.35
   2  -7  -1   20.81    1.17
   2  -7  -1   23.57    1.22
   2  -7  -1   21.58    1.22
  -2  -7   1   20.16    1.30
  -2  -7   1   18.87    1.08
  -2  -7   1   20.86    1.11
   2  -7  -1   24.72    1.75
  -2  -7   1   18.83    1.09
  -2   7   1   21.56    1.38
   2   7  -1   21.05    1.11
   2   7  -1   20.07    1.36
  -2   7   1   21.87    1.73
  -1  -7   1  402.94   18.49
  -1  -7   1  381.62   18.44
   1  -7  -1  406.55   18.68
   1  -7  -1  379.99   18.50
   1  -7  -1  399.19   18.52
   1  -7  -1  393.12   18.59
   1  -7  -1  404.06   18.54
  -1  -7   1  391.76   18.56
   1  -7  -1  378.56   18.53
  -1  -7   1  385.45   18.48
  -1  -7   1  396.58   18.48
   1  -7  -1  389.43   18.50
  -1   7   1  397.51   18.57
  -1   7   1  383.49   18.62
  -1   7   1  388.24   18.66
   1   7  -1  398.80   18.42
   1   7  -1  357.67   18.44
   1   7  -1  401.73   18.56
   0  -7  -1    8.40    0.63
   0  -7   1    7.36    0.56
   0  -7  -1    8.42    0.75
   0  -7   1    7.50    0.55
   0  -7  -1    8.22    0.58
   0  -7   1    7.29    0.54
   0  -7  -1    7.90    0.57
   0  -7   1    8.29    0.66
   0  -7  -1    8.25    0.55
   0   7  -1    7.61    0.54
   0   7  -1    6.74    0.60
   0   7   1    7.25    0.77
   0   7  -1    7.83    0.71
   0   7   1    8.56    0.60
   0   7   1    8.22    0.54
   0   7  -1    7.50    0.55
   0   7  -1    6.63    0.61
  -1  -7  -1   15.48    0.85
  -1  -7  -1   15.97    0.83
  -1  -7  -1   13.75    0.82
   1  -7   1   12.43    0.88
   1  -7   1   13.38    0.90
  -1  -7  -1   14.31    0.93
   1  -7   1   14.53    1.11
   1  -7   1   14.47    0.97
   1  -7   1   14.22    0.97
  -1   7  -1   13.42    0.89
   1   7   1   14.56    0.82
  -1   7  -1   14.22    0.91
  -1   7  -1   13.96    1.08
   1   7   1   15.66    0.82
   1   7   1   13.50    1.00
  -1   7  -1   16.72    0.99
   1   7   1   14.00    0.81
  -1   7  -1   14.08    1.15
   2  -7   1  260.57   12.16
  -2  -7  -1  250.62   12.18
   2  -7   1  242.87   12.16
  -2  -7  -1  250.29   12.09
  -2  -7  -1  249.69   12.08
   2  -7   1  255.54   12.13
   2  -7   1  267.09   12.15
   2  -7   1  255.22   12.25
   2  -7   1  251.34   12.14
  -2  -7  -1  256.26   12.30
   2  -7   1  260.44   12.47
   2   7   1  266.21   12.12
  -2   7  -1  261.04   12.52
   2   7   1  255.98   12.23
  -2   7  -1  240.51   12.29
   2   7   1  255.79   12.19
   2   7   1  252.18   12.08
  -2   7  -1  258.00   12.16
   3  -7   1   52.31    2.62
   3  -7   1   51.86    2.55
   3  -7   1   48.76    2.57
   3  -7   1   50.49    2.53
   3  -7   1   53.13    2.88
  -3  -7  -1   47.90    2.41
  -3  -7  -1   47.19    2.42
  -3  -7  -1   49.59    2.61
  -3  -7  -1   47.66    2.45
  -3  -7  -1   52.00    3.03
   3  -7   1   47.15    2.61
   3   7   1   48.16    2.80
   3   7   1   48.11    2.64
  -3   7  -1   53.51    3.47
   3   7   1   49.82    2.58
   4  -7   1    3.47    0.50
   4  -7   1    2.47    0.52
   4  -7   1    4.31    0.97
  -4  -7  -1    5.80    1.56
   4  -7   1    3.31    0.64
  -4   7  -1    4.71    2.00
   4   7   1    1.92    0.73
   4   7   1    3.88    0.73
   5  -7   1    5.88    1.41
   5  -7   1    4.40    0.65
  -5  -7  -1    9.01    2.56
  -5   7  -1    6.71    3.30
   5   7   1    4.43    1.07
   5  -8  -1    2.31    1.17
   5  -8  -1    1.66    0.79
  -5   8   1    0.72    3.14
   4  -8  -1    4.33    0.58
   4  -8  -1    4.30    0.95
   4  -8  -1    5.44    0.70
   4  -8  -1    4.85    0.68
   4  -8  -1    6.36    1.08
   4   8  -1    5.28    0.89
   4   8  -1    5.24    0.74
  -4   8   1    6.08    2.13
   3  -8  -1   20.63    1.63
   3  -8  -1   23.10    1.31
   3  -8  -1   21.62    1.72
  -3  -8   1   21.24    1.11
   3  -8  -1   21.33    1.30
  -3  -8   1   20.38    1.11
   3  -8  -1   21.82    1.57
   3  -8  -1   21.78    1.25
   3   8  -1   17.83    1.31
  -3   8   1   24.43    2.32
   3   8  -1   19.47    1.52
   3   8  -1   20.65    1.48
   3   8  -1   21.12    1.24
   2  -8  -1    2.05    0.34
  -2  -8   1    1.22    0.25
  -2  -8   1    1.13    0.24
  -2  -8   1    0.88    0.26
  -2  -8   1    0.88    0.25
  -2  -8   1    0.68    0.41
   2   8  -1    2.19    0.54
  -2   8   1    2.37    0.52
   2   8  -1    1.19    0.50
   2   8  -1    1.39    0.23
  -1  -8   1   16.12    0.92
  -1  -8   1   14.55    0.91
  -1  -8   1   15.09    0.93
  -1  -8   1   15.26    0.91
  -1  -8   1   15.57    1.01
  -1  -8   1   14.39    0.90
   1  -8  -1   19.63    0.97
   1   8  -1   16.65    1.10
   1   8  -1   16.24    0.83
   0  -8   1  122.82    5.88
   0  -8   1  115.23    5.87
   0  -8  -1  124.33    5.87
   0  -8   1  118.22    5.92
   0  -8  -1  123.81    5.87
   0  -8  -1  136.12    5.98
   0  -8   1  117.55    5.86
   0  -8   1  118.05    5.90
   0  -8  -1  128.40    5.89
   0  -8  -1  127.18    5.88
   0  -8   1  114.13    5.85
   0   8  -1  114.28    5.85
   0   8  -1  118.71    5.85
   0   8   1  124.92    5.87
   0   8   1  123.42    5.87
   0   8   1  124.38    5.86
   0   8  -1  117.96    5.94
   0   8   1  126.46    5.97
  -1  -8  -1   73.21    3.83
  -1  -8  -1   80.13    3.78
  -1  -8  -1   77.52    3.75
   1  -8   1   76.10    3.80
   1  -8   1   74.13    3.79
   1  -8   1   75.78    3.84
   1  -8   1   75.84    3.94
   1  -8   1   73.97    3.82
  -1  -8  -1   80.79    3.73
   1  -8   1   72.94    3.77
   1  -8   1   76.20    3.79
  -1  -8  -1   88.27    3.86
  -1   8  -1   72.54    3.88
   1   8   1   87.17    3.90
  -1   8  -1   72.82    3.79
   1   8   1   81.69    3.75
  -1   8  -1   73.86    3.84
   1   8   1   77.89    3.75
  -1   8  -1   74.11    3.97
   2  -8   1   35.60    2.28
  -2  -8  -1   33.13    1.75
   2  -8   1   34.50    1.85
   2  -8   1   35.32    1.88
  -2  -8  -1   38.61    2.05
   2  -8   1   33.73    1.91
   2  -8   1   33.85    1.86
  -2  -8  -1   34.04    1.75
   2  -8   1   34.38    2.00
  -2  -8  -1   35.11    1.89
   2  -8   1   34.35    1.83
  -2   8  -1   30.09    2.13
  -2   8  -1   32.72    1.88
   2   8   1   34.42    1.80
  -2   8  -1   33.93    2.34
   2   8   1   33.63    1.76
   2   8   1   35.68    1.97
   3  -8   1    0.72    0.69
  -3  -8  -1    0.14    0.25
   3  -8   1    0.69    0.42
   3  -8   1    1.21    0.67
   3  -8   1    0.62    0.39
   3  -8   1    0.83    0.43
  -3  -8  -1    0.72    0.88
  -3  -8  -1    0.30    0.39
   3  -8   1    0.63    0.37
   3   8   1    0.89    0.40
   3   8   1    0.81    0.55
   3   8   1    2.26    0.77
  -3   8  -1    1.89    1.36
   4  -8   1    1.11    0.62
   4  -8   1    2.34    0.94
   4  -8   1    0.55    0.45
   4  -8   1    0.84    0.50
  -4  -8  -1    0.62    1.35
   4   8   1    0.41    0.68
  -4   8  -1    3.37    2.11
   5  -8   1    0.97    1.38
  -5  -8  -1    1.15    1.77
   5  -8   1    1.41    0.55
  -5   8  -1    3.08    3.55
   4  -9  -1    3.92    1.01
   4  -9  -1    4.60    0.58
   4  -9  -1    4.27    0.62
   4   9  -1    5.25    0.95
  -4   9   1    5.34    2.14
   4   9  -1    6.33    0.95
  -3  -9   1    0.46    0.22
   3  -9  -1    0.48    0.40
  -3  -9   1    0.30    0.25
   3  -9  -1   -0.01    0.43
  -3  -9   1    0.22    0.23
   3  -9  -1   -0.01    0.37
   3  -9  -1   -0.60    0.60
   3  -9  -1    0.65    0.42
   3  -9  -1   -0.17    0.61
  -3  -9   1    0.68    0.49
   3   9  -1   -0.09    0.31
   3   9  -1    0.14    0.66
  -3   9   1    0.55    1.31
   3   9  -1    0.08    0.59
   2  -9  -1    5.91    0.76
  -2  -9   1    4.04    0.47
   2  -9  -1    4.56    0.66
   2  -9  -1    3.75    0.48
  -2  -9   1    4.27    0.48
   2  -9  -1    5.07    0.60
   2  -9  -1    4.25    0.51
   2  -9  -1    4.36    0.65
  -2  -9   1    4.00    0.46
  -2  -9   1    4.47    0.46
   2  -9  -1    6.49    1.17
  -2  -9   1    5.52    0.68
   2   9  -1    4.10    0.64
   2   9  -1    3.67    0.41
  -2   9   1    4.17    0.98
  -2   9   1    5.61    1.19
   2   9  -1    5.72    0.72
  -2   9   1    4.77    0.72
  -1  -9   1   39.73    2.12
  -1  -9   1   39.32    2.13
  -1  -9   1   39.78    2.04
   1  -9  -1   39.51    2.11
   1  -9  -1   40.79    2.21
  -1  -9   1   40.43    2.05
  -1  -9   1   37.82    2.01
   1  -9  -1   40.97    2.10
  -1  -9   1   34.08    2.13
   1  -9  -1   40.62    2.09
   1  -9  -1   40.17    2.06
   1  -9  -1   39.14    2.31
   1  -9  -1   40.17    2.08
  -1   9   1   41.97    2.16
   1   9  -1   41.80    2.20
   1   9  -1   41.94    1.96
  -1   9   1   38.81    2.29
  -1   9   1   40.40    2.31
   0  -9  -1    4.91    0.91
   0  -9  -1    3.43    0.39
   0  -9  -1    3.27    0.51
   0  -9  -1    3.59    0.45
   0   9   1    3.27    0.39
   0   9   1    4.02    0.48
   0   9   1    3.01    0.56
   0   9   1    3.11    0.43
   0   9  -1    4.07    0.47
   1  -9   1   25.16    1.38
  -1  -9  -1   23.95    1.33
  -1  -9  -1   21.71    1.32
   1  -9   1   26.45    1.40
   1  -9   1   23.17    1.43
   1  -9   1   24.14    1.35
  -1  -9  -1   23.25    1.43
   1  -9   1   24.80    1.40
   1   9   1   24.05    1.27
  -1   9  -1   25.83    1.43
   1   9   1   21.80    1.48
  -1   9  -1   24.78    1.42
   1   9   1   24.01    1.32
   1   9   1   23.74    1.31
  -1   9  -1   28.47    1.66
  -2  -9  -1    7.41    1.47
   2  -9   1    5.73    0.66
  -2  -9  -1    5.04    0.52
   2  -9   1    8.08    1.19
  -2  -9  -1    5.41    0.52
  -2  -9  -1    5.17    0.52
  -2  -9  -1    4.79    0.68
   2  -9   1    5.50    0.86
   2  -9   1    4.30    0.54
   2  -9   1    5.53    0.65
   2  -9   1    6.27    0.94
   2  -9   1    6.22    0.73
   2   9   1    5.49    0.55
   2   9   1    4.78    0.50
   2   9   1    4.90    0.69
  -2   9  -1    7.54    1.30
  -2   9  -1    5.05    0.61
  -2   9  -1    6.49    0.96
   3  -9   1    0.46    0.45
  -3  -9  -1    0.76    0.27
   3  -9   1   -0.16    0.67
   3  -9   1    0.80    0.41
   3  -9   1    0.44    0.41
  -3  -9  -1    0.30    0.25
   3  -9   1    0.84    0.67
  -3  -9  -1    0.51    0.89
  -3  -9  -1    0.01    0.28
  -3  -9  -1    1.05    0.45
   3  -9   1   -0.16    0.49
   3   9   1    0.57    0.35
   3   9   1    0.16    0.62
  -3   9  -1    0.51    1.44
   4  -9   1    1.11    0.96
   4  -9   1    1.08    0.51
  -4  -9  -1    1.77    1.31
   4  -9   1    1.09    0.45
   4   9   1    0.60    0.74
  -4   9  -1    1.29    1.92
   4 -10  -1    5.81    0.82
   4 -10  -1    6.58    1.07
   4 -10  -1    5.67    0.72
   4  10  -1    6.26    1.02
  -4  10   1    9.82    2.49
   4  10  -1    6.46    1.04
  -3 -10   1   54.73    2.89
   3 -10  -1   57.80    2.94
  -3 -10   1   55.74    2.84
   3 -10  -1   60.03    2.98
   3 -10  -1   53.38    3.15
   3 -10  -1   56.68    2.98
   3 -10  -1   53.88    3.00
  -3 -10   1   59.70    2.82
   3 -10  -1   61.68    3.35
  -3  10   1   58.04    3.85
   3  10  -1   55.80    3.10
   3  10  -1   56.90    2.82
   3  10  -1   59.17    3.16
   2 -10  -1  160.58    7.93
   2 -10  -1  176.07    7.90
   2 -10  -1  163.18    8.23
  -2 -10   1  163.82    7.81
  -2 -10   1  154.65    7.79
   2 -10  -1  168.67    7.89
   2 -10  -1  157.58    7.98
   2 -10  -1  163.51    7.85
  -2 -10   1  165.26    7.80
   2 -10  -1  168.01    7.87
  -2 -10   1  161.72    7.80
  -2 -10   1  166.89    7.96
  -2  10   1  160.18    8.05
   2  10  -1  164.97    7.96
   2  10  -1  160.64    7.72
  -2  10   1  160.34    8.23
   2  10  -1  161.33    7.82
  -2  10   1  152.65    8.15
   1 -10  -1  391.13   18.84
   1 -10  -1  397.94   18.93
   1 -10  -1  396.40   18.81
   1 -10  -1  338.40   19.05
   1 -10  -1  395.03   18.82
   1 -10  -1  427.00   18.85
  -1 -10   1  404.72   18.80
   1 -10  -1  397.15   18.98
  -1 -10   1  402.80   18.81
  -1 -10   1  395.48   18.89
  -1 -10   1  397.44   18.80
  -1 -10   1  406.05   18.79
   1  10  -1  397.31   18.73
  -1  10   1  386.33   18.96
   1  10  -1  400.13   18.90
  -1  10   1  408.95   18.89
   0 -10  -1  309.11   15.38
   0 -10  -1  312.94   15.37
   0 -10   1  335.12   15.42
   0 -10   1  331.89   15.41
   0 -10   1  337.20   15.38
   0 -10   1  324.47   15.40
   0 -10   1  337.03   15.47
   0 -10  -1  327.16   15.42
   0 -10   1  330.78   15.41
   0 -10  -1  324.56   15.41
   0 -10  -1  321.70   15.49
   0 -10  -1  324.33   15.41
   0 -10  -1  315.49   15.40
   0  10   1  306.41   15.49
   0  10  -1  327.26   15.38
   0  10   1  315.13   15.40
   0  10   1  336.53   15.40
   0  10  -1  329.60   15.49
   0  10  -1  309.61   15.35
   1 -10   1  257.45   12.23
  -1 -10  -1  242.54   12.19
  -1 -10  -1  244.39   12.18
   1 -10   1  274.28   12.29
   1 -10   1  253.01   12.25
   1 -10   1  273.04   12.25
   1 -10   1  268.62   12.36
   1 -10   1  262.18   12.24
   1 -10   1  259.71   12.22
  -1 -10  -1  239.54   12.27
  -1  10  -1  248.16   12.32
   1  10   1  257.24   12.20
  -1  10  -1  261.67   12.38
   1  10   1  244.62   12.30
   1  10   1  245.54   12.15
  -1  10  -1  265.75   12.28
   2 -10   1  152.71    7.16
  -2 -10  -1  144.80    7.21
   2 -10   1  147.84    7.13
   2 -10   1  149.73    7.17
   2 -10   1  144.34    7.21
   2 -10   1  152.88    7.26
  -2 -10  -1  142.28    7.18
  -2 -10  -1  146.21    7.09
  -2 -10  -1  139.34    7.10
   2 -10   1  150.46    7.48
   2 -10   1  152.52    7.17
  -2 -10  -1  146.81    7.09
  -2  10  -1  147.17    7.53
   2  10   1  148.34    7.24
   2  10   1  149.71    7.09
   2  10   1  150.28    7.06
  -2  10  -1  140.43    7.38
   3 -10   1   37.06    2.08
  -3 -10  -1   38.14    1.99
   3 -10   1   38.90    2.15
  -3 -10  -1   37.59    2.43
  -3 -10  -1   36.50    2.01
  -3 -10  -1   38.87    2.00
   3 -10   1   38.32    2.61
   3 -10   1   38.16    2.21
  -3 -10  -1   35.96    2.28
   3 -10   1   40.55    2.15
   3  10   1   39.69    2.00
  -3  10  -1   37.83    3.13
   3  10   1   38.19    2.29
   4 -10   1    6.20    1.17
  -4 -10  -1    6.72    1.59
   4 -10   1    4.48    0.61
   4 -10   1    3.59    0.65
   4  10   1    4.48    0.92
  -4  10  -1    7.48    2.32
   4 -11  -1    2.93    0.63
   4 -11  -1    2.75    0.96
   4 -11  -1    2.40    0.57
  -4  11   1    5.61    2.34
   4  11  -1    3.13    0.95
   3 -11  -1    7.95    0.96
  -3 -11   1    8.45    0.65
   3 -11  -1    8.69    0.91
   3 -11  -1    9.05    0.99
   3 -11  -1    8.05    1.28
   3 -11  -1    7.61    1.26
   3 -11  -1    6.72    0.95
   3  11  -1    8.38    1.23
  -3  11   1   11.21    1.99
   3  11  -1    8.98    0.63
   3  11  -1    8.50    0.97
   2 -11  -1    0.68    0.53
   2 -11  -1    1.17    0.50
   2 -11  -1    0.77    0.99
  -2 -11   1    0.86    0.32
   2 -11  -1    0.56    0.45
   2 -11  -1    0.70    0.40
   2 -11  -1    0.93    0.45
  -2 -11   1    0.68    0.54
   2 -11  -1    1.63    0.62
  -2 -11   1    0.15    0.33
  -2 -11   1    0.24    0.30
  -2  11   1    0.65    1.01
   2  11  -1    0.78    0.21
  -2  11   1    0.77    0.90
   2  11  -1    0.73    0.60
   1 -11  -1   -0.11    0.37
  -1 -11   1    0.26    0.33
   1 -11  -1    0.57    0.38
   1 -11  -1    0.08    0.31
   1 -11  -1    0.07    0.40
  -1 -11   1    0.29    0.36
   1 -11  -1   -0.52    0.39
  -1 -11   1   -0.23    0.30
  -1 -11   1    0.69    0.31
  -1 -11   1    0.02    0.31
  -1 -11   1   -0.06    0.36
  -1  11   1    0.03    0.66
  -1  11   1    0.18    0.39
   1  11  -1   -0.16    0.48
   0 -11  -1    5.82    0.72
   0 -11  -1    4.44    0.64
   0 -11  -1    4.40    0.57
   0 -11  -1    4.45    0.64
   0 -11  -1    5.26    0.85
   0 -11  -1    4.46    0.59
   0 -11  -1    4.89    0.55
   0  11   1    4.72    0.67
   0  11   1    4.08    0.68
   0  11   1    5.70    0.64
   1 -11   1    1.04    0.42
  -1 -11  -1    0.38    0.30
  -1 -11  -1    0.11    0.30
   1 -11   1    1.41    0.44
  -1 -11  -1   -0.67    0.44
   1 -11   1    1.30    0.39
   1 -11   1    0.79    0.68
   1 -11   1    1.11    0.51
  -1 -11  -1    1.09    0.44
  -1 -11  -1   -0.13    0.31
   1 -11   1    0.83    0.35
   1  11   1    0.10    0.29
   1  11   1    0.24    0.53
  -1  11  -1    0.48    0.62
   1  11   1    0.55    0.27
   2 -11   1    2.52    0.52
   2 -11   1    3.94    1.07
   2 -11   1    3.18    0.58
  -2 -11  -1    2.86    0.57
   2 -11   1    1.67    0.48
   2 -11   1    2.28    0.63
   2 -11   1    3.13    0.53
  -2 -11  -1    3.26    0.65
  -2 -11  -1    2.48    0.41
   2 -11   1    4.22    0.71
   2  11   1    2.58    0.73
  -2  11  -1    2.48    0.95
  -2  11  -1    3.35    1.15
   2  11   1    3.39    0.50
   3 -11   1    0.31    0.49
  -3 -11  -1    0.18    0.33
   3 -11   1    0.17    0.47
   3 -11   1    1.37    0.74
  -3 -11  -1    1.61    0.84
   3 -11   1    0.71    0.54
   3 -11   1    0.55    0.62
  -3 -11  -1    0.57    0.35
   3 -11   1   -0.08    0.47
   3  11   1    0.62    0.33
   3  11   1    1.31    0.73
  -3  11  -1    0.96    1.46
   4 -11   1    1.12    0.60
   4 -11   1    0.60    1.01
  -4 -11  -1    1.41    1.20
   4 -11   1    1.94    0.54
  -4  11  -1    1.95    2.32
   4  11   1    1.84    0.92
   4 -12  -1    5.09    0.73
   4 -12  -1    5.93    0.82
   4 -12  -1    6.82    1.16
  -4  12   1    9.50    2.64
   4  12  -1    6.48    1.14
   3 -12  -1   16.50    1.53
   3 -12  -1   15.27    1.27
  -3 -12   1   15.42    1.00
   3 -12  -1   16.36    1.28
   3 -12  -1   15.69    1.42
   3 -12  -1   16.88    1.23
  -3 -12   1   15.53    1.02
  -3  12   1   15.17    2.85
   3  12  -1   16.67    0.93
   3  12  -1   15.31    1.76
  -2 -12   1   78.08    3.85
  -2 -12   1   74.36    3.84
   2 -12  -1   83.28    4.37
   2 -12  -1   71.31    4.10
   2 -12  -1   78.19    3.90
   2 -12  -1   77.48    3.94
   2 -12  -1   76.36    4.00
   2 -12  -1   81.83    3.96
   2 -12  -1   81.05    3.98
  -2  12   1   73.72    4.38
  -2  12   1   79.90    4.39
   2  12  -1   73.44    3.72
   2  12  -1   77.90    4.09
   1 -12  -1  123.62    6.18
   1 -12  -1  126.76    6.15
   1 -12  -1  135.63    6.35
  -1 -12   1  124.19    6.14
   1 -12  -1  143.39    6.34
   1 -12  -1  126.08    6.17
   1 -12  -1  129.43    6.20
  -1 -12   1  120.40    6.13
  -1 -12   1  116.91    6.13
   1 -12  -1  124.22    6.19
  -1 -12   1  119.11    6.23
  -1 -12   1  124.52    6.12
   1  12  -1  121.49    6.28
  -1  12   1  128.62    6.23
  -1  12   1  128.09    6.40
   0 -12  -1  183.92    9.64
   0 -12  -1  185.65    9.62
   0 -12  -1  188.17    9.64
   0 -12   1  247.54    9.77
   0 -12  -1  184.25    9.58
   0 -12   1  231.19    9.64
   0 -12  -1  185.81    9.64
   0 -12  -1  178.53    9.72
   0 -12  -1  189.02    9.66
   0 -12   1  240.76    9.67
   0  12   1  193.78    9.63
   1 -12   1  135.10    6.34
   1 -12   1  126.47    6.38
   1 -12   1  131.32    6.34
  -1 -12  -1  126.27    6.33
   1 -12   1  131.65    6.31
   1 -12   1  131.41    6.33
   1 -12   1  130.83    6.46
   1 -12   1  133.17    6.35
  -1 -12  -1  127.53    6.29
  -1 -12  -1  123.74    6.39
  -1 -12  -1  128.08    6.28
  -1 -12  -1  122.92    6.30
   1  12   1  132.22    6.29
   1  12   1  128.79    6.46
   1  12   1  131.79    6.22
  -1  12  -1  129.83    6.36
  -1  12  -1  127.03    6.49
  -1  12  -1  130.01    6.48
  -2 -12  -1   46.74    2.46
   2 -12   1   47.02    2.55
   2 -12   1   46.13    2.88
  -2 -12  -1   48.10    2.92
  -2 -12  -1   43.07    2.42
   2 -12   1   50.06    2.54
   2 -12   1   46.63    2.66
   2 -12   1   44.92    2.77
   2 -12   1   48.96    2.67
   2 -12   1   48.24    2.53
  -2  12  -1   46.80    3.06
   2  12   1   48.12    2.76
   2  12   1   48.70    2.36
  -2  12  -1   43.90    2.96
  -3 -12  -1   14.63    1.03
   3 -12   1   14.00    1.49
   3 -12   1   14.45    1.27
  -3 -12  -1   16.06    1.03
   3 -12   1   16.90    1.38
  -3 -12  -1   14.53    1.41
   3 -12   1   13.77    1.64
   3 -12   1   15.18    1.19
   3 -12   1   13.42    1.19
   3  12   1   14.76    0.94
   3  12   1   14.39    1.58
   4 -12   1    2.18    1.07
   4 -12   1    3.02    0.63
   4 -12   1    2.45    0.71
   4  12   1    3.32    1.69
  -4  12  -1    3.72    2.32
   4 -13  -1   -0.19    0.59
   4 -13  -1    0.84    0.94
   4 -13  -1   -0.18    0.70
   4  13  -1    0.43    1.05
   3 -13  -1    0.73    0.52
   3 -13  -1    0.41    0.72
   3 -13  -1   -0.44    0.62
   3 -13  -1   -0.09    0.51
  -3 -13   1    0.10    0.37
   3 -13  -1    0.16    0.54
   3  13  -1    0.39    0.27
  -3  13   1    0.74    1.64
   2 -13  -1    1.15    0.97
  -2 -13   1    0.16    0.41
   2 -13  -1    0.12    0.46
   2 -13  -1    0.73    0.52
   2 -13  -1    0.74    0.58
   2 -13  -1    0.32    0.51
  -2 -13   1    0.39    0.34
   2 -13  -1    1.05    0.61
   2  13  -1    1.36    0.26
   2  13  -1    0.92    0.77
  -2  13   1    0.43    1.03
  -1 -13   1   15.59    1.29
   0 -13   1    9.41    0.92
   0  13  -1   13.12    0.95
   1 -13   1    3.14    0.99
  -1 -13  -1    1.83    0.45
   1 -13   1    2.58    0.55
   1 -13   1    2.48    0.73
  -1 -13  -1    2.60    0.52
   1 -13   1    2.42    0.55
   1 -13   1    1.82    0.51
  -1 -13  -1    1.94    0.51
  -1 -13  -1    0.56    0.68
   1 -13   1    2.14    0.54
  -1 -13  -1    2.78    0.69
   1  13   1    2.74    0.80
  -1  13  -1    1.82    0.83
  -1  13  -1    2.32    0.54
   1  13   1    3.57    0.52
  -1  13  -1    2.51    0.90
   2 -13   1    3.10    0.66
   2 -13   1    3.58    0.62
  -2 -13  -1    3.86    0.54
   2 -13   1    3.41    0.72
   2 -13   1    3.96    1.10
   2 -13   1    4.27    0.82
   2 -13   1    3.12    0.60
   2 -13   1    2.85    0.61
   2  13   1    3.48    0.84
   2  13   1    3.19    0.47
  -2  13  -1    4.80    1.29
  -2  13  -1    3.65    1.12
   3 -13   1    0.75    0.61
   3 -13   1    0.18    0.55
   3 -13   1    0.28    0.78
  -3 -13  -1   -0.07    0.40
   3 -13   1   -0.29    0.51
  -3  13  -1   -0.24    1.60
   3  13   1   -0.49    0.81
   3  13   1    0.86    0.32
   4 -13   1    0.48    0.65
   4 -13   1   -0.12    0.56
   4 -13   1   -1.37    0.97
   4  13   1   -0.98    0.92
  -4  13  -1    2.29    2.40
   4 -14  -1    5.05    1.09
   4 -14  -1    4.08    0.82
   4 -14  -1    3.39    1.11
   4  14  -1    4.10    1.22
  -3 -14   1   19.84    1.66
   3 -14  -1   18.98    1.72
   3 -14  -1   17.60    1.41
   3 -14  -1   19.57    1.47
   3  14  -1   19.30    1.89
   2 -14  -1   69.81    3.52
   2 -14  -1   64.02    3.51
   2 -14  -1   64.05    3.54
   2 -14  -1   71.93    3.51
   2 -14  -1   65.00    3.95
  -2 -14   1   63.19    3.34
   2 -14  -1   60.41    3.49
  -2  14   1   71.56    4.02
   2  14  -1   61.08    3.64
   1 -14  -1  134.79    6.40
   1 -14  -1  126.03    6.35
   1 -14  -1  124.98    6.48
  -1 -14   1  119.02    6.31
   1 -14  -1  134.76    6.41
  -1 -14   1  120.81    6.29
   1 -14  -1  124.27    6.35
   1 -14  -1  124.34    6.32
  -1  14   1  147.82    7.02
   1  14  -1  122.61    6.21
   1  14  -1  123.91    6.52
  -1  14   1  149.43    6.68
   0 -14  -1  227.34   11.15
   0 -14  -1  217.22   11.12
   0 -14  -1  229.33   11.17
   0 -14   1  238.24   11.17
   0 -14   1  239.70   11.18
   0 -14  -1  233.86   11.16
   0 -14  -1  219.05   11.03
   0 -14   1  240.12   11.12
   0 -14   1  219.10   11.13
   0  14  -1  250.97   11.34
   0  14   1  243.71   11.35
   0  14   1  224.05   11.13
  -1 -14  -1  172.72    8.27
   1 -14   1  177.57    8.33
   1 -14   1  166.79    8.31
   1 -14   1  167.73    8.28
  -1 -14  -1  169.19    8.24
   1 -14   1  169.29    8.29
   1 -14   1  171.91    8.28
   1 -14   1  164.83    8.37
  -1  14  -1  164.13    8.31
  -1  14  -1  162.44    8.41
   1  14   1  193.22    8.52
  -1  14  -1  162.74    8.47
   1  14   1  173.19    8.18
   2 -14   1   39.95    2.93
   2 -14   1   39.44    2.30
  -2 -14  -1   39.67    2.14
   2 -14   1   41.36    2.31
  -2 -14  -1   36.66    2.24
   2 -14   1   35.67    2.63
   2 -14   1   37.30    2.25
   2  14   1   38.80    2.00
  -2  14  -1   35.75    2.79
  -2  14  -1   39.21    2.80
   2  14   1   45.86    2.61
   3 -14   1   12.30    1.19
   3 -14   1   13.90    1.58
   3 -14   1   13.31    1.31
  -3 -14  -1   10.12    1.34
  -3  14  -1   12.70    2.46
   4 -14   1    1.03    1.11
   4 -14   1    1.91    0.69
   4 -14   1    2.22    0.77
  -4  14  -1    3.39    2.38
   4  14   1    2.55    1.32
   4 -15  -1    1.52    0.83
   4 -15  -1    1.28    0.72
   4 -15  -1    1.04    1.11
   4  15  -1    0.80    1.17
   3 -15  -1    1.92    0.81
   3 -15  -1    0.68    0.61
   3 -15  -1    1.81    0.63
   3  15  -1    2.70    1.18
   2 -15  -1   -0.05    0.81
   2 -15  -1    0.17    1.43
  -2 -15   1   -0.08    0.42
   2 -15  -1   -0.46    0.61
   2 -15  -1    0.49    0.56
   2 -15  -1   -0.64    0.60
   2 -15  -1    0.44    0.59
   2  15  -1    1.61    1.23
  -2  15   1    1.13    1.15
   2  15  -1    0.42    0.34
   1 -15  -1    0.69    0.49
   1 -15  -1   -0.04    0.56
  -1 -15   1    0.12    0.49
  -1 -15   1    0.38    0.45
   1 -15  -1    0.81    0.87
   1 -15  -1    0.46    0.53
   1 -15  -1   -0.16    0.49
   1  15  -1    0.36    0.34
  -1  15   1    1.63    1.01
   1  15  -1    1.57    0.87
   0 -15  -1   15.16    1.39
   0 -15  -1   17.52    1.32
   0 -15  -1   23.85    1.51
   0 -15  -1   19.75    1.38
   0  15   1   20.23    1.29
  -1 -15  -1    2.43    0.54
   1 -15   1    2.71    0.62
   1 -15   1    2.46    0.61
   1 -15   1    3.40    0.68
   1 -15   1    3.50    0.64
   1  15   1    3.50    0.49
   1  15   1    3.79    1.06
  -1  15  -1    4.56    1.04
  -1  15  -1    2.77    1.84
  -1  15  -1    3.14    0.95
   2 -15   1    2.72    0.72
   2 -15   1    1.24    0.63
   2 -15   1    1.98    0.69
   2 -15   1    1.33    0.75
   2 -15   1    3.50    1.54
  -2 -15  -1    0.97    0.45
  -2 -15  -1    1.01    0.47
   2 -15   1    1.03    0.60
   2  15   1    2.03    0.99
  -2  15  -1    1.10    1.13
   2  15   1    0.93    0.32
  -2  15  -1    1.67    1.29
   3 -15   1    0.60    0.66
   3 -15   1    0.06    0.63
   3 -15   1    0.84    0.80
  -3  15  -1    0.77    1.72
   3  15   1    0.55    1.00
   4 -15   1    0.17    0.69
   4 -15   1    0.14    1.18
   4 -15   1    0.28    0.82
   4  15   1    1.57    1.22
  -4  15  -1    1.30    2.51
   3 -16  -1   11.38    1.24
   3 -16  -1   11.15    1.33
   3 -16  -1   10.70    1.59
   3  16  -1   10.94    1.46
   2 -16  -1   56.67    3.22
   2 -16  -1   57.54    3.18
  -2 -16   1   56.11    3.03
  -2 -16   1   56.58    3.04
   2 -16  -1   59.63    3.22
   2 -16  -1   58.76    3.13
  -2  16   1   60.68    4.03
   2  16  -1   56.55    3.48
   2  16  -1   58.05    2.88
   1 -16  -1   90.60    4.67
   1 -16  -1   92.66    4.58
   1 -16  -1   86.00    4.66
   1 -16  -1   94.61    4.62
   1 -16  -1   95.47    4.62
  -1 -16   1   90.02    4.54
  -1 -16   1   86.74    4.57
   1  16  -1   90.15    4.43
   1  16  -1   79.11    5.74
  -1  16   1   90.68    4.99
   0 -16   1   53.17    2.98
   0 -16  -1   54.65    3.06
   0 -16   1   51.19    2.98
   0 -16  -1   60.83    3.04
   0 -16   1   57.73    3.05
   0 -16  -1   57.96    3.00
   0  16   1   56.60    2.99
   0  16  -1   55.71    2.94
   0  16  -1   53.78    3.37
   0  16   1   62.49    3.45
   1 -16   1   25.73    1.68
   1 -16   1   26.74    1.78
   1 -16   1   24.63    1.71
   1 -16   1   22.17    1.71
  -1  16  -1   24.37    2.43
   2 -16   1   20.40    1.84
   2 -16   1   21.52    1.72
  -2 -16  -1   26.92    1.50
   2 -16   1   22.08    1.71
   2 -16   1   20.32    1.61
   2  16   1   21.55    1.27
  -2  16  -1   19.31    2.41
  -2  16  -1   19.33    2.24
   3 -16   1   11.07    1.29
   3 -16   1   13.17    1.40
   3 -16   1    8.85    1.21
   3  16   1   13.75    2.06
  -3  16  -1   11.26    2.38
   3 -17  -1    0.90    0.90
   3 -17  -1    0.78    0.74
   3 -17  -1    0.84    0.71
   3  17  -1    0.65    1.16
   2 -17  -1    1.07    0.66
   2 -17  -1    2.24    0.79
   2 -17  -1    0.19    0.66
  -2 -17   1    1.07    0.52
   2  17  -1    1.58    1.08
  -2  17   1    0.21    1.30
   1 -17  -1    6.60    0.91
   1 -17  -1    8.58    1.25
  -1 -17   1    7.70    0.98
   1 -17  -1    5.04    1.03
   1 -17  -1    7.00    0.85
   1 -17  -1    6.03    0.85
  -1 -17   1    6.90    0.83
  -1  17   1    6.97    1.43
   1  17  -1    7.39    1.19
   1 -17   1    1.32    0.64
   1 -17   1    0.99    0.75
  -1 -17  -1    1.01    0.63
  -1 -17  -1    0.81    0.54
   1 -17   1   -0.32    0.65
   1 -17   1    0.92    0.61
   1  17   1    2.32    1.02
  -1  17  -1    0.45    1.37
   1  17   1    0.97    0.51
   2 -17   1    0.90    0.67
   2 -17   1    0.66    0.79
  -2 -17  -1    0.10    0.54
   2 -17   1    0.70    0.75
  -2  17  -1    0.03    1.27
   2  17   1    2.76    1.19
  -2  17  -1    0.37    1.63
   3 -17   1   -0.59    0.82
   3 -17   1    0.36    0.78
   3 -17   1    0.06    0.71
  -3  17  -1    0.31    1.95
   3  17   1   -0.15    1.22
  -3  17  -1   -0.57    1.35
   3 -18  -1    5.06    0.94
   3 -18  -1    5.52    0.92
   3 -18  -1    3.02    1.04
   3  18  -1    3.63    1.34
   2 -18  -1    8.54    1.06
   2 -18  -1    9.59    1.45
   2 -18  -1   11.13    1.38
  -2 -18   1   11.07    1.16
   2  18  -1   11.26    1.60
  -2  18   1   13.20    1.87
   1 -18  -1   17.97    1.61
  -1 -18   1   18.53    1.58
  -1 -18   1   19.36    1.42
   1 -18  -1   18.70    1.58
   1 -18  -1   17.50    1.43
   1 -18  -1   18.07    1.94
   1  18  -1   18.79    1.25
   1  18  -1   17.06    2.18
  -1  18   1   15.44    2.27
   0 -18   1    9.27    1.19
   0 -18  -1   10.38    1.18
   0 -18   1    9.98    1.27
   0 -18  -1    9.86    1.11
   0 -18  -1   10.02    1.12
   0 -18   1    8.51    0.96
   0  18  -1    8.75    1.03
   0  18   1    8.43    1.43
   0  18  -1   11.28    1.52
   1 -18   1    5.70    0.95
   1 -18   1    5.79    0.86
  -1 -18  -1    5.49    0.76
  -1 -18  -1    6.88    0.89
   1 -18   1    6.38    0.88
   1  18   1    7.36    0.93
   1  18   1    6.72    1.34
  -1  18  -1    5.27    1.36
   2 -18   1    7.20    0.96
   2 -18   1    9.11    1.15
  -2 -18  -1    6.11    0.82
   2 -18   1    6.41    1.00
   2  18   1    9.43    1.51
  -2  18  -1    5.06    1.47
   3 -18   1    2.50    0.96
   3 -18   1    2.65    1.03
   3 -18   1    2.39    0.86
  -3  18  -1    0.45    1.45
  -3  18  -1    1.92    2.11
   3  18   1    2.49    1.42
   3 -19  -1    1.44    0.91
   3 -19  -1    1.31    1.08
   3 -19  -1    2.90    0.98
   3  19  -1    2.54    1.44
   2 -19  -1    5.42    0.97
  -2 -19   1    4.00    0.75
   2 -19  -1    4.67    0.94
   2 -19  -1    4.03    0.89
  -2  19   1    5.78    1.59
   2  19  -1    4.80    1.44
   1 -19  -1    0.93    0.81
  -1 -19   1    2.16    0.80
   1 -19  -1    1.27    0.76
   1 -19  -1    1.42    0.70
  -1 -19   1    0.55    0.69
  -1 -19   1    0.76    0.64
   1  19  -1    2.41    1.27
  -1  19   1   -0.02    1.28
   0 -19   1    3.04    0.78
   0 -19  -1    4.17    0.78
   0 -19  -1    2.02    0.71
   0 -19   1    2.38    0.72
   0 -19   1    3.01    0.76
   0 -19  -1    2.43    0.89
   0  19  -1    1.94    1.16
   0  19   1    3.73    1.32
   1 -19   1    5.24    0.86
   1 -19   1    5.13    1.30
   1 -19   1    5.65    0.98
  -1 -19  -1    5.21    0.79
  -1 -19  -1    4.06    0.83
   1  19   1    5.59    1.43
  -1  19  -1    6.21    1.44
   2 -19   1    9.13    1.07
   2 -19   1    8.61    1.19
  -2 -19  -1    9.95    1.15
   2 -19   1    7.51    1.07
   2  19   1    5.74    1.45
  -2  19  -1    5.53    1.59
   3 -19   1    3.98    1.12
   3 -19   1    3.95    1.11
   3 -19   1    3.97    1.08
  -3  19  -1    4.71    2.05
   3  19   1    6.77    1.58
   2 -20  -1   27.07    2.08
   2 -20  -1   26.68    2.00
   2 -20  -1   26.22    1.97
  -2 -20   1   24.08    2.13
   2  20  -1   25.58    2.88
  -2  20   1   26.54    3.07
  -1 -20   1   46.63    2.65
   1 -20  -1   44.57    2.65
  -1 -20   1   39.97    2.58
   1 -20  -1   45.44    2.66
   1 -20  -1   44.84    2.69
   1  20  -1   42.13    3.31
  -1  20   1   39.74    3.36
   0 -20  -1   56.94    3.09
   0 -20   1   59.93    3.14
   0 -20   1   47.45    3.03
   0 -20  -1   59.92    3.19
   0 -20  -1   50.72    3.22
   0 -20   1   56.06    3.15
   0  20  -1   52.88    3.62
   0  20   1   57.85    3.83
   1 -20   1   39.68    2.48
   1 -20   1   37.21    2.85
   1 -20   1   40.95    2.52
  -1  20  -1   39.08    3.28
   1  20   1   45.85    3.22
  -2 -20  -1   16.18    1.52
   2 -20   1   17.12    1.71
   2 -20   1   14.13    1.77
   2 -20   1   17.08    1.72
  -2  20  -1   16.69    2.07
   2  20   1   16.70    2.52
   2 -21  -1    0.84    0.75
   2 -21  -1    1.29    0.92
   2 -21  -1    0.90    0.96
  -2  21   1    2.45    1.74
   2  21  -1    0.70    1.71
  -1 -21   1    7.69    1.01
   1 -21  -1    6.57    0.99
   1 -21  -1    5.65    0.97
   1 -21  -1    4.70    0.92
  -1  21   1    8.00    1.66
   1  21  -1    6.18    1.66
   0 -21   1    3.61    0.86
   0 -21  -1    1.46    1.14
   0 -21  -1    2.42    0.88
   0 -21  -1    1.21    0.73
   0 -21   1    2.34    0.85
   0 -21   1    2.29    0.86
   0  21   1    1.73    1.65
   0  21  -1    2.19    1.34
  -1 -21  -1    1.28    0.70
  -1 -21  -1   -1.25    0.88
   1 -21   1    0.57    0.82
   1 -21   1    1.11    0.84
   1 -21   1    0.84    0.79
  -1  21  -1   -0.04    1.52
   1  21   1    1.85    1.41
   2 -21   1    0.42    0.97
   2 -21   1    1.10    0.86
   2 -21   1    0.18    0.83
  -2  21  -1    0.46    1.54
   2  21   1   -0.52    1.47
  -1 -22   1   -0.91    0.73
   1 -22  -1    0.26    0.93
   1 -22  -1   -0.39    0.86
   1 -22  -1   -0.39    0.79
   1  22  -1    0.81    1.68
  -1  22   1    0.55    1.62
   0 -22  -1    3.31    0.83
   0 -22   1    4.61    1.20
   0 -22   1    2.53    0.88
   0 -22   1    2.11    0.93
   0 -22  -1    3.83    1.04
   0 -22  -1    2.93    0.91
   0  22  -1    2.02    1.55
   0  22   1    8.93    2.08
   1 -22   1    0.00    0.86
  -1 -22  -1    2.15    0.80
   1 -22   1    2.88    0.97
   1 -22   1    1.24    0.89
   1  22   1    3.81    1.67
  -1  22  -1    0.99    1.77
   1 -23  -1    0.16    0.94
   1 -23  -1    1.40    0.94
   1 -23  -1    2.83    1.01
  -1 -23   1    2.53    0.86
   1  23  -1    1.19    2.16
  -1  23   1   -0.99    1.98
   0 -23   1    0.71    0.85
   0 -23  -1    0.71    1.11
   0 -23  -1    2.76    0.88
   0  23   1    6.16    2.30
   0  23  -1    4.94    2.01
   1 -23   1    0.49    0.84
   1 -23   1   -1.24    0.98
  -1 -23  -1    1.36    0.88
   1 -23   1   -0.32    0.86
  -1  23  -1    0.35    1.91
   1  23   1    3.29    2.42
   5   0  -2    0.14    0.86
   5   0  -2    0.72    0.82
   4   0  -2   18.05    1.38
  -4   0   2   17.44    2.62
   4   0  -2   18.86    1.48
   3   0  -2  107.56    5.17
   3   0  -2   98.93    5.52
   3   0  -2  105.23    5.17
  -3   0   2  105.39    6.01
   2   0  -2  597.77   28.81
   2   0  -2  623.97   29.07
  -2   0   2  607.47   29.05
  -2   0  -2  527.30   25.19
   2   0   2  532.67   25.19
   2   0   2  546.82   25.17
  -2   0  -2  514.35   25.49
   2   0   2  543.81   25.47
  -2   0  -2  539.31   25.19
   3   0   2   31.50    1.54
   3   0   2   28.23    2.10
  -3   0  -2   29.44    1.50
  -3   0  -2   31.97    2.42
   3   0   2   28.94    1.47
   3   0   2   29.48    1.53
  -4   0  -2   14.53    2.41
   4   0   2   10.32    1.51
   4   0   2    9.82    0.65
  -4   0  -2   10.57    0.69
   4   0   2   10.81    0.79
   5   0   2    2.15    1.05
  -5   0  -2    4.43    2.27
   5  -1  -2    0.47    0.83
   5  -1  -2    0.23    0.80
   5   1  -2    0.28    1.01
   5   1  -2    1.53    0.82
   4  -1  -2    1.26    0.66
   4  -1  -2    0.99    0.61
   4   1  -2    0.44    0.63
  -4   1   2    1.80    1.46
   4   1  -2    0.73    0.63
   3  -1  -2    6.90    0.86
  -3  -1   2    7.69    1.43
   3  -1  -2    6.87    1.31
  -3   1   2    8.47    1.57
   3   1  -2    6.71    1.22
   3   1  -2    6.63    0.82
   3   1  -2    6.60    0.87
   2  -1  -2   19.87    1.03
   2  -1  -2   20.30    1.20
   2  -1  -2   19.14    1.47
  -2  -1   2   22.40    1.51
  -2   1   2   19.79    1.54
   2   1  -2   20.78    1.18
  -2   1   2   21.29    1.24
   2   1  -2   21.65    1.46
  -1  -1   2  142.13    6.69
  -1  -1   2  142.83    6.73
   1  -1  -2  160.54    6.93
   1  -1  -2  137.06    6.74
  -1  -1   2  141.79    6.69
   1  -1  -2  137.21    6.70
   1  -1  -2  131.43    6.70
   1   1  -2  137.96    6.69
   1   1  -2  142.18    6.87
  -1   1   2  142.39    6.70
  -1   1   2  143.57    6.70
  -1   1   2  142.22    6.76
   1   1  -2  140.84    6.69
   1   1  -2  139.51    6.71
   0  -1   2  116.28    5.80
   0  -1   2  122.97    5.81
   0  -1  -2  120.29    5.81
   0  -1  -2  119.49    5.81
   0  -1  -2  123.14    5.83
   0  -1   2  124.49    5.81
   0   1  -2  122.12    5.81
   0   1   2  123.84    5.81
   0   1   2  127.77    5.82
   0   1  -2  122.07    5.81
   0   1   2  126.03    5.81
  -1  -1  -2  230.27   11.11
   1  -1   2  237.19   10.96
  -1  -1  -2  236.14   10.96
   1  -1   2  229.90   10.97
  -1  -1  -2  225.68   10.93
  -1   1  -2  231.57   11.29
   1   1   2  240.43   10.96
   1   1   2  233.78   10.96
   1   1   2  222.21   10.96
  -1   1  -2  231.56   10.97
   2  -1   2   20.20    1.01
  -2  -1  -2   16.88    0.98
  -2  -1  -2   17.21    0.99
   2  -1   2   19.77    0.99
  -2  -1  -2   19.57    1.47
  -2   1  -2   22.12    1.22
  -2   1  -2   20.31    1.00
   2   1   2   17.56    0.98
   2   1   2   17.32    0.96
   2   1   2   17.75    0.98
   2   1   2   19.34    1.33
  -3  -1  -2    3.83    1.23
   3  -1   2    1.77    0.32
  -3  -1  -2    1.78    0.28
   3  -1   2    2.62    0.40
   3  -1   2    1.32    0.61
  -3  -1  -2    2.09    0.25
   3  -1   2    2.32    0.39
   3  -1   2    2.34    0.99
  -3   1  -2    2.22    0.34
  -3   1  -2    3.73    1.30
  -3   1  -2    1.99    0.36
   3   1   2    2.11    0.29
   3   1   2    2.41    0.34
   3   1   2    2.33    0.94
  -4  -1  -2    2.95    1.64
  -4  -1  -2    2.54    0.30
   4  -1   2    2.30    1.14
   4  -1   2    2.40    0.33
   4  -1   2    2.20    0.33
   4   1   2    2.44    0.79
  -4   1  -2    3.10    1.68
   4   1   2    2.15    0.57
  -4   1  -2    2.21    0.32
  -5  -1  -2    0.63    2.10
   5  -1   2    0.96    1.00
   5   1   2    1.41    0.93
  -5   1  -2    3.84    2.35
   5  -2  -2    2.62    1.35
   5  -2  -2    2.93    0.97
   5   2  -2    2.83    0.92
   5   2  -2    2.34    0.90
  -4  -2   2   11.51    2.12
   4  -2  -2    9.24    1.24
   4  -2  -2    8.15    1.10
  -4   2   2   13.70    2.16
   4   2  -2   10.00    1.14
   4   2  -2    9.41    1.12
   3  -2  -2   32.58    1.54
   3  -2  -2   29.07    2.33
  -3  -2   2   32.65    2.29
   3  -2  -2   30.58    1.52
   3  -2  -2   30.96    1.82
   3   2  -2   30.20    1.80
  -3   2   2   29.01    2.40
   3   2  -2   31.40    1.75
   3   2  -2   28.98    2.12
   2  -2  -2   66.28    3.05
   2  -2  -2   64.13    3.18
   2  -2  -2   64.69    3.04
  -2  -2   2   61.48    3.40
   2  -2  -2   65.24    3.46
   2  -2  -2   63.38    3.05
   2   2  -2   63.18    3.38
   2   2  -2   57.25    3.17
  -2   2   2   67.04    3.22
   2   2  -2   64.36    3.19
  -2   2   2   64.37    3.05
  -2   2   2   60.11    3.46
   1  -2  -2   83.43    4.33
   1  -2  -2   85.64    4.30
  -1  -2   2   86.35    4.29
  -1  -2   2   87.37    4.30
   1  -2  -2   97.39    4.35
  -1  -2   2   87.34    4.29
   1   2  -2   86.27    4.28
  -1   2   2   98.61    4.30
   1   2  -2   89.51    4.37
  -1   2   2   94.70    4.37
  -1   2   2  103.87    4.31
   1   2  -2   88.22    4.29
   1   2  -2   84.02    4.29
   1   2  -2   86.57    4.45
   0  -2  -2  313.75   14.21
   0  -2   2  293.12   14.19
   0  -2   2  300.68   14.19
   0   2  -2  290.31   14.19
   0   2   2  316.54   14.20
   0   2  -2  293.15   14.19
   0   2  -2  293.11   14.19
   1  -2   2    8.52    0.49
   1  -2   2    7.78    0.49
   1  -2   2    8.23    0.42
  -1  -2  -2    7.92    0.69
   1  -2   2    8.31    0.72
  -1  -2  -2    7.67    0.46
  -1  -2  -2    7.23    0.46
  -1   2  -2    6.88    0.93
  -1   2  -2    7.26    0.49
   1   2   2    7.39    0.50
   1   2   2    7.19    0.45
  -1   2  -2    7.34    0.49
  -1   2  -2    7.07    0.50
   1   2   2    7.57    0.45
  -2  -2  -2   30.80    1.98
  -2  -2  -2   31.67    1.59
  -2  -2  -2   33.64    1.59
   2  -2   2   33.22    1.60
   2  -2   2   31.79    1.97
   2  -2   2   32.16    1.63
  -2   2  -2   31.39    1.62
   2   2   2   31.88    1.57
   2   2   2   31.33    1.88
  -2   2  -2   31.53    2.08
   2   2   2   31.91    1.60
  -2   2  -2   32.09    1.61
   2   2   2   30.98    1.58
   3  -2   2    9.06    0.66
  -3  -2  -2    9.49    1.63
   3  -2   2    8.72    0.66
   3  -2   2    9.01    0.62
   3  -2   2    7.84    0.59
   3  -2   2    8.34    1.11
   3  -2   2    9.13    1.38
  -3  -2  -2    8.31    0.52
  -3  -2  -2    8.37    0.56
   3   2   2    8.61    0.70
  -3   2  -2    8.36    0.65
   3   2   2    8.84    0.57
  -3   2  -2    9.45    1.72
  -3   2  -2    8.53    0.61
   3   2   2    6.94    1.16
   4  -2   2    0.56    0.32
   4  -2   2    0.12    0.31
  -4  -2  -2    2.10    2.19
   4  -2   2    0.24    0.75
   4   2   2    0.50    0.44
   4   2   2    0.21    0.68
  -4   2  -2    1.19    1.74
  -4   2  -2    0.79    0.29
   5  -2   2    2.41    1.07
   5   2   2    0.61    0.93
  -5   2  -2   -1.09    2.27
   5  -3  -2    0.88    0.85
   5   3  -2    0.81    0.84
   5   3  -2    0.56    0.91
   4  -3  -2    9.08    1.32
   4  -3  -2    7.25    1.09
   4   3  -2    8.82    1.11
  -4   3   2   11.96    2.19
   4   3  -2    7.68    1.08
  -3  -3   2    7.82    1.43
   3  -3  -2    8.63    0.60
   3  -3  -2    7.67    1.48
   3  -3  -2    7.61    0.96
   3  -3  -2    7.88    0.55
   3   3  -2    7.42    0.80
   3   3  -2    7.25    1.18
   3   3  -2    7.41    0.92
  -3   3   2    8.32    1.68
   2  -3  -2   24.56    1.21
   2  -3  -2   23.21    1.18
   2  -3  -2   22.58    1.65
   2  -3  -2   23.53    1.20
   2  -3  -2   23.77    1.37
  -2   3   2   24.34    1.20
  -2   3   2   25.41    1.41
   2   3  -2   22.88    1.37
   2   3  -2   21.07    1.52
   2   3  -2   22.13    1.26
  -2   3   2   22.36    1.72
  -1  -3   2   61.05    2.80
   1  -3  -2   58.14    2.98
   1  -3  -2   53.08    2.90
   1  -3  -2   56.63    2.81
  -1  -3   2   61.47    2.80
  -1  -3   2   59.24    2.88
   1  -3  -2   59.00    3.03
   1   3  -2   58.46    2.95
   1   3  -2   55.88    2.81
  -1   3   2   54.32    2.85
  -1   3   2   58.12    2.89
  -1   3   2   57.73    2.80
   1   3  -2   59.30    2.79
   1   3  -2   62.20    2.97
   0  -3  -2    3.80    0.27
   0  -3   2    2.78    0.32
   0  -3  -2    4.54    0.45
   0  -3   2    2.95    0.29
   0  -3   2    2.77    0.28
   0  -3  -2    3.28    0.35
   0   3   2    3.85    0.27
   0   3   2    3.99    0.33
   0   3  -2    2.87    0.32
   0   3  -2    2.49    0.29
   0   3  -2    2.85    0.28
   0   3   2    3.64    0.26
  -1  -3  -2    2.57    0.48
   1  -3   2    2.16    0.54
   1  -3   2    2.30    0.30
   1  -3   2    2.33    0.33
  -1  -3  -2    2.22    0.27
   1  -3   2    2.00    0.25
  -1   3  -2    2.37    0.56
   1   3   2    2.65    0.37
  -1   3  -2    2.70    0.28
   1   3   2    2.29    0.30
  -1   3  -2    2.25    0.31
   1   3   2    2.26    0.24
  -1   3  -2    2.09    0.26
   2  -3   2   13.31    0.77
  -2  -3  -2   13.74    0.77
   2  -3   2   13.94    0.84
  -2  -3  -2   13.96    0.81
   2  -3   2   14.61    0.84
   2  -3   2   13.58    1.19
  -2  -3  -2   13.32    1.23
   2  -3   2   13.66    1.11
  -2  -3  -2   13.30    0.77
   2   3   2   13.49    1.09
   2   3   2   14.23    0.74
   2   3   2   13.64    0.76
  -2   3  -2   14.66    1.38
  -2   3  -2   14.00    0.84
   2   3   2   14.12    0.85
  -2   3  -2   14.16    0.81
   3  -3   2    8.08    1.11
   3  -3   2    6.71    0.69
   3  -3   2    7.29    0.57
   3  -3   2    8.14    0.66
  -3  -3  -2    7.41    0.54
  -3  -3  -2    8.29    1.63
  -3  -3  -2    7.77    0.50
   3   3   2    7.17    0.81
   3   3   2    8.31    0.55
  -3   3  -2   10.52    1.68
  -3   3  -2    8.24    0.62
   3   3   2    7.58    1.12
  -3   3  -2    7.97    0.65
  -4  -3  -2    4.90    3.22
   4  -3   2    3.42    0.54
   4  -3   2    4.67    0.61
   4  -3   2    3.40    0.93
   4   3   2    5.43    0.97
   4   3   2    3.39    0.84
  -4   3  -2    5.83    1.92
  -5  -3  -2    0.35    1.78
   5  -3   2    1.03    1.07
  -5   3  -2    3.73    2.61
   5   3   2   -0.40    0.87
   5  -4  -2   -0.04    0.92
   5   4  -2    0.50    0.82
   5   4  -2   -0.11    0.86
   4  -4  -2   13.70    1.55
   4  -4  -2   13.30    0.81
   4  -4  -2   12.19    0.77
  -4   4   2   14.74    2.29
   4   4  -2   13.07    1.19
   4   4  -2   10.63    1.62
   3  -4  -2   78.87    4.03
   3  -4  -2   81.68    3.88
   3  -4  -2   76.69    3.77
   3  -4  -2   79.00    3.80
   3  -4  -2   82.38    4.21
  -3   4   2   77.03    4.51
   3   4  -2   79.11    3.92
   3   4  -2   72.77    4.23
   3   4  -2   79.86    4.00
   2  -4  -2  225.89   10.53
   2  -4  -2  218.98   10.63
  -2  -4   2  214.48   10.49
   2  -4  -2  218.09   10.53
   2  -4  -2  231.33   10.77
   2  -4  -2  222.23   10.52
   2  -4  -2  218.85   10.91
  -2   4   2  229.86   10.53
   2   4  -2  213.50   10.54
  -2   4   2  227.59   10.69
  -2   4   2  220.34   10.89
   2   4  -2  223.77   10.63
   2   4  -2  220.96   10.77
   1  -4  -2  652.22   31.29
  -1  -4   2  649.02   31.32
  -1   4   2  682.86   31.33
   1   4  -2  668.36   31.35
   0  -4  -2  616.87   32.90
   0   4   2  778.69   32.96
   1  -4   2  187.13   10.04
  -1  -4  -2  209.64    9.81
   1  -4   2  214.20    9.87
  -1  -4  -2  199.69    9.89
   1  -4   2  212.64    9.81
  -1  -4  -2  207.45    9.78
   1  -4   2  214.69    9.81
   1  -4   2  204.20    9.78
  -1   4  -2  209.29    9.81
  -1   4  -2  206.90    9.81
   1   4   2  206.77    9.82
  -1   4  -2  206.99    9.97
   1   4   2  212.32    9.81
   1   4   2  207.08    9.77
  -1   4  -2  202.41    9.80
   1   4   2  200.94    9.78
  -2  -4  -2   61.59    2.99
   2  -4   2   64.21    3.04
  -2  -4  -2   60.80    3.03
  -2  -4  -2   61.08    2.99
   2  -4   2   60.85    3.00
   2  -4   2   62.08    3.20
  -2  -4  -2   59.02    3.31
   2  -4   2   59.25    3.33
   2  -4   2   62.36    3.02
  -2   4  -2   62.24    3.04
  -2   4  -2   58.30    3.02
   2   4   2   64.15    2.97
   2   4   2   63.95    3.25
  -2   4  -2   61.28    3.46
   2   4   2   61.39    2.98
   2   4   2   62.40    3.05
   3  -4   2   46.53    2.37
  -3  -4  -2   45.10    2.28
   3  -4   2   44.58    2.33
   3  -4   2   44.99    2.33
  -3  -4  -2   50.09    3.06
   3  -4   2   45.38    2.32
  -3  -4  -2   45.56    2.26
   3  -4   2   46.54    2.66
  -3   4  -2   46.26    2.34
  -3   4  -2   45.26    2.38
   3   4   2   47.62    2.40
   3   4   2   48.98    2.28
   3   4   2   45.73    2.73
  -3   4  -2   48.65    3.26
   4  -4   2    3.17    0.35
   4  -4   2    2.64    0.90
   4  -4   2    3.34    0.40
   4  -4   2    3.03    0.46
   4  -4   2    3.40    0.47
  -4  -4  -2    5.38    1.71
  -4   4  -2    3.16    0.44
  -4   4  -2    4.28    1.83
   4   4   2    3.03    0.59
  -5  -4  -2    0.79    1.88
   5  -4   2    0.43    1.09
   5   4   2    0.85    0.91
  -5   4  -2    0.34    2.55
   5  -5  -2    0.11    0.90
   5   5  -2   -0.25    0.93
   5   5  -2    0.07    0.94
   4  -5  -2   -0.07    0.82
   4  -5  -2   -0.03    0.33
   4  -5  -2   -0.06    0.71
   4  -5  -2    0.53    0.39
   4   5  -2    0.64    0.67
  -4   5   2    2.25    1.73
   4   5  -2    0.70    0.56
   3  -5  -2    4.05    0.48
   3  -5  -2    4.33    0.53
   3  -5  -2    4.03    0.50
   3  -5  -2    3.83    0.69
   3  -5  -2    5.11    0.58
   3  -5  -2    5.31    1.25
   3   5  -2    5.06    0.70
   3   5  -2    4.88    0.69
   3   5  -2    4.96    1.00
  -3   5   2    5.33    1.49
   2  -5  -2    1.21    0.73
   2  -5  -2    1.16    0.30
   2  -5  -2    1.43    0.30
   2  -5  -2    1.85    0.43
   2  -5  -2    2.06    0.28
  -2  -5   2    2.07    0.21
   2  -5  -2    1.74    0.65
  -2  -5   2    1.79    0.19
  -2  -5   2    2.02    0.23
   2  -5  -2    1.64    0.30
  -2   5   2    1.23    0.44
  -2   5   2    1.31    0.85
   2   5  -2    1.24    0.57
   2   5  -2    2.23    0.31
   2   5  -2    2.12    0.47
  -2   5   2    1.61    0.26
  -1  -5   2   22.13    1.19
   1  -5  -2   23.31    1.28
   1  -5  -2   23.29    1.50
   1  -5  -2   22.33    1.44
  -1  -5   2   24.18    1.20
   1  -5  -2   23.80    1.21
   1  -5  -2   22.44    1.23
  -1  -5   2   22.52    1.31
  -1   5   2   24.10    1.21
  -1   5   2   24.11    1.22
   1   5  -2   24.72    1.34
  -1   5   2   24.24    1.32
  -1   5   2   21.09    1.52
   1   5  -2   23.22    1.30
   1   5  -2   23.61    1.20
   1   5  -2   22.97    1.20
   0  -5   2    5.27    0.47
   0  -5   2    5.50    0.43
   0  -5   2    5.28    0.43
   0  -5   2    5.56    0.40
   0   5  -2    5.95    0.45
   0   5  -2    5.68    0.46
   0   5  -2    5.02    0.57
   1  -5   2   33.28    1.82
   1  -5   2   35.69    1.75
   1  -5   2   33.81    1.92
   1  -5   2   34.81    1.74
  -1  -5  -2   35.91    1.77
  -1  -5  -2   33.04    1.83
   1  -5   2   34.45    1.75
   1   5   2   37.49    1.70
  -1   5  -2   33.44    1.97
  -1   5  -2   33.38    1.75
  -1   5  -2   32.66    1.75
  -1   5  -2   32.51    1.78
   2  -5   2   23.71    1.32
   2  -5   2   23.90    1.31
   2  -5   2   24.06    1.29
   2  -5   2   24.22    1.68
  -2  -5  -2   23.65    1.24
  -2  -5  -2   23.32    1.63
  -2  -5  -2   22.45    1.23
  -2  -5  -2   21.35    1.31
   2  -5   2   23.92    1.49
   2   5   2   24.30    1.34
  -2   5  -2   24.01    1.32
   2   5   2   23.31    1.22
  -2   5  -2   23.60    1.81
   2   5   2   24.13    1.21
   2   5   2   23.41    1.35
   3  -5   2   11.59    0.83
  -3  -5  -2    9.73    0.70
   3  -5   2   13.43    1.37
  -3  -5  -2   10.79    0.68
   3  -5   2   11.50    0.89
  -3  -5  -2   13.53    1.63
   3  -5   2   10.10    0.86
   3  -5   2   11.23    0.79
   3   5   2   11.55    0.72
  -3   5  -2   12.64    0.89
   3   5   2   13.20    1.27
   3   5   2   11.43    0.97
  -3   5  -2   13.02    1.97
  -4  -5  -2    6.42    1.65
   4  -5   2    3.31    0.52
   4  -5   2    4.68    1.00
   4  -5   2    3.19    0.41
   4  -5   2    4.30    0.54
   4  -5   2    3.32    0.50
   4   5   2    3.91    0.63
  -4   5  -2    5.36    2.16
   5  -5   2    0.80    0.39
  -5  -5  -2    1.84    1.94
   5  -5   2    1.27    1.16
   5   5   2   -0.48    0.83
  -5   5  -2    2.11    2.83
   5  -6  -2    3.66    1.05
   5   6  -2    3.49    1.02
   4  -6  -2    5.54    0.68
   4  -6  -2    5.40    0.55
   4  -6  -2    5.82    0.60
   4  -6  -2    6.33    0.95
   4  -6  -2    6.78    1.07
  -4   6   2   11.05    2.44
   4   6  -2    6.34    0.94
   4   6  -2    7.74    1.21
   3  -6  -2   40.30    2.09
   3  -6  -2   44.99    2.50
   3  -6  -2   40.39    2.13
   3  -6  -2   41.18    2.11
   3  -6  -2   39.27    2.35
   3  -6  -2   42.50    2.07
   3   6  -2   37.79    2.48
  -3   6   2   41.00    2.99
   3   6  -2   41.65    2.34
   3   6  -2   39.46    2.14
   2  -6  -2  137.94    6.48
  -2  -6   2  139.46    6.41
  -2  -6   2  137.72    6.57
  -2  -6   2  137.85    6.42
   2  -6  -2  135.06    6.48
   2  -6  -2  131.32    6.56
   2  -6  -2  135.52    6.45
   2  -6  -2  143.91    6.68
   2  -6  -2  130.86    6.85
  -2  -6   2  132.82    6.40
   2  -6  -2  131.62    6.46
  -2   6   2  130.26    6.83
   2   6  -2  137.43    6.57
  -2   6   2  131.34    6.62
   2   6  -2  128.40    6.42
   2   6  -2  129.32    6.66
  -2   6   2  139.64    6.46
   1  -6  -2   92.92    4.60
  -1  -6   2   98.82    4.64
   1  -6  -2   91.83    4.56
  -1  -6   2   93.97    4.54
   1  -6  -2   91.80    4.78
   1  -6  -2   92.54    4.55
  -1  -6   2   95.01    4.54
   1  -6  -2  102.49    4.72
   1   6  -2   93.41    4.55
   1   6  -2   94.75    4.54
  -1   6   2   95.35    4.55
  -1   6   2   93.30    4.56
   1   6  -2   91.64    4.59
  -1   6   2   89.85    4.75
  -1   6   2   95.89    4.64
   1   6  -2   99.30    4.64
   0  -6  -2  264.68   12.68
   0  -6   2  273.29   12.70
   0  -6  -2  262.73   12.69
   0  -6  -2  275.96   12.72
   0  -6   2  273.32   12.70
   0  -6   2  262.50   12.73
   0  -6   2  266.00   12.67
   0  -6  -2  278.15   12.78
   0   6  -2  270.51   12.70
   0   6   2  262.33   12.77
   0   6  -2  253.39   12.76
   0   6   2  267.93   12.68
   0   6   2  280.71   12.69
   0   6  -2  266.65   12.72
   0   6  -2  256.49   12.70
   1  -6   2   54.24    2.79
  -1  -6  -2   54.05    2.69
   1  -6   2   49.48    2.78
  -1  -6  -2   56.76    2.76
   1  -6   2   58.86    2.90
  -1  -6  -2   55.01    2.69
   1  -6   2   54.83    2.73
  -1  -6  -2   58.52    2.79
  -1  -6  -2   53.78    2.78
   1  -6   2   56.80    2.73
   1   6   2   54.38    2.69
  -1   6  -2   53.95    2.73
  -1   6  -2   51.14    2.89
  -1   6  -2   53.39    2.73
   1   6   2   57.50    2.68
   1   6   2   55.63    2.69
  -2  -6  -2   38.42    1.97
   2  -6   2   39.12    2.05
  -2  -6  -2   39.35    2.32
  -2  -6  -2   39.08    2.05
   2  -6   2   37.80    2.37
   2  -6   2   39.81    2.04
   2  -6   2   39.37    2.23
   2  -6   2   40.24    2.06
  -2  -6  -2   39.23    1.98
   2   6   2   40.93    1.96
  -2   6  -2   31.88    2.75
   2   6   2   39.44    1.97
   2   6   2   40.93    2.10
  -2   6  -2   39.29    2.04
  -2   6  -2   39.27    2.56
   2   6   2   42.52    2.07
   3  -6   2    1.40    0.38
   3  -6   2    2.29    0.44
   3  -6   2    1.90    0.74
  -3  -6  -2    1.62    1.05
   3  -6   2    2.25    0.41
  -3  -6  -2    2.22    0.30
  -3   6  -2    3.14    1.56
  -3   6  -2    0.61    0.45
   3   6   2    2.11    0.53
   3   6   2    2.01    0.32
   3   6   2    2.56    0.84
   4  -6   2    0.43    0.42
   4  -6   2    1.76    0.51
   4  -6   2    1.82    0.89
  -4  -6  -2    3.45    1.45
   4  -6   2    0.99    0.53
  -4   6  -2    0.71    1.78
   4   6   2    1.58    0.60
   5  -6   2   -0.11    1.15
  -5  -6  -2    1.22    1.92
   5  -6   2    0.42    0.43
   5   6   2   -0.76    0.87
  -5   6  -2    3.50    3.21
   5  -7  -2   -0.73    0.91
   5  -7  -2    0.76    0.51
   5   7  -2    0.47    0.93
   4  -7  -2    1.09    0.41
   4  -7  -2    0.94    0.31
   4  -7  -2    0.95    0.47
   4  -7  -2    1.08    0.79
   4  -7  -2    0.64    0.35
   4   7  -2    0.73    0.54
  -4   7   2    3.78    1.93
   4   7  -2   -0.54    0.68
   3  -7  -2    1.07    0.35
  -3  -7   2    1.08    0.20
   3  -7  -2    1.09    0.36
   3  -7  -2    1.09    0.38
   3  -7  -2    0.84    0.71
   3  -7  -2    1.52    0.40
  -3  -7   2    1.14    0.20
   3  -7  -2    0.74    0.60
  -3   7   2    2.62    1.43
   3   7  -2    0.98    0.61
   3   7  -2    1.17    0.42
   3   7  -2    0.89    0.78
   2  -7  -2    0.43    0.31
   2  -7  -2    0.21    0.38
   2  -7  -2    0.38    0.26
  -2  -7   2    0.76    0.42
  -2  -7   2    0.47    0.21
  -2  -7   2    0.33    0.19
   2  -7  -2    0.02    0.25
   2  -7  -2    0.41    0.31
  -2  -7   2    0.57    0.22
   2  -7  -2    0.44    0.52
   2  -7  -2    0.57    0.71
  -2  -7   2    0.34    0.20
   2   7  -2    0.50    0.23
   2   7  -2    0.52    0.19
   2   7  -2    0.08    0.47
  -2   7   2    0.25    0.42
   2   7  -2    0.72    0.52
  -2   7   2    0.01    0.82
   1  -7  -2    3.50    0.57
  -1  -7   2    3.97    0.43
  -1  -7   2    4.15    0.62
  -1  -7   2    3.41    0.42
  -1   7   2    4.38    0.41
  -1   7   2    4.30    0.43
   1   7  -2    3.85    0.45
   1   7  -2    3.35    0.38
   1   7  -2    3.71    0.52
  -1   7   2    4.69    0.72
   0  -7  -2    3.79    0.44
   0  -7  -2    4.42    0.55
   0  -7  -2    3.76    0.41
   0  -7  -2    4.08    0.65
   0   7   2    3.62    0.42
   0   7  -2    5.47    0.50
   0   7   2    4.71    0.59
   0   7   2    3.42    0.40
   0   7   2    4.78    0.44
  -1  -7  -2   40.56    2.15
   1  -7   2   46.57    2.16
   1  -7   2   42.90    2.14
   1  -7   2   42.43    2.14
   1  -7   2   40.60    2.18
  -1  -7  -2   37.77    2.07
  -1  -7  -2   41.83    2.17
  -1  -7  -2   38.92    2.11
  -1  -7  -2   38.03    2.18
   1   7   2   41.80    2.09
  -1   7  -2   41.98    2.34
  -1   7  -2   43.92    2.23
  -1   7  -2   41.75    2.14
   1   7   2   42.17    2.07
   1   7   2   42.58    2.08
  -1   7  -2   41.07    2.14
   1   7   2   41.98    2.21
  -2  -7  -2   42.86    2.33
   2  -7   2   50.14    2.35
   2  -7   2   44.01    2.34
   2  -7   2   47.22    2.51
  -2  -7  -2   45.16    2.56
   2  -7   2   39.28    2.35
  -2  -7  -2   44.14    2.25
  -2  -7  -2   43.22    2.26
   2  -7   2   53.11    2.74
  -2   7  -2   43.92    2.34
   2   7   2   46.30    2.24
  -2   7  -2   44.57    2.80
  -2   7  -2   45.40    2.55
  -2   7  -2   43.47    2.35
   2   7   2   42.78    2.25
   2   7   2   47.17    2.31
   2   7   2   44.63    2.40
  -3  -7  -2   18.27    1.09
   3  -7   2   20.41    1.66
  -3  -7  -2   20.02    1.25
   3  -7   2   19.41    1.21
  -3  -7  -2   19.10    1.18
  -3  -7  -2   21.57    1.91
   3  -7   2   18.63    1.20
   3  -7   2   19.33    1.24
   3  -7   2   20.67    1.27
   3   7   2   20.14    1.11
  -3   7  -2   19.21    1.31
   3   7   2   19.80    1.37
   3   7   2   18.93    1.27
  -3   7  -2   21.52    2.30
   4  -7   2    2.30    0.48
  -4  -7  -2    4.33    1.50
   4  -7   2    2.60    0.51
   4  -7   2    3.17    0.97
   4   7   2    3.23    0.74
  -4   7  -2    5.11    2.06
   5  -7   2    1.71    1.34
   5  -7   2    0.33    0.47
  -5  -7  -2    2.23    1.86
   5   7   2    0.39    0.95
  -5   7  -2    1.33    3.33
   5  -8  -2    3.21    0.53
   5  -8  -2    4.22    1.20
   5   8  -2    3.39    1.07
   4  -8  -2   11.05    1.47
   4  -8  -2   10.58    0.84
   4  -8  -2    7.86    0.87
   4  -8  -2    9.08    1.04
   4   8  -2   10.36    1.01
  -4   8   2   13.60    2.45
   4   8  -2    9.51    1.39
  -3  -8   2   11.77    0.72
   3  -8  -2   13.72    1.37
   3  -8  -2   11.75    0.88
   3  -8  -2   12.09    0.95
   3  -8  -2   14.15    1.29
   3  -8  -2   14.30    0.99
  -3  -8   2   11.53    0.71
   3  -8  -2   12.25    0.92
   3   8  -2   12.41    1.24
   3   8  -2   12.40    0.90
  -3   8   2   15.49    2.10
   3   8  -2   12.33    0.85
   3   8  -2   10.86    1.24
   2  -8  -2   30.52    1.77
   2  -8  -2   30.50    1.95
   2  -8  -2   32.86    1.65
  -2  -8   2   31.72    1.59
   2  -8  -2   31.05    1.70
  -2  -8   2   29.81    1.65
  -2  -8   2   31.07    1.78
   2  -8  -2   30.35    1.66
   2  -8  -2   31.45    1.69
  -2  -8   2   28.99    1.58
  -2  -8   2   30.46    1.58
   2  -8  -2   31.84    2.12
  -2   8   2   29.20    2.18
   2   8  -2   31.27    1.83
  -2   8   2   31.93    1.86
   2   8  -2   28.83    1.53
  -1  -8   2  110.81    5.41
  -1  -8   2  114.39    5.42
   1  -8  -2  110.65    5.58
   1  -8  -2  113.32    5.47
  -1  -8   2  114.42    5.51
   1  -8  -2  112.46    5.43
  -1  -8   2  113.01    5.42
   1  -8  -2  114.10    5.65
   1  -8  -2  109.49    5.43
   1   8  -2  111.92    5.42
   1   8  -2  112.13    5.51
  -1   8   2  111.11    5.64
  -1   8   2  116.74    5.52
  -1   8   2  114.48    5.44
   1   8  -2  104.80    5.42
  -1   8   2  114.04    5.42
   0  -8  -2  149.67    7.29
   0  -8   2  146.08    7.13
   0  -8   2  154.19    7.17
   0  -8  -2  147.88    7.18
   0  -8  -2  144.62    7.15
   0  -8  -2  144.34    7.18
   0  -8   2  150.35    7.20
   0  -8   2  151.00    7.17
   0   8  -2  147.74    7.22
   0   8   2  143.97    7.26
   0   8  -2  145.30    7.16
   0   8   2  155.88    7.16
   0   8   2  152.82    7.16
   0   8  -2  151.09    7.17
   0   8  -2  145.25    7.16
   0   8  -2  153.90    7.22
   0   8   2  152.39    7.15
  -1  -8  -2   54.99    2.87
  -1  -8  -2   52.53    2.78
  -1  -8  -2   54.49    2.82
   1  -8   2   65.64    2.85
   1   8   2   54.38    2.92
   1   8   2   55.64    2.77
   1   8   2   58.16    2.77
   1   8   2   53.90    2.78
  -2  -8  -2    7.32    1.07
  -2  -8  -2    6.29    0.67
   2  -8   2    7.57    0.94
   2  -8   2    8.04    0.72
  -2  -8  -2    6.38    0.58
  -2  -8  -2    6.81    0.57
  -2   8  -2    7.15    0.73
  -2   8  -2    9.16    1.19
   2   8   2    6.26    0.59
  -2   8  -2    6.56    0.78
   2   8   2    7.26    0.91
   2   8   2    5.32    0.68
   2   8   2    7.04    0.61
  -3  -8  -2    1.21    0.43
  -3  -8  -2    0.57    0.37
   3  -8   2    3.37    0.79
  -3  -8  -2    2.34    1.00
  -3  -8  -2    1.24    0.33
   3   8   2    1.37    0.43
   3   8   2    1.73    0.60
  -3   8  -2    1.71    0.54
   3   8   2    1.52    0.35
  -4  -8  -2    1.93    1.36
   4  -8   2    1.76    0.50
   4  -8   2    0.89    0.51
   4  -8   2    1.91    0.93
  -4   8  -2    2.55    2.12
   4   8   2    0.48    1.09
   4  -9  -2   -0.16    0.76
   4  -9  -2    0.24    0.45
   4  -9  -2    0.55    0.42
   4   9  -2    1.13    0.80
   4   9  -2    0.67    0.53
   3  -9  -2    5.66    0.77
   3  -9  -2    5.37    0.78
   3  -9  -2    5.63    0.71
  -3  -9   2    5.39    0.44
   3  -9  -2    6.05    0.79
  -3  -9   2    5.75    0.46
  -3  -9   2    5.92    0.51
   3  -9  -2    6.34    1.03
   3  -9  -2    5.09    0.79
   3   9  -2    6.49    0.98
   3   9  -2    6.53    0.87
   3   9  -2    4.94    0.69
  -3   9   2    9.12    1.73
  -2  -9   2    2.66    0.35
  -2  -9   2    2.35    0.32
   2  -9  -2    1.59    0.45
   2  -9  -2    3.69    1.05
  -2  -9   2    3.22    0.58
   2  -9  -2    2.04    0.52
  -2  -9   2    2.46    0.34
   2  -9  -2    1.99    0.45
   2  -9  -2    2.02    0.40
   2  -9  -2    2.34    0.42
   2  -9  -2    2.43    0.74
  -2  -9   2    3.26    0.45
   2   9  -2    3.29    0.62
  -2   9   2    2.55    0.61
   2   9  -2    2.97    0.62
   1  -9  -2   52.71    2.86
  -1  -9   2   50.63    2.59
   1  -9  -2   50.86    2.79
  -1  -9   2   53.53    2.60
   1  -9  -2   52.76    2.66
   1  -9  -2   50.32    2.62
   1  -9  -2   51.53    2.66
  -1  -9   2   54.03    2.70
  -1  -9   2   46.40    2.76
  -1  -9   2   52.75    2.50
   1  -9  -2   51.41    2.61
  -1   9   2   48.49    2.89
  -1   9   2   51.93    2.60
  -1   9   2   51.48    2.69
   1   9  -2   51.15    2.72
   1   9  -2   53.59    2.49
  -1   9   2   52.41    2.61
   0  -9  -2  112.04    5.51
   0  -9  -2  114.88    5.63
   0  -9  -2  112.84    5.55
   0  -9   2  116.59    5.51
   0  -9   2  113.02    5.57
   0  -9  -2  115.36    5.49
   0  -9  -2  111.67    5.53
   0  -9   2  108.37    5.52
   0  -9   2  116.19    5.51
   0   9   2  117.26    5.48
   0   9  -2  114.52    5.51
   0   9  -2  110.78    5.57
   0   9   2  119.01    5.51
   0   9  -2  116.97    5.48
   0   9  -2  113.69    5.52
   0   9   2  110.73    5.63
   0   9  -2  107.26    5.49
   1  -9   2   73.88    3.25
  -1  -9  -2   55.16    3.13
   1  -9   2   74.55    3.38
  -1  -9  -2   57.09    3.14
  -1  -9  -2   55.21    3.22
  -1   9  -2   70.29    3.22
  -1   9  -2   72.73    3.22
  -1   9  -2   75.17    3.44
   1   9   2   57.08    3.45
   1   9   2   55.97    3.13
   1   9   2   58.16    3.11
  -1   9  -2   57.86    3.28
  -2  -9  -2   16.46    1.02
  -2  -9  -2   15.13    1.11
   2  -9   2   17.21    1.24
   2  -9   2   17.09    1.16
  -2  -9  -2   15.98    1.03
   2  -9   2   18.35    1.22
   2  -9   2   18.91    1.21
  -2  -9  -2   18.84    1.44
   2  -9   2   19.55    1.36
   2  -9   2   17.71    1.58
   2   9   2   16.26    1.01
  -2   9  -2   17.18    1.19
  -2   9  -2   18.77    1.84
   2   9   2   18.04    1.30
   2   9   2   17.30    1.02
   2   9   2   17.12    1.02
  -2   9  -2   16.91    1.16
  -2   9  -2   16.61    1.53
  -3  -9  -2    6.60    0.82
   3  -9   2    6.96    0.87
   3  -9   2    8.63    0.90
   3  -9   2    6.83    0.80
   3  -9   2    7.57    0.91
   3  -9   2    7.87    0.97
   3  -9   2    9.36    1.37
  -3  -9  -2    7.40    1.36
  -3  -9  -2    6.58    0.68
  -3  -9  -2    7.42    0.66
   3   9   2    6.99    1.09
   3   9   2    9.01    0.78
  -3   9  -2    9.24    0.95
  -3   9  -2   11.32    1.93
   3   9   2    7.09    0.72
   4  -9   2    1.71    0.49
   4  -9   2    1.83    0.99
   4  -9   2    0.76    0.51
  -4  -9  -2    2.67    1.38
   4   9   2    3.01    0.80
  -4   9  -2    2.86    2.12
   4 -10  -2    1.54    0.52
   4 -10  -2    1.17    0.81
   4 -10  -2    0.32    0.47
   4  10  -2    0.95    0.83
   4  10  -2    1.18    0.57
   3 -10  -2    6.97    1.22
   3 -10  -2    5.81    1.09
   3 -10  -2    7.25    0.85
  -3 -10   2    6.26    0.52
   3 -10  -2    6.39    0.83
   3 -10  -2    6.13    1.42
  -3 -10   2    6.32    0.61
   3 -10  -2    5.58    0.78
   3  10  -2    6.14    0.48
   3  10  -2    4.68    0.96
   3  10  -2    7.19    1.15
  -2 -10   2   14.54    0.91
   2 -10  -2   15.02    0.99
  -2 -10   2   13.45    0.87
   2 -10  -2   10.13    1.56
  -2 -10   2   14.11    0.95
  -2 -10   2   14.45    0.92
   2 -10  -2   14.44    1.10
   2 -10  -2   14.70    1.42
   2 -10  -2   14.43    1.10
   2 -10  -2   15.01    1.02
  -2 -10   2   13.83    1.21
   2 -10  -2   14.84    1.16
   2  10  -2   12.68    0.99
  -2  10   2   14.51    1.27
   2  10  -2   14.56    1.30
   1 -10  -2  112.53    5.48
  -1 -10   2  109.89    5.56
  -1 -10   2  114.10    5.48
   1 -10  -2  113.71    5.72
  -1 -10   2  113.87    5.47
  -1 -10   2  114.99    5.47
   1 -10  -2  114.42    5.53
  -1 -10   2  111.04    5.47
   1 -10  -2  109.19    5.49
   1 -10  -2  107.76    5.64
   1 -10  -2  111.92    5.52
  -1  10   2  116.26    5.50
  -1  10   2  115.21    5.57
  -1  10   2  113.13    5.48
  -1  10   2  108.54    5.71
   1  10  -2  114.64    5.59
   1  10  -2  114.98    5.38
   0 -10  -2   84.77    4.53
   0 -10  -2   86.33    4.51
   0 -10   2   97.84    4.59
   0 -10  -2   86.98    4.55
   0 -10   2  102.92    4.56
   0 -10  -2   89.33    4.56
   0 -10   2   95.13    4.49
   0 -10  -2   78.87    4.77
   0 -10   2   99.62    4.55
   0 -10   2  100.29    4.55
   0  10  -2   96.16    4.52
   0  10   2   84.91    4.67
   0  10  -2   96.61    4.63
   0  10  -2   86.38    4.63
   0  10   2   88.30    4.51
   0  10  -2   98.02    4.55
   0  10   2   91.79    4.52
   0  10   2   89.83    4.50
   0  10  -2   99.10    4.55
  -1 -10  -2   54.38    2.84
   1 -10   2   57.80    3.09
  -1 -10  -2   56.45    3.00
  -1 -10  -2   52.35    2.88
  -1 -10  -2   56.77    2.88
   1 -10   2   58.91    2.97
   1  10   2   53.34    2.86
  -1  10  -2   66.16    2.97
   1  10   2   59.79    2.88
  -1  10  -2   57.23    3.05
   1  10   2   59.64    2.85
   1  10   2   55.98    3.08
   2 -10   2   13.23    1.54
  -2 -10  -2   16.11    1.30
   2 -10   2   14.43    1.12
  -2 -10  -2   14.34    0.93
   2 -10   2   14.11    1.29
   2 -10   2   14.86    1.09
  -2 -10  -2   14.06    1.05
   2 -10   2   14.45    1.08
  -2 -10  -2   14.05    0.95
   2 -10   2   14.69    1.16
   2 -10   2   13.75    1.05
  -2  10  -2   15.69    1.83
  -2  10  -2   12.13    1.49
   2  10   2   14.08    0.93
   2  10   2   15.75    1.29
   2  10   2   14.15    0.92
  -2  10  -2   14.85    1.13
   2  10   2   15.58    0.92
   3 -10   2    9.20    1.02
  -3 -10  -2    8.22    0.75
   3 -10   2    7.16    1.01
   3 -10   2    8.37    1.32
  -3 -10  -2    8.09    1.34
   3 -10   2    7.38    0.87
   3 -10   2    9.58    0.96
   3 -10   2    9.16    0.95
  -3 -10  -2    8.75    0.75
  -3 -10  -2    7.42    0.97
   3  10   2    9.01    0.74
   3  10   2    7.81    1.17
  -3  10  -2   12.75    2.18
   4 -10   2   -0.03    0.46
   4 -10   2    0.70    0.56
   4 -10   2    0.10    0.96
  -4 -10  -2    0.26    1.32
  -4  10  -2    2.05    2.08
   4  10   2    1.35    0.78
   4 -11  -2    0.29    0.53
   4 -11  -2    0.48    0.86
   4 -11  -2    0.18    0.50
   4  11  -2    0.38    0.86
  -3 -11   2    1.19    0.35
  -3 -11   2    1.57    0.32
   3 -11  -2    0.96    0.50
   3 -11  -2    1.72    0.56
   3 -11  -2    1.78    0.53
   3 -11  -2    0.95    0.64
   3 -11  -2    1.38    0.47
   3  11  -2    1.20    0.79
   3  11  -2    1.00    0.35
   3  11  -2    2.24    0.36
   3  11  -2    1.43    0.74
   2 -11  -2    3.50    0.52
  -2 -11   2    3.99    0.49
  -2 -11   2    3.12    0.46
   2 -11  -2    4.84    1.20
   2 -11  -2    4.46    0.63
  -2 -11   2    3.95    0.85
   2 -11  -2    4.36    0.68
   2 -11  -2    3.39    0.54
  -2 -11   2    3.38    0.47
   2 -11  -2    3.66    0.60
   2 -11  -2    2.76    0.83
   2  11  -2    3.86    0.58
   2  11  -2    3.08    0.72
  -2  11   2    3.02    1.10
   1 -11  -2    5.87    0.95
  -1 -11   2    6.41    0.62
   1 -11  -2    4.89    0.57
   1 -11  -2    4.20    0.72
   1 -11  -2    4.83    0.62
   1 -11  -2    4.28    0.53
  -1 -11   2    6.97    0.65
   1 -11  -2    4.90    0.59
  -1 -11   2    4.63    0.53
  -1  11   2    5.31    0.75
  -1  11   2    4.20    0.51
  -1  11   2    6.60    1.01
  -1  11   2    4.22    0.58
   0 -11  -2   67.54    3.53
   0 -11  -2   70.17    3.59
   0 -11  -2   71.36    3.71
   0 -11  -2   70.23    3.56
   0 -11  -2   68.11    3.56
   0  11   2   74.44    3.53
   0  11   2   70.35    3.74
   0  11   2   73.77    3.55
   0  11   2   72.25    3.54
   1 -11   2   45.25    2.38
  -1 -11  -2   44.53    2.30
  -1 -11  -2   42.36    2.31
   1 -11   2   45.97    2.37
   1 -11   2   43.89    2.41
   1 -11   2   42.18    2.33
  -1 -11  -2   44.66    2.44
   1 -11   2   44.88    2.55
  -1 -11  -2   43.41    2.21
   1 -11   2   44.48    2.36
   1 -11   2   44.25    2.38
   1  11   2   44.12    2.29
   1  11   2   47.42    2.29
  -1  11  -2   42.76    2.60
  -1  11  -2   45.46    2.38
   1  11   2   43.17    2.57
  -1  11  -2   44.15    2.52
   1  11   2   45.44    2.25
   2 -11   2    7.07    0.84
  -2 -11  -2    6.73    0.74
   2 -11   2    6.47    0.89
   2 -11   2   10.16    1.44
   2 -11   2    8.04    0.98
   2 -11   2    6.68    0.95
   2 -11   2    8.43    0.91
  -2 -11  -2    8.07    0.83
   2 -11   2    6.68    0.88
  -2 -11  -2    6.19    0.64
   2  11   2    7.93    1.19
   2  11   2    7.10    0.65
  -2  11  -2    7.27    0.80
  -2  11  -2    8.26    1.47
  -2  11  -2    7.74    1.10
   2  11   2    6.66    0.67
   3 -11   2    5.37    1.02
   3 -11   2    2.95    0.81
   3 -11   2    3.99    0.63
  -3 -11  -2    5.96    1.10
   3 -11   2    3.99    0.67
  -3 -11  -2    4.61    0.87
   3 -11   2    4.80    0.72
   3 -11   2    3.87    0.65
  -3 -11  -2    3.81    0.51
   3  11   2    3.78    0.52
  -3  11  -2    5.96    1.93
   3  11   2    2.95    0.46
   3  11   2    4.78    0.87
   4 -11   2    2.53    1.05
   4 -11   2    1.89    0.67
  -4 -11  -2    3.42    1.54
   4 -11   2    2.91    0.58
   4  11   2    3.21    0.97
  -4  11  -2    5.46    2.33
   4 -12  -2    0.35    0.85
   4 -12  -2    1.38    0.62
   4 -12  -2    0.76    0.55
   4  12  -2    1.62    0.96
   3 -12  -2    0.92    0.53
   3 -12  -2    0.21    0.68
   3 -12  -2    0.53    0.53
  -3 -12   2    0.88    0.33
   3 -12  -2    0.09    0.49
   3 -12  -2    0.76    0.57
  -3 -12   2    0.42    0.33
   3  12  -2    1.41    0.68
   3  12  -2    0.81    0.79
   2 -12  -2    0.22    0.44
   2 -12  -2    0.89    0.51
  -2 -12   2    0.83    0.33
  -2 -12   2    0.23    0.42
   2 -12  -2    1.00    0.59
   2 -12  -2    0.93    0.46
   2 -12  -2    0.35    0.50
   2 -12  -2   -1.08    1.08
   2  12  -2    0.96    0.66
  -2  12   2    1.64    1.09
   1 -12  -2   25.17    1.55
   1 -12  -2   24.43    1.50
   1 -12  -2   24.72    1.73
   1 -12  -2   22.66    1.47
   1 -12  -2   22.45    1.51
   1 -12  -2   23.36    1.44
   1 -12  -2   25.89    1.77
  -1  12   2   22.09    1.93
  -1  12   2   24.91    1.55
   0 -12   2   48.81    2.57
   0 -12   2   58.47    2.63
   0 -12  -2   47.84    2.63
   0 -12  -2   47.93    2.79
   0 -12   2   48.00    2.56
   0 -12  -2   49.19    2.55
   0 -12  -2   48.01    2.59
   0 -12   2   50.87    2.64
   0 -12  -2   47.90    2.57
   0  12   2   49.21    2.54
   0  12  -2   48.57    2.51
   0  12  -2   55.24    2.79
   0  12   2   46.63    2.54
   0  12   2   41.39    2.74
   0  12   2   47.30    2.84
   0  12  -2   52.16    2.53
   1 -12   2   30.77    1.90
   1 -12   2   34.31    1.87
  -1 -12  -2   31.38    1.80
   1 -12   2   32.77    1.85
   1 -12   2   31.47    1.84
  -1 -12  -2   32.61    1.79
  -1 -12  -2   32.44    1.96
   1 -12   2   32.01    2.04
   1 -12   2   33.57    1.89
   1 -12   2   32.84    1.87
   1  12   2   33.74    1.77
   1  12   2   32.34    1.70
  -1  12  -2   30.80    1.90
  -1  12  -2   31.57    2.13
   1  12   2   31.84    1.77
  -1  12  -2   33.12    2.13
   1  12   2   31.41    2.09
  -2 -12  -2    6.55    0.99
   2 -12   2    6.71    0.99
   2 -12   2    8.23    1.38
  -2 -12  -2    5.91    0.75
   2 -12   2    6.50    0.75
   2 -12   2    6.54    0.87
   2 -12   2    5.00    0.72
   2 -12   2    6.74    0.94
  -2 -12  -2    6.29    0.82
   2 -12   2    5.74    0.71
   2  12   2    7.71    0.64
   2  12   2    6.59    0.70
  -2  12  -2    5.57    1.05
   2  12   2    8.15    1.29
  -2  12  -2    8.46    1.63
   3 -12   2    1.94    0.58
   3 -12   2    2.10    0.62
   3 -12   2    2.25    0.83
  -3 -12  -2    2.31    0.50
   3 -12   2    1.21    0.60
   3 -12   2    1.49    0.88
  -3 -12  -2    3.41    0.99
  -3 -12  -2    2.09    0.48
   3 -12   2    2.52    0.61
  -3  12  -2    4.01    2.80
   3  12   2    3.08    0.88
   4 -12   2    0.68    0.56
   4 -12   2    0.77    0.99
  -4 -12  -2   -0.57    1.27
   4 -12   2    1.16    0.65
   4  12   2    1.34    1.03
  -4  12  -2    0.70    2.31
   4 -13  -2    3.11    0.99
   4 -13  -2    2.55    0.67
   4 -13  -2    2.55    0.67
   4  13  -2    3.61    1.10
   3 -13  -2    0.86    0.72
   3 -13  -2   -0.04    0.53
  -3 -13   2    0.23    0.38
   3 -13  -2    0.82    0.57
   3 -13  -2   -0.39    0.48
   3  13  -2    0.40    0.81
   2 -13  -2    4.63    0.64
   2 -13  -2    3.38    0.64
   2 -13  -2    4.46    0.72
   2 -13  -2    5.80    0.83
  -2 -13   2    4.67    0.59
   2 -13  -2    4.41    0.76
  -2 -13   2    4.26    0.62
   2 -13  -2    5.46    1.44
  -2  13   2    5.07    1.28
   2  13  -2    4.53    0.88
   1 -13  -2    0.46    0.53
   1 -13  -2    0.31    0.45
   1 -13  -2    0.79    0.43
   1 -13  -2    0.96    0.50
  -1 -13   2    0.31    0.57
  -1 -13   2   -0.75    0.43
   1 -13  -2    0.21    0.50
  -1 -13   2    0.93    0.43
  -1 -13   2    0.40    0.40
  -1  13   2    1.00    0.53
  -1  13   2    1.83    0.87
   0 -13   2   27.52    1.64
   0 -13   2   26.46    1.63
   0 -13  -2   28.01    1.62
   0 -13   2   27.87    1.64
   0 -13  -2   27.91    1.66
   0 -13  -2   27.31    1.60
   0 -13  -2   26.93    1.71
   0 -13   2   28.32    1.68
   0 -13   2   26.74    1.71
   0 -13   2   27.65    1.58
   0 -13  -2   26.57    1.66
   0 -13  -2   28.21    1.99
   0  13  -2   27.78    1.56
   0  13   2   26.68    1.59
   0  13   2   27.45    2.00
   0  13  -2   26.58    1.87
   0  13  -2   27.82    1.54
   0  13   2   30.14    1.64
  -1 -13  -2   79.02    4.01
   1 -13   2   82.07    4.06
   1 -13   2   80.08    4.04
   1 -13   2   83.99    4.07
  -1 -13  -2   79.11    3.98
  -1 -13  -2   73.60    4.34
   1 -13   2   81.30    4.05
   1 -13   2   80.67    4.04
   1 -13   2   76.50    4.09
  -1  13  -2   76.50    4.24
   1  13   2   78.50    3.92
   1  13   2   82.17    3.99
   1  13   2   81.89    4.24
  -1  13  -2   79.11    4.23
  -2 -13  -2   33.50    2.23
   2 -13   2   39.10    2.20
   2 -13   2   37.66    2.28
   2 -13   2   38.01    2.18
   2 -13   2   39.34    2.24
  -2 -13  -2   36.75    1.97
  -2 -13  -2   38.15    2.05
   2 -13   2   38.57    2.13
   2 -13   2   36.46    2.23
   2 -13   2   36.45    2.56
   2  13   2   38.09    2.48
   2  13   2   38.35    1.94
  -2  13  -2   37.85    2.74
  -2  13  -2   33.06    2.53
   2  13   2   36.98    2.03
   3 -13   2   19.14    1.51
   3 -13   2   19.15    1.62
   3 -13   2   18.81    1.41
   3 -13   2   20.31    1.91
   3 -13   2   19.96    1.52
  -3 -13  -2   18.38    1.62
  -3  13  -2   22.23    2.80
   3  13   2   19.92    1.90
   3  13   2   21.96    1.23
   4 -13   2    9.15    1.39
   4 -13   2    7.75    0.98
   4 -13   2    6.05    0.83
  -4  13  -2    9.34    2.78
   4  13   2    7.50    1.31
   4 -14  -2    0.09    0.67
   4 -14  -2    0.02    0.68
   4 -14  -2    0.05    0.97
   4  14  -2   -0.53    1.04
   3 -14  -2    1.24    0.61
   3 -14  -2    0.60    0.55
   3 -14  -2    1.42    0.74
   3  14  -2    0.16    0.86
   2 -14  -2   13.43    1.38
   2 -14  -2   12.72    1.21
  -2 -14   2   12.19    1.05
   2 -14  -2   13.68    1.28
   2 -14  -2   12.61    1.31
   2 -14  -2   15.84    2.01
  -2  14   2   15.56    1.79
   2  14  -2   13.48    1.63
   1 -14  -2   12.72    1.21
   1 -14  -2   16.54    1.16
   1 -14  -2   13.25    1.22
   1 -14  -2   15.60    1.17
   1 -14  -2   15.99    1.24
  -1 -14   2   12.27    1.12
  -1 -14   2   11.36    1.06
  -1  14   2   16.49    1.77
   1  14  -2   13.59    1.50
   0 -14  -2    5.23    0.72
   0 -14   2    3.33    0.64
   0 -14   2    4.22    0.64
   0 -14  -2    5.14    0.69
   0 -14   2    3.79    0.67
   0 -14   2    4.91    0.77
   0  14  -2    5.19    0.60
   0  14   2    5.05    0.63
   0  14  -2    3.73    0.66
   0  14  -2    4.27    0.90
  -1 -14  -2  126.46    6.16
   1 -14   2  129.43    6.24
   1 -14   2  127.07    6.21
   1 -14   2  132.04    6.25
   1 -14   2  121.91    6.19
  -1 -14  -2  121.43    6.31
   1  14   2  122.59    6.10
   1  14   2  122.17    6.40
   1  14   2  127.81    6.17
  -1  14  -2  123.21    6.37
  -1  14  -2  130.52    6.43
   2 -14   2   29.71    1.80
   2 -14   2   27.78    1.81
   2 -14   2   27.85    1.87
   2 -14   2   24.66    1.78
   2 -14   2   28.71    1.80
  -2 -14  -2   23.63    1.57
  -2 -14  -2   22.87    1.59
   2  14   2   26.34    1.45
  -2  14  -2   29.96    2.43
   2  14   2   23.39    1.54
   2  14   2   26.49    2.18
   3 -14   2    0.44    0.80
   3 -14   2    0.74    0.63
   3 -14   2    1.04    0.59
  -3 -14  -2   -0.03    0.92
   3  14   2    1.43    1.10
  -3  14  -2    0.29    1.69
   4 -14   2    1.95    1.15
   4 -14   2    1.76    0.81
   4 -14   2    0.56    0.63
   4  14   2    0.68    1.18
  -4  14  -2    0.27    2.44
   4 -15  -2    0.69    0.81
   4 -15  -2    0.36    1.13
   4 -15  -2    0.33    0.69
   4  15  -2    1.36    1.23
   3 -15  -2    0.68    0.58
   3 -15  -2    1.37    0.83
   3 -15  -2    0.43    0.60
   3  15  -2    0.63    1.03
   2 -15  -2    2.67    0.72
   2 -15  -2    2.09    0.75
   2 -15  -2    2.02    0.73
   2 -15  -2    1.90    0.60
  -2 -15   2    2.08    0.51
   2 -15  -2    3.26    0.77
  -2  15   2    2.48    1.30
   2  15  -2    2.12    0.94
   1 -15  -2   39.53    2.27
   1 -15  -2   36.35    2.33
  -1  15   2   47.37    2.88
   0 -15   2    0.69    0.75
   0 -15   2    0.89    0.51
   0 -15   2    1.24    0.48
   0 -15   2    1.22    0.56
   0  15  -2    1.41    0.45
   0  15  -2    3.18    0.91
  -1 -15  -2    0.83    0.82
   1 -15   2    0.30    0.51
   1 -15   2   -0.25    0.52
  -1 -15  -2    0.22    0.45
   1 -15   2    0.08    0.56
  -1 -15  -2    1.12    0.58
   1 -15   2   -0.09    0.48
   1  15   2    0.74    0.36
   1  15   2    1.71    0.92
  -1  15  -2    0.73    0.88
  -1  15  -2    0.84    0.91
   2 -15   2   45.42    2.58
   2 -15   2   46.80    2.55
   2 -15   2   41.43    2.69
   2 -15   2   42.87    2.45
  -2 -15  -2   38.00    2.34
   2  15   2   40.03    2.80
  -2  15  -2   46.55    3.08
  -2  15  -2   47.59    2.99
   2  15   2   40.86    2.21
   3 -15   2    5.62    1.04
   3 -15   2    6.08    0.84
   3 -15   2    5.11    0.85
  -3  15  -2    9.06    2.17
   3  15   2    4.49    1.19
   4 -15   2    1.34    1.31
   4 -15   2   -0.01    0.70
   4 -15   2    1.00    0.91
  -4  15  -2    1.48    2.51
   4  15   2    2.18    1.26
   3 -16  -2    7.59    0.93
   3 -16  -2    8.98    1.29
   3 -16  -2    8.20    1.12
   3  16  -2    9.95    1.43
  -2 -16   2   45.36    2.49
   2 -16  -2   46.46    2.63
   2 -16  -2   46.34    2.72
   2 -16  -2   47.75    2.72
  -2 -16   2   45.34    2.51
   2 -16  -2   43.87    2.67
  -2  16   2   43.62    3.41
   2  16  -2   46.68    2.95
   1 -16  -2   49.71    2.80
   1 -16  -2   46.65    2.67
  -1 -16   2   51.97    2.71
  -1 -16   2   47.13    2.62
   1 -16  -2   46.80    2.81
   1 -16  -2   48.58    2.69
   1 -16  -2   45.60    2.74
  -1  16   2   50.68    3.86
   1  16  -2   49.01    2.48
   1  16  -2   45.96    3.42
   0 -16  -2   28.49    1.90
   0  16   2   24.07    1.75
   1 -16   2   88.02    4.38
  -1 -16  -2   87.41    4.35
   1 -16   2   86.67    4.33
   1 -16   2   84.58    4.39
   1 -16   2   82.67    4.32
  -1 -16  -2   85.45    4.28
  -1  16  -2   84.63    4.49
   1  16   2   79.25    4.93
  -1  16  -2   82.98    4.66
   1  16   2   82.53    4.22
  -2 -16  -2   11.65    1.12
   2 -16   2   12.05    1.37
  -2 -16  -2   13.45    1.11
   2 -16   2   13.77    1.24
   2 -16   2   11.85    1.35
   2 -16   2   12.63    1.37
  -2  16  -2   13.72    2.07
   2  16   2   14.22    1.82
   2  16   2   11.42    0.89
  -2  16  -2   11.96    1.61
   3 -16   2    1.21    0.72
   3 -16   2    2.32    0.90
   3 -16   2    2.72    0.82
   3  16   2    2.11    1.18
  -3  16  -2    1.59    1.86
  -3  16  -2    3.29    1.47
   3 -17  -2    3.72    1.04
   3 -17  -2    4.11    0.83
   3 -17  -2    4.91    0.89
   3  17  -2    4.26    1.26
   2 -17  -2    4.54    0.80
   2 -17  -2    4.77    0.87
  -2 -17   2    3.55    0.66
   2 -17  -2    4.47    0.84
   2  17  -2    4.77    1.19
  -2  17   2    5.78    1.57
  -1 -17   2    1.21    0.55
   1 -17  -2    1.05    0.80
  -1 -17   2    0.36    0.62
  -1 -17   2    0.37    0.54
   1 -17  -2    1.39    0.59
   1 -17  -2    1.40    0.75
  -1  17   2    2.08    1.11
   1  17  -2    0.56    0.41
   1  17  -2    0.66    0.99
   0 -17   2    6.20    0.80
   0 -17  -2    8.88    1.09
   0 -17  -2    7.76    1.07
   0 -17   2    8.21    1.08
   0 -17   2    8.09    1.14
   0 -17  -2    7.55    0.87
   0  17   2    6.85    1.39
   0  17  -2    6.71    0.93
   0  17  -2    8.79    1.36
   1 -17   2   13.75    1.28
  -1 -17  -2    9.09    1.54
   1 -17   2   14.70    1.38
   1 -17   2   12.95    1.28
   1 -17   2   14.50    1.54
  -1  17  -2   11.03    2.14
  -1  17  -2   11.86    1.47
   2 -17   2    3.73    0.84
   2 -17   2    4.84    0.90
   2 -17   2    4.96    0.82
  -2 -17  -2    3.36    0.67
  -2  17  -2    6.29    1.68
  -2  17  -2    4.41    1.29
   2  17   2    5.21    1.28
   3 -17   2    6.88    1.08
   3 -17   2    7.68    1.02
   3 -17   2    9.06    1.25
  -3  17  -2    8.26    1.66
   3  17   2    7.30    1.44
  -3  17  -2   10.44    2.36
   3 -18  -2    0.28    0.74
   3 -18  -2    0.23    0.91
   3 -18  -2    1.85    0.82
   3  18  -2    0.71    1.27
   2 -18  -2    5.28    0.97
  -2 -18   2    5.10    0.78
   2 -18  -2    4.31    0.82
   2 -18  -2    5.13    0.91
  -2  18   2    6.94    1.66
   2  18  -2    4.49    1.28
   1 -18  -2    4.30    0.88
   1 -18  -2    4.93    0.91
   1 -18  -2    3.60    1.56
  -1 -18   2    4.15    0.81
  -1 -18   2    4.54    0.75
   1 -18  -2    3.21    0.73
   1  18  -2    4.85    1.28
  -1  18   2    6.09    1.46
   0 -18  -2    9.61    1.19
   0 -18   2    9.08    1.22
   0 -18   2    9.19    1.26
   0 -18  -2   10.81    1.33
   0 -18  -2   11.73    1.23
   0 -18   2    7.35    1.10
   0  18   2   14.43    1.88
   0  18  -2   11.69    1.58
   0  18  -2   12.40    1.44
   1 -18   2    6.27    0.87
   1 -18   2    5.42    0.88
  -1 -18  -2    6.14    0.82
  -1 -18  -2    6.27    0.86
   1 -18   2    7.64    1.02
   1  18   2    5.57    1.25
  -1  18  -2    4.80    1.22
   2 -18   2    7.42    1.06
  -2 -18  -2    5.45    0.80
   2 -18   2    5.97    0.94
   2 -18   2    5.88    0.98
  -2  18  -2    5.08    1.44
   2  18   2    7.38    1.41
  -2  18  -2    6.32    1.70
   3 -18   2   -0.35    0.89
   3 -18   2   -0.34    0.82
   3 -18   2    0.90    0.88
  -3  18  -2   -0.25    1.52
  -3  18  -2   -1.07    1.97
   3  18   2   -0.30    1.25
   3 -19  -2   -0.26    1.06
   3 -19  -2    0.95    0.92
   3 -19  -2    0.46    0.93
   3  19  -2    1.20    1.46
   2 -19  -2    2.49    0.75
   2 -19  -2    0.55    0.77
   2 -19  -2    1.37    0.86
  -2 -19   2    0.62    0.63
   2  19  -2    2.40    1.29
  -2  19   2    1.06    1.55
   1 -19  -2    0.68    0.73
  -1 -19   2   -0.60    0.63
   1 -19  -2   -0.27    0.63
  -1 -19   2   -0.09    0.66
   1 -19  -2    0.87    0.77
  -1 -19   2    2.01    0.68
   1  19  -2   -0.11    1.15
  -1  19   2   -0.99    1.32
   0 -19  -2    6.79    1.12
   0 -19   2    5.51    0.86
   0 -19   2    6.48    0.90
   0 -19   2    6.96    0.96
   0 -19  -2    6.96    0.90
   0 -19  -2    8.37    1.00
   0  19  -2    6.88    1.37
   0  19   2   10.18    1.78
  -1 -19  -2    5.87    0.89
   1 -19   2    5.75    1.10
   1 -19   2    5.81    0.92
   1 -19   2    5.58    0.93
  -1 -19  -2    6.62    0.89
  -1  19  -2    6.89    1.38
   1  19   2    9.38    1.57
   2 -19   2    1.47    0.84
   2 -19   2    2.56    0.89
   2 -19   2    1.85    0.80
  -2 -19  -2    2.03    0.69
  -2  19  -2    2.70    1.84
   2  19   2    1.73    1.33
  -2  19  -2    2.94    1.35
   3 -19   2    1.98    1.07
   3 -19   2    1.99    1.04
   3 -19   2    3.52    1.09
  -3  19  -2    2.67    2.29
  -3  19  -2   -1.13    1.59
   3  19   2    3.29    1.45
   2 -20  -2    8.39    1.14
   2 -20  -2    6.78    1.05
   2 -20  -2    7.59    1.04
  -2  20   2    9.13    1.97
   2  20  -2    7.46    1.68
  -1 -20   2   25.13    1.93
   1 -20  -2   24.69    1.96
   1 -20  -2   24.73    1.87
   1 -20  -2   24.32    2.02
  -1  20   2   24.76    2.91
   1  20  -2   27.35    2.77
   0 -20  -2   27.40    3.46
   0 -20  -2   29.57    2.02
   0 -20   2   29.28    2.04
   0 -20   2   29.80    2.16
   0 -20  -2   33.01    2.12
   0  20  -2   28.77    2.71
   0  20   2   32.39    3.08
  -1 -20  -2   27.94    1.92
   1 -20   2   24.22    1.91
   1 -20   2   29.48    2.02
   1 -20   2   28.54    2.15
   1  20   2   26.54    2.82
  -1  20  -2   25.68    2.68
   2 -20   2    8.21    1.12
   2 -20   2   11.69    1.61
  -2 -20  -2    9.43    1.31
   2 -20   2    8.46    1.18
   2  20   2   10.31    1.75
  -2  20  -2    7.43    1.68
   2 -21  -2    1.02    1.04
   2 -21  -2   -0.05    0.86
   2 -21  -2   -0.04    0.78
   2  21  -2    0.26    1.58
  -2  21   2    0.73    1.71
   1 -21  -2    0.11    0.73
  -1 -21   2   -0.64    0.69
   1 -21  -2    1.73    0.78
   1 -21  -2    0.55    0.85
   1  21  -2    0.68    1.47
  -1  21   2   -2.37    1.48
   0 -21  -2   -0.14    0.66
   0 -21  -2    1.30    0.96
   0 -21   2    1.16    0.90
   0 -21   2   -0.72    0.66
   0 -21   2   -1.06    0.69
   0 -21  -2   -0.25    0.75
   0  21  -2    1.31    1.29
   0  21   2   -0.04    1.63
   1 -21   2    6.68    1.07
   1 -21   2    3.44    0.89
   1 -21   2    2.40    0.88
  -1 -21  -2    2.97    0.83
  -1 -21  -2   -0.30    1.07
   1  21   2    3.16    1.66
  -1  21  -2    2.57    1.38
   2 -21   2    2.82    1.11
   2 -21   2    4.54    1.09
   2 -21   2    1.95    0.89
   2  21   2    4.99    1.69
  -2  21  -2    3.55    1.60
   1 -22  -2    6.72    1.14
  -1 -22   2   10.46    1.47
   1 -22  -2    8.60    1.14
   1 -22  -2    9.29    1.25
  -1  22   2    7.41    2.01
   1  22  -2   12.56    2.04
   0 -22   2   22.43    1.82
   0 -22  -2   22.04    2.00
   0 -22  -2   16.86    1.99
   0 -22  -2   22.93    1.74
   0  22  -2   21.72    2.70
   0  22   2   22.19    3.05
  -1 -22  -2   11.27    1.52
   1 -22   2   12.34    1.69
   1 -22   2   13.87    1.65
   1 -22   2   16.15    1.92
   1  22   2   16.73    2.50
  -1  22  -2   14.58    2.19
  -1 -23   2    1.23    0.89
   1 -23  -2   -0.42    0.96
   1  23  -2    4.59    3.05
   0 -23   2    6.84    1.07
   0 -23  -2    2.97    1.26
   0 -23  -2    3.29    0.98
   0  23   2    3.39    2.17
   0  23  -2    6.96    1.96
   5   0  -3   -0.43    0.92
   5   0  -3   -0.33    0.77
   4   0  -3   -0.16    0.59
   4   0  -3   -0.10    0.56
   3   0  -3   -0.99    0.83
   3   0  -3    0.08    0.41
   2   0  -3   -0.61    0.64
  -2   0   3   -0.04    0.12
   2   0  -3   -0.08    0.15
   2   0  -3   -0.15    0.28
  -2   0   3   -0.03    0.28
   2   0  -3   -0.12    0.20
  -1   0   3   -0.23    0.18
   1   0  -3   -0.33    0.14
   1   0  -3   -0.22    0.15
  -1   0   3   -0.34    0.12
   1   0  -3   -0.44    0.13
  -1   0   3   -0.16    0.11
   0   0  -3   -0.35    0.12
   0   0   3   -0.39    0.11
   0   0   3   -0.47    0.12
   0   0  -3   -0.32    0.12
  -1   0  -3    0.45    0.18
  -1   0  -3    0.33    0.18
   1   0   3   -0.05    0.15
   1   0   3    0.43    0.17
   3   0   3    2.88    0.37
   3   0   3    5.15    0.53
  -4   0  -3    0.86    0.31
   4   0   3    1.06    0.30
  -4   0  -3    3.04    1.76
   4   0   3    0.69    0.77
   5   0   3   -0.20    0.93
  -5   0  -3    1.75    2.16
   5  -1  -3    1.68    0.82
   5  -1  -3    0.25    1.12
   5   1  -3    0.11    0.89
   5   1  -3    0.57    0.95
   4  -1  -3   -0.89    0.60
   4  -1  -3    0.39    0.59
   4   1  -3    0.42    0.56
   4   1  -3    0.49    0.65
   3  -1  -3    9.90    1.45
   3  -1  -3   11.77    1.00
   3   1  -3    9.94    1.38
   3   1  -3   10.51    1.31
   3   1  -3   11.67    0.94
   2  -1  -3   38.90    1.92
  -2  -1   3   38.80    2.09
  -2  -1   3   39.04    1.90
   2  -1  -3   37.81    2.38
   2  -1  -3   38.72    2.04
   2  -1  -3   39.95    1.91
  -2  -1   3   40.80    1.89
   2   1  -3   37.25    1.90
  -2   1   3   41.04    1.92
   2   1  -3   39.60    2.00
  -2   1   3   41.20    2.10
   2   1  -3   37.38    2.34
  -2   1   3   40.31    1.91
  -1  -1   3   50.36    2.31
   1  -1  -3   47.54    2.34
  -1  -1   3   48.75    2.34
   1  -1  -3   46.49    2.33
  -1  -1   3   40.89    2.33
   1  -1  -3   48.59    2.33
   1   1  -3   48.08    2.32
  -1   1   3   49.86    2.31
  -1   1   3   49.53    2.38
   1   1  -3   47.37    2.31
   1   1  -3   48.83    2.31
   0  -1  -3  255.65   12.67
   0  -1   3  267.85   12.66
   0  -1  -3  258.70   12.69
   0  -1   3  262.46   12.66
   0  -1   3  272.97   12.66
   0  -1  -3  269.18   12.67
   0   1  -3  260.84   12.67
   0   1  -3  263.50   12.67
   0   1   3  273.39   12.66
   0   1   3  282.68   12.67
   0   1   3  279.35   12.66
   1  -1   3  223.46   10.37
   1  -1   3  220.18   10.38
  -1  -1  -3  222.80   10.38
  -1  -1  -3  213.08   10.34
  -1  -1  -3  221.29   10.38
  -1  -1  -3  218.14   10.54
   1   1   3  226.89   10.36
  -1   1  -3  208.29   10.54
  -1   1  -3  217.53   10.38
   1   1   3  224.52   10.37
  -1   1  -3  211.08   10.38
   2  -1   3  180.96    8.55
   2  -1   3  177.92    8.57
  -2  -1  -3  178.31    8.56
  -2  -1  -3  180.57    8.91
   2  -1   3  187.49    8.87
  -2  -1  -3  177.22    8.56
   2   1   3  178.82    8.55
   2   1   3  185.89    8.83
  -2   1  -3  180.66    8.94
  -2   1  -3  176.44    8.57
  -2   1  -3  178.34    8.57
   2   1   3  177.13    8.54
  -3  -1  -3   26.47    1.45
   3  -1   3   28.26    1.49
  -3  -1  -3   28.33    2.39
   3  -1   3   27.26    1.41
   3   1   3   28.73    2.17
  -3   1  -3   26.89    1.48
  -3   1  -3   26.97    1.45
  -3   1  -3   29.49    2.47
   3   1   3   27.28    1.46
   3   1   3   27.37    1.39
   4  -1   3    4.26    0.58
  -4  -1  -3    5.85    1.95
   4  -1   3    3.99    0.92
  -4  -1  -3    5.47    0.53
  -4   1  -3    7.71    2.01
   4   1   3    5.07    0.51
   4   1   3    3.57    0.91
  -5  -1  -3    3.06    2.13
   5  -1   3    0.58    0.99
  -5   1  -3    2.65    2.25
   5   1   3    1.39    0.98
   5  -2  -3   -0.01    0.95
   5  -2  -3   -0.60    0.78
   5   2  -3    0.37    0.77
   5   2  -3    0.91    1.66
   4  -2  -3    2.06    0.68
   4   2  -3    2.19    0.67
   4   2  -3    2.00    0.69
   3  -2  -3   20.31    1.02
   3  -2  -3   19.44    0.99
   3  -2  -3   18.92    1.29
   3  -2  -3   16.61    2.01
   3   2  -3   16.57    1.64
   3   2  -3   18.00    1.20
   3   2  -3   19.55    1.35
   2  -2  -3   87.12    4.21
   2  -2  -3   83.94    4.63
   2  -2  -3   85.11    4.21
  -2  -2   3   88.32    4.18
   2  -2  -3   88.19    4.31
  -2  -2   3   88.77    4.17
  -2   2   3   90.47    4.22
  -2   2   3   88.98    4.21
   2   2  -3   91.64    4.59
   2   2  -3   86.35    4.19
   2   2  -3   88.17    4.37
  -2   2   3   89.32    4.38
   1  -2  -3  133.92    6.62
  -1  -2   3  131.79    6.61
   1  -2  -3  140.58    6.62
  -1  -2   3  140.15    6.61
  -1  -2   3  143.36    6.63
  -1   2   3  140.24    6.69
  -1   2   3  144.64    6.62
   1   2  -3  139.00    6.59
   1   2  -3  135.63    6.62
   1   2  -3  136.70    6.61
   1   2  -3  142.20    6.70
  -1   2   3  141.21    6.63
   0  -2  -3   23.25    1.29
   0  -2  -3   23.88    1.24
   0  -2  -3   23.97    1.39
   0  -2  -3   23.38    1.24
   0  -2   3   27.03    1.25
   0  -2   3   26.61    1.25
   0   2  -3   23.17    1.25
   0   2   3   24.76    1.23
   0   2  -3   23.12    1.26
   0   2   3   23.71    1.23
   0   2  -3   23.24    1.24
   0   2   3   25.15    1.26
  -1  -2  -3    2.22    0.26
  -1  -2  -3    1.30    0.23
  -1  -2  -3    1.37    0.24
   1   2   3    1.84    0.21
  -1   2  -3    1.85    0.25
  -1   2  -3    2.99    0.61
  -1   2  -3    1.79    0.25
   1   2   3    2.06    0.31
   1   2   3    1.61    0.27
   1   2   3    1.95    0.27
  -2  -2  -3    1.51    0.28
  -2  -2  -3    3.14    0.87
  -2  -2  -3    1.57    0.29
   2  -2   3    3.64    0.82
  -2   2  -3    2.49    0.34
   2   2   3    2.13    0.28
  -2   2  -3    2.92    0.41
  -2   2  -3    2.32    0.77
   2   2   3    1.97    0.27
   2   2   3    1.71    0.24
   3  -2   3    0.39    0.23
  -3  -2  -3    1.06    1.17
   3  -2   3    0.92    0.31
  -3  -2  -3    0.25    0.26
  -3  -2  -3    0.09    0.26
  -3   2  -3    1.11    1.19
  -3   2  -3    0.71    0.33
   3   2   3    0.35    0.27
  -3   2  -3    0.53    0.29
   4  -2   3    0.51    0.36
  -4  -2  -3    1.11    1.60
   4  -2   3    0.29    0.77
   4  -2   3    0.48    0.23
  -4  -2  -3    0.98    0.41
  -4   2  -3    0.40    0.33
   4   2   3    0.12    0.25
  -4   2  -3    0.16    1.64
  -5  -2  -3    2.61    1.99
  -5   2  -3    3.73    2.58
   5   2   3    0.36    0.90
   5  -3  -3    2.36    0.98
   5  -3  -3    1.51    0.90
   5   3  -3    1.80    0.85
   5   3  -3    2.15    1.03
   4  -3  -3    4.51    0.81
   4  -3  -3    6.42    1.31
   4   3  -3    4.73    0.81
   4   3  -3    4.55    0.70
   3  -3  -3    8.69    0.54
   3  -3  -3    8.82    0.55
   3  -3  -3    8.43    0.66
   3  -3  -3    8.70    0.60
   3  -3  -3    8.92    0.97
   3   3  -3    9.87    1.00
   3   3  -3    6.24    1.21
   3   3  -3    8.60    0.80
  -2  -3   3    3.26    0.29
   2  -3  -3    3.73    0.38
   2  -3  -3    5.06    1.04
   2  -3  -3    3.52    0.39
   2  -3  -3    4.56    0.58
  -2  -3   3    3.56    0.27
  -2   3   3    3.83    0.35
  -2   3   3    3.59    0.54
   2   3  -3    5.57    1.13
   2   3  -3    3.54    0.32
   2   3  -3    3.38    0.44
  -2   3   3    3.63    0.34
   2   3  -3    3.77    0.52
  -1  -3   3   15.65    0.87
   1  -3  -3   18.16    0.94
  -1  -3   3   16.26    0.86
  -1  -3   3   15.44    0.83
   1   3  -3   16.09    0.81
  -1   3   3   17.01    0.98
   1   3  -3   16.84    0.88
   1   3  -3   15.58    0.87
   1   3  -3   16.75    1.01
   0  -3   3   89.96    4.43
   0  -3   3   87.45    4.44
   0  -3   3   88.52    4.42
   0   3   3  104.13    4.42
   0   3  -3   87.61    4.43
   0   3   3  105.23    4.43
   0   3  -3   88.08    4.43
   0   3  -3   87.16    4.44
   1  -3   3  192.61    8.79
  -1  -3  -3  188.41    8.83
  -1  -3  -3  184.73    8.82
  -1  -3  -3  186.03    8.82
   1  -3   3  188.62    8.83
   1  -3   3  192.55    8.84
   1   3   3  175.85    8.83
  -1   3  -3  179.86    8.79
  -1   3  -3  187.47    8.84
   1   3   3  188.06    8.85
   1   3   3  184.96    8.80
  -1   3  -3  182.41    9.01
   1   3   3  183.79    8.81
  -1   3  -3  182.81    8.83
  -2  -3  -3   35.39    2.20
   2  -3   3   35.55    1.83
  -2  -3  -3   35.47    1.80
  -2  -3  -3   33.91    1.77
   2  -3   3   36.02    1.81
  -2  -3  -3   34.23    1.79
   2  -3   3   36.28    2.18
   2   3   3   33.93    1.79
  -2   3  -3   36.67    2.26
  -2   3  -3   36.11    1.84
   2   3   3   35.16    1.78
   2   3   3   36.52    1.76
  -3  -3  -3   29.09    1.50
   3  -3   3   30.39    1.53
  -3  -3  -3   33.00    2.54
   3  -3   3   27.54    1.57
   3  -3   3   28.25    1.96
  -3  -3  -3   27.47    1.51
   3   3   3   29.86    2.05
  -3   3  -3   30.66    2.57
   3   3   3   28.54    1.52
   3   3   3   28.35    1.53
  -3   3  -3   27.65    1.59
  -3   3  -3   28.68    1.55
   4  -3   3    8.01    0.85
   4  -3   3    8.80    1.18
   4  -3   3    8.08    0.64
   4  -3   3    7.86    0.59
  -4  -3  -3   12.26    2.43
   4   3   3    8.79    0.61
  -4   3  -3   13.57    2.65
  -5  -3  -3    1.64    1.93
   5  -3   3    0.56    0.34
   5  -3   3   -0.02    1.08
   5   3   3   -0.17    0.93
  -5   3  -3    4.07    2.70
   5  -4  -3    0.22    0.93
   5  -4  -3    1.38    0.88
   5   4  -3    0.96    0.83
   5   4  -3    0.48    0.97
   4  -4  -3    2.39    0.35
   4  -4  -3    2.28    0.31
   4   4  -3    2.34    0.60
   4   4  -3    2.41    0.76
   3  -4  -3   11.50    1.34
   3  -4  -3   10.56    1.08
   3  -4  -3   11.67    0.93
   3  -4  -3   10.49    0.74
   3  -4  -3   11.56    0.72
   3  -4  -3   11.17    0.70
   3   4  -3   10.18    1.32
  -3   4   3   15.12    1.22
   3   4  -3   12.26    0.88
   3   4  -3   12.43    1.12
  -2  -4   3    4.28    0.36
   2  -4  -3    4.48    0.45
  -2  -4   3    4.37    0.34
   2  -4  -3    5.45    0.62
   2  -4  -3    5.74    0.92
   2  -4  -3    5.03    0.47
   2  -4  -3    6.92    1.16
  -2   4   3    5.50    0.71
  -2   4   3    4.83    0.41
   2   4  -3    5.05    0.38
   2   4  -3    4.86    0.44
   2   4  -3    3.97    0.84
  -2   4   3    4.86    0.42
   2   4  -3    4.92    0.77
   1  -4  -3   21.67    1.18
   1  -4  -3   24.84    1.25
  -1  -4   3   21.96    1.17
  -1  -4   3   22.04    1.18
  -1  -4   3   21.73    1.27
   1  -4  -3   22.63    1.47
   1  -4  -3   23.51    1.19
   1   4  -3   21.22    1.29
  -1   4   3   23.24    1.18
   1   4  -3   22.12    1.18
  -1   4   3   24.34    1.29
  -1   4   3   23.80    1.18
   1   4  -3   22.41    1.18
   0  -4   3    5.86    0.50
   0  -4  -3    7.27    0.59
   0  -4   3    5.69    0.46
   0  -4   3    5.59    0.46
   0   4  -3    5.41    0.51
   0   4  -3    5.69    0.48
   0   4  -3    5.13    0.46
   1  -4   3    8.96    0.64
  -1  -4  -3   11.65    0.62
   1  -4   3    8.57    0.65
  -1  -4  -3    8.62    0.71
  -1  -4  -3   11.10    0.61
   1  -4   3   10.28    0.69
   1   4   3    9.50    0.60
  -1   4  -3    9.96    0.92
  -1   4  -3    8.83    0.65
   1   4   3    9.97    0.58
   1   4   3    9.49    0.66
   1   4   3    8.70    0.73
  -1   4  -3    8.90    0.66
   2  -4   3    0.41    0.21
  -2  -4  -3    0.93    0.70
   2  -4   3    0.23    0.28
  -2  -4  -3    0.11    0.25
   2  -4   3    0.60    0.62
   2  -4   3    0.37    0.26
  -2  -4  -3    0.18    0.24
  -2  -4  -3   -0.07    0.24
   2   4   3    0.39    0.22
  -2   4  -3    0.24    0.31
   2   4   3    0.25    0.33
  -2   4  -3    1.00    0.78
   2   4   3    0.13    0.19
  -3  -4  -3   -0.52    0.25
   3  -4   3    0.10    0.33
   3  -4   3   -0.07    0.62
  -3  -4  -3   -0.27    1.05
  -3  -4  -3    0.05    0.26
   3  -4   3    0.33    0.27
   3   4   3    0.08    0.27
  -3   4  -3   -0.07    1.18
  -3   4  -3   -0.37    0.28
  -3   4  -3    0.21    0.38
   4  -4   3    0.30    0.30
  -4  -4  -3   -0.19    1.74
   4  -4   3   -0.01    0.80
   4  -4   3    0.32    0.42
  -4   4  -3    0.15    0.38
  -4   4  -3    1.08    2.46
   4   4   3   -0.05    0.24
   5  -4   3    0.72    1.18
   5  -4   3    0.19    0.37
  -5  -4  -3    3.04    1.95
   5   4   3   -0.17    0.90
  -5   4  -3   -1.46    2.73
   5  -5  -3    0.35    0.90
   5   5  -3    0.38    0.97
   4  -5  -3    0.82    0.33
   4  -5  -3    0.62    0.36
   4  -5  -3    0.67    0.68
   4   5  -3    0.38    0.66
   4   5  -3    0.86    0.53
   3  -5  -3    5.29    0.53
   3  -5  -3    5.88    0.75
   3  -5  -3    8.42    1.10
   3  -5  -3    5.49    0.65
   3  -5  -3    5.08    0.59
   3  -5  -3    5.52    0.55
   3   5  -3    6.78    0.83
  -3   5   3    6.92    1.01
   3   5  -3    6.03    0.66
   3   5  -3    5.62    1.11
  -2  -5   3   21.47    1.07
   2  -5  -3   20.30    1.14
   2  -5  -3   20.93    1.60
  -2  -5   3   20.56    1.05
   2  -5  -3   20.35    1.25
   2  -5  -3   19.31    1.61
   2  -5  -3   20.03    1.11
  -2   5   3   20.30    1.12
  -2   5   3   20.67    1.11
   2   5  -3   20.46    1.08
  -2   5   3   22.42    1.36
   2   5  -3   19.18    1.32
   2   5  -3   20.96    1.07
   2   5  -3   20.15    1.44
   1  -5  -3  102.54    4.96
   1  -5  -3  100.95    4.97
   1  -5  -3   98.88    5.15
   1  -5  -3  104.62    5.23
  -1  -5   3  104.63    4.96
  -1  -5   3  104.67    4.95
   1  -5  -3  102.81    5.00
  -1  -5   3  102.14    5.04
   1   5  -3  101.16    5.04
   1   5  -3  100.53    4.96
  -1   5   3  102.37    4.95
   1   5  -3  102.44    4.95
  -1   5   3  105.46    4.97
  -1   5   3  112.92    5.06
   0  -5  -3  494.73   23.48
   0  -5  -3  557.98   23.50
   0   5   3  495.22   23.52
   0   5   3  441.82   23.49
  -1  -5  -3   31.53    1.68
   1  -5   3   30.99    1.63
   1  -5   3   31.11    1.58
   1  -5   3   30.56    1.62
   1   5   3   31.20    1.58
  -1   5  -3   33.18    1.64
   1   5   3   32.58    1.61
   1   5   3   28.26    1.75
  -1   5  -3   30.98    1.64
  -1   5  -3   29.80    1.63
   1   5   3   31.46    1.57
  -1   5  -3   30.50    1.88
  -2  -5  -3   21.50    1.17
   2  -5   3   22.49    1.25
  -2  -5  -3   23.01    1.63
   2  -5   3   21.17    1.23
   2  -5   3   22.52    1.60
  -2  -5  -3   19.77    1.22
   2  -5   3   20.49    1.47
  -2  -5  -3   21.76    1.18
   2  -5   3   20.69    1.14
   2   5   3   21.63    1.30
  -2   5  -3   19.69    1.34
  -2   5  -3   21.43    1.22
   2   5   3   21.63    1.16
   2   5   3   23.56    1.29
   2   5   3   21.94    1.14
  -2   5  -3   21.15    1.73
   3  -5   3    1.82    0.75
  -3  -5  -3    2.63    1.20
  -3  -5  -3    1.95    0.34
   3  -5   3    2.17    0.38
   3  -5   3    1.96    0.42
  -3  -5  -3    1.92    0.35
   3   5   3    2.23    0.49
   3   5   3    1.99    0.35
  -3   5  -3    1.79    0.47
  -3   5  -3    1.75    0.40
  -3   5  -3    4.11    1.49
   4  -5   3   -0.04    0.48
   4  -5   3    0.54    0.43
   4  -5   3    0.69    0.88
  -4   5  -3   -0.68    1.74
  -4   5  -3   -0.13    0.48
   4   5   3    0.18    0.52
   4   5   3    0.93    0.28
   5  -5   3   -0.17    1.20
   5  -5   3   -0.17    0.44
  -5  -5  -3    2.29    1.82
   5   5   3    0.40    0.95
  -5   5  -3    2.68    2.96
   5  -6  -3    2.58    0.99
   5   6  -3    3.38    1.05
   4  -6  -3   58.05    3.20
   4  -6  -3   56.37    2.85
   4  -6  -3   56.81    2.89
   4  -6  -3   52.63    2.77
   4   6  -3   59.06    3.04
   4   6  -3   59.21    3.38
   3  -6  -3   68.92    3.69
   3  -6  -3   64.47    3.27
   3  -6  -3   64.04    3.42
   3  -6  -3   67.48    3.22
   3  -6  -3   67.11    3.25
   3  -6  -3   63.08    3.23
   3   6  -3   60.12    3.61
   3   6  -3   66.42    3.45
   3   6  -3   66.65    3.24
  -2  -6   3  149.93    7.08
   2  -6  -3  153.20    7.12
  -2  -6   3  148.71    7.07
   2  -6  -3  142.96    7.20
  -2  -6   3  154.40    7.09
   2  -6  -3  153.08    7.41
   2  -6  -3  151.79    7.15
   2  -6  -3  145.75    7.54
   2  -6  -3  146.16    7.13
  -2   6   3  145.75    7.29
   2   6  -3  143.56    7.32
  -2   6   3  147.76    7.13
  -2   6   3  149.69    7.12
   2   6  -3  146.31    7.08
   2   6  -3  151.67    7.25
   1  -6  -3  435.82   20.27
  -1  -6   3  433.34   20.19
   1  -6  -3  404.78   20.11
  -1  -6   3  432.87   20.11
   1  -6  -3  407.51   20.11
  -1  -6   3  425.69   20.10
   1  -6  -3  424.47   20.14
   1  -6  -3  436.37   20.37
  -1   6   3  418.89   20.10
   1   6  -3  411.59   20.10
  -1   6   3  422.96   20.12
   1   6  -3  417.30   20.18
  -1   6   3  456.00   20.21
   1   6  -3  427.57   20.11
   0  -6  -3  880.56   41.04
   0  -6   3  828.70   41.00
   0  -6   3  840.02   41.00
   0  -6   3  843.66   41.02
   0   6  -3  824.90   41.00
   0   6   3 1000.00   41.12
  -1  -6  -3  283.96   13.55
  -1  -6  -3  279.10   13.49
   1  -6   3  302.41   13.49
   1  -6   3  287.55   13.51
  -1  -6  -3  273.23   13.58
   1  -6   3  283.22   13.52
   1  -6   3  295.83   13.57
  -1  -6  -3  276.40   13.48
   1   6   3  272.42   13.48
  -1   6  -3  288.89   13.52
  -1   6  -3  283.19   13.52
   1   6   3  273.82   13.55
   1   6   3  283.76   13.50
  -1   6  -3  299.93   13.71
   1   6   3  282.60   13.48
  -2  -6  -3   81.29    4.03
  -2  -6  -3   84.21    4.34
   2  -6   3   81.26    4.37
  -2  -6  -3   80.33    4.05
   2  -6   3   82.29    4.07
   2  -6   3   83.23    4.22
   2  -6   3   82.99    4.00
   2  -6   3   84.52    4.07
  -2  -6  -3   80.38    4.01
   2   6   3   82.55    4.10
  -2   6  -3   83.49    4.16
  -2   6  -3   75.81    4.13
   2   6   3   87.73    4.09
   2   6   3   84.27    4.14
   2   6   3   84.48    3.99
  -2   6  -3   81.50    4.08
  -2   6  -3   82.70    4.50
  -3  -6  -3    5.60    0.65
   3  -6   3    5.11    0.59
  -3  -6  -3    4.60    0.56
   3  -6   3    4.96    0.91
  -3  -6  -3    7.67    1.42
   3  -6   3    5.20    0.67
  -3  -6  -3    4.31    0.57
   3  -6   3    5.09    0.59
  -3   6  -3    5.10    0.63
   3   6   3    5.37    0.83
  -3   6  -3    4.91    0.64
   3   6   3    4.61    0.45
   3   6   3    4.53    0.65
   3   6   3    4.72    0.53
  -3   6  -3    7.07    1.62
   4  -6   3    2.21    0.45
   4  -6   3    1.79    0.48
   4  -6   3    0.94    0.89
  -4  -6  -3    3.07    1.53
  -4   6  -3    7.13    2.27
   4   6   3    1.52    0.31
   4   6   3    1.92    0.62
  -5  -6  -3    1.47    1.88
   5  -6   3    0.24    0.48
   5  -6   3    2.00    1.39
   5   6   3    0.12    0.94
  -5   6  -3    1.03    3.14
   5  -7  -3    0.71    0.96
   5  -7  -3    0.31    0.47
   5   7  -3    0.40    1.62
   4  -7  -3    0.66    0.40
   4  -7  -3    0.71    0.72
   4  -7  -3    0.38    0.32
   4  -7  -3    0.61    0.48
   4   7  -3    0.65    0.78
   4   7  -3    0.66    0.48
   3  -7  -3   45.16    2.89
   3  -7  -3   44.64    2.37
   3  -7  -3   43.13    2.53
   3  -7  -3   45.81    2.35
   3  -7  -3   46.80    2.54
  -3  -7   3   44.35    2.21
   3  -7  -3   46.62    2.32
  -3  -7   3   43.37    2.21
   3   7  -3   49.14    2.30
   3   7  -3   41.88    2.66
   3   7  -3   47.24    2.59
  -2  -7   3    2.87    0.31
   2  -7  -3    2.17    0.37
  -2  -7   3    2.78    0.33
   2  -7  -3    1.70    0.41
   2  -7  -3    2.08    0.83
   2  -7  -3    2.85    0.51
   2  -7  -3    2.04    0.84
   2  -7  -3    3.24    0.39
  -2  -7   3    3.28    0.33
  -2   7   3    1.88    0.51
  -2   7   3    2.62    0.34
  -2   7   3    2.29    0.35
   2   7  -3    2.86    0.68
   2   7  -3    3.89    0.64
  -1  -7   3   34.17    1.84
   1  -7  -3   38.50    1.92
   1  -7  -3   32.78    2.06
  -1  -7   3   37.12    1.96
  -1  -7   3   35.33    1.84
   1  -7  -3   33.75    1.85
   1  -7  -3   35.33    2.15
   1  -7  -3   34.27    1.84
  -1   7   3   38.60    1.96
  -1   7   3   36.04    2.22
  -1   7   3   36.10    1.84
  -1   7   3   37.13    1.85
   1   7  -3   39.58    1.99
   1   7  -3   34.75    1.85
   1   7  -3   36.11    1.85
   0  -7  -3   86.41    4.73
   0  -7   3   89.60    4.63
   0  -7   3   95.19    4.71
   0  -7  -3   94.18    4.66
   0  -7  -3  106.63    4.74
   0  -7   3   91.98    4.67
   0  -7   3   95.12    4.68
   0   7  -3   89.55    4.67
   0   7  -3   95.15    4.72
   0   7  -3   96.59    4.69
   0   7   3  108.06    4.67
   0   7   3  107.54    4.66
  -1  -7  -3   63.29    2.89
  -1  -7  -3   55.35    3.01
  -1   7  -3   52.41    2.94
   1   7   3   61.87    2.88
  -2  -7  -3   29.41    1.92
   2  -7   3   29.37    1.61
  -2  -7  -3   27.27    1.54
  -2  -7  -3   27.72    1.54
   2  -7   3   30.27    2.00
   2  -7   3   29.35    1.63
  -2  -7  -3   28.50    1.61
   2  -7   3   28.98    1.80
   2   7   3   28.23    1.52
   2   7   3   29.16    1.51
   2   7   3   30.29    1.60
   2   7   3   29.75    1.72
  -2   7  -3   28.79    2.13
  -2   7  -3   28.90    1.85
  -2   7  -3   28.15    1.61
  -2   7  -3   28.60    1.65
   3  -7   3   62.18    3.41
   3  -7   3   59.39    3.03
  -3  -7  -3   56.32    2.98
  -3  -7  -3   59.26    3.04
  -3  -7  -3   63.36    3.64
  -3  -7  -3   54.99    2.97
   3  -7   3   60.74    3.06
   3  -7   3   54.13    2.98
   3   7   3   60.80    2.91
   3   7   3   62.01    3.12
  -3   7  -3   60.13    3.10
   3   7   3   62.25    3.53
  -3   7  -3   60.67    3.94
  -3   7  -3   59.33    3.03
   4  -7   3   20.06    2.01
   4  -7   3   15.95    1.18
   4  -7   3   17.45    1.27
  -4  -7  -3   21.51    2.49
   4   7   3   16.10    1.17
   4   7   3   17.34    1.77
  -4   7  -3   24.77    3.17
  -5  -7  -3    0.46    1.95
   5  -7   3    1.32    1.45
   5   7   3    0.20    0.93
   5  -8  -3    1.81    1.03
   5  -8  -3    1.42    0.47
   5   8  -3    1.42    1.05
   4  -8  -3    3.49    0.84
   4  -8  -3    4.80    0.67
   4  -8  -3    4.06    0.58
   4  -8  -3    5.46    0.71
   4   8  -3    4.27    1.03
   4   8  -3    4.99    0.78
   3  -8  -3    6.49    1.10
   3  -8  -3    5.50    0.73
   3  -8  -3    5.19    0.74
   3  -8  -3    5.20    0.55
   3  -8  -3    4.24    0.55
  -3  -8   3    4.27    0.44
  -3  -8   3    5.68    0.45
   3  -8  -3    5.51    0.78
   3   8  -3    5.92    0.55
   3   8  -3    6.79    0.89
   3   8  -3    6.08    0.56
   3   8  -3    5.16    1.03
  -2  -8   3   69.27    3.23
   2  -8  -3   64.65    3.53
   2  -8  -3   66.67    3.25
  -2  -8   3   65.88    3.38
  -2  -8   3   65.49    3.20
   2  -8  -3   62.61    3.69
  -2  -8   3   68.93    3.21
   2  -8  -3   62.63    3.26
   2  -8  -3   64.84    3.35
   2   8  -3   65.75    3.42
   2   8  -3   65.76    3.41
  -2   8   3   65.25    3.24
  -2   8   3   63.17    3.26
  -2   8   3   62.13    3.43
   1  -8  -3    4.11    0.82
   1  -8  -3    3.30    0.46
   1  -8  -3    3.68    0.44
   1  -8  -3    4.68    0.71
   1  -8  -3    3.33    0.41
  -1   8   3    3.14    0.44
  -1   8   3    3.94    0.52
  -1   8   3    5.13    0.84
  -1   8   3    3.89    0.47
   0  -8   3   60.40    3.10
   0  -8   3   65.84    3.11
   0  -8   3   62.96    3.14
   0   8  -3   66.51    3.18
   0   8  -3   62.07    3.14
   0   8  -3   58.78    3.11
   0   8  -3   60.06    3.11
   1  -8   3   33.96    1.85
   1  -8   3   35.47    1.84
   1  -8   3   32.88    1.89
   1  -8   3   37.30    1.83
  -1  -8  -3   30.48    1.98
  -1  -8  -3   37.08    1.92
  -1   8  -3   30.57    1.82
  -1   8  -3   35.48    1.92
   1   8   3   34.41    1.77
  -1   8  -3   34.54    2.13
  -2  -8  -3    8.54    0.68
  -2  -8  -3    7.35    1.07
  -2  -8  -3    6.54    0.71
  -2  -8  -3    8.37    0.67
   2   8   3    6.42    0.63
   2   8   3    7.48    0.64
   2   8   3    9.13    0.69
  -2   8  -3    9.43    0.81
   3  -8   3   12.72    0.97
  -3  -8  -3    9.42    0.89
  -3  -8  -3   10.44    1.61
   3  -8   3   12.13    0.99
   3  -8   3    9.62    0.89
  -3  -8  -3    8.92    0.80
   3  -8   3   12.46    0.90
   3  -8   3   12.62    1.49
   3   8   3   10.24    0.98
  -3   8  -3   14.18    2.23
   3   8   3    9.52    0.70
   3   8   3    9.93    0.81
  -3   8  -3    9.70    1.08
   3   8   3   10.54    1.13
   4  -8   3    0.62    0.44
   4  -8   3    0.26    0.50
   4  -8   3    1.40    1.01
  -4  -8  -3    0.14    1.38
   4   8   3    0.14    0.68
  -4   8  -3    1.07    1.97
   4   8   3    0.03    0.34
   4  -9  -3    0.13    0.74
   4  -9  -3    0.12    0.44
   4  -9  -3    0.30    0.42
   4   9  -3    0.96    0.80
   4   9  -3    0.16    0.41
  -3  -9   3   28.62    1.35
   3  -9  -3   25.38    1.79
   3  -9  -3   24.92    1.59
  -3  -9   3   23.86    1.41
   3  -9  -3   26.85    1.51
   3  -9  -3   25.31    1.55
   3  -9  -3   26.50    1.57
   3   9  -3   28.43    1.86
   3   9  -3   26.31    1.80
   2  -9  -3   11.82    0.90
  -2  -9   3   14.73    0.85
  -2  -9   3   15.27    1.10
   2  -9  -3   11.44    1.09
   2  -9  -3   10.79    1.41
  -2  -9   3   14.20    0.80
   2  -9  -3    9.67    1.33
   2  -9  -3   11.06    1.01
   2  -9  -3   10.71    0.93
   2   9  -3   14.08    1.17
  -2   9   3   11.54    1.17
   2   9  -3   12.09    1.12
  -2   9   3   12.23    0.86
  -2   9   3   11.55    0.89
   1  -9  -3    4.02    0.48
   1  -9  -3    6.70    0.86
   1  -9  -3    5.06    0.55
   1  -9  -3    4.76    0.69
   1  -9  -3    6.23    0.97
  -1   9   3    4.09    0.86
  -1   9   3    4.85    0.51
  -1   9   3    4.90    0.53
  -1   9   3    5.35    0.71
   0  -9  -3   57.02    3.23
   0  -9  -3   59.05    3.17
   0  -9  -3   57.94    3.32
   0  -9  -3   60.68    3.16
   0  -9   3   68.95    3.20
   0  -9   3   65.58    3.22
   0  -9   3   67.15    3.19
   0   9   3   64.09    3.17
   0   9  -3   65.72    3.21
   0   9   3   63.39    3.16
   0   9  -3   68.65    3.27
   0   9   3   56.73    3.35
   0   9  -3   68.94    3.20
   0   9  -3   65.43    3.20
   0   9   3   64.10    3.15
   1  -9   3    6.62    0.75
   1  -9   3    4.39    0.56
   1  -9   3    6.71    0.76
   1  -9   3    7.32    0.75
  -1  -9  -3    4.64    0.63
  -1   9  -3    7.50    0.92
   1   9   3    8.25    0.64
  -1   9  -3    6.29    1.03
  -2  -9  -3   13.16    1.03
  -2  -9  -3   12.92    0.94
   2  -9   3   15.12    1.08
  -2  -9  -3   13.97    1.05
   2  -9   3   16.24    1.30
   2  -9   3   15.84    1.08
   2  -9   3   13.92    1.09
   2  -9   3   15.27    1.50
  -2  -9  -3   15.15    1.31
  -2   9  -3   15.10    1.13
   2   9   3   15.89    1.30
  -2   9  -3   14.27    1.10
  -2   9  -3   14.26    1.77
  -2   9  -3   15.34    1.40
   2   9   3   14.78    0.94
   2   9   3   14.07    0.92
   2   9   3   14.57    0.93
   3  -9   3    0.94    0.48
  -3  -9  -3    0.37    0.41
   3  -9   3   -0.25    0.43
  -3  -9  -3    1.07    0.98
   3  -9   3   -0.26    0.45
   3  -9   3   -0.24    0.45
  -3  -9  -3   -0.08    0.46
  -3  -9  -3    0.17    0.38
  -3   9  -3    0.53    1.61
   3   9   3    0.00    0.37
   3   9   3   -0.28    0.41
  -3   9  -3    0.69    0.50
   3   9   3   -0.53    0.62
  -4  -9  -3    0.43    2.15
   4  -9   3    0.03    0.47
   4  -9   3    0.69    1.02
   4  -9   3   -0.66    0.50
   4   9   3    0.42    0.77
  -4   9  -3    0.71    2.06
   4 -10  -3   10.44    1.06
   4 -10  -3   10.98    1.48
   4 -10  -3   10.75    0.99
   4  10  -3   11.34    1.55
  -3 -10   3   46.17    2.19
   3 -10  -3   45.38    2.33
   3 -10  -3   40.87    2.39
   3 -10  -3   46.66    2.40
  -3 -10   3   43.58    2.24
   3 -10  -3   34.72    2.80
  -3 -10   3   48.18    2.41
   3 -10  -3   44.20    2.39
   3  10  -3   44.25    2.62
   3  10  -3   40.67    2.54
  -2 -10   3  214.15   10.16
  -2 -10   3  210.60   10.16
  -2 -10   3  208.24   10.16
   2 -10  -3  210.81   10.64
  -2 -10   3  204.36   10.32
  -2 -10   3  228.46   10.25
   2 -10  -3  211.29   10.46
   2 -10  -3  207.25   10.27
   2 -10  -3  214.95   10.22
   2 -10  -3  217.07   10.21
   2 -10  -3  220.49   10.25
   2  10  -3  214.21   10.33
   2  10  -3  204.98   10.24
  -1 -10   3  245.99   11.58
   1 -10  -3  234.56   11.61
  -1 -10   3  259.83   11.69
   1 -10  -3  237.48   11.62
  -1 -10   3  252.05   11.58
   1 -10  -3  234.43   11.82
   1 -10  -3  228.89   11.74
  -1 -10   3  241.10   11.58
   1 -10  -3  227.29   11.57
  -1  10   3  229.97   11.81
   1  10  -3  265.82   11.59
   1  10  -3  247.91   11.58
  -1  10   3  234.57   11.58
   1  10  -3  256.56   11.70
  -1  10   3  249.49   11.69
  -1  10   3  234.25   11.57
   0 -10  -3  321.83   16.45
   0 -10  -3  325.14   16.59
   0 -10   3  398.18   16.51
   0 -10  -3  318.55   16.46
   0 -10   3  398.11   16.50
   0 -10   3  333.26   16.51
   0 -10  -3  315.95   16.50
   0 -10   3  404.24   16.45
   0  10   3  331.14   16.44
   0  10  -3  368.45   16.49
   0  10  -3  362.78   16.55
   0  10   3  313.08   16.58
   0  10   3  341.21   16.47
   0  10  -3  326.72   16.48
   0  10   3  339.16   16.46
   1 -10   3  108.81    5.41
   1 -10   3  114.29    5.43
   1 -10   3  116.04    5.42
   1 -10   3  107.47    5.43
  -1 -10  -3  108.41    5.53
  -1 -10  -3  105.26    5.37
  -1 -10  -3  112.17    5.37
   1  10   3  119.12    5.40
  -1  10  -3  106.94    5.60
  -1  10  -3  109.41    5.42
   1  10   3  110.77    5.36
  -1  10  -3  108.45    5.42
   1  10   3  106.17    5.51
  -1  10  -3  103.07    5.48
   1  10   3  117.14    5.34
  -2 -10  -3   55.64    2.82
  -2 -10  -3   55.01    3.13
  -2 -10  -3   52.56    2.89
   2 -10   3   55.44    2.89
   2 -10   3   54.72    3.26
   2 -10   3   55.16    2.87
   2 -10   3   57.16    2.92
   2 -10   3   55.12    3.04
  -2  10  -3   55.12    2.90
  -2  10  -3   55.41    2.92
   2  10   3   54.79    2.77
   2  10   3   55.18    2.79
   2  10   3   56.77    3.03
  -2  10  -3   55.39    3.42
  -2  10  -3   51.82    3.07
   2  10   3   56.92    2.78
   3 -10   3   15.52    1.22
   3 -10   3   16.33    1.37
   3 -10   3   18.11    1.28
  -3 -10  -3   15.65    1.09
  -3 -10  -3   17.06    1.72
   3 -10   3   15.07    1.24
   3 -10   3   17.81    1.77
  -3 -10  -3   16.87    1.24
  -3 -10  -3   14.94    1.08
   3 -10   3   14.41    1.22
   3  10   3   15.32    1.04
   3  10   3   16.23    1.48
  -3  10  -3   18.85    2.55
   3  10   3   15.94    1.09
  -3  10  -3   16.71    1.31
  -4 -10  -3    4.03    1.52
   4 -10   3    2.40    0.58
   4 -10   3    3.46    1.10
   4 -10   3    3.25    0.68
  -4  10  -3    5.06    2.37
   4  10   3    3.49    0.97
   4 -11  -3    2.86    0.57
   4 -11  -3    3.14    0.94
   4 -11  -3    3.04    0.65
   4  11  -3    4.94    1.03
  -3 -11   3    6.64    0.56
   3 -11  -3    5.90    0.70
   3 -11  -3    5.90    0.72
   3 -11  -3    5.96    0.72
   3 -11  -3    5.52    0.87
   3 -11  -3    7.89    1.00
   3  11  -3    7.27    0.97
   3  11  -3    5.33    1.01
  -2 -11   3    7.89    0.67
   2 -11  -3    6.77    1.02
   2 -11  -3    7.09    0.80
   2 -11  -3    6.74    0.88
   2 -11  -3    8.39    1.37
   2 -11  -3    7.96    0.85
   2 -11  -3    6.61    1.36
   2 -11  -3    7.88    0.89
  -2 -11   3    7.30    0.74
  -2 -11   3    8.40    0.78
   2  11  -3    8.39    1.15
   2  11  -3    6.63    0.79
   1 -11  -3    0.23    0.44
   1 -11  -3   -0.05    0.33
   1 -11  -3    0.10    0.64
   1 -11  -3    0.08    0.39
   1 -11  -3    0.34    0.62
  -1  11   3    0.78    0.79
  -1  11   3    0.84    0.46
  -1  11   3    0.31    0.30
  -1  11   3    0.12    0.33
   0 -11   3    3.46    0.54
   0 -11   3    3.66    0.48
   0 -11   3    5.47    0.59
   0 -11  -3    4.75    0.78
   0 -11  -3    4.76    0.55
   0 -11  -3    4.81    0.75
   0 -11  -3    4.62    0.83
   0 -11   3    3.69    0.51
   0 -11  -3    4.87    0.66
   0  11  -3    4.08    0.59
   0  11  -3    4.30    0.74
   0  11   3    5.36    0.60
   0  11   3    4.83    0.55
   0  11   3    4.71    0.63
   0  11  -3    4.14    0.58
   0  11  -3    5.86    0.74
   0  11   3    5.21    0.85
  -1 -11  -3    8.52    0.92
   1 -11   3    6.78    0.81
  -1 -11  -3    7.53    0.72
   1 -11   3    7.49    0.90
   1 -11   3    6.99    0.88
  -1 -11  -3    5.46    0.89
   1 -11   3    8.03    0.89
  -1 -11  -3    8.09    0.78
  -1  11  -3    6.83    1.19
   1  11   3    9.01    0.71
   1  11   3    8.12    0.74
   1  11   3    7.48    1.15
  -1  11  -3    7.21    0.90
  -1  11  -3    7.34    1.15
  -1  11  -3    7.25    0.92
   1  11   3    9.50    0.69
  -2 -11  -3    0.87    0.73
  -2 -11  -3   -0.27    0.39
   2 -11   3    0.51    1.00
  -2 -11  -3    0.27    0.41
   2 -11   3    0.46    0.60
   2 -11   3    0.38    0.51
   2 -11   3    0.33    0.43
  -2  11  -3    0.11    0.59
   2  11   3    0.48    0.66
   2  11   3    0.35    0.43
  -2  11  -3    0.18    0.51
   2  11   3    0.34    0.32
  -2  11  -3    0.00    1.07
  -2  11  -3    0.00    0.72
   2  11   3    0.29    0.32
   3 -11   3    2.31    0.60
   3 -11   3    1.41    0.85
  -3 -11  -3    1.78    0.47
   3 -11   3    1.66    0.60
   3 -11   3    1.18    0.54
  -3 -11  -3    1.14    0.48
   3 -11   3    3.22    0.65
  -3 -11  -3    2.48    1.01
   3 -11   3    2.33    0.55
  -3 -11  -3    1.19    0.63
  -3  11  -3    1.82    1.82
   3  11   3    1.67    0.44
  -3  11  -3    2.90    0.64
   3  11   3    1.29    0.43
   3  11   3    2.02    0.84
  -4 -11  -3    0.03    1.32
   4 -11   3    0.94    0.62
   4 -11   3   -0.08    0.95
   4 -11   3    1.03    0.55
  -4  11  -3    1.11    2.17
   4  11   3   -0.39    0.84
   4 -12  -3    7.25    0.81
   4 -12  -3    7.16    1.16
   4 -12  -3    6.86    0.87
   4  12  -3    8.12    1.26
   3 -12  -3   27.46    1.77
   3 -12  -3   26.80    1.96
   3 -12  -3   29.12    1.82
  -3 -12   3   27.73    1.53
   3 -12  -3   29.18    1.72
  -3 -12   3   27.43    1.54
   3 -12  -3   28.82    1.75
   3  12  -3   26.77    2.55
   3  12  -3   27.52    1.78
   2 -12  -3   28.23    2.34
  -2 -12   3   29.42    1.66
  -2 -12   3   31.58    1.72
   2 -12  -3   29.68    1.74
   2 -12  -3   30.34    1.83
   2 -12  -3   31.10    1.79
   2 -12  -3   30.49    1.91
   2 -12  -3   30.11    1.81
   2  12  -3   30.79    2.03
   2  12  -3   28.61    1.63
   1 -12  -3  104.95    5.09
   1 -12  -3  104.83    5.04
   1 -12  -3  105.48    5.07
   1 -12  -3  102.75    5.30
  -1 -12   3   98.42    5.03
  -1 -12   3   98.78    5.17
  -1 -12   3  102.75    5.04
  -1 -12   3  103.11    5.06
   1 -12  -3   95.86    5.26
  -1  12   3  109.41    5.17
  -1  12   3  102.13    5.04
   1  12  -3  100.78    5.18
  -1  12   3   99.90    5.39
  -1  12   3  101.37    5.03
   0 -12  -3   81.24    4.04
   0 -12  -3   82.53    4.11
   0 -12   3   78.51    4.09
   0 -12   3   81.24    4.05
   0 -12   3   82.88    4.06
   0 -12  -3   80.04    4.12
   0 -12  -3   77.88    4.23
   0 -12   3   79.44    3.96
   0 -12   3   79.17    4.04
   0 -12  -3   81.14    4.02
   0  12   3   81.85    4.01
   0  12  -3   79.20    4.16
   0  12  -3   78.22    4.05
   0  12   3   81.71    3.99
   0  12  -3   78.53    4.03
   0  12   3   82.40    4.05
   0  12  -3   82.93    4.06
   0  12   3   79.16    4.29
  -1 -12  -3   63.58    3.22
  -1 -12  -3   63.13    3.25
   1 -12   3   64.23    3.29
  -1 -12  -3   62.37    3.20
   1 -12   3   64.50    3.30
   1 -12   3   62.17    3.30
   1 -12   3   65.61    3.31
  -1 -12  -3   63.13    3.39
  -1  12  -3   62.35    3.31
   1  12   3   63.80    3.47
   1  12   3   63.11    3.21
   1  12   3   62.84    3.17
   1  12   3   66.38    3.21
  -1  12  -3   60.72    3.38
  -1  12  -3   63.59    3.47
  -1  12  -3   64.69    3.53
  -2 -12  -3   22.79    1.64
   2 -12   3   23.44    1.69
  -2 -12  -3   22.39    1.39
   2 -12   3   24.15    1.50
  -2 -12  -3   22.65    1.56
   2 -12   3   24.87    2.11
   2 -12   3   22.69    1.54
   2 -12   3   23.17    1.52
  -2 -12  -3   22.02    1.38
   2 -12   3   21.55    1.60
   2 -12   3   22.45    1.46
   2  12   3   23.09    1.79
   2  12   3   23.90    1.34
   2  12   3   22.24    1.35
   2  12   3   23.32    1.37
  -2  12  -3   22.10    2.21
  -2  12  -3   22.41    1.60
  -2  12  -3   20.72    1.88
   3 -12   3    3.97    0.69
   3 -12   3    5.46    1.07
   3 -12   3    6.54    0.82
   3 -12   3    5.39    0.77
   3 -12   3    5.96    0.75
  -3 -12  -3    7.06    1.25
   3 -12   3    5.51    0.90
  -3  12  -3    7.93    1.93
   3  12   3    5.27    0.75
   3  12   3    6.13    1.03
   3  12   3    5.48    0.85
  -3  12  -3    6.17    0.84
  -4 -12  -3    2.15    1.67
   4 -12   3    1.14    1.07
   4 -12   3    1.14    0.60
   4 -12   3    0.88    0.64
  -4  12  -3    2.19    2.51
   4  12   3    0.93    1.00
   4 -13  -3    0.11    0.56
   4 -13  -3    0.18    0.63
   4 -13  -3    0.79    0.92
   4  13  -3    0.82    1.01
  -3 -13   3    0.80    0.34
   3 -13  -3    0.79    0.72
   3 -13  -3   -0.26    0.51
   3 -13  -3    0.57    0.60
   3 -13  -3   -0.13    0.53
   3  13  -3   -0.33    0.81
   2 -13  -3   -0.69    0.56
   2 -13  -3   -0.31    0.48
   2 -13  -3   -0.07    0.46
   2 -13  -3   -2.18    1.35
   2 -13  -3   -0.12    0.52
  -2 -13   3    0.29    0.46
   2 -13  -3   -0.23    0.52
  -2 -13   3    0.16    0.35
   2  13  -3    0.05    0.73
  -2  13   3   -0.57    1.15
   1 -13  -3    0.95    0.57
  -1 -13   3    0.47    0.42
   1 -13  -3    0.27    0.52
   1 -13  -3    0.65    0.47
  -1 -13   3    0.15    0.44
   1 -13  -3    0.56    0.79
  -1 -13   3    0.00    0.28
   1 -13  -3    0.71    0.43
  -1  13   3    0.99    0.97
   1  13  -3    0.36    0.71
  -1  13   3    0.82    0.41
   0 -13  -3    8.21    0.96
   0 -13  -3    8.41    0.94
   0 -13  -3    8.31    0.84
   0 -13   3    7.29    0.78
   0 -13   3    8.51    0.91
   0 -13   3    7.96    0.93
   0 -13   3    8.79    1.03
   0 -13   3    8.13    0.93
   0 -13  -3    9.00    1.16
   0 -13  -3   10.38    1.32
   0  13   3    9.52    0.88
   0  13   3   10.00    1.56
   0  13  -3    7.65    0.83
   0  13   3    7.96    0.75
   0  13   3    8.74    0.80
   0  13  -3    9.14    1.27
   0  13  -3    7.91    0.86
   1 -13   3    0.79    0.51
   1 -13   3    0.46    0.49
  -1 -13  -3   -0.66    1.00
  -1 -13  -3    0.76    0.47
  -1 -13  -3    1.02    0.42
   1 -13   3   -0.19    0.48
   1 -13   3    0.93    0.58
  -1 -13  -3    1.14    0.48
  -1 -13  -3   -0.14    0.70
   1 -13   3    0.67    0.60
  -1  13  -3   -0.03    0.75
   1  13   3    0.87    0.31
  -1  13  -3    0.63    0.56
   1  13   3    0.23    0.37
  -1  13  -3    1.33    0.89
   1  13   3    0.49    0.35
   1  13   3    1.40    0.80
   2 -13   3    1.92    0.67
   2 -13   3    0.53    0.62
   2 -13   3    0.41    0.51
   2 -13   3    1.54    0.71
   2 -13   3    1.75    0.68
  -2 -13  -3    0.52    0.80
   2 -13   3    1.31    0.60
  -2 -13  -3    0.98    0.46
   2 -13   3    2.11    1.33
  -2 -13  -3    0.40    0.39
   2  13   3    2.03    0.47
   2  13   3    1.05    0.83
  -2  13  -3    2.10    1.37
  -2  13  -3    0.88    0.61
   2  13   3    1.55    0.36
  -2  13  -3    1.21    0.88
   2  13   3    0.97    0.40
  -3 -13  -3    0.72    0.58
   3 -13   3    0.24    0.56
   3 -13   3   -0.73    0.65
  -3 -13  -3    1.28    0.94
   3 -13   3    0.40    0.87
   3 -13   3    0.97    0.60
   3  13   3    0.18    0.51
  -3  13  -3    2.20    1.05
  -3  13  -3    0.87    1.74
   3  13   3    0.74    0.89
   4 -13   3    0.19    0.68
   4 -13   3    0.73    1.20
   4 -13   3    0.11    0.60
  -4  13  -3    1.73    2.37
   4 -14  -3    5.19    0.89
   4 -14  -3    6.69    1.18
   4 -14  -3    4.71    0.80
   4  14  -3    7.56    1.34
   3 -14  -3   20.71    1.55
   3 -14  -3   21.18    1.79
   3 -14  -3   19.60    1.47
   3  14  -3   19.93    2.01
   2 -14  -3   52.69    2.96
   2 -14  -3   55.19    2.90
   2 -14  -3   51.82    2.84
  -2 -14   3   52.61    2.80
   2 -14  -3   52.56    2.93
  -2  14   3   54.00    3.68
   1 -14  -3  103.61    5.08
   1 -14  -3  101.65    5.02
   1 -14  -3  102.02    5.25
  -1 -14   3  100.25    5.01
   1 -14  -3  101.15    5.08
   1 -14  -3  101.61    5.13
   1 -14  -3  105.15    5.05
  -1 -14   3   98.72    5.00
  -1  14   3   96.14    5.00
  -1  14   3   98.04    5.42
   1  14  -3   97.05    5.23
   0 -14   3  106.74    5.17
   0 -14  -3  104.31    5.16
   0 -14  -3  104.64    5.13
   0 -14   3   97.28    5.06
   0 -14   3   98.51    5.17
   0 -14  -3  107.43    5.27
   0 -14   3   99.32    5.14
   0 -14  -3  105.59    5.19
   0  14  -3  100.33    5.33
   0  14   3  105.09    5.12
   0  14   3  105.86    5.12
   0  14  -3   99.02    5.08
   0  14   3  106.54    5.47
   0  14   3  105.79    5.15
   1 -14   3   80.51    3.99
  -1 -14  -3   77.16    3.95
   1 -14   3   75.44    3.94
   1 -14   3   73.57    4.42
   1 -14   3   76.08    3.94
   1 -14   3   76.99    3.97
  -1 -14  -3   79.16    3.91
  -1  14  -3   74.39    4.19
  -1  14  -3   77.79    3.99
   1  14   3   76.30    3.89
  -1  14  -3   79.57    4.20
   1  14   3   74.99    4.19
   1  14   3   78.99    3.87
   1  14   3   74.95    3.82
   2 -14   3   40.06    2.37
   2 -14   3   43.41    2.46
  -2 -14  -3   40.04    2.22
  -2 -14  -3   38.43    2.14
   2 -14   3   35.17    2.48
   2 -14   3   42.17    2.32
  -2 -14  -3   39.05    2.49
   2 -14   3   38.09    2.43
   2 -14   3   43.54    2.61
  -2  14  -3   38.61    2.71
  -2  14  -3   40.20    2.96
  -2  14  -3   40.08    2.38
   2  14   3   40.16    2.10
   2  14   3   40.52    2.62
   2  14   3   40.14    2.20
   3 -14   3    2.85    0.98
  -3 -14  -3    3.96    1.05
   3 -14   3    4.03    0.74
   3 -14   3    3.83    0.77
   3  14   3    3.12    1.02
  -3  14  -3    4.40    1.18
  -3  14  -3    3.02    1.92
   4 -14   3    1.27    1.31
   4 -14   3    0.81    0.85
   4 -14   3    0.02    0.71
  -4  14  -3   -0.56    2.45
   4  14   3    1.79    1.14
   4 -15  -3    1.10    1.11
   4 -15  -3    1.13    0.87
   4 -15  -3    0.77    0.81
   4  15  -3    0.81    1.16
   3 -15  -3    1.44    0.65
   3 -15  -3    2.06    0.83
   3 -15  -3    1.35    0.64
   3  15  -3    2.31    1.00
  -2 -15   3   -0.21    0.49
   2 -15  -3    0.41    0.70
   2 -15  -3    0.63    0.90
   2 -15  -3    1.49    0.65
   2 -15  -3    0.47    0.67
   2 -15  -3    1.01    0.55
  -2  15   3    0.55    1.31
   2  15  -3    3.29    0.92
   1 -15  -3    2.49    0.66
   1 -15  -3    2.76    0.64
  -1 -15   3    3.44    0.63
   1 -15  -3    2.82    0.59
  -1 -15   3    2.97    0.59
   1 -15  -3    3.42    0.76
  -1  15   3    4.00    1.26
   0 -15  -3    7.10    0.99
   0 -15  -3    4.85    0.73
   0 -15   3    5.81    0.74
   0 -15   3    6.69    0.82
   0 -15   3    8.36    1.02
   0  15   3    5.28    0.68
   0  15   3   11.68    1.79
   0  15   3    7.42    1.09
   1 -15   3    4.80    0.72
   1 -15   3    4.22    0.68
  -1 -15  -3    3.79    0.62
   1 -15   3    5.24    0.77
  -1 -15  -3    3.61    0.69
   1 -15   3    4.07    0.70
   1  15   3    3.53    0.63
   1  15   3    5.03    0.70
   1  15   3    4.57    1.08
   2 -15   3    0.61    0.62
  -2 -15  -3   -0.06    0.42
  -2 -15  -3   -0.39    0.47
   2 -15   3    1.12    0.64
   2  15   3   -0.23    0.48
   2  15   3    0.63    0.37
  -2  15  -3    0.48    1.33
  -2  15  -3    1.45    1.02
   2  15   3    0.07    0.90
   3 -15   3    0.57    0.67
   3 -15   3    1.62    0.93
   3 -15   3    0.49    0.67
   3  15   3    1.78    1.04
  -3  15  -3    1.61    1.29
  -3  15  -3    1.07    1.92
   3 -16  -3   29.39    2.00
   3 -16  -3   27.80    2.26
   3 -16  -3   29.56    1.98
   3  16  -3   30.44    2.52
  -2 -16   3   51.45    2.97
   2 -16  -3   47.63    2.76
   2 -16  -3   45.37    2.68
  -2 -16   3   46.34    2.56
   2 -16  -3   44.33    2.71
   2 -16  -3   45.97    2.63
   2  16  -3   45.53    3.01
  -2  16   3   43.45    3.47
  -1 -16   3   87.18    4.84
   1 -16  -3   93.95    4.95
   1 -16  -3  112.04    5.16
   1 -16  -3   98.36    4.98
   1 -16  -3   99.61    4.95
  -1 -16   3   95.18    4.93
   1  16  -3   89.78    5.14
  -1  16   3   98.76    5.44
   0 -16   3   87.44    4.25
   0 -16  -3   85.25    4.26
   0 -16   3   74.42    4.12
   0 -16  -3   80.53    4.18
   0 -16   3   88.87    4.29
   0 -16  -3   84.35    4.24
   0 -16  -3   81.07    4.41
   0  16  -3   80.81    4.08
   0  16   3   84.02    4.21
   0  16   3   83.92    5.23
   0  16  -3   80.05    4.52
  -1 -16  -3   30.37    1.87
   1 -16   3   27.54    1.86
  -1 -16  -3   30.31    1.93
   1 -16   3   31.47    2.04
   1 -16   3   30.14    1.99
   1  16   3   31.50    1.85
  -1  16  -3   30.31    2.40
   1  16   3   31.80    1.85
  -1  16  -3   30.30    2.17
  -2 -16  -3    1.68    0.57
  -2 -16  -3    2.67    0.67
   2 -16   3    3.05    0.73
   2 -16   3    2.22    0.69
   2 -16   3    2.17    0.78
   2 -16   3    2.23    0.78
  -2  16  -3    1.83    1.53
  -2  16  -3    2.51    1.53
   2  16   3    1.89    1.05
   3 -16   3   -1.12    0.85
   3 -16   3    0.25    0.67
   3 -16   3   -0.20    0.68
   3  16   3    0.43    1.08
  -3  16  -3    0.37    1.44
  -3  16  -3    0.85    1.90
   3 -17  -3    2.17    0.82
   3 -17  -3    4.48    0.85
   3 -17  -3    3.06    0.96
   3  17  -3    3.41    1.31
   2 -17  -3    7.78    1.00
  -2 -17   3   11.14    1.08
   2 -17  -3    8.10    1.08
   2 -17  -3    8.58    1.12
   2  17  -3   13.09    1.85
  -2  17   3    7.97    1.70
  -1 -17   3    8.16    1.04
  -1 -17   3   11.17    1.30
  -1 -17   3   11.43    1.07
   1  17  -3    8.52    1.32
   0 -17  -3   18.05    1.48
   0 -17   3   15.30    1.30
   0 -17  -3   18.97    1.43
   0 -17   3   17.43    1.49
   0 -17  -3   19.02    1.79
   0 -17   3   16.97    1.46
   0 -17  -3   21.46    1.29
   0  17   3   24.02    2.33
   0  17  -3   18.78    2.00
   1 -17   3    8.61    1.23
   1 -17   3    8.22    1.10
   1 -17   3    7.84    1.11
  -1 -17  -3    7.33    0.91
  -1 -17  -3    8.80    1.04
  -1  17  -3    8.45    1.49
   1  17   3   10.95    1.48
   1  17   3    6.84    0.96
  -1  17  -3    9.54    1.77
   2 -17   3    2.61    0.76
  -2 -17  -3    2.94    0.65
   2 -17   3    2.28    0.79
   2 -17   3    2.65    0.80
   2  17   3    4.33    1.16
  -2  17  -3    4.18    1.48
  -2  17  -3    4.04    1.64
   3 -17   3    0.18    0.78
   3 -17   3   -0.31    0.74
   3 -17   3    0.81    0.97
  -3  17  -3    0.29    1.96
   3  17   3   -0.27    1.12
  -3  17  -3    0.11    1.43
   3 -18  -3    3.23    0.90
   3 -18  -3    3.44    1.09
   3 -18  -3    3.21    0.91
   3  18  -3    3.06    1.34
   2 -18  -3   10.09    1.51
   2 -18  -3   10.07    1.28
   2 -18  -3    9.41    1.13
  -2 -18   3    8.94    1.17
   2  18  -3   11.10    1.54
  -2  18   3   11.20    1.95
  -1 -18   3   14.65    1.45
   1 -18  -3   16.86    1.72
  -1 -18   3   10.80    1.32
   1 -18  -3   13.48    1.63
   1 -18  -3   15.41    1.32
  -1 -18   3   16.32    1.25
  -1  18   3   14.40    1.89
   1  18  -3   12.81    2.05
   0 -18  -3   12.74    1.24
   0 -18  -3   12.64    1.43
   0 -18  -3   10.69    1.67
   0 -18   3   11.62    1.32
   0 -18   3   12.70    1.34
   0 -18   3    8.67    1.15
   0  18  -3   13.32    1.56
   0  18   3   14.38    2.18
   1 -18   3    3.54    0.78
   1 -18   3    3.42    0.86
   1 -18   3    3.92    0.81
  -1  18  -3    4.32    1.22
  -1  18  -3    3.35    1.14
   2 -18   3    0.31    0.69
  -2 -18  -3    0.78    0.62
   2 -18   3   -0.50    0.68
   2 -18   3   -0.25    0.72
  -2  18  -3    0.21    1.19
   2  18   3    0.52    1.18
  -2  18  -3    0.03    1.55
   3 -18   3    0.00    0.91
   3 -18   3    0.06    0.95
   3 -18   3    0.25    0.83
  -3  18  -3   -0.61    2.09
  -3  18  -3   -1.14    1.54
   3  18   3    1.69    1.33
   3 -19  -3   -0.21    1.11
   3 -19  -3    0.08    0.94
   3 -19  -3    1.01    0.94
   3  19  -3   -1.18    1.39
  -2 -19   3   -0.60    0.65
   2 -19  -3    0.96    0.87
   2 -19  -3   -0.15    0.69
   2 -19  -3    1.19    0.80
   2  19  -3   -1.04    1.17
  -2  19   3    0.02    1.54
   1 -19  -3   -0.62    0.79
   1 -19  -3    0.32    0.65
  -1 -19   3    0.67    0.93
  -1 -19   3   -0.73    0.67
   1  19  -3   -1.40    1.12
  -1  19   3    1.31    1.43
   0 -19   3    1.70    0.66
   0 -19   3    2.29    0.77
   0 -19   3    3.17    0.85
   0  19  -3    5.14    1.34
  -1 -19  -3   21.10    1.50
   1 -19   3   15.33    1.49
   1 -19   3   17.38    1.55
   1 -19   3   16.96    1.64
  -1 -19  -3   11.07    1.62
  -1  19  -3   13.93    2.18
  -1  19  -3   15.69    1.85
   2 -19   3   13.43    1.63
   2 -19   3   15.75    1.50
  -2 -19  -3   13.60    1.38
   2 -19   3   11.61    1.52
  -2  19  -3   17.84    2.96
  -2  19  -3   14.07    1.80
   2  19   3   11.68    1.82
   2 -20  -3   30.44    2.46
   2 -20  -3   32.48    2.25
   2 -20  -3   32.05    2.21
   2  20  -3   31.56    2.97
  -2  20   3   28.88    3.50
   1 -20  -3   50.99    2.86
   1 -20  -3   51.24    2.92
   1 -20  -3   49.27    2.94
  -1  20   3   46.23    3.69
   1  20  -3   42.62    3.39
   0 -20  -3   52.30    2.85
   0 -20   3   53.15    2.96
   0 -20   3   41.36    2.68
   0 -20   3   49.56    2.85
   0 -20  -3   46.58    3.06
   0 -20  -3   48.89    2.88
   0  20  -3   50.01    3.46
   0  20   3   48.04    3.64
   1 -20   3   29.50    2.21
   1 -20   3   26.33    2.24
  -1 -20  -3   35.29    2.03
   1 -20   3   26.79    2.06
  -1  20  -3   26.32    2.69
   2 -20   3   13.53    1.67
   2 -20   3   10.15    1.31
   2 -20   3    9.76    1.54
  -2 -20  -3   12.11    1.56
  -2  20  -3    9.64    1.76
  -2  20  -3   13.37    2.70
   2  20   3   12.90    1.98
   2 -21  -3    4.03    1.15
   2 -21  -3    1.59    0.96
   2 -21  -3    2.07    1.01
  -2  21   3    1.99    2.01
   2  21  -3    4.70    1.72
   1 -21  -3    5.33    1.01
   1 -21  -3    3.49    0.91
  -1 -21   3    4.89    0.93
   1 -21  -3    4.69    1.01
  -1  21   3    3.07    1.64
   1  21  -3    7.05    1.73
   0 -21  -3   18.63    1.80
   0 -21   3   27.45    1.71
   0 -21  -3   21.76    1.93
   0  21   3   24.29    2.92
  -1 -21  -3    8.22    1.03
   1 -21   3    6.61    1.01
   1 -21   3    8.37    1.18
   1 -21   3    8.28    1.13
  -1  21  -3    8.36    1.56
   1  21   3   10.12    2.14
   2 -21   3    4.04    1.07
   2 -21   3    2.86    1.13
   2 -21   3    3.06    0.96
  -2  21  -3    0.97    1.52
   2  21   3    3.76    1.75
   1 -22  -3    2.54    0.95
  -1 -22   3    1.98    0.87
   1 -22  -3    2.06    0.93
   1 -22  -3    1.99    0.93
   1  22  -3    2.68    1.84
  -1  22   3    2.06    1.80
   0 -22  -3    1.31    1.16
   0 -22  -3    1.44    1.30
   0 -22  -3    2.48    0.87
   0 -22   3    0.35    0.80
   0  22  -3    2.20    1.58
   0  22   3    2.59    1.84
   1 -22   3    2.61    1.08
  -1 -22  -3   -2.50    1.38
   1 -22   3    0.89    0.83
   1 -22   3    1.41    0.92
  -1 -22  -3    1.60    0.77
   1  22   3    2.52    2.10
  -1  22  -3    4.33    1.60
   0 -23  -3    2.17    0.91
   0 -23  -3   -0.21    1.20
   0 -23   3    2.95    0.97
   0  23   3    3.74    2.15
   0  23  -3    4.12    1.98
   5   0  -4    9.76    1.47
   5   0  -4    9.84    1.61
   4   0  -4   18.58    1.41
   4   0  -4   18.53    1.54
  -3   0   4   88.50    4.06
   3   0  -4   82.49    4.73
   3   0  -4   81.75    4.50
   3   0  -4   86.29    4.05
  -2   0   4  154.78    7.35
   2   0  -4  150.30    7.36
   2   0  -4  160.59    7.79
   2   0  -4  150.98    7.40
   2   0  -4  155.49    7.35
  -2   0   4  155.28    7.48
  -2   0   4  156.50    7.35
   1   0   4   60.88    2.78
  -1   0  -4   53.75    2.77
  -1   0  -4   56.76    2.80
   1   0   4   56.76    2.79
  -1   0  -4   55.86    2.79
   2   0   4  415.30   19.51
   2   0   4  406.26   19.49
  -2   0  -4  401.40   19.52
  -2   0  -4  397.69   19.52
  -2   0  -4  441.67   19.91
   3   0   4   88.06    4.16
  -3   0  -4   84.65    4.16
   3   0   4   83.97    4.11
  -3   0  -4   88.89    4.89
  -3   0  -4   80.69    4.17
  -4   0  -4    3.91    1.69
   4   0   4    0.60    0.35
  -4   0  -4    0.85    0.30
  -5   0  -4    1.16    2.53
   5   0   4   -0.77    1.47
   5  -1  -4    6.39    1.15
   5  -1  -4    4.76    0.96
   5   1  -4    6.30    0.97
   5   1  -4    7.58    1.17
   4  -1  -4    5.46    0.80
   4  -1  -4    5.12    0.89
   4   1  -4    6.74    0.97
   4   1  -4    8.06    1.17
   3  -1  -4   10.92    0.95
   3  -1  -4   11.05    0.68
  -3   1   4   11.79    0.65
   2  -1  -4   19.95    1.16
   2  -1  -4   20.28    1.05
   2  -1  -4   19.10    1.06
   2  -1  -4   18.83    1.60
  -2   1   4   19.95    1.22
  -2   1   4   20.31    1.04
  -2   1   4   20.41    1.04
   0  -1   4  114.94    4.97
   0  -1   4  105.02    4.95
   0  -1  -4   93.23    4.97
   0   1  -4  111.60    4.99
   0   1   4  101.59    4.96
   0   1   4   97.73    4.95
   0   1   4   99.97    4.94
  -1  -1  -4    5.90    0.52
   1  -1   4    6.17    0.50
  -1  -1  -4    5.96    0.53
  -1  -1  -4    6.56    0.54
   1  -1   4    6.47    0.51
   1   1   4    7.08    0.48
  -1   1  -4    5.55    0.41
  -1   1  -4    7.66    0.54
   1   1   4    7.23    0.50
  -1   1  -4    6.22    0.53
  -2  -1  -4  131.30    6.57
  -2  -1  -4  128.26    6.56
   2  -1   4  140.10    6.55
  -2  -1  -4  140.15    6.96
   2  -1   4  140.72    6.57
   2   1   4  134.78    6.55
   2   1   4  136.21    6.54
  -2   1  -4  143.14    6.58
  -3  -1  -4   -0.62    0.31
   3  -1   4    0.52    0.34
  -3  -1  -4   -0.43    0.29
   3  -1   4    0.27    0.25
  -3  -1  -4    0.71    1.14
   3   1   4   -0.36    0.27
  -3   1  -4    0.56    0.31
  -3   1  -4    0.02    0.36
   3   1   4   -0.47    0.28
   4  -1   4   -0.17    0.22
   4  -1   4    0.22    0.38
  -4  -1  -4    0.23    0.24
  -4  -1  -4    1.61    1.59
   4  -1   4   -0.60    0.79
  -4   1  -4    0.08    1.58
   4   1   4   -0.06    0.32
   5  -1   4   -0.22    1.01
  -5  -1  -4    1.31    2.37
   5  -1   4    0.26    0.33
   5   1   4   -0.03    1.02
  -5   1  -4    1.69    2.54
   5  -2  -4    1.50    0.82
   5  -2  -4    1.64    0.99
   5   2  -4    2.41    0.82
   5   2  -4    2.43    1.01
   4  -2  -4   15.34    1.35
   4   2  -4   14.70    1.20
   4   2  -4   14.64    1.44
   3  -2  -4   26.44    1.60
   3  -2  -4   26.53    1.40
   3   2  -4   25.77    2.09
   3   2  -4   26.74    2.09
  -3   2   4   27.80    1.38
   3   2  -4   27.16    1.53
  -3   2   4   28.50    1.70
  -2  -2   4   69.81    3.32
  -2  -2   4   71.28    3.42
   2  -2  -4   68.69    3.86
   2  -2  -4   68.88    3.43
  -2  -2   4   72.10    3.33
   2  -2  -4   68.49    3.36
   2  -2  -4   69.38    3.36
   2   2  -4   70.90    3.33
  -2   2   4   70.81    3.52
   2   2  -4   68.11    3.74
  -2   2   4   71.06    3.35
  -2   2   4   70.40    3.35
   2   2  -4   68.44    3.34
   2   2  -4   70.37    3.53
   2   2  -4   60.51    3.41
  -1  -2   4   40.65    1.99
   1  -2  -4   40.34    2.00
  -1  -2   4   41.42    1.99
   1  -2  -4   38.74    2.00
  -1  -2   4   40.36    2.00
   1  -2  -4   40.32    2.03
  -1   2   4   43.45    2.09
  -1   2   4   41.02    1.99
   1   2  -4   40.28    2.00
  -1   2   4   39.76    2.00
   1   2  -4   39.62    2.00
   1   2  -4   38.37    1.97
   0  -2   4   11.00    0.66
   0  -2   4    9.89    0.70
   0  -2   4   11.65    0.68
   0  -2  -4   10.64    0.82
   0  -2  -4   10.19    0.68
   0  -2  -4   10.99    0.67
   0   2  -4   10.83    0.68
   0   2  -4   11.50    0.73
   0   2  -4   11.34    0.70
   0   2   4   11.13    0.65
   0   2   4   11.49    0.64
   1  -2   4   59.30    2.90
   1  -2   4   60.89    2.92
  -1  -2  -4   56.36    2.91
  -1  -2  -4   59.57    2.92
  -1  -2  -4   58.57    2.91
  -1   2  -4   56.61    2.93
  -1   2  -4   60.03    2.93
  -1   2  -4   57.16    3.13
   1   2   4   63.11    2.89
   1   2   4   62.50    2.90
  -1   2  -4   56.48    2.84
   1   2   4   59.90    2.94
  -2  -2  -4    4.44    0.60
  -2  -2  -4    4.88    0.58
   2  -2   4    7.09    0.59
  -2  -2  -4    6.62    1.18
   2  -2   4    7.59    0.57
   2   2   4    6.38    0.49
  -2   2  -4    6.59    0.65
   2   2   4    6.15    0.52
  -3  -2  -4   -0.30    0.32
  -3  -2  -4    0.30    0.30
   3  -2   4    0.30    0.34
  -3  -2  -4    0.68    1.16
   3  -2   4    0.56    0.27
  -3   2  -4    1.15    1.31
  -3   2  -4    0.65    0.37
  -3   2  -4    0.35    0.31
   3   2   4    0.22    0.28
   3   2   4    0.33    0.23
   4  -2   4   -0.05    0.24
  -4  -2  -4    0.17    0.23
   4  -2   4   -0.05    0.81
  -4  -2  -4    0.93    1.57
   4  -2   4    0.43    0.43
  -4   2  -4    1.68    1.72
   4   2   4   -0.23    0.31
   5  -2   4    2.31    1.17
   5  -2   4    0.03    0.37
  -5  -2  -4    0.89    2.35
  -5   2  -4    0.61    2.69
   5   2   4    0.35    0.97
   5  -3  -4    0.50    0.81
   5  -3  -4    0.77    0.95
   5   3  -4    2.15    1.27
   5   3  -4    0.44    1.44
   4  -3  -4    0.80    0.59
   4   3  -4    0.52    0.50
   4   3  -4    1.22    0.72
   3  -3  -4   13.45    0.84
   3  -3  -4   14.80    0.82
   3  -3  -4   13.64    0.80
   3  -3  -4   13.91    1.30
   3   3  -4   13.04    1.52
   3   3  -4   14.86    0.96
   3   3  -4   12.65    1.26
  -3   3   4   14.41    1.32
  -3   3   4   14.25    0.81
   2  -3  -4    0.34    0.22
  -2  -3   4    0.26    0.16
   2  -3  -4    0.30    0.74
   2  -3  -4    0.33    0.32
   2  -3  -4    0.27    0.21
  -2  -3   4    0.15    0.16
   2   3  -4   -0.05    0.19
   2   3  -4    0.33    0.43
  -2   3   4    0.43    0.20
   2   3  -4    0.13    0.21
   2   3  -4   -0.26    0.65
  -2   3   4    0.36    0.18
   2   3  -4    0.18    0.21
  -2   3   4    0.31    0.39
   1  -3  -4   12.06    0.73
   1  -3  -4   12.52    0.79
   1  -3  -4   13.12    0.74
  -1  -3   4   11.40    0.68
  -1  -3   4   11.96    0.71
  -1  -3   4   11.96    0.71
  -1   3   4   14.05    0.86
   1   3  -4   12.27    0.74
   1   3  -4   11.83    0.87
  -1   3   4   13.49    0.72
   1   3  -4   12.75    0.74
   1   3  -4   11.96    0.67
  -1   3   4   12.71    0.72
   0  -3   4  147.87    6.91
   0  -3  -4  147.09    6.91
   0  -3  -4  143.59    6.92
   0  -3  -4  153.90    7.05
   0  -3  -4  145.09    6.97
   0  -3   4  146.74    6.92
   0   3   4  153.71    6.93
   0   3  -4  136.26    6.97
   0   3  -4  126.47    6.96
   0   3  -4  144.10    6.92
   0   3   4  147.67    6.91
  -1  -3  -4   14.58    0.89
  -1  -3  -4   15.35    0.89
   1  -3   4   14.60    0.89
  -1  -3  -4   15.30    0.95
   1  -3   4   15.49    0.93
   1   3   4   14.76    0.98
   1   3   4   15.53    0.93
  -1   3  -4   13.93    0.90
  -1   3  -4   14.69    0.82
  -1   3  -4   14.57    0.92
   1   3   4   15.36    0.85
   1   3   4   15.38    0.84
   2  -3   4    6.02    0.55
  -2  -3  -4    5.50    0.57
   2  -3   4    5.99    0.59
  -2  -3  -4    6.79    1.14
  -2  -3  -4    5.97    0.44
  -2  -3  -4    5.14    0.58
   2   3   4    5.54    0.57
  -2   3  -4    5.90    0.58
  -2   3  -4    6.06    1.13
   2   3   4    5.16    0.50
  -2   3  -4    6.30    0.63
   2   3   4    6.10    0.49
  -3  -3  -4    5.04    1.40
  -3  -3  -4    2.06    0.39
   3  -3   4    2.36    0.42
  -3  -3  -4    2.24    0.38
   3  -3   4    2.30    0.37
  -3   3  -4    3.63    1.37
   3   3   4    2.35    0.31
  -3   3  -4    2.00    0.38
  -3   3  -4    2.48    0.46
   3   3   4    2.56    0.38
  -4  -3  -4    3.89    1.75
   4  -3   4    1.75    0.38
   4  -3   4    2.01    0.52
  -4  -3  -4    1.33    0.26
   4  -3   4    1.72    0.90
  -4   3  -4    2.71    1.80
   4   3   4    1.50    0.37
  -5  -3  -4    1.63    2.03
   5  -3   4   -0.16    1.14
   5  -3   4    0.86    0.43
   5   3   4   -0.62    0.97
  -5   3  -4    1.28    2.94
   5  -4  -4    0.26    1.00
   5  -4  -4    0.32    0.83
   5   4  -4    0.32    0.99
   4  -4  -4    4.64    0.57
   4   4  -4    4.94    0.81
   4   4  -4    5.50    0.92
   3  -4  -4   74.13    3.60
   3  -4  -4   73.59    4.11
   3  -4  -4   73.38    3.60
   3  -4  -4   73.39    3.58
   3  -4  -4   73.87    3.77
  -3   4   4   74.99    3.61
   3   4  -4   74.79    3.86
   3   4  -4   78.15    3.64
   3   4  -4   70.30    4.11
  -3   4   4   71.61    3.92
   2  -4  -4  253.27   12.30
  -2  -4   4  256.48   12.28
  -2  -4   4  252.38   12.27
   2  -4  -4  256.30   12.31
   2  -4  -4  256.94   12.38
   2  -4  -4  274.51   12.80
   2   4  -4  246.85   12.26
  -2   4   4  263.95   12.32
  -2   4   4  265.54   12.31
   2   4  -4  254.47   12.28
   2   4  -4  259.11   12.44
   2   4  -4  264.52   12.63
   2   4  -4  263.30   12.27
  -2   4   4  266.28   12.49
  -1  -4   4  341.87   16.48
   1  -4  -4  347.73   16.51
   1  -4  -4  336.29   16.48
  -1  -4   4  359.51   16.48
   1  -4  -4  343.44   16.49
   1  -4  -4  345.53   16.69
  -1   4   4  328.99   16.52
  -1   4   4  381.29   16.58
   1   4  -4  346.57   16.56
  -1   4   4  358.51   16.48
   1   4  -4  352.56   16.48
   1   4  -4  338.79   16.48
   0  -4  -4  338.50   15.31
   0  -4   4  291.05   15.23
   0  -4   4  322.83   15.17
   0  -4  -4  324.85   15.23
   0  -4  -4  310.46   15.17
   0  -4  -4  316.14   15.16
   0   4   4  339.33   15.19
   0   4  -4  319.52   15.18
   0   4  -4  316.71   15.19
   0   4   4  325.55   15.17
   0   4   4  327.70   15.16
   0   4  -4  311.12   15.17
   1  -4   4  138.31    6.60
   1  -4   4  139.90    6.60
   1  -4   4  138.62    6.54
  -1  -4  -4  129.68    6.58
  -1  -4  -4  134.61    6.61
  -1  -4  -4  132.16    6.57
   1   4   4  140.69    6.59
  -1   4  -4  141.56    6.61
  -1   4  -4  142.26    6.55
   1   4   4  132.02    6.56
  -1   4  -4  137.28    6.60
   1   4   4  133.96    6.62
   1   4   4  133.50    6.55
  -1   4  -4  146.29    6.82
  -2  -4  -4   35.30    1.83
  -2  -4  -4   35.37    1.88
  -2  -4  -4   36.22    2.31
   2  -4   4   37.20    1.89
  -2  -4  -4   34.89    1.88
   2  -4   4   36.00    1.91
   2   4   4   38.00    1.98
  -2   4  -4   35.57    2.44
  -2   4  -4   37.09    1.91
   2   4   4   36.73    1.85
   2   4   4   36.82    1.83
   2   4   4   35.02    1.89
  -2   4  -4   36.42    1.94
   3  -4   4    2.35    0.61
   3  -4   4    2.84    0.42
   3  -4   4    0.98    0.78
  -3  -4  -4    1.92    0.40
  -3  -4  -4    2.45    0.39
  -3  -4  -4    4.31    1.30
   3   4   4    2.14    0.31
  -3   4  -4    2.78    0.43
   3   4   4    3.01    0.38
   3   4   4    2.97    0.43
  -3   4  -4    3.52    1.43
  -3   4  -4    1.89    0.51
  -4  -4  -4    2.06    1.54
   4  -4   4    0.54    0.86
   4  -4   4    1.19    0.54
  -4  -4  -4    0.32    0.41
   4  -4   4    0.86    0.40
   4   4   4    1.45    0.37
  -4   4  -4    1.71    1.76
  -5  -4  -4    2.89    2.06
   5  -4   4    1.21    1.23
   5  -4   4    0.10    0.45
   5   4   4    0.51    0.97
  -5   4  -4    2.43    3.19
   5  -5  -4    2.24    0.91
   5   5  -4    3.34    1.08
   4  -5  -4    4.17    0.80
   4  -5  -4    4.15    0.52
   4  -5  -4    4.08    0.58
   4   5  -4    4.87    0.91
   4   5  -4    4.62    0.65
  -3  -5   4   15.89    0.84
   3  -5  -4   15.68    0.99
   3  -5  -4   17.03    1.83
   3  -5  -4   16.85    1.00
   3  -5  -4   15.95    0.95
   3  -5  -4   16.30    1.24
   3   5  -4   16.93    1.35
   3   5  -4   16.14    0.98
  -3   5   4   16.68    0.97
   3   5  -4   13.71    1.52
   2  -5  -4   47.90    2.52
   2  -5  -4   49.04    2.54
  -2  -5   4   48.56    2.47
   2  -5  -4   50.93    2.63
   2  -5  -4   49.54    2.95
  -2  -5   4   53.01    2.49
   2  -5  -4   54.20    3.09
   2   5  -4   48.25    2.85
   2   5  -4   50.61    2.44
  -2   5   4   51.01    2.73
  -2   5   4   52.22    2.54
   2   5  -4   51.15    2.71
   2   5  -4   50.28    2.50
  -2   5   4   52.49    2.53
   2   5  -4   52.52    2.49
  -1  -5   4   68.83    3.60
   1  -5  -4   74.62    3.56
   1  -5  -4   73.92    3.52
  -1  -5   4   70.77    3.51
  -1  -5   4   69.96    3.51
   1   5  -4   68.70    3.61
  -1   5   4   75.80    3.62
  -1   5   4   78.54    3.52
   1   5  -4   68.99    3.51
  -1   5   4   74.75    3.52
   1   5  -4   68.41    3.51
   0  -5   4    0.90    0.25
   0  -5   4    1.12    0.31
   0  -5   4    0.51    0.25
   0   5  -4    0.80    0.27
   0   5  -4    1.60    0.37
   0   5  -4    1.32    0.33
  -1  -5  -4   25.96    1.41
  -1  -5  -4   27.11    1.49
   1   5   4   26.44    1.38
   1   5   4   25.03    1.54
   1   5   4   27.62    1.41
   1   5   4   26.41    1.39
  -2  -5  -4   25.81    1.43
  -2  -5  -4   24.85    1.39
   2  -5   4   27.40    1.33
   2  -5   4   26.77    1.48
  -2  -5  -4   25.49    1.42
  -2  -5  -4   26.71    1.87
  -2   5  -4   25.61    1.49
   2   5   4   25.73    1.37
   2   5   4   25.14    1.50
  -2   5  -4   25.54    2.04
   2   5   4   27.93    1.55
  -2   5  -4   26.29    1.47
  -2   5  -4   22.43    1.46
   2   5   4   25.63    1.38
   3  -5   4    8.53    1.39
  -3  -5  -4    8.21    0.77
  -3  -5  -4   11.59    1.73
  -3  -5  -4    8.83    0.73
   3  -5   4    9.60    0.79
   3  -5   4    9.01    0.84
  -3   5  -4    8.83    0.78
   3   5   4    9.86    0.72
  -3   5  -4   10.11    2.09
   3   5   4    9.14    0.64
  -3   5  -4    9.22    0.97
   3   5   4    8.49    1.11
   4  -5   4    1.10    0.95
  -4  -5  -4    2.33    1.54
   4  -5   4    1.53    0.52
   4  -5   4    1.93    0.83
   4   5   4    1.64    0.37
  -4   5  -4    2.05    1.99
  -5  -5  -4    3.90    2.16
  -5   5  -4    2.60    3.50
   5  -6  -4    1.11    0.90
   5   6  -4    1.19    1.12
   4  -6  -4   20.23    1.64
   4  -6  -4   20.45    1.24
   4  -6  -4   21.80    1.17
   4  -6  -4   19.09    1.14
   4  -6  -4   21.99    1.32
   4   6  -4   20.66    1.75
   4   6  -4   22.24    1.32
   3  -6  -4   26.72    1.44
   3  -6  -4   26.18    1.68
   3  -6  -4   25.90    1.49
   3  -6  -4   27.49    1.47
  -3  -6   4   24.88    1.32
   3  -6  -4   26.94    1.48
   3  -6  -4   31.21    2.28
   3   6  -4   26.35    1.80
   3   6  -4   26.91    1.40
   3   6  -4   22.26    1.87
  -3   6   4   26.16    1.59
   2  -6  -4   77.42    4.16
  -2  -6   4   74.71    3.72
   2  -6  -4   75.57    3.85
  -2  -6   4   78.09    3.73
   2  -6  -4   76.28    4.29
   2  -6  -4   77.78    3.77
   2  -6  -4   77.05    3.78
   2   6  -4   77.37    3.93
   2   6  -4   75.66    4.06
   2   6  -4   79.04    3.74
  -2   6   4   78.46    3.77
  -2   6   4   76.21    3.77
   2   6  -4   78.42    3.73
  -2   6   4   75.59    3.97
   1  -6  -4  211.81    9.50
   1  -6  -4  196.08    9.27
  -1  -6   4  194.89    9.25
  -1  -6   4  191.87    9.25
   1  -6  -4  188.13    9.25
   1  -6  -4  193.72    9.29
  -1  -6   4  190.63    9.35
  -1   6   4  212.30    9.37
   1   6  -4  182.14    9.25
  -1   6   4  196.66    9.25
  -1   6   4  199.34    9.26
   1   6  -4  181.79    9.25
   1   6  -4  185.76    9.34
   0  -6  -4   84.63    3.82
   0  -6  -4   72.89    3.73
   0  -6  -4   75.15    3.72
   0  -6  -4   73.84    3.87
   0   6   4   75.38    3.72
   0   6   4   73.00    3.89
   0   6   4   79.18    3.74
   0   6   4   75.22    3.70
  -1  -6  -4   68.61    3.71
   1  -6   4   71.71    3.58
   1  -6   4   76.07    3.61
  -1  -6  -4   75.23    3.69
   1  -6   4   74.53    3.62
   1   6   4   74.80    3.57
  -1   6  -4   74.11    3.62
   1   6   4   80.73    3.58
  -1   6  -4   71.95    3.61
   1   6   4   70.98    3.57
  -1   6  -4   67.76    3.81
   1   6   4   68.05    3.66
  -1   6  -4   73.42    3.62
  -2  -6  -4    4.05    0.57
  -2  -6  -4    5.94    0.60
   2  -6   4    4.72    0.53
   2  -6   4    5.16    0.78
   2  -6   4    4.15    0.56
   2  -6   4    4.02    0.52
  -2  -6  -4    6.10    0.58
  -2  -6  -4    6.12    1.14
   2   6   4    5.25    0.54
   2   6   4    6.11    0.66
  -2   6  -4    5.28    0.64
  -2   6  -4    3.96    0.50
   2   6   4    3.67    0.49
  -2   6  -4    3.89    0.56
   2   6   4    3.80    0.61
  -2   6  -4    4.91    1.16
   3  -6   4    2.03    0.80
   3  -6   4    1.45    0.44
   3  -6   4    1.18    0.43
   3   6   4    1.00    0.52
  -3   6  -4    0.83    0.40
   3   6   4    0.94    0.28
   3   6   4    1.17    0.34
  -3   6  -4    0.88    1.45
  -3   6  -4    1.27    0.54
   4  -6   4    0.53    0.96
  -4  -6  -4    0.82    1.53
   4   6   4   -0.09    0.35
   4   6   4    0.39    0.98
  -4   6  -4    0.15    1.97
   5  -7  -4   -0.10    0.97
   5  -7  -4    0.49    0.38
   5   7  -4   -0.16    1.02
   4  -7  -4    0.71    0.69
   4  -7  -4    0.44    0.41
   4  -7  -4    0.98    0.50
   4   7  -4    0.84    0.41
   4   7  -4    1.98    1.00
   3  -7  -4    5.25    0.74
  -3  -7   4    5.87    0.47
   3  -7  -4    8.70    1.56
   3  -7  -4    4.40    0.64
   3  -7  -4    5.41    0.59
   3  -7  -4    5.17    0.73
   3  -7  -4    4.51    0.57
   3   7  -4    6.08    1.11
   3   7  -4    5.74    0.48
  -2  -7   4    9.40    0.71
   2  -7  -4   12.55    0.81
   2  -7  -4   10.63    0.98
  -2  -7   4   10.82    0.77
   2   7  -4   12.59    0.79
   2   7  -4   14.11    1.10
   2   7  -4    8.83    1.06
   2   7  -4   11.83    0.78
  -2   7   4   12.74    0.79
  -2   7   4   13.27    1.09
  -2   7   4   11.18    0.77
  -1  -7   4   34.53    1.94
  -1  -7   4   35.42    2.05
   1  -7  -4   37.78    1.98
  -1  -7   4   35.26    1.95
  -1   7   4   40.64    1.95
   1   7  -4   38.93    1.97
   1   7  -4   41.79    1.98
   1   7  -4   40.62    2.11
   0  -7   4   83.74    4.28
   0  -7  -4   87.09    4.32
   0  -7   4   81.81    4.24
   0  -7   4   79.81    4.23
   0  -7   4   81.56    4.20
   0  -7  -4   93.49    4.23
   0  -7  -4   97.11    4.26
   0   7  -4   83.73    4.25
   0   7   4   93.16    4.26
   0   7  -4   81.48    4.24
   0   7  -4   82.93    4.28
   0   7   4   95.47    4.23
   1  -7   4   48.14    2.68
  -1  -7  -4   45.88    2.76
   1  -7   4   49.59    2.60
   1  -7   4   50.45    2.63
   1  -7   4   51.32    2.64
  -1  -7  -4   52.55    2.60
  -1  -7  -4   52.75    2.61
  -1  -7  -4   56.00    2.75
   1   7   4   49.85    2.57
   1   7   4   51.92    2.74
   1   7   4   50.68    2.59
  -1   7  -4   56.92    2.92
   1   7   4   50.39    2.58
  -1   7  -4   56.18    3.03
  -1   7  -4   53.29    2.65
  -2  -7  -4   33.28    2.07
   2  -7   4   40.92    2.36
   2  -7   4   41.22    2.14
  -2  -7  -4   40.59    2.09
   2  -7   4   39.55    2.16
   2  -7   4   41.31    2.06
  -2  -7  -4   39.57    2.12
  -2  -7  -4   42.96    2.48
  -2   7  -4   41.14    2.18
   2   7   4   39.84    2.21
   2   7   4   42.35    2.13
  -2   7  -4   40.54    2.16
  -2   7  -4   39.95    2.33
  -2   7  -4   37.89    2.65
   2   7   4   40.42    2.06
   2   7   4   40.02    2.05
   3  -7   4   15.89    1.12
   3  -7   4   16.65    1.61
  -3  -7  -4   14.46    1.03
  -3  -7  -4   19.10    1.94
  -3  -7  -4   14.77    1.05
   3  -7   4   13.16    1.13
  -3  -7  -4   14.40    1.02
   3   7   4   14.57    0.98
  -3   7  -4   14.14    1.28
   3   7   4   15.12    0.92
  -3   7  -4   15.03    2.30
   3   7   4   16.77    1.20
  -4  -7  -4    5.39    2.10
   4  -7   4    4.04    0.58
   4  -7   4    4.18    1.11
   4   7   4    3.99    0.86
   4   7   4    4.60    0.65
  -4   7  -4    5.64    2.28
   4  -8  -4   13.25    1.45
   4  -8  -4   13.81    0.99
   4  -8  -4   12.45    1.53
   4  -8  -4   12.52    1.03
   4   8  -4   12.65    1.62
   4   8  -4   13.74    0.91
   3  -8  -4   36.43    2.19
   3  -8  -4   34.51    1.99
   3  -8  -4   35.23    1.98
  -3  -8   4   37.89    1.83
   3  -8  -4   33.92    2.38
  -3  -8   4   37.00    1.80
  -3  -8   4   34.49    1.84
   3  -8  -4   36.58    1.95
   3   8  -4   37.35    2.32
   3   8  -4   38.60    2.33
   2  -8  -4   29.75    1.58
   2  -8  -4   27.32    2.16
   2  -8  -4   29.93    1.61
  -2  -8   4   29.31    1.52
  -2  -8   4   29.40    1.53
   2  -8  -4   27.02    1.70
  -2  -8   4   28.54    1.75
   2  -8  -4   29.33    2.09
  -2   8   4   27.72    1.58
  -2   8   4   27.96    1.85
   2   8  -4   28.83    1.55
   2   8  -4   28.40    1.79
  -2   8   4   28.20    1.55
   2   8  -4   28.59    1.84
   1  -8  -4   44.21    2.42
   1  -8  -4   35.41    2.01
   1  -8  -4   42.23    2.32
   1  -8  -4   34.74    1.99
  -1   8   4   38.18    1.99
  -1   8   4   40.15    2.01
  -1   8   4   35.33    2.42
   0  -8  -4  109.16    5.03
   0  -8  -4   94.22    4.86
   0  -8  -4   91.89    4.93
   0  -8   4  114.74    4.89
   0  -8   4   96.32    4.87
   0  -8   4  107.41    4.87
   0  -8  -4   89.44    4.83
   0  -8   4  107.41    4.92
   0   8  -4  106.26    4.89
   0   8   4  109.36    5.07
   0   8   4   92.70    4.85
   0   8   4   91.41    4.82
   0   8   4   90.24    4.84
   0   8  -4   94.53    4.86
   0   8  -4  102.11    4.91
  -1  -8  -4   62.84    3.15
   1  -8   4   61.23    3.23
  -1  -8  -4   61.26    3.15
   1  -8   4   63.91    3.20
   1  -8   4   61.56    3.16
  -1  -8  -4   67.21    3.30
   1  -8   4   63.90    3.18
   1   8   4   64.31    3.30
   1   8   4   64.56    3.13
   1   8   4   63.66    3.14
   1   8   4   62.78    3.12
  -1   8  -4   62.03    3.45
  -1   8  -4   60.36    3.21
  -1   8  -4   62.68    3.20
  -1   8  -4   63.04    3.20
  -2  -8  -4   10.03    1.19
   2  -8   4    7.08    0.82
   2  -8   4    8.11    0.73
  -2  -8  -4    8.44    0.78
   2  -8   4    7.44    0.85
   2  -8   4    7.46    1.09
  -2  -8  -4    9.00    0.83
  -2   8  -4    8.11    0.89
   2   8   4   10.09    1.03
   2   8   4    9.11    0.73
   2   8   4    8.58    0.70
   2   8   4    8.41    0.69
  -2   8  -4    7.04    0.90
  -2   8  -4    8.07    1.57
  -3  -8  -4    0.20    0.38
   3  -8   4    0.50    0.37
  -3  -8  -4    0.08    0.39
  -3  -8  -4    1.37    1.11
   3  -8   4    0.40    0.45
   3  -8   4    0.01    0.47
  -3  -8  -4   -0.28    0.43
   3   8   4    0.44    0.35
  -3   8  -4   -0.29    0.38
  -3   8  -4    0.00    0.52
   3   8   4    0.28    0.28
  -3   8  -4    0.34    1.46
   3   8   4   -0.04    0.53
   4  -8   4    0.20    0.47
  -4  -8  -4    1.33    2.84
   4  -8   4    0.18    0.51
   4  -8   4    0.63    1.04
   4   8   4    0.55    0.39
  -4   8  -4    3.57    2.08
   4   8   4   -0.14    0.80
   4  -9  -4    4.46    0.93
   4  -9  -4    4.52    0.62
   4   9  -4    6.18    1.08
   3  -9  -4    0.26    0.40
   3  -9  -4    0.03    0.43
  -3  -9   4   -0.56    0.26
   3  -9  -4   -0.02    0.47
  -3  -9   4   -0.14    0.20
   3  -9  -4    0.56    0.62
   3   9  -4   -0.32    0.68
   3   9  -4   -0.50    0.76
   2  -9  -4    1.55    0.40
   2  -9  -4    2.05    0.95
   2  -9  -4    1.83    0.45
   2  -9  -4    2.02    0.81
  -2  -9   4    2.15    0.35
   2  -9  -4    1.26    0.50
  -2   9   4    1.61    0.69
  -2   9   4    1.39    0.39
  -2   9   4    0.87    0.50
   2   9  -4    2.25    0.39
  -1  -9   4   65.60    3.21
   1  -9  -4   59.77    3.20
   1  -9  -4   69.51    3.53
  -1  -9   4   64.53    3.20
   1  -9  -4   61.55    3.27
   1  -9  -4   57.91    3.52
   1  -9  -4   59.03    3.22
  -1  -9   4   67.82    3.33
   1   9  -4   67.11    3.23
  -1   9   4   67.06    3.34
   1   9  -4   65.85    3.28
  -1   9   4   61.34    3.21
   1   9  -4   72.60    3.36
  -1   9   4   59.71    3.19
   0  -9  -4  171.49    7.70
   0  -9  -4  193.66    7.74
   0  -9   4  156.55    7.77
   0  -9   4  150.79    7.65
   0  -9   4  160.57    7.75
   0  -9   4  153.07    7.69
   0   9  -4  153.90    7.71
   0   9  -4  152.56    7.76
   0   9  -4  152.75    7.70
   0   9  -4  153.39    7.74
   1  -9   4  150.51    7.47
   1  -9   4  155.47    7.49
   1  -9   4  151.40    7.52
  -1  -9  -4  153.99    7.45
  -1  -9  -4  160.87    7.60
   1  -9   4  155.20    7.50
  -1  -9  -4  152.23    7.46
   1   9   4  153.95    7.45
   1   9   4  161.15    7.44
   1   9   4  157.16    7.60
  -1   9  -4  155.16    7.51
  -1   9  -4  148.18    7.52
  -1   9  -4  152.65    7.72
  -1   9  -4  153.39    7.50
   1   9   4  160.87    7.44
   2  -9   4   58.28    3.00
  -2  -9  -4   56.33    2.98
   2  -9   4   57.26    3.17
   2  -9   4   55.55    2.90
   2  -9   4   59.74    2.97
  -2  -9  -4   61.24    3.23
  -2  -9  -4   56.54    2.91
   2   9   4   56.95    3.06
   2   9   4   58.07    2.89
  -2   9  -4   58.70    3.00
  -2   9  -4   54.23    3.53
  -2   9  -4   51.85    3.06
   2   9   4   56.52    2.88
  -2   9  -4   58.08    3.01
   2   9   4   57.48    2.88
  -3  -9  -4   11.94    0.98
   3  -9   4   12.41    0.93
  -3  -9  -4   10.94    0.95
  -3  -9  -4   10.90    1.00
   3  -9   4   12.37    1.10
   3  -9   4   10.79    1.06
   3  -9   4   11.67    1.57
   3   9   4   13.35    0.91
   3   9   4   12.76    0.84
   3   9   4   10.44    1.17
  -3   9  -4   13.10    1.17
   4  -9   4    1.99    0.57
   4  -9   4    3.06    1.10
   4  -9   4    2.19    0.61
  -4  -9  -4    4.34    1.68
   4   9   4    2.77    1.00
  -4   9  -4    4.31    2.29
   4 -10  -4   -0.29    0.43
   4 -10  -4    0.18    0.78
   4 -10  -4   -0.74    0.48
   4  10  -4    0.37    0.89
  -3 -10   4    7.23    0.66
   3 -10  -4    6.86    0.92
  -3 -10   4    8.03    0.60
   3 -10  -4    7.42    0.96
   3 -10  -4    9.74    1.23
   3 -10  -4    7.89    0.84
   3 -10  -4   10.17    1.02
   3  10  -4    8.87    1.31
   3  10  -4    7.56    1.11
  -2 -10   4   35.62    1.85
   2 -10  -4   34.99    1.91
   2 -10  -4   35.35    2.61
   2 -10  -4   33.35    2.48
   2 -10  -4   34.07    1.94
   2 -10  -4   32.95    2.34
  -2 -10   4   34.32    1.86
   2 -10  -4   34.61    2.01
   2  10  -4   35.24    2.03
   2  10  -4   37.38    2.16
   1 -10  -4   22.75    1.44
   1 -10  -4   23.47    1.41
   1 -10  -4   24.64    1.53
  -1 -10   4   24.12    1.57
   1 -10  -4   24.07    1.80
   1 -10  -4   25.86    1.76
  -1 -10   4   24.74    1.39
  -1 -10   4   24.32    1.39
   1  10  -4   24.58    1.44
   1  10  -4   23.70    1.59
   1  10  -4   23.21    1.42
  -1  10   4   22.89    1.38
  -1  10   4   23.93    1.36
  -1  10   4   23.97    1.98
  -1  10   4   26.34    1.57
   0 -10   4   54.85    2.78
   0 -10   4   55.69    2.89
   0 -10  -4   55.25    3.04
   0 -10  -4   52.23    2.96
   0 -10  -4   55.92    2.82
   0 -10   4   56.60    2.86
   0 -10  -4   56.55    2.85
   0 -10   4   55.87    2.84
   0  10   4   53.49    3.10
   0  10  -4   55.38    2.91
   0  10  -4   58.24    2.88
   0  10   4   55.54    2.82
   0  10  -4   54.41    2.93
   0  10  -4   55.23    2.86
   0  10   4   54.30    2.90
   0  10   4   57.53    2.80
   1 -10   4   28.15    1.76
   1 -10   4   29.71    1.71
  -1 -10  -4   29.61    2.05
   1 -10   4   29.56    1.70
   1 -10   4   31.78    1.75
  -1 -10  -4   33.71    1.69
  -1  10  -4   29.02    1.74
  -1  10  -4   28.02    1.81
  -1  10  -4   29.06    1.77
  -1  10  -4   29.43    2.07
   2 -10   4   14.75    1.18
   2 -10   4   13.56    1.03
   2 -10   4   13.88    1.10
   2 -10   4   14.88    1.39
  -2 -10  -4   13.75    1.04
  -2 -10  -4   12.60    1.08
  -2 -10  -4   13.61    1.03
  -2 -10  -4   15.15    1.38
   2  10   4   13.34    1.08
  -2  10  -4   14.15    1.17
  -2  10  -4   12.47    1.32
   2  10   4   13.49    1.00
   2  10   4   14.36    1.34
  -2  10  -4   15.44    1.89
   2  10   4   14.92    0.95
   3 -10   4    1.40    0.86
  -3 -10  -4    1.71    1.12
  -3 -10  -4    1.79    0.51
   3 -10   4    1.58    0.54
   3 -10   4    1.31    0.47
  -3 -10  -4    0.61    0.49
   3 -10   4    1.57    0.54
  -3 -10  -4    1.25    0.46
  -3  10  -4    0.76    0.59
   3  10   4    1.68    0.70
   3  10   4    1.37    0.42
  -3  10  -4    0.63    0.53
  -3  10  -4    2.94    1.64
   3  10   4    2.15    0.41
   4 -10   4    0.43    0.52
   4 -10   4   -0.20    0.59
  -4 -10  -4    0.79    1.53
   4 -10   4    2.35    1.09
  -4  10  -4    2.29    2.34
   4 -11  -4    0.66    0.83
   4 -11  -4    0.47    0.57
   4 -11  -4    0.85    0.54
   4  11  -4    0.42    0.94
   3 -11  -4    5.34    0.75
  -3 -11   4    5.21    0.54
   3 -11  -4    4.90    0.81
   3 -11  -4    5.53    0.71
  -3 -11   4    4.63    0.61
   3 -11  -4    5.14    0.82
   3 -11  -4    5.60    0.74
   3  11  -4    5.33    1.24
   3  11  -4    6.09    1.03
   2 -11  -4   32.42    1.95
  -2 -11   4   32.41    1.75
   2 -11  -4   31.69    2.46
   2 -11  -4   33.08    1.82
   2 -11  -4   33.05    1.86
   2 -11  -4   29.26    1.88
   2  11  -4   32.05    2.07
   1 -11  -4   81.89    3.97
  -1 -11   4   74.68    3.88
  -1 -11   4   76.38    3.90
   1 -11  -4   82.02    4.26
   1 -11  -4   77.99    3.90
   1 -11  -4   79.64    3.93
  -1 -11   4   77.33    4.04
   1 -11  -4   72.14    4.17
  -1  11   4   76.91    4.30
   1  11  -4   71.67    4.25
   1  11  -4   78.72    3.90
  -1  11   4   85.73    4.04
   1  11  -4   78.74    3.90
  -1  11   4   76.92    3.88
  -1  11   4   76.04    3.88
   0 -11  -4   42.44    2.20
   0 -11   4   41.14    2.24
   0 -11   4   39.73    2.16
   0 -11  -4   41.38    2.47
   0 -11  -4   42.44    2.24
   0 -11  -4   39.41    2.39
   0 -11   4   41.19    2.22
   0 -11   4   41.24    2.29
   0  11   4   41.39    2.20
   0  11  -4   41.63    2.39
   0  11   4   40.30    2.55
   0  11  -4   41.72    2.28
   0  11   4   43.06    2.27
   0  11   4   41.61    2.23
   0  11  -4   41.35    2.27
   0  11  -4   43.28    2.32
  -1 -11  -4   66.88    3.50
  -1 -11  -4   65.37    3.31
   1 -11   4   64.10    3.38
  -1 -11  -4   62.30    3.32
   1 -11   4   66.21    3.38
   1 -11   4   64.75    3.35
   1 -11   4   63.67    3.35
  -1  11  -4   67.61    3.40
  -1  11  -4   63.58    3.61
  -1  11  -4   65.86    3.39
   1  11   4   65.29    3.30
   1  11   4   66.87    3.27
  -1  11  -4   63.73    3.47
   1  11   4   68.54    3.29
   1  11   4   65.75    3.57
   2 -11   4   35.95    2.13
  -2 -11  -4   36.58    2.28
   2 -11   4   36.29    2.01
  -2 -11  -4   37.85    2.12
   2 -11   4   35.54    2.25
  -2 -11  -4   35.96    2.01
   2 -11   4   36.24    2.07
  -2 -11  -4   35.65    1.99
  -2  11  -4   33.74    2.28
   2  11   4   37.37    2.26
   2  11   4   37.17    1.96
  -2  11  -4   35.59    2.15
   2  11   4   37.64    1.96
  -2  11  -4   36.33    2.13
  -2  11  -4   37.66    2.79
   2  11   4   35.81    1.96
  -3 -11  -4    7.61    0.99
   3 -11   4    8.40    1.10
  -3 -11  -4    7.08    0.98
  -3 -11  -4    6.91    0.89
  -3 -11  -4    9.03    1.51
   3 -11   4    9.51    1.56
   3 -11   4    8.84    0.98
   3 -11   4    7.67    0.95
   3 -11   4    7.37    0.88
  -3  11  -4   10.62    2.24
   3  11   4    8.02    0.75
   3  11   4    8.01    1.01
  -3  11  -4    8.04    1.02
  -3  11  -4    8.17    1.10
   3  11   4    8.40    0.80
   4 -11   4    1.10    0.61
   4 -11   4    1.67    1.15
   4 -11   4    0.99    0.65
  -4 -11  -4    1.69    1.55
  -4  11  -4    2.45    2.53
   4 -12  -4   -0.08    0.85
   4 -12  -4    0.65    0.62
   4 -12  -4   -0.92    0.52
   4  12  -4   -0.51    0.96
   3 -12  -4    3.51    0.78
   3 -12  -4    3.21    0.62
   3 -12  -4    2.08    0.58
   3 -12  -4    3.26    0.67
  -3 -12   4    2.87    0.46
   3 -12  -4    3.68    0.81
  -3 -12   4    1.89    0.49
   3  12  -4    2.03    0.93
   3  12  -4    3.28    0.90
   2 -12  -4    2.12    0.61
   2 -12  -4    1.87    1.36
  -2 -12   4    1.40    0.40
  -2 -12   4    1.36    0.46
   2 -12  -4    1.58    0.52
   2 -12  -4    2.41    0.59
   2 -12  -4    1.87    0.54
   2  12  -4    1.40    0.58
   2  12  -4    1.20    0.73
  -1 -12   4    1.00    0.59
   1 -12  -4    1.41    0.85
  -1 -12   4    0.57    0.44
   1 -12  -4    1.20    0.54
   1 -12  -4    0.85    0.46
   1 -12  -4    0.76    0.42
   1  12  -4    0.54    0.48
  -1  12   4    1.23    0.92
   1  12  -4    1.44    0.67
   1  12  -4    0.87    0.49
  -1  12   4    1.21    0.40
  -1  12   4    1.52    0.65
   0 -12  -4   18.76    1.27
   0 -12   4   18.60    1.32
   0 -12   4   18.12    1.25
   0 -12   4   16.92    1.13
   0 -12  -4   18.50    1.61
   0 -12   4   17.79    1.25
   0 -12  -4   17.95    1.20
   0 -12  -4   18.39    1.53
   0  12  -4   16.01    1.25
   0  12   4   18.02    1.14
   0  12   4   19.26    1.22
   0  12  -4   18.37    1.50
   0  12   4   18.52    1.19
   0  12  -4   18.85    1.38
   0  12   4   17.66    1.70
   0  12  -4   17.26    1.32
   1 -12   4   31.27    1.82
  -1 -12  -4   29.19    1.72
  -1 -12  -4   29.20    1.92
   1 -12   4   28.09    1.76
  -1 -12  -4   29.49    1.96
   1 -12   4   30.45    1.83
   1 -12   4   29.37    1.79
  -1  12  -4   26.91    1.86
  -1  12  -4   28.81    2.00
   1  12   4   33.32    1.68
   1  12   4   29.83    2.16
  -1  12  -4   30.17    1.86
   1  12   4   30.76    1.72
  -1  12  -4   29.39    2.12
   1  12   4   31.53    1.69
  -2 -12  -4   14.44    1.37
  -2 -12  -4   14.18    1.37
   2 -12   4   14.33    1.14
  -2 -12  -4   15.33    1.13
  -2 -12  -4   12.81    1.10
   2 -12   4   14.32    1.31
   2 -12   4   15.81    1.45
   2 -12   4   13.62    1.19
   2  12   4   15.14    1.06
  -2  12  -4   13.68    1.32
   2  12   4   14.43    1.49
   2  12   4   17.67    1.07
  -2  12  -4   16.47    2.06
   2  12   4   14.97    1.06
  -2  12  -4   13.72    1.57
  -2  12  -4   14.04    1.33
   3 -12   4    0.97    0.52
  -3 -12  -4    2.49    0.61
   3 -12   4    2.73    0.94
   3 -12   4    0.90    0.59
  -3 -12  -4    2.90    1.07
   3 -12   4    1.84    0.64
   3 -12   4    1.80    0.56
  -3  12  -4    1.61    0.68
  -3  12  -4    2.16    1.04
   3  12   4    1.05    0.44
  -3  12  -4    3.95    1.84
   3  12   4    2.38    0.87
   4 -12   4    0.19    1.07
   4 -12   4   -0.12    0.57
   4 -12   4   -0.61    0.66
  -4  12  -4   -0.55    2.30
   4 -13  -4    0.51    0.67
   4 -13  -4    0.74    0.61
   4 -13  -4    0.74    0.96
   4  13  -4    1.55    1.11
   3 -13  -4   -0.53    0.55
   3 -13  -4    0.34    0.69
   3 -13  -4    1.20    0.67
   3  13  -4    0.70    0.89
   2 -13  -4   10.01    1.17
   2 -13  -4   13.34    1.36
   2 -13  -4   11.68    1.14
  -2 -13   4   10.85    0.88
  -2 -13   4   12.86    1.04
   2 -13  -4   12.89    1.11
   2  13  -4   13.10    1.52
   2  13  -4   10.55    0.89
   1 -13  -4   13.29    1.14
  -1 -13   4   12.06    1.09
   1 -13  -4   12.47    1.07
   1 -13  -4   12.48    1.24
   1 -13  -4   13.95    1.45
   1  13  -4   12.62    1.08
   1  13  -4   13.32    1.38
  -1  13   4   13.43    1.04
  -1  13   4   11.98    1.90
   0 -13  -4   49.37    2.75
   0 -13  -4   50.98    2.61
   0 -13  -4   46.92    2.79
   0 -13  -4   49.15    2.63
   0 -13   4   47.97    2.82
   0 -13   4   50.75    2.66
   0 -13   4   47.28    2.51
   0  13   4   45.99    2.97
   0  13   4   48.50    2.56
   0  13  -4   48.52    2.67
   0  13   4   49.67    2.61
   0  13   4   48.38    2.54
   0  13  -4   48.75    2.66
   0  13  -4   49.29    2.66
   0  13  -4   47.76    2.82
  -1 -13  -4   82.37    4.06
   1 -13   4   78.63    4.13
   1 -13   4   70.46    4.26
   1 -13   4   80.33    4.11
   1 -13   4   83.76    4.15
  -1 -13  -4   85.00    4.12
  -1 -13  -4   67.02    4.39
   1  13   4   84.24    4.03
   1  13   4   84.31    4.06
  -1  13  -4   79.31    4.35
  -1  13  -4   80.44    4.27
   1  13   4   87.78    4.41
  -1  13  -4   82.67    4.14
  -1  13  -4   79.50    4.14
   1  13   4   81.18    4.01
   2 -13   4   94.77    4.94
  -2 -13  -4   91.17    4.84
   2 -13   4   96.06    4.85
  -2 -13  -4   95.84    4.75
   2 -13   4   94.90    4.83
  -2 -13  -4   91.34    4.74
   2 -13   4   89.44    4.77
  -2  13  -4   92.73    5.00
   2  13   4   88.24    4.76
  -2  13  -4   96.02    4.85
  -2  13  -4   95.90    4.87
  -2  13  -4   99.39    5.37
   2  13   4  107.87    4.82
   2  13   4   96.33    4.71
   2  13   4   94.18    4.97
  -3 -13  -4   23.71    1.98
   3 -13   4   24.00    1.68
   3 -13   4   25.57    2.10
   3 -13   4   23.55    1.70
  -3 -13  -4   22.46    1.60
  -3  13  -4   22.51    2.93
  -3  13  -4   24.18    1.79
  -3  13  -4   25.77    2.34
   3  13   4   23.52    1.98
   4 -13   4    4.02    0.81
   4 -13   4    4.80    1.43
   4 -13   4    3.86    0.89
  -4  13  -4    5.49    2.69
   4 -14  -4   -0.15    1.02
   4 -14  -4   -0.50    0.74
   4 -14  -4    0.64    0.70
   4  14  -4    0.20    1.10
   3 -14  -4    0.86    0.59
   3 -14  -4    0.33    0.75
   3 -14  -4    0.42    0.61
   3  14  -4   -0.44    0.91
  -2 -14   4    1.09    0.55
   2 -14  -4    0.23    0.66
   2 -14  -4    1.14    0.67
   2 -14  -4    1.31    0.70
   2 -14  -4    0.49    0.57
   2 -14  -4    1.24    0.55
   2  14  -4    1.80    0.89
   1 -14  -4   23.10    1.57
  -1 -14   4   20.92    1.52
   1 -14  -4   22.35    1.80
   1 -14  -4   23.10    1.67
   1 -14  -4   22.79    1.50
   1  14  -4   22.20    1.90
  -1  14   4   24.97    2.53
  -1  14   4   24.43    1.53
   0 -14  -4   27.20    1.77
   0 -14  -4   25.89    1.62
   0 -14   4   23.90    1.49
   0 -14  -4   25.75    1.65
   0 -14   4   25.62    1.68
   0 -14   4   24.23    1.73
   0 -14  -4   26.28    1.94
   0  14  -4   26.33    1.70
   0  14   4   27.48    1.56
   0  14  -4   25.28    1.70
   0  14   4   24.80    2.16
   0  14  -4   27.28    1.69
   0  14  -4   25.33    1.94
   0  14   4   25.43    1.58
   1 -14   4    0.37    0.53
  -1 -14  -4    0.58    0.57
  -1 -14  -4    0.51    0.45
  -1 -14  -4   -0.36    0.85
   1 -14   4    1.08    0.53
  -1  14  -4    0.42    0.65
   1  14   4    1.12    0.51
   1  14   4    0.07    0.42
  -1  14  -4    1.07    0.99
   1  14   4    0.48    0.92
  -1  14  -4    0.86    0.83
   1  14   4    0.84    0.39
  -1  14  -4    0.15    0.60
   2 -14   4   27.57    1.88
   2 -14   4   29.05    1.87
  -2 -14  -4   28.57    1.85
  -2 -14  -4   30.30    1.73
   2 -14   4   24.84    1.97
   2 -14   4   27.23    1.81
  -2 -14  -4   31.43    1.74
   2 -14   4   27.50    1.92
  -2  14  -4   25.05    2.19
  -2  14  -4   26.22    1.92
   2  14   4   27.46    1.63
   2  14   4   27.24    1.66
  -2  14  -4   28.15    2.62
   3 -14   4   13.08    1.30
   3 -14   4   11.30    1.35
   3 -14   4   13.14    1.80
  -3 -14  -4   12.69    1.59
  -3  14  -4   14.13    2.90
   3  14   4   15.56    1.82
  -3  14  -4   12.99    1.47
   4 -14   4    0.21    0.70
   4 -14   4   -0.07    1.42
   4 -14   4    0.10    0.87
  -4  14  -4    1.89    2.59
   4 -15  -4    2.41    1.15
   4 -15  -4    2.39    0.83
   4  15  -4    3.44    1.33
   3 -15  -4   10.57    1.17
   3 -15  -4    8.20    0.97
   3 -15  -4   10.40    1.51
   3  15  -4    7.94    1.28
  -2 -15   4    6.51    0.75
   2 -15  -4    8.90    1.14
   2 -15  -4    5.40    0.87
   2 -15  -4    7.95    1.04
   2 -15  -4    5.98    0.92
   2  15  -4    6.18    1.12
   1 -15  -4   22.37    1.53
   1 -15  -4   21.29    1.64
  -1 -15   4   16.53    1.37
   1 -15  -4   19.21    1.46
   1 -15  -4   24.00    1.83
   1  15  -4   16.53    2.24
  -1  15   4   21.40    2.94
   0 -15  -4   57.54    3.07
   0 -15   4   60.11    3.14
   0 -15   4   53.42    2.96
   0 -15  -4   59.29    3.12
   0 -15  -4   60.11    3.33
   0 -15  -4   58.28    3.18
   0  15  -4   59.21    3.15
   0  15  -4   57.34    3.09
   0  15   4   58.42    3.05
   0  15   4   58.27    3.54
   0  15  -4   57.18    3.38
   1 -15   4   12.10    1.34
   1 -15   4   13.51    1.33
   1 -15   4   13.57    1.24
  -1  15  -4   13.66    1.63
  -1  15  -4   12.06    1.39
  -1  15  -4   15.73    1.84
   1  15   4   18.03    1.12
   2 -15   4    1.23    0.68
   2 -15   4    0.44    0.67
  -2 -15  -4    1.87    0.57
  -2 -15  -4    1.83    0.53
   2 -15   4    0.04    1.25
   2 -15   4    0.99    0.63
  -2  15  -4   -0.56    0.98
   2  15   4    0.97    0.53
   2  15   4    4.85    1.17
   2  15   4    1.78    0.48
  -2  15  -4    1.84    1.53
  -2  15  -4    0.76    0.72
   3 -15   4    9.28    1.02
   3 -15   4    7.79    1.20
   3 -15   4    6.24    0.97
  -3  15  -4    7.68    1.60
   3  15   4    9.96    1.40
  -3  15  -4   11.12    2.42
   3 -16  -4    7.02    0.94
   3 -16  -4    6.93    1.09
   3 -16  -4    6.91    0.93
   3  16  -4    8.11    1.29
   2 -16  -4   18.11    1.71
   2 -16  -4   16.63    1.47
   2 -16  -4   18.66    1.58
  -2 -16   4   17.94    1.39
  -2  16   4   19.21    2.66
   2  16  -4   22.54    2.05
  -1 -16   4   56.14    3.07
  -1 -16   4   57.76    3.15
   1 -16  -4   60.06    3.16
   1 -16  -4   56.39    3.10
   1 -16  -4   58.75    3.34
  -1  16   4   57.27    3.80
   1  16  -4   54.09    3.41
   0 -16  -4   47.21    2.66
   0 -16  -4   47.82    2.62
   0 -16   4   42.02    2.48
   0 -16   4   46.57    2.65
   0 -16  -4   48.58    2.65
   0 -16   4   48.88    2.68
   0 -16  -4   47.62    2.91
   0  16   4   47.63    2.58
   0  16   4   46.66    3.22
   0  16  -4   47.72    3.12
   1 -16   4   -0.17    0.63
   1 -16   4    0.34    0.57
  -1 -16  -4   -1.10    0.95
   1 -16   4   -0.70    0.55
  -1 -16  -4   -0.20    0.56
  -1 -16  -4   -0.11    0.51
   1 -16   4   -0.14    0.70
   1  16   4    0.84    0.53
   1  16   4    1.52    1.20
  -1  16  -4    0.86    0.98
   1  16   4    0.61    0.51
  -1  16  -4    0.39    1.14
   2 -16   4   15.34    1.39
   2 -16   4   17.51    1.54
  -2 -16  -4   16.17    1.33
   2 -16   4   14.22    1.52
  -2  16  -4   13.02    2.06
   2  16   4   17.89    2.04
  -2  16  -4   16.54    2.37
   3 -16   4    3.72    0.86
   3 -16   4    3.84    1.05
   3 -16   4    4.01    0.88
  -3  16  -4    5.30    1.60
  -3  16  -4    4.25    2.15
   3  16   4    4.70    1.32
   3 -17  -4    3.05    0.83
   3 -17  -4    2.28    0.91
   3 -17  -4    2.15    0.79
   3  17  -4    2.62    1.32
   2 -17  -4    0.38    0.82
   2 -17  -4    0.95    0.72
   2 -17  -4    0.76    0.65
  -2 -17   4   -0.44    0.60
   2  17  -4   -0.66    1.07
  -2  17   4   -0.24    1.45
  -1 -17   4    2.79    0.68
   1 -17  -4    3.26    1.06
   1 -17  -4    3.34    0.70
  -1 -17   4    3.70    0.81
   1 -17  -4    3.18    0.85
   1 -17  -4    4.50    0.82
   1  17  -4    3.54    1.10
   0 -17   4   11.67    1.35
   0 -17  -4   15.04    1.26
   0 -17   4   12.98    1.26
   0 -17  -4   14.74    1.27
   0 -17  -4   15.43    1.75
   0 -17   4   10.75    1.08
   0 -17  -4   13.68    1.31
   0  17   4   11.89    1.18
   0  17  -4   13.69    1.56
   0  17  -4   13.53    1.16
   0  17   4   15.14    2.15
  -1 -17  -4   15.83    1.30
   1 -17   4   13.81    1.28
   1 -17   4   18.01    1.54
   1 -17   4   15.34    1.43
  -1 -17  -4   16.99    1.42
  -1  17  -4   14.83    1.78
   1  17   4   16.13    1.45
   1  17   4   14.18    2.21
  -1  17  -4   14.80    2.01
   2 -17   4   14.89    1.58
   2 -17   4   14.62    1.44
  -2 -17  -4   13.53    1.33
   2 -17   4   14.97    1.55
   2  17   4   15.18    2.19
  -2  17  -4   17.05    2.42
  -2  17  -4   12.01    2.50
   3 -17   4    2.11    0.93
   3 -17   4    1.20    0.95
   3 -17   4    2.03    0.85
  -3  17  -4    1.25    1.61
  -3  17  -4    3.41    2.20
   3  17   4    1.20    1.36
   3 -18  -4    1.37    0.86
   3 -18  -4    0.22    0.81
   3 -18  -4    1.08    1.01
   3  18  -4    1.37    1.36
   2 -18  -4    0.94    0.74
   2 -18  -4    0.89    0.86
  -2 -18   4    0.80    0.68
   2 -18  -4    0.48    0.69
  -2  18   4    1.22    1.53
   2  18  -4    0.94    1.16
   1 -18  -4    2.37    0.79
   1 -18  -4    1.62    0.66
   1 -18  -4    1.78    0.82
  -1 -18   4    0.91    0.66
  -1 -18   4    1.05    0.73
  -1  18   4    2.28    1.38
   1  18  -4    0.96    1.08
   0 -18  -4    1.07    0.61
   0 -18  -4    2.83    0.69
   0 -18   4    1.28    0.81
   0 -18   4    1.12    0.72
   0 -18   4    0.83    0.55
   0 -18  -4    2.53    1.16
   0  18   4    0.68    0.72
   0  18  -4    3.03    1.11
  -1 -18  -4   -0.81    1.18
   1 -18   4    0.41    0.77
  -1 -18  -4    1.22    0.64
  -1 -18  -4    0.21    0.71
   1 -18   4    1.35    0.71
   1 -18   4    1.00    0.66
  -1  18  -4   -0.08    1.70
  -1  18  -4    0.09    1.12
   1  18   4    0.57    1.32
   2 -18   4    0.77    0.77
   2 -18   4    0.99    0.76
   2 -18   4    0.23    0.73
  -2 -18  -4   -0.36    0.66
  -2  18  -4   -1.01    1.24
   2  18   4   -1.54    1.25
  -2  18  -4   -0.25    1.58
   3 -18   4    0.87    0.97
   3 -18   4    0.12    0.99
   3 -18   4    0.49    0.87
  -3  18  -4   -0.59    2.14
   3  18   4    1.82    1.46
  -3  18  -4    1.68    1.91
  -2 -19   4    1.85    0.95
   2 -19  -4    2.14    0.83
   2 -19  -4    2.29    0.97
   2 -19  -4    3.08    0.87
  -2  19   4    4.90    1.84
   2  19  -4    2.35    1.35
   1 -19  -4   20.09    1.77
   1 -19  -4   18.54    1.80
   1 -19  -4   18.74    1.58
  -1 -19   4   24.10    1.66
  -1  19   4   22.20    2.99
   0 -19  -4    6.99    1.25
   0 -19   4    6.66    0.93
   0 -19  -4    8.42    1.00
   0 -19   4    5.75    0.84
   0 -19   4    7.92    1.03
   0 -19  -4    8.59    1.01
   0  19   4    9.67    1.79
   0  19  -4    7.72    1.49
   1 -19   4   14.26    1.36
   1 -19   4   11.62    1.44
  -1 -19  -4    9.24    1.33
  -1 -19  -4   12.25    1.57
   1 -19   4   14.17    1.86
   1  19   4   13.42    2.03
  -1  19  -4   17.43    2.19
  -1  19  -4   14.17    1.86
  -2 -19  -4    5.87    0.97
   2 -19   4    6.27    1.03
   2 -19   4    5.32    1.01
   2 -19   4    6.11    0.96
   2  19   4    7.45    1.69
  -2  19  -4    6.49    2.05
  -2  19  -4    4.56    1.45
   2 -20  -4    7.27    1.11
   2 -20  -4    8.39    1.24
   2 -20  -4    8.81    1.17
  -2  20   4    7.96    2.15
   2  20  -4    8.73    1.71
   1 -20  -4   10.64    1.32
  -1 -20   4    9.12    1.11
   1 -20  -4    9.45    1.14
   1 -20  -4    9.40    1.24
   1  20  -4   11.24    1.73
  -1  20   4   11.67    2.00
   0 -20   4   18.40    1.68
   0 -20   4   13.00    1.31
   0 -20   4   15.76    1.54
   0  20  -4   21.43    2.39
   1 -20   4   10.28    1.48
  -1 -20  -4   10.38    1.29
   1 -20   4   11.50    1.41
  -1  20  -4    7.98    1.49
   1  20   4   10.00    1.85
   2 -20   4    3.47    0.93
   2 -20   4    4.52    1.01
   2 -20   4    4.43    1.08
  -2  20  -4    5.46    1.57
   2  20   4    5.50    1.79
   2 -21  -4    1.87    0.94
   2 -21  -4    0.10    1.02
   2 -21  -4   -0.07    1.09
   2  21  -4   -1.42    1.69
  -2  21   4    1.83    2.18
   1 -21  -4    0.62    0.80
   1 -21  -4    0.52    0.86
  -1 -21   4    1.34    0.84
   1 -21  -4    1.20    1.00
  -1  21   4   -0.90    1.66
   1  21  -4    3.62    1.47
   0 -21  -4    4.31    1.00
   0 -21   4    1.75    1.06
   0 -21  -4    1.77    1.12
   0 -21  -4    4.28    0.90
   0  21   4    7.47    1.86
   0  21  -4    2.39    1.44
  -1 -21  -4    1.54    0.71
   1 -21   4    1.76    0.89
   1 -21   4    0.80    0.79
   1 -21   4   -0.07    0.96
  -1 -21  -4   -0.66    1.35
   1  21   4    3.78    1.78
  -1  21  -4    0.36    1.22
   1 -22  -4   13.37    1.75
   1 -22  -4   15.01    1.98
  -1 -22   4   14.73    1.65
   1 -22  -4   13.73    1.73
  -1  22   4   12.04    2.45
   1  22  -4   14.07    2.17
   0 -22  -4    4.98    0.95
   0 -22  -4    5.34    1.41
   0 -22   4    5.53    1.01
   0  22  -4    2.55    1.60
   0  22   4    4.94    1.93
   1 -22   4    4.59    1.18
  -1 -22  -4    3.05    1.76
  -1 -22  -4    4.66    0.91
   1 -22   4    4.39    1.11
   1 -22   4    3.71    0.90
   1  22   4    7.53    2.20
  -1  22  -4    3.01    1.51
   5   0  -5    0.45    0.82
   5   0  -5    0.23    1.21
   4   0  -5   -0.89    0.69
   4   0  -5   -0.29    0.53
  -3   0   5    0.22    0.16
  -3   0   5    1.25    0.43
   3   0  -5   -0.17    0.22
   3   0  -5    0.56    0.38
  -3   0   5    0.13    0.20
   2   0  -5   -0.23    0.22
   2   0  -5    0.01    0.24
   2   0  -5    0.20    0.26
   2   0  -5    0.11    0.75
  -2   0   5   -0.17    0.32
  -2   0   5   -0.27    0.15
  -2   0   5   -0.26    0.18
   1   0  -5   -0.31    0.22
   1   0  -5   -0.36    0.24
  -1   0   5   -0.41    0.16
  -1   0   5   -0.10    0.18
   1   0  -5   -0.50    0.22
   0   0  -5   -0.18    0.28
   0   0   5   -0.22    0.20
   0   0  -5   -0.08    0.28
   0   0  -5   -0.25    0.24
   0   0   5    0.16    0.20
   0   0   5   -0.25    0.20
   1   0   5   -0.28    0.23
  -1   0  -5   -0.16    0.28
  -1   0  -5   -0.09    0.28
   2   0   5   -0.34    0.25
  -2   0  -5    1.31    0.90
  -2   0  -5   -0.83    0.31
   2   0   5   -0.58    0.29
  -3   0  -5    0.18    0.42
   3   0   5   -0.13    0.39
  -3   0  -5   -0.19    0.33
  -3   0  -5    1.01    1.14
   3   0   5   -0.65    0.31
  -4   0  -5    2.80    1.78
   5   0   5    0.42    1.09
  -5   0  -5    1.56    2.76
   5  -1  -5    0.56    0.89
   5  -1  -5    1.85    1.44
   5   1  -5   -0.25    0.92
   5   1  -5    0.87    0.75
   4  -1  -5    1.71    0.59
   4  -1  -5    1.19    0.78
   4   1  -5    2.89    0.82
   4   1  -5    1.95    0.57
   3  -1  -5   11.16    0.75
   3  -1  -5   11.74    0.96
  -3  -1   5   12.02    0.68
  -3   1   5   13.73    1.04
   3   1  -5   11.76    0.71
   3   1  -5   10.39    1.23
  -3   1   5   12.40    0.70
   3   1  -5   11.52    0.89
  -3   1   5   10.99    0.69
   2  -1  -5  100.24    4.90
  -2  -1   5  105.33    4.85
   2  -1  -5  101.98    5.38
  -2  -1   5  100.79    4.85
   2  -1  -5   99.77    4.87
  -2  -1   5  103.38    4.97
   2  -1  -5   99.65    4.89
   2   1  -5  101.18    4.87
  -2   1   5   99.00    4.86
   2   1  -5  101.54    4.86
  -2   1   5  101.49    5.01
  -2   1   5  102.89    4.86
   2   1  -5  101.40    5.33
   2   1  -5   99.36    4.87
  -1  -1   5  215.82   10.34
  -1  -1   5  229.71   10.31
   1  -1  -5  214.69   10.32
   1  -1  -5  213.94   10.33
   1  -1  -5  208.48   10.31
  -1  -1   5  221.30   10.30
  -1   1   5  228.53   10.38
   1   1  -5  207.73   10.30
   1   1  -5  209.75   10.32
   1   1  -5  209.87   10.31
  -1   1   5  221.79   10.31
  -1   1   5  222.24   10.30
   0  -1  -5  182.64    9.09
   0  -1   5  166.85    9.13
   0  -1  -5  183.37    9.13
   0  -1   5  204.33    9.08
   0  -1  -5  186.05    9.13
   0   1  -5  188.13    9.09
   0   1   5  202.23    9.08
   0   1   5  199.70    9.07
   0   1  -5  191.23    9.10
   0   1   5  201.47    9.08
  -1  -1  -5  211.13    9.91
   1  -1   5  202.63    9.93
  -1  -1  -5  211.27    9.91
   1  -1   5  210.05    9.90
  -1  -1  -5  196.94    9.90
  -1   1  -5  202.62    9.91
   1   1   5  208.73    9.89
   1   1   5  218.68    9.89
   1   1   5  212.41    9.93
  -1   1  -5  204.67    9.90
  -1   1  -5  204.09    9.84
   2  -1   5  118.73    5.57
  -2  -1  -5  115.41    6.00
  -2  -1  -5  111.41    5.61
   2  -1   5  116.01    5.59
  -2   1  -5  113.58    5.61
   2   1   5  119.78    5.56
  -2   1  -5  108.98    5.61
  -2   1  -5  118.29    6.05
   2   1   5  116.91    5.58
   3  -1   5   52.00    2.63
   3  -1   5   53.58    2.69
  -3  -1  -5   50.56    2.71
  -3  -1  -5   51.63    2.68
  -3  -1  -5   55.59    3.51
  -3   1  -5   51.92    2.74
  -3   1  -5   57.32    3.57
   3   1   5   55.32    2.66
   3   1   5   49.40    2.61
  -3   1  -5   51.14    2.73
   4  -1   5    6.03    0.82
  -4  -1  -5   10.57    2.35
   4   1   5    6.84    0.76
  -5  -1  -5    2.15    2.48
   5  -1   5   -0.90    1.14
  -5   1  -5    1.77    2.91
   5   1   5    0.22    1.08
   5  -2  -5    1.28    1.56
   5  -2  -5   -0.52    0.75
   5   2  -5   -0.41    0.73
   5   2  -5    0.72    0.95
   4  -2  -5   -0.29    0.58
   4   2  -5    0.58    0.73
   4   2  -5    0.55    0.49
  -3  -2   5    6.75    0.45
   3  -2  -5    6.25    0.51
   3  -2  -5    6.27    0.53
   3  -2  -5    6.31    0.59
   3  -2  -5    5.56    0.82
   3   2  -5    6.78    0.49
   3   2  -5    6.51    0.68
  -3   2   5    6.98    0.49
  -3   2   5    5.89    0.54
   3   2  -5    7.56    0.91
  -3   2   5    6.75    0.87
   3   2  -5    5.71    1.28
   2  -2  -5   57.02    2.85
   2  -2  -5   57.07    3.40
   2  -2  -5   55.13    2.86
  -2  -2   5   57.86    2.82
   2  -2  -5   56.53    2.90
  -2  -2   5   59.86    2.82
  -2   2   5   58.50    3.02
   2   2  -5   57.15    2.84
   2   2  -5   58.84    3.32
  -2   2   5   58.59    2.84
  -2   2   5   58.16    2.84
   2   2  -5   59.32    2.83
   2   2  -5   58.93    2.83
  -1  -2   5  168.74    7.70
   1  -2  -5  164.16    7.72
  -1  -2   5  169.86    7.71
  -1  -2   5  157.88    7.71
   1  -2  -5  155.92    7.72
   1  -2  -5  158.26    7.72
  -1   2   5  166.17    7.71
   1   2  -5  151.99    7.68
  -1   2   5  162.07    7.69
   1   2  -5  154.89    7.70
  -1   2   5  175.40    7.79
   1   2  -5  153.11    7.71
   0  -2  -5   89.20    4.40
   0  -2   5   93.41    4.38
   0  -2  -5   84.29    4.45
   0  -2  -5   87.86    4.43
   0  -2   5   93.64    4.38
   0  -2   5   89.04    4.40
   0   2   5   94.90    4.37
   0   2   5   97.59    4.39
   0   2  -5   89.77    4.42
   0   2   5   91.30    4.38
   0   2  -5   89.42    4.41
   0   2  -5   86.25    4.39
   1  -2   5    4.65    0.53
  -1  -2  -5    5.78    0.58
  -1  -2  -5    4.22    0.57
  -1  -2  -5    4.69    0.56
   1  -2   5    4.66    0.54
   1   2   5    6.24    0.63
  -1   2  -5    4.37    0.57
  -1   2  -5    6.28    0.45
   1   2   5    4.30    0.53
  -1   2  -5    4.06    0.55
   1   2   5    5.12    0.48
  -2  -2  -5    0.57    0.83
   2  -2   5   -0.42    0.29
  -2  -2  -5   -0.62    0.34
   2  -2   5    0.11    0.32
  -2   2  -5   -0.70    0.30
   2   2   5   -0.10    0.25
   2   2   5   -0.08    0.24
  -2   2  -5    2.13    0.97
  -2   2  -5   -0.73    0.36
   3  -2   5   -0.23    0.39
  -3  -2  -5    1.41    1.17
  -3  -2  -5   -0.18    0.35
  -3  -2  -5   -0.31    0.40
   3  -2   5    0.20    0.29
  -3   2  -5   -0.22    0.33
  -3   2  -5    2.70    1.41
   3   2   5   -0.15    0.27
   3   2   5   -0.22    0.30
  -4  -2  -5    3.51    1.85
   4  -2   5    1.12    0.52
   4  -2   5   -0.75    0.85
  -4   2  -5    2.78    1.80
   4   2   5    0.63    0.40
   5  -2   5   -0.12    1.24
  -5  -2  -5    3.24    2.69
  -5   2  -5    5.87    3.29
   5   2   5    0.52    1.07
   5  -3  -5    0.88    0.83
   5  -3  -5    0.16    1.00
   5   3  -5   -0.25    0.95
   4  -3  -5    1.76    0.33
   4  -3  -5    2.18    0.68
   4   3  -5    2.62    0.85
   4   3  -5    2.36    0.51
  -3  -3   5    1.46    0.20
   3  -3  -5    1.48    0.29
   3  -3  -5    1.31    0.30
   3  -3  -5    1.64    0.35
   3  -3  -5    1.48    0.48
   3   3  -5    1.59    0.25
   3   3  -5    1.66    0.37
  -3   3   5    1.18    0.60
   3   3  -5    1.98    1.15
  -3   3   5    1.41    0.27
   3   3  -5    1.64    0.62
  -2  -3   5    3.44    0.41
   2  -3  -5    2.07    0.89
   2  -3  -5    3.27    0.38
  -2  -3   5    2.52    0.34
  -2  -3   5    3.03    0.34
   2  -3  -5    2.90    0.44
   2  -3  -5    3.14    0.37
   2   3  -5    2.86    0.37
  -2   3   5    2.87    0.40
  -2   3   5    2.69    0.52
   2   3  -5    2.87    0.41
  -2   3   5    3.28    0.41
   2   3  -5    4.12    1.00
   2   3  -5    3.09    0.41
   2   3  -5    2.96    0.63
  -1  -3   5   71.26    3.41
   1  -3  -5   70.00    3.42
   1  -3  -5   68.85    3.44
  -1  -3   5   64.43    3.39
   1  -3  -5   69.54    3.42
  -1  -3   5   73.03    3.41
  -1   3   5   72.03    3.40
   1   3  -5   70.72    3.41
   1   3  -5   67.38    3.38
   1   3  -5   70.62    3.53
  -1   3   5   71.67    3.42
  -1   3   5   69.43    3.65
   1   3  -5   70.21    3.42
   0  -3   5  146.93    6.75
   0  -3  -5  137.17    6.90
   0  -3   5  146.69    6.73
   0  -3  -5  137.08    6.76
   0  -3  -5  136.61    6.75
   0  -3   5  144.41    6.76
   0  -3  -5  128.08    6.81
   0   3   5  143.09    6.73
   0   3  -5  143.68    6.77
   0   3  -5  139.24    6.76
   0   3   5  139.34    6.76
   0   3  -5  140.31    6.77
   0   3   5  147.57    6.76
   1  -3   5  110.96    5.42
  -1  -3  -5  104.52    5.46
  -1  -3  -5  105.77    5.44
  -1  -3  -5  102.87    5.43
   1  -3   5  116.61    5.44
   1   3   5  110.18    5.44
  -1   3  -5  118.86    5.45
  -1   3  -5  119.51    5.46
   1   3   5  107.34    5.40
  -1   3  -5  126.32    5.38
  -2  -3  -5   68.27    3.56
   2  -3   5   72.78    3.56
  -2  -3  -5   67.65    3.45
  -2  -3  -5   71.96    3.96
  -2   3  -5   74.81    3.60
   2   3   5   72.98    3.50
  -2   3  -5   73.23    4.06
   2   3   5   71.32    3.51
   2   3   5   72.24    3.63
  -2   3  -5   71.40    3.60
   3  -3   5   10.34    0.87
  -3  -3  -5    9.67    0.83
   3  -3   5   11.13    0.81
  -3  -3  -5    9.71    0.89
  -3  -3  -5   13.20    1.89
   3   3   5   10.47    0.73
  -3   3  -5   12.07    2.10
  -3   3  -5   10.97    1.01
   3   3   5   10.49    0.79
  -3   3  -5   10.49    0.84
  -4  -3  -5    9.07    2.06
   4  -3   5    4.17    0.97
   4  -3   5    3.31    1.06
   4   3   5    5.32    0.69
  -4   3  -5    7.31    2.10
   5  -3   5    0.02    1.28
   5   3   5   -0.18    1.02
   5  -4  -5    0.03    0.84
   5  -4  -5   -0.35    0.95
   5   4  -5    0.18    0.96
   4  -4  -5    0.85    0.83
   4  -4  -5    0.56    0.36
   4  -4  -5    0.25    0.34
   4   4  -5    0.40    0.44
   3  -4  -5    1.03    0.48
   3  -4  -5    0.97    0.32
  -3  -4   5    0.54    0.18
   3  -4  -5    0.69    0.33
   3  -4  -5    0.96    0.31
   3   4  -5    0.15    0.94
   3   4  -5    0.87    0.31
  -3   4   5    0.99    0.27
   3   4  -5    0.92    0.24
  -3   4   5    1.05    0.67
   3   4  -5    1.14    0.61
   2  -4  -5   19.56    1.24
   2  -4  -5   19.74    1.76
  -2  -4   5   20.90    1.10
  -2  -4   5   19.60    1.06
   2  -4  -5   21.16    1.14
  -2  -4   5   20.06    1.08
   2  -4  -5   20.19    1.14
   2   4  -5   20.55    1.10
  -2   4   5   19.61    1.43
  -2   4   5   21.25    1.12
   2   4  -5   19.34    1.04
   2   4  -5   20.72    1.61
   2   4  -5   20.21    1.12
  -2   4   5   20.23    1.12
   2   4  -5   18.48    1.38
  -1  -4   5   26.72    1.38
   1  -4  -5   23.74    1.39
   1  -4  -5   24.40    1.44
   1  -4  -5   24.78    1.38
  -1  -4   5   25.96    1.38
   1  -4  -5   23.65    1.72
   1   4  -5   26.36    1.40
   1   4  -5   27.12    1.40
  -1   4   5   27.25    1.37
  -1   4   5   28.36    1.53
  -1   4   5   26.39    1.38
   1   4  -5   28.85    1.55
   0  -4  -5    0.96    0.53
   0  -4   5    1.36    0.29
   0  -4  -5    0.78    0.42
   0  -4   5    0.91    0.26
   0  -4  -5    0.76    0.29
   0  -4  -5    0.66    0.24
   0   4  -5    0.81    0.27
   0   4  -5    1.84    0.38
   0   4   5    1.19    0.28
   0   4   5    0.88    0.23
   0   4  -5    0.82    0.28
   0   4   5    1.19    0.45
   1  -4   5    0.99    0.32
  -1  -4  -5    0.54    0.31
  -1  -4  -5    1.05    0.33
   1  -4   5    1.41    0.32
  -1  -4  -5    1.21    0.43
  -1   4  -5    1.64    0.73
   1   4   5    0.92    0.26
  -1   4  -5    1.35    0.31
   1   4   5    1.46    0.32
   1   4   5    1.21    0.27
  -1   4  -5    1.61    0.37
   2  -4   5    0.52    0.35
  -2  -4  -5    0.36    0.28
   2  -4   5    0.35    0.32
  -2  -4  -5    0.53    0.78
   2   4   5    0.22    0.45
  -2   4  -5    0.42    0.35
  -2   4  -5    0.74    1.01
   2   4   5    0.30    0.27
   2   4   5    0.01    0.25
   2   4   5    0.31    0.40
  -2   4  -5   -0.14    0.40
  -3  -4  -5   -0.23    0.38
  -3  -4  -5    1.07    1.22
   3  -4   5   -0.41    0.35
   3  -4   5    0.79    0.38
  -3  -4  -5   -0.10    0.36
   3   4   5    0.10    0.28
  -3   4  -5    0.00    0.47
  -3   4  -5    0.40    1.57
   3   4   5    0.62    0.32
  -3   4  -5    0.83    0.37
   4  -4   5   -1.01    0.86
  -4  -4  -5    0.44    1.74
   4   4   5   -0.01    0.36
  -4   4  -5   -0.77    1.74
   5  -5  -5    1.42    0.95
   5   5  -5    1.09    1.05
   4  -5  -5    2.92    0.49
   4  -5  -5    3.50    0.75
   4  -5  -5    2.82    0.46
   4   5  -5    3.57    0.92
   4   5  -5    2.56    0.48
   3  -5  -5   11.68    0.83
   3  -5  -5    9.39    0.82
  -3  -5   5   10.87    0.64
   3  -5  -5   10.93    1.07
   3  -5  -5   11.21    0.79
   3   5  -5   11.39    0.72
   3   5  -5   11.13    1.24
   3   5  -5    9.72    1.46
   3   5  -5   10.99    0.68
  -3   5   5   10.75    0.79
  -2  -5   5   68.95    3.34
   2  -5  -5   71.70    3.84
   2  -5  -5   67.10    3.37
   2  -5  -5   69.63    3.96
   2  -5  -5   67.22    3.45
  -2  -5   5   67.77    3.36
   2  -5  -5   66.45    3.39
   2   5  -5   69.17    3.35
   2   5  -5   70.89    3.77
  -2   5   5   69.93    3.39
  -2   5   5   69.72    3.37
  -2   5   5   69.06    3.60
   2   5  -5   66.53    3.56
   2   5  -5   67.35    3.36
  -1  -5   5   96.79    4.75
  -1  -5   5   87.17    4.76
   1  -5  -5  104.82    5.07
   1  -5  -5   98.09    4.77
   1  -5  -5   95.21    4.82
   1  -5  -5   97.69    4.76
  -1  -5   5  101.35    4.75
  -1   5   5  100.47    4.75
   1   5  -5   97.21    4.76
  -1   5   5   99.88    4.76
   1   5  -5   95.84    4.86
   1   5  -5   95.94    4.76
  -1   5   5  106.77    4.88
   0  -5  -5  199.72    8.89
   0  -5  -5  164.85    8.67
   0  -5  -5  171.30    8.69
   0  -5   5  187.57    8.71
   0  -5   5  187.67    8.69
   0  -5   5  190.43    8.73
   0  -5  -5  182.30    8.77
   0   5   5  174.20    8.68
   0   5  -5  181.94    8.71
   0   5  -5  180.50    8.72
   0   5  -5  177.97    8.70
   0   5   5  192.79    8.71
   0   5   5  172.80    8.68
   1  -5   5  151.83    7.17
  -1  -5  -5  144.77    7.16
   1  -5   5  156.62    7.14
  -1  -5  -5  142.59    7.18
  -1  -5  -5  145.67    7.24
   1  -5   5  153.43    7.19
  -1   5  -5  153.19    7.21
   1   5   5  145.45    7.25
   1   5   5  150.33    7.15
   1   5   5  153.85    7.15
   1   5   5  151.16    7.16
  -1   5  -5  140.41    7.41
  -1   5  -5  149.04    7.19
   2  -5   5   24.42    1.38
   2  -5   5   24.07    1.40
  -2  -5  -5   24.15    1.35
  -2  -5  -5   24.03    1.85
  -2  -5  -5   22.09    1.42
  -2   5  -5   22.64    1.43
   2   5   5   23.79    1.47
  -2   5  -5   23.84    2.11
   2   5   5   23.34    1.29
   2   5   5   23.87    1.47
  -2   5  -5   22.46    1.40
   2   5   5   23.39    1.30
   3  -5   5    4.17    0.56
  -3  -5  -5    3.90    0.51
   3  -5   5    4.85    0.83
  -3  -5  -5    4.16    0.58
   3  -5   5    3.31    0.92
  -3   5  -5    2.66    0.51
  -3   5  -5    4.84    0.66
   3   5   5    5.16    0.59
   3   5   5    4.16    0.47
  -3   5  -5    6.18    1.66
   3   5   5    3.95    0.51
   4  -5   5    0.12    0.94
  -4  -5  -5    3.30    1.75
  -4   5  -5    0.08    1.88
   4   5   5    0.56    0.39
   5  -6  -5    2.12    0.93
   5   6  -5    1.30    1.07
   4  -6  -5    9.57    0.82
   4  -6  -5    8.57    1.30
   4  -6  -5    9.16    0.92
   4  -6  -5    8.59    0.70
   4   6  -5    8.98    1.40
   4   6  -5    9.23    0.79
   3  -6  -5  151.45    7.14
   3  -6  -5  147.78    7.15
  -3  -6   5  145.02    7.06
   3  -6  -5  146.66    7.26
   3  -6  -5  150.81    7.19
  -3  -6   5  151.90    7.11
   3   6  -5  146.92    7.07
   3   6  -5  152.12    7.07
   3   6  -5  142.41    7.58
   3   6  -5  148.57    7.36
  -2  -6   5  159.96    7.59
   2  -6  -5  157.28    7.69
   2  -6  -5  174.24    8.22
   2  -6  -5  161.69    8.02
   2  -6  -5  158.72    7.62
  -2  -6   5  153.18    7.58
   2  -6  -5  155.92    7.63
   2   6  -5  157.24    7.95
   2   6  -5  157.01    7.61
   2   6  -5  162.89    7.61
  -2   6   5  159.81    7.62
  -2   6   5  162.17    7.84
  -2   6   5  147.87    7.68
   2   6  -5  158.15    7.79
   1  -6  -5  176.16    8.53
  -1  -6   5  181.27    8.26
   1  -6  -5  166.43    8.26
   1  -6  -5  164.25    8.29
   1  -6  -5  163.23    8.25
  -1  -6   5  177.83    8.25
   1   6  -5  177.46    8.27
   1   6  -5  171.74    8.26
  -1   6   5  171.40    8.25
  -1   6   5  165.19    8.26
   1   6  -5  175.29    8.36
  -1   6   5  180.59    8.37
   0  -6  -5  202.42    9.82
   0  -6  -5  202.14    9.74
   0  -6  -5  193.16    9.72
   0  -6  -5  204.68    9.89
   0   6   5  207.31    9.72
   0   6   5  202.56    9.73
   0   6   5  214.85    9.75
  -1  -6  -5  288.14   13.98
   1  -6   5  275.55   14.08
  -1  -6  -5  270.35   14.12
  -1  -6  -5  290.58   13.99
   1  -6   5  285.69   14.00
   1  -6   5  309.68   14.00
  -1  -6  -5  301.77   14.07
  -1   6  -5  289.53   14.40
   1   6   5  296.63   14.07
  -1   6  -5  290.67   14.01
   1   6   5  310.00   13.98
   1   6   5  296.58   13.97
   1   6   5  315.49   13.97
  -1   6  -5  301.94   14.02
  -1   6  -5  287.55   13.97
  -2  -6  -5   42.46    2.52
   2  -6   5   39.25    2.11
   2  -6   5   41.14    2.09
  -2  -6  -5   37.82    2.05
  -2  -6  -5   38.25    2.09
   2  -6   5   38.66    1.96
  -2   6  -5   40.21    2.72
   2   6   5   39.37    2.02
   2   6   5   36.54    2.07
  -2   6  -5   38.02    2.12
   2   6   5   42.07    2.12
  -2   6  -5   35.37    2.06
  -2   6  -5   39.21    2.12
   2   6   5   37.10    2.15
  -3  -6  -5    4.07    0.61
  -3  -6  -5    6.73    1.43
   3  -6   5    4.30    0.57
   3  -6   5    5.02    1.05
   3  -6   5    3.87    0.57
  -3  -6  -5    3.48    0.54
  -3  -6  -5    3.77    0.60
   3   6   5    5.20    0.64
   3   6   5    4.37    0.65
  -3   6  -5    3.49    0.66
  -3   6  -5    6.68    1.86
   3   6   5    4.50    0.55
   4  -6   5   -0.03    0.93
  -4  -6  -5    0.91    1.55
   4   6   5    0.92    0.42
  -4   6  -5    1.63    1.94
   4  -7  -5    1.85    0.73
   4  -7  -5    2.67    0.56
   4   7  -5    0.76    0.86
   4   7  -5    1.28    0.36
  -3  -7   5   29.09    1.66
   3  -7  -5   38.50    1.84
  -3  -7   5   31.11    1.65
   3  -7  -5   36.15    1.80
   3  -7  -5   37.52    1.85
   3  -7  -5   33.44    2.02
   3   7  -5   31.20    2.11
   3   7  -5   27.43    2.19
   2  -7  -5   11.47    0.80
   2  -7  -5   10.45    0.94
  -2  -7   5    9.05    0.68
  -2  -7   5    9.94    0.69
  -2   7   5    8.72    0.77
   2   7  -5   10.43    0.77
   2   7  -5    9.30    0.78
   2   7  -5    9.70    1.17
  -2   7   5   10.13    1.07
   2   7  -5   10.61    1.28
  -2   7   5    8.44    0.72
  -1  -7   5    1.36    0.34
  -1  -7   5    1.44    0.32
  -1  -7   5    1.21    0.39
   1   7  -5    1.19    0.35
   1   7  -5    1.66    0.50
   1   7  -5    1.40    0.35
   0  -7  -5  180.85    7.88
   0  -7   5  153.20    7.88
   0  -7  -5  168.73    7.96
   0  -7  -5  170.51    7.85
   0  -7   5  152.12    7.85
   0  -7   5  156.19    7.87
   0   7   5  171.28    7.84
   0   7  -5  145.97    7.88
   0   7   5  176.13    7.86
   0   7   5  175.13    7.88
   0   7  -5  149.69    7.87
   0   7   5  179.94    8.08
   0   7  -5  146.89    7.86
   1  -7   5    9.29    0.87
   1  -7   5    9.15    0.81
   1  -7   5    9.07    0.80
  -1  -7  -5   10.81    1.13
  -1   7  -5    9.69    0.88
   1   7   5   10.28    0.74
  -1   7  -5    8.68    0.87
  -1   7  -5    8.95    0.90
   1   7   5   11.77    0.76
   1   7   5   12.88    1.17
  -1   7  -5    9.38    1.23
   1   7   5   11.07    0.78
   2  -7   5   26.75    1.56
  -2  -7  -5   24.49    1.62
  -2  -7  -5   28.72    1.97
   2  -7   5   23.54    1.81
  -2  -7  -5   24.91    1.52
   2  -7   5   26.32    1.59
   2  -7   5   26.35    1.42
  -2  -7  -5   27.16    1.53
   2   7   5   25.70    1.64
  -2   7  -5   26.86    1.59
   2   7   5   28.19    1.56
   2   7   5   26.50    1.47
   2   7   5   27.03    1.45
  -2   7  -5   26.49    1.61
  -2   7  -5   24.07    2.30
  -3  -7  -5    6.91    0.82
  -3  -7  -5    7.14    0.78
   3  -7   5    7.75    1.92
  -3  -7  -5   10.54    1.71
  -3  -7  -5    8.00    0.94
   3  -7   5    7.66    0.92
   3  -7   5    7.77    0.89
   3   7   5    7.28    0.74
  -3   7  -5    7.99    0.86
   3   7   5    7.20    0.99
  -3   7  -5    9.06    1.19
   3   7   5    7.68    0.69
   4  -7   5    6.84    1.34
  -4  -7  -5   10.37    2.01
  -4   7  -5    6.39    2.32
   4  -8  -5   14.62    1.53
   4  -8  -5   12.03    0.98
   4  -8  -5   12.47    1.04
   4   8  -5   13.63    1.64
   3  -8  -5    4.13    0.92
   3  -8  -5    5.52    0.71
   3  -8  -5    5.53    0.64
  -3  -8   5    4.50    0.45
  -3  -8   5    4.13    0.52
   3  -8  -5    4.79    0.76
   3   8  -5    5.67    1.23
   3   8  -5    4.49    0.90
  -2  -8   5    3.14    0.41
   2  -8  -5    2.98    0.48
   2  -8  -5    2.83    0.50
   2  -8  -5    3.09    1.20
   2  -8  -5    3.78    1.05
   2   8  -5    2.98    0.70
   2   8  -5    3.63    0.87
   2   8  -5    3.37    0.44
  -2   8   5    2.35    0.47
  -2   8   5    3.09    0.44
  -2   8   5    2.37    1.02
   2   8  -5    3.90    0.47
   1  -8  -5   34.02    1.72
   1  -8  -5   33.04    2.10
  -1  -8   5   29.97    1.68
   1  -8  -5   31.65    1.70
   1  -8  -5   32.99    1.77
  -1  -8   5   27.86    1.66
  -1  -8   5   28.92    1.79
   1   8  -5   28.17    1.69
  -1   8   5   33.87    1.70
  -1   8   5   33.65    1.68
   1   8  -5   28.38    1.70
   0  -8  -5   49.23    2.72
   0  -8  -5   58.35    2.76
   0   8   5   53.98    2.71
  -1  -8  -5   45.53    2.91
  -1  -8  -5   54.62    2.66
   1  -8   5   50.75    2.68
  -1  -8  -5   54.43    2.68
   1  -8   5   53.37    2.68
  -1  -8  -5   57.08    2.86
   1  -8   5   54.78    2.72
   1  -8   5   48.10    2.76
  -1   8  -5   51.19    2.73
   1   8   5   50.66    2.84
  -1   8  -5   47.73    2.94
   1   8   5   52.12    2.62
   1   8   5   54.37    2.64
  -1   8  -5   50.40    2.72
   1   8   5   52.92    2.64
  -1   8  -5   51.39    2.72
   2  -8   5    1.47    0.55
  -2  -8  -5    1.94    0.88
  -2  -8  -5    1.25    0.45
  -2  -8  -5    0.80    0.44
   2  -8   5    1.37    0.44
  -2  -8  -5    1.29    0.42
   2  -8   5    0.75    0.68
   2  -8   5    0.24    0.43
  -2   8  -5    0.51    0.51
   2   8   5   -0.03    0.60
  -2   8  -5    2.08    1.25
   2   8   5    1.74    0.41
  -2   8  -5    0.45    0.57
   2   8   5    1.45    0.42
   2   8   5    0.54    0.35
  -2   8  -5    0.37    0.49
   3  -8   5    1.34    0.55
   3  -8   5    0.14    0.86
  -3  -8  -5    1.86    1.15
  -3  -8  -5   -0.10    0.42
  -3  -8  -5    0.53    0.81
   3  -8   5    0.62    0.46
  -3  -8  -5    0.31    0.59
   3   8   5    0.78    0.35
   3   8   5    0.42    0.63
  -3   8  -5    0.16    0.52
   3   8   5    0.20    0.36
  -3   8  -5    1.34    1.70
  -3   8  -5    0.13    0.56
   4  -8   5    0.69    1.02
  -4  -8  -5    2.16    1.60
   4  -8   5    0.73    0.51
  -4   8  -5    2.25    2.31
   4  -9  -5    2.72    0.55
   4  -9  -5    3.40    0.84
   4  -9  -5    2.56    0.56
   4   9  -5    2.46    0.96
   3  -9  -5    0.94    0.45
   3  -9  -5    0.93    0.82
  -3  -9   5    1.25    0.28
  -3  -9   5    0.43    0.38
   3  -9  -5   -0.59    0.89
   3  -9  -5    1.08    0.48
   3   9  -5    0.49    0.80
   3   9  -5    1.27    0.79
   2  -9  -5   68.31    3.44
  -2  -9   5   69.40    3.41
   2  -9  -5   62.69    4.09
   2  -9  -5   69.28    3.48
   2  -9  -5   68.46    3.53
   2   9  -5   68.14    3.67
   2   9  -5   69.81    3.43
   2   9  -5   70.81    3.69
   1  -9  -5   54.10    3.17
   1  -9  -5   57.54    2.93
  -1  -9   5   55.80    2.86
   1  -9  -5   52.69    2.85
  -1  -9   5   55.92    2.85
  -1  -9   5   55.28    2.98
   1  -9  -5   56.60    2.89
  -1   9   5   65.48    3.06
  -1   9   5   55.41    2.86
   1   9  -5   56.67    2.88
   1   9  -5   55.43    2.87
  -1   9   5   55.82    2.84
   1   9  -5   54.99    3.02
   0  -9   5    0.23    0.37
   0  -9   5    0.30    0.36
   0  -9  -5    0.77    0.55
   0  -9  -5    3.08    0.70
   0  -9  -5    1.46    0.37
   0  -9   5    0.30    0.33
   0  -9   5    0.92    0.43
   0  -9  -5    1.07    0.40
   0   9   5    1.30    0.32
   0   9   5    1.88    0.39
   0   9  -5   -0.06    0.40
   0   9   5    1.21    0.39
   0   9  -5   -0.11    0.38
   0   9  -5    0.63    0.46
  -1  -9  -5   25.88    1.52
  -1  -9  -5   27.56    1.77
   1  -9   5   25.31    1.65
   1  -9   5   26.11    1.59
   1  -9   5   27.81    1.57
   1  -9   5   27.51    1.59
  -1  -9  -5   27.17    1.57
  -1   9  -5   25.91    2.19
   1   9   5   26.88    1.49
  -1   9  -5   25.54    1.66
  -1   9  -5   27.76    1.65
   1   9   5   24.19    1.83
  -1   9  -5   26.43    1.63
   1   9   5   29.21    1.53
   1   9   5   27.89    1.53
  -2  -9  -5    4.51    0.64
  -2  -9  -5    5.14    1.06
   2  -9   5    4.53    0.72
   2  -9   5    5.04    0.61
   2  -9   5    4.34    0.66
  -2  -9  -5    4.01    0.57
   2  -9   5    4.89    0.85
  -2  -9  -5    4.20    0.57
  -2   9  -5    4.00    0.76
  -2   9  -5    5.80    1.35
   2   9   5    5.20    0.82
  -2   9  -5    4.04    0.69
   2   9   5    6.51    0.69
   2   9   5    3.96    0.51
   2   9   5    4.60    0.55
  -3  -9  -5    3.69    0.57
  -3  -9  -5    3.03    0.66
   3  -9   5    2.39    0.96
   3  -9   5    2.49    0.57
  -3  -9  -5    2.82    1.24
   3  -9   5    3.49    0.64
  -3  -9  -5    2.50    0.57
  -3   9  -5    2.10    0.63
  -3   9  -5    2.58    0.58
  -3   9  -5    6.03    1.93
   3   9   5    2.36    0.45
   3   9   5    2.53    0.42
   3   9   5    3.28    0.79
   4  -9   5   -0.43    0.51
  -4  -9  -5    1.05    1.56
   4  -9   5    1.10    1.02
  -4   9  -5    0.96    2.29
   4 -10  -5    4.12    0.63
   4 -10  -5    5.48    0.69
   4 -10  -5    4.94    0.97
   4  10  -5    5.99    1.12
   3 -10  -5   44.91    2.48
   3 -10  -5   46.26    2.52
   3 -10  -5   45.55    2.49
  -3 -10   5   46.73    2.29
   3 -10  -5   46.77    2.48
   3 -10  -5   44.95    2.62
   3  10  -5   43.14    2.69
   3  10  -5   42.73    2.80
   2 -10  -5   93.91    4.78
  -2 -10   5  103.54    5.02
   2 -10  -5   93.93    4.86
   2 -10  -5  100.19    5.72
   2 -10  -5   95.22    4.82
   2  10  -5   97.88    5.00
   2  10  -5   94.53    4.97
   2  10  -5   98.11    4.77
   2  10  -5   96.23    4.77
  -1 -10   5  240.37   11.57
  -1 -10   5  238.40   11.56
  -1 -10   5  233.15   11.67
   1 -10  -5  234.70   11.83
   1 -10  -5  240.05   11.92
   1 -10  -5  243.14   11.62
   1 -10  -5  246.98   11.59
   1 -10  -5  242.22   11.57
   1  10  -5  251.72   11.59
  -1  10   5  244.48   11.91
   1  10  -5  245.59   11.58
  -1  10   5  252.09   11.71
   1  10  -5  235.55   11.67
  -1  10   5  236.92   11.56
  -1  10   5  241.26   11.57
   0 -10   5   95.44    4.84
   0 -10  -5   93.50    5.00
   0 -10   5   98.60    4.90
   0 -10  -5  105.68    5.14
   0 -10  -5  101.26    4.90
   0 -10   5  100.83    4.92
   0 -10   5   97.96    4.95
   0 -10  -5   98.75    4.87
   0  10   5  100.73    4.89
   0  10   5  103.52    4.89
   0  10  -5   97.15    5.00
   0  10   5  104.51    5.19
   0  10   5  100.89    4.87
   0  10  -5   95.09    4.97
   0  10  -5   99.53    4.93
   0  10  -5   94.78    4.90
   1 -10   5   65.64    3.41
  -1 -10  -5   70.29    3.60
   1 -10   5   65.23    3.41
   1 -10   5   65.73    3.47
   1 -10   5   67.89    3.44
  -1 -10  -5   66.14    3.39
  -1 -10  -5   66.72    3.38
   1  10   5   71.34    3.36
   1  10   5   69.62    3.41
  -1  10  -5   66.42    3.45
   1  10   5   67.31    3.34
  -1  10  -5   61.22    3.46
  -1  10  -5   64.89    3.71
   1  10   5   66.22    3.59
  -1  10  -5   65.86    3.44
   2 -10   5    5.87    0.69
   2 -10   5    7.05    1.01
  -2 -10  -5    6.67    0.88
  -2 -10  -5    7.10    0.83
  -2 -10  -5    6.27    0.83
   2 -10   5    6.16    0.76
  -2 -10  -5    6.52    1.19
   2 -10   5    6.97    0.95
   2  10   5    6.73    0.96
  -2  10  -5    5.85    0.87
  -2  10  -5    8.56    1.67
   2  10   5    5.57    0.70
  -2  10  -5    5.37    0.78
   2  10   5    5.60    0.75
   2  10   5    7.13    1.10
  -2  10  -5    5.05    0.82
   3 -10   5    2.68    0.96
  -3 -10  -5    1.41    0.62
  -3 -10  -5    3.88    1.22
   3 -10   5    2.13    0.56
   3 -10   5    1.84    0.53
  -3 -10  -5    2.07    0.51
   3 -10   5    1.32    0.61
  -3 -10  -5    1.65    0.62
   3  10   5    1.76    0.80
   3  10   5    2.66    0.48
  -3  10  -5    1.79    0.69
   3  10   5    1.96    0.44
  -3  10  -5    3.20    0.65
  -3  10  -5    2.45    1.80
   4 -10   5    0.72    0.59
  -4 -10  -5    1.18    1.60
   4 -10   5    0.61    1.08
  -4  10  -5    1.98    2.48
   4 -11  -5    5.60    0.79
   4 -11  -5    4.34    0.65
   4 -11  -5    4.28    1.00
   4  11  -5    4.99    1.15
   3 -11  -5    8.77    1.09
   3 -11  -5   10.88    1.09
   3 -11  -5    9.20    1.06
  -3 -11   5   11.74    0.77
   3 -11  -5    8.81    1.07
   3 -11  -5   12.24    1.34
  -3 -11   5   10.67    0.85
   3  11  -5    8.76    1.39
   3  11  -5    9.14    1.46
   2 -11  -5    8.37    1.10
   2 -11  -5    8.69    0.91
   2 -11  -5    6.90    0.94
  -2 -11   5    8.95    0.78
   2  11  -5    7.92    1.00
   2  11  -5    9.07    0.85
   2  11  -5    8.30    1.26
   1 -11  -5   -0.39    0.39
   1 -11  -5    0.02    0.40
   1 -11  -5   -0.32    0.78
  -1 -11   5    0.21    0.53
  -1 -11   5   -0.18    0.46
   1  11  -5    0.38    0.60
  -1  11   5   -0.18    0.32
  -1  11   5    0.46    0.92
   1  11  -5   -0.26    0.44
  -1  11   5   -0.08    0.40
   1  11  -5    0.16    0.44
  -1  11   5    0.23    1.03
   0 -11   5    1.97    0.47
   0 -11   5    1.48    0.44
   0 -11   5    1.58    0.55
   0 -11   5    1.60    0.52
   0  11  -5    2.06    0.71
   0  11  -5    0.84    0.51
   0  11  -5    1.56    0.57
   0  11  -5    1.28    0.62
   1 -11   5    3.57    0.59
   1 -11   5    5.18    0.66
   1 -11   5    3.30    0.66
   1 -11   5    3.86    0.67
  -1  11  -5    3.32    0.69
  -1  11  -5    4.42    0.78
  -1  11  -5    4.08    0.71
  -1  11  -5    5.75    1.16
   2 -11   5    3.11    0.62
  -2 -11  -5    3.31    0.54
  -2 -11  -5    4.10    0.66
  -2 -11  -5    4.59    0.99
   2 -11   5    2.66    0.62
   2 -11   5    3.38    0.83
   2 -11   5    3.10    0.59
  -2 -11  -5    2.72    0.55
  -2  11  -5    4.95    1.49
  -2  11  -5    2.98    0.74
   2  11   5    2.46    0.57
   2  11   5    3.92    0.88
  -2  11  -5    3.59    0.72
  -2  11  -5    2.24    0.77
   2  11   5    3.17    0.51
  -3 -11  -5    0.36    0.54
  -3 -11  -5   -1.01    0.53
  -3 -11  -5    0.84    1.03
   3 -11   5    0.78    0.88
   3 -11   5   -0.10    0.56
  -3  11  -5    1.18    1.85
   3  11   5    0.54    0.78
   3  11   5    0.55    0.40
  -3  11  -5    0.43    0.65
  -3  11  -5    0.17    0.63
   4 -11   5    0.18    0.59
   4 -11   5    0.35    0.65
   4 -11   5    0.45    1.15
  -4  11  -5    2.55    2.48
   4 -12  -5    7.29    0.85
   4 -12  -5    7.07    0.87
   4 -12  -5    8.32    1.17
   4  12  -5    8.59    1.34
  -3 -12   5   18.87    1.41
   3 -12  -5   16.68    1.35
   3 -12  -5   19.30    1.62
   3 -12  -5   17.93    1.40
   3  12  -5   18.96    1.84
   2 -12  -5   45.09    2.54
  -2 -12   5   45.62    2.36
   2 -12  -5   43.48    2.46
   2 -12  -5   44.75    2.44
   2  12  -5   42.07    2.46
   2  12  -5   44.25    2.38
   2  12  -5   45.43    2.68
   1 -12  -5   10.49    1.07
   1 -12  -5   11.75    1.37
   1 -12  -5   11.44    1.19
   1 -12  -5   11.11    0.98
   1  12  -5   12.89    1.36
  -1  12   5   10.67    0.95
   1  12  -5   12.30    1.06
   1  12  -5    9.78    1.03
  -1  12   5   11.14    1.53
   0 -12  -5   24.87    1.86
   0 -12  -5   27.69    1.61
   0 -12  -5   28.80    1.66
   0 -12   5   26.83    1.77
   0 -12   5   26.93    1.52
   0 -12   5   25.05    1.65
   0  12  -5   25.61    1.70
   0  12  -5   27.16    1.77
   0  12   5   27.32    1.60
   0  12  -5   24.96    1.69
   0  12   5   26.13    1.54
   0  12   5   27.08    1.61
   0  12  -5   26.63    1.84
   1 -12   5    6.32    0.99
   1 -12   5    5.71    0.80
  -1 -12  -5    6.60    0.96
   1 -12   5    6.29    0.80
  -1 -12  -5   11.76    1.53
  -1 -12  -5    7.94    0.86
  -1 -12  -5    5.01    1.24
   1 -12   5    6.27    0.95
  -1  12  -5    8.85    0.93
  -1  12  -5    8.13    0.89
  -1  12  -5    7.70    0.99
   1  12   5    8.70    0.86
   1  12   5    8.69    1.40
  -1  12  -5    9.57    1.42
   1  12   5    8.05    0.77
   1  12   5    7.69    0.89
   2 -12   5    2.40    0.68
   2 -12   5    3.15    0.67
  -2 -12  -5    3.42    0.94
   2 -12   5    3.13    0.71
  -2 -12  -5    1.43    0.50
  -2 -12  -5    1.74    0.53
  -2 -12  -5    2.60    0.72
   2 -12   5    2.01    0.80
  -2  12  -5    1.88    0.80
   2  12   5    3.26    0.92
  -2  12  -5    0.91    0.68
  -2  12  -5    3.45    0.74
   2  12   5    2.35    0.53
   2  12   5    1.63    0.46
  -2  12  -5    2.79    1.43
  -3 -12  -5    0.74    0.59
   3 -12   5    0.14    0.87
  -3 -12  -5    1.56    1.17
   3  12   5    0.09    0.84
  -3  12  -5    0.18    1.00
  -3  12  -5   -0.14    0.66
  -3  12  -5    0.76    1.75
   4 -12   5   -0.08    0.60
   4 -12   5    0.12    1.22
   4 -12   5    0.01    0.70
  -4  12  -5   -0.24    2.49
   4 -13  -5    0.39    0.61
   4 -13  -5   -0.33    0.65
   4 -13  -5    0.70    0.95
   4  13  -5    1.06    1.07
   3 -13  -5    0.59    0.57
   3 -13  -5    1.18    0.59
   3 -13  -5    0.95    0.70
   3  13  -5    1.17    0.85
   2 -13  -5    0.83    0.55
   2 -13  -5   -0.74    0.59
   2 -13  -5    0.26    0.51
  -2 -13   5   -0.22    0.38
   2 -13  -5    1.29    0.64
   2  13  -5   -0.44    0.74
   1 -13  -5   -0.16    0.52
   1 -13  -5    0.21    0.46
   1 -13  -5   -0.24    0.82
  -1  13   5    0.29    0.61
   1  13  -5    0.31    0.53
   1  13  -5   -0.54    0.49
   1  13  -5   -0.21    0.67
  -1  13   5    1.21    1.10
   0 -13   5    0.22    0.56
   0 -13  -5    0.62    0.49
   0 -13   5    1.19    0.43
   0 -13  -5    0.43    0.48
   0  13  -5    0.39    0.58
   0  13  -5    0.94    0.77
   0  13   5   -0.32    0.98
   0  13   5   -0.06    0.39
   0  13  -5    1.14    0.76
   0  13   5    1.21    0.47
   0  13  -5    0.28    0.57
   1 -13   5    3.16    0.63
  -1 -13  -5    2.87    0.61
  -1 -13  -5    2.91    0.58
   1 -13   5    4.51    0.75
   1 -13   5    2.69    0.65
   1  13   5    3.49    0.97
   1  13   5    2.37    0.47
   1  13   5    3.55    0.61
  -1  13  -5    3.92    1.17
  -1  13  -5    2.40    0.84
  -1  13  -5    2.20    0.66
  -1  13  -5    3.05    0.75
   2 -13   5   -0.64    0.67
   2 -13   5   -0.35    0.58
  -2 -13  -5    0.16    0.48
  -2 -13  -5    0.53    0.80
  -2 -13  -5   -0.02    0.49
   2 -13   5    0.57    0.61
   2  13   5   -0.37    0.43
   2  13   5    1.41    0.91
  -2  13  -5   -0.33    0.67
  -2  13  -5    1.00    1.41
  -2  13  -5   -0.74    0.64
   2  13   5    0.06    0.41
  -2  13  -5   -0.51    0.78
  -3 -13  -5   -0.15    0.78
   3 -13   5    0.43    0.60
  -3 -13  -5    1.19    1.13
   3 -13   5    1.13    0.91
  -3  13  -5    0.67    0.75
   3  13   5    0.39    0.97
  -3  13  -5    2.42    1.15
  -3  13  -5    1.00    1.92
   4 -13   5   -0.20    1.38
   4 -13   5   -0.14    0.82
   4 -13   5   -0.64    0.66
  -4  13  -5    1.03    2.69
   4 -14  -5    7.14    0.89
   4 -14  -5    6.63    1.28
   4 -14  -5    5.67    0.98
   4  14  -5    8.45    1.49
   3 -14  -5   17.28    1.69
   3 -14  -5   17.05    1.43
   3 -14  -5   18.00    1.49
   3  14  -5   16.18    1.99
   2 -14  -5   30.31    1.79
   2 -14  -5   27.72    1.94
   2 -14  -5   31.21    1.88
  -2 -14   5   28.28    1.72
   2 -14  -5   27.49    1.96
   2  14  -5   26.25    1.62
   2  14  -5   26.44    2.16
   1 -14  -5   38.93    2.16
   1 -14  -5   39.50    2.55
  -1 -14   5   38.36    2.21
   1 -14  -5   37.61    2.30
   1 -14  -5   38.53    2.23
   1  14  -5   34.46    2.42
   1  14  -5   37.52    2.20
   1  14  -5   37.88    2.05
  -1  14   5   39.21    2.95
   1  14  -5   35.24    2.20
   0 -14   5   38.04    2.22
   0 -14  -5   44.55    2.56
   0 -14  -5   43.25    2.36
   0 -14  -5   42.29    2.39
   0 -14  -5   42.08    2.65
   0  14  -5   41.16    2.46
   0  14  -5   41.92    2.44
   0  14   5   43.32    2.32
   0  14  -5   43.80    2.51
   0  14  -5   41.99    2.63
   0  14   5   42.60    2.97
  -1 -14  -5   23.75    1.55
   1 -14   5   22.04    1.60
  -1 -14  -5   23.14    1.56
   1 -14   5   22.76    1.64
   1  14   5   22.83    1.50
   1  14   5   22.28    2.10
   1  14   5   22.97    1.45
  -1  14  -5   24.18    1.73
  -1  14  -5   22.81    1.66
  -1  14  -5   22.83    2.06
  -1  14  -5   23.03    1.95
   2 -14   5    5.53    0.87
  -2 -14  -5    5.86    0.75
  -2 -14  -5    5.56    1.16
  -2 -14  -5    6.40    0.80
   2 -14   5    6.71    1.11
   2 -14   5    4.44    1.46
  -2  14  -5    6.23    0.91
   2  14   5    7.12    1.25
  -2  14  -5    5.56    1.11
  -2  14  -5    6.73    1.75
   2  14   5    5.81    0.84
   2  14   5    6.14    0.84
  -2  14  -5    5.75    0.94
  -3 -14  -5    5.61    1.86
   3 -14   5    2.25    1.03
   3 -14   5    2.86    0.74
   3 -14   5    1.98    0.73
  -3  14  -5    4.86    1.30
   3  14   5    2.50    1.16
  -3  14  -5    3.98    2.09
  -3  14  -5    3.70    0.92
   3 -15  -5    3.46    0.74
   3 -15  -5    2.10    0.85
   3 -15  -5    3.80    0.74
   3  15  -5    0.05    1.04
   2 -15  -5    4.08    0.85
   1 -15  -5   19.18    1.61
   1 -15  -5   25.64    1.91
   0 -15  -5   17.93    1.35
   1 -15   5    9.94    1.23
   1 -15   5    6.81    1.03
  -1 -15  -5   10.63    1.03
   1  15   5    6.41    0.76
  -1  15  -5    6.89    1.18
  -1  15  -5    7.19    1.04
   1  15   5    6.86    0.89
  -1  15  -5    9.00    1.61
  -1  15  -5    7.54    0.93
  -2 -15  -5    1.71    0.79
   2 -15   5    1.73    0.68
   2 -15   5    1.18    0.79
  -2 -15  -5    1.26    0.59
  -2 -15  -5    1.37    0.64
   2  15   5    2.00    0.61
  -2  15  -5    1.25    0.79
  -2  15  -5    1.20    1.50
  -2  15  -5   -0.23    0.94
  -2  15  -5    1.30    0.75
   3 -15   5    1.01    0.76
   3 -15   5    1.39    0.99
   3 -15   5    0.42    0.72
  -3  15  -5    0.49    2.02
  -3  15  -5    2.44    1.39
   3  15   5    0.28    1.18
   3 -16  -5   21.84    1.67
   3 -16  -5   21.38    1.77
   3 -16  -5   19.46    1.99
   3  16  -5   22.12    2.30
   2 -16  -5   65.27    3.62
   2 -16  -5   64.31    3.49
  -2 -16   5   65.37    3.45
   2 -16  -5   63.58    3.53
   2  16  -5   65.27    3.81
   1 -16  -5   54.94    3.18
   1 -16  -5   58.80    3.13
  -1 -16   5   57.31    3.11
   1 -16  -5   55.35    3.05
   1 -16  -5   55.39    3.38
  -1 -16   5   57.02    3.04
   1  16  -5   54.12    3.41
  -1  16   5   53.73    3.82
   0 -16   5   37.26    2.23
   0 -16  -5   44.79    2.48
   0 -16  -5   45.17    2.79
   0 -16   5   43.95    2.49
   0 -16  -5   40.41    2.38
   0 -16  -5   41.94    2.56
   0  16   5   41.43    3.19
   0  16  -5   44.16    2.48
   0  16   5   40.17    2.35
   0  16  -5   40.75    2.44
   0  16  -5   43.51    2.52
   0  16  -5   40.67    3.17
  -1 -16  -5   14.65    1.96
  -1 -16  -5   18.50    1.48
  -1 -16  -5   20.01    1.55
   1 -16   5   22.81    1.66
  -1 -16  -5   18.12    1.55
   1 -16   5   19.85    1.50
   1  16   5   19.22    1.39
   1  16   5   18.62    2.17
  -1  16  -5   26.28    2.13
  -1  16  -5   24.70    1.67
   2 -16   5    4.75    0.84
   2 -16   5    4.65    0.90
  -2 -16  -5    7.69    0.88
   2 -16   5    5.16    0.89
  -2  16  -5    4.86    0.92
  -2  16  -5    7.16    1.94
  -2  16  -5    5.55    1.28
   3 -16   5    1.14    0.80
   3 -16   5   -0.04    0.77
   3 -16   5   -0.04    0.92
   3  16   5   -1.50    1.26
  -3  16  -5   -0.42    2.06
   3 -17  -5    2.12    0.86
   3 -17  -5    2.10    0.99
   3 -17  -5    1.68    0.79
   3  17  -5    1.64    1.23
   2 -17  -5    7.58    0.96
   2 -17  -5    6.79    1.19
   2 -17  -5    6.67    0.94
  -2 -17   5    7.26    0.89
   2  17  -5    5.33    1.28
   1 -17  -5   17.75    1.72
   1 -17  -5   18.74    1.50
  -1 -17   5   17.28    1.46
   1 -17  -5   18.38    1.91
   1 -17  -5   17.78    1.58
  -1 -17   5   19.76    1.59
  -1  17   5   18.18    2.69
   1  17  -5   14.53    2.01
   0 -17  -5   11.49    1.33
   0 -17  -5   13.34    1.27
   0 -17  -5   14.88    1.38
   0 -17  -5   15.49    1.87
   0  17   5   11.07    1.21
   0  17   5   16.84    2.02
   1 -17   5   10.98    1.40
  -1 -17  -5    5.80    1.95
   1 -17   5   10.83    1.29
  -1 -17  -5   10.60    1.28
   1 -17   5   10.60    1.17
  -1 -17  -5    9.04    1.24
   1  17   5   11.63    1.67
  -1  17  -5   10.83    1.86
  -1  17  -5   12.14    1.52
  -1  17  -5   11.26    1.37
   2 -17   5    5.17    0.90
   2 -17   5    5.00    0.90
   2 -17   5    3.96    0.91
  -2 -17  -5    5.39    0.85
  -2  17  -5    5.59    2.08
   2  17   5    7.62    1.55
  -2  17  -5    6.43    1.96
  -2  17  -5    6.23    1.03
   3 -17   5    2.22    0.91
   3 -17   5    1.99    1.04
   3 -17   5    0.86    0.91
   3  17   5    3.96    1.49
  -3  17  -5    2.11    2.26
   3 -18  -5    2.86    0.98
   3 -18  -5    1.60    0.95
   3 -18  -5    3.48    1.17
   3  18  -5    3.37    1.53
   2 -18  -5    8.60    1.20
  -2 -18   5    7.53    0.96
   2 -18  -5    6.00    1.07
   2 -18  -5    9.30    1.10
   2  18  -5    7.37    1.53
   1 -18  -5    6.13    1.04
   1 -18  -5    9.30    1.22
  -1 -18   5    8.72    1.21
   1 -18  -5    5.72    1.07
  -1 -18   5    8.12    1.14
   1  18  -5    5.77    1.27
  -1  18   5    6.70    1.67
   0 -18  -5    1.63    1.04
   0 -18  -5    1.00    0.65
   0 -18   5    1.98    0.78
   0 -18   5    1.19    0.53
   0 -18   5    1.56    0.72
   0 -18  -5    2.08    0.73
   0  18  -5    2.80    1.04
   0  18  -5    2.14    1.13
   0  18   5    1.17    1.46
  -1 -18  -5   -2.49    2.03
  -1 -18  -5   -0.08    0.68
   1 -18   5    1.57    0.65
   1  18   5    1.52    1.31
   2 -18   5   -0.16    0.74
   2 -18   5    0.64    0.76
   2 -18   5   -0.41    0.73
  -2 -18  -5    0.70    0.76
   2  18   5    0.20    1.43
  -2  18  -5    0.20    1.92
  -2  18  -5   -1.37    1.17
   2 -19  -5    3.35    0.88
   2 -19  -5    4.51    0.91
   2 -19  -5    2.13    1.01
   2  19  -5    5.28    1.43
   1 -19  -5    9.92    1.42
   1 -19  -5    8.56    1.23
   1 -19  -5    7.37    0.99
  -1 -19   5    7.74    1.03
  -1  19   5   10.52    1.90
   1  19  -5    7.82    1.47
   0 -19  -5    5.76    0.92
   0 -19  -5    4.81    0.85
   0 -19   5    6.54    1.02
   0 -19   5    6.70    0.97
   0 -19  -5    6.24    1.27
   0 -19   5    4.15    0.70
   0  19   5    3.10    1.76
   0  19  -5    6.87    1.38
  -1 -19  -5    3.19    1.61
   1 -19   5    5.50    0.96
   1 -19   5    6.64    0.89
   1 -19   5    7.36    1.14
  -1 -19  -5    6.54    0.95
  -1  19  -5    8.78    1.58
   1  19   5    7.81    1.80
  -1  19  -5    5.62    1.40
   2 -19   5   11.52    1.62
   2 -19   5   11.67    1.57
   2 -19   5   11.86    1.45
  -2 -19  -5    9.87    1.21
   2  19   5    9.13    1.82
  -2  19  -5    8.03    1.66
  -2  19  -5   10.45    2.47
   2 -20  -5   18.86    1.85
   2 -20  -5   19.17    1.86
   2 -20  -5   18.83    2.15
   2  20  -5   18.21    2.69
  -1 -20   5   35.40    2.33
   1 -20  -5   36.74    2.37
   1 -20  -5   36.65    2.63
   1 -20  -5   36.16    2.42
  -1  20   5   38.84    3.72
   1  20  -5   33.91    3.01
   0 -20   5   36.13    2.37
   0 -20  -5   33.23    2.76
   0 -20  -5   34.93    2.37
   0 -20   5   32.79    2.23
   0 -20  -5   35.53    2.24
   0  20  -5   28.55    2.92
   0  20   5   33.16    3.39
  -1 -20  -5   15.50    2.32
   1 -20   5   20.71    1.82
  -1 -20  -5   20.17    1.75
   1 -20   5   22.02    1.92
   1  20   5   20.97    2.99
  -1  20  -5   19.83    2.47
   2 -20   5    3.93    0.96
   2 -20   5    4.04    1.10
   2 -20   5    6.12    1.05
  -2  20  -5    2.44    1.79
   2  20   5    5.80    1.85
   1 -21  -5   12.45    1.62
   1 -21  -5   11.30    1.27
   1 -21  -5   11.64    1.51
  -1 -21   5   12.04    1.53
   1  21  -5   12.31    1.94
  -1  21   5   12.48    2.33
   0 -21  -5    7.18    1.16
   0 -21  -5   11.44    1.42
   0 -21  -5   12.80    1.68
   0 -21   5   11.91    1.49
   0  21  -5   16.59    2.60
   0  21   5    7.95    2.01
  -1 -21  -5   12.00    2.00
   1 -21   5   11.27    1.34
  -1 -21  -5   10.95    1.50
   1 -21   5    8.60    1.09
   1 -21   5    9.94    1.24
   1  21   5   14.23    2.26
  -1  21  -5    7.75    1.62
  -1 -22   5   -0.05    0.84
   1 -22  -5    2.06    0.90
   1 -22  -5    0.62    1.21
   1 -22  -5    0.80    0.96
  -1  22   5    0.04    2.90
   1  22  -5   -0.31    1.85
   0 -22   5    1.82    0.87
   0 -22  -5    3.15    1.39
   0 -22  -5    4.65    0.98
   0  22   5    4.92    2.14
   0  22  -5    1.39    1.73
   5   0  -6    9.39    1.39
   5   0  -6    7.81    1.29
   4   0  -6   63.44    3.74
   4   0  -6   70.43    3.48
   3   0  -6   73.36    3.63
   3   0  -6   74.71    3.69
  -3   0   6   70.15    3.70
   3   0  -6   77.20    3.59
  -3   0   6   76.08    3.83
  -2   0   6  161.05    7.42
  -2   0   6  157.89    7.56
   2   0  -6  152.75    7.45
  -2   0   6  151.13    7.42
   2   0  -6  151.64    7.43
   2   0  -6  157.86    7.43
  -1   0   6   26.80    1.58
  -1   0   6   29.50    1.50
  -1   0   6   31.93    1.51
   1   0  -6   28.38    1.54
   1   0  -6   28.46    1.54
   1   0  -6   28.05    1.56
   0   0   6  246.49   11.13
   0   0  -6  207.65   11.17
   0   0  -6  238.94   11.17
   0   0   6  250.59   11.14
   0   0  -6  229.23   11.15
   0   0   6  231.30   11.16
  -1   0  -6  279.01   13.52
   1   0   6  293.74   13.49
   1   0   6  280.54   13.50
   1   0   6  291.40   13.54
  -1   0  -6  274.61   13.52
   2   0   6   -0.15    0.32
  -2   0  -6    0.27    0.92
  -2   0  -6    0.41    0.42
  -2   0  -6   -0.16    0.36
   2   0   6    0.44    0.30
   3   0   6    6.42    0.69
  -3   0  -6    5.19    0.69
   3   0   6    5.90    0.62
  -3   0  -6    4.96    0.69
  -4   0  -6   13.09    2.73
   5  -1  -6    1.76    1.03
   5  -1  -6    0.56    0.79
   5   1  -6    1.47    1.05
   5   1  -6    0.73    0.83
   4  -1  -6   14.68    1.26
   4   1  -6   14.79    1.15
   4   1  -6   13.43    1.52
   3  -1  -6   12.22    0.94
  -3  -1   6   11.83    0.73
   3  -1  -6   11.97    0.76
  -3  -1   6   14.14    0.99
   3  -1  -6   10.97    0.83
   3   1  -6   12.66    0.82
   3   1  -6   12.69    0.72
   3   1  -6   12.49    0.89
  -3   1   6   13.17    1.08
  -3   1   6   11.63    0.76
   2  -1  -6   37.54    1.96
   2  -1  -6   39.05    1.98
  -2  -1   6   37.13    2.06
  -2  -1   6   38.52    1.92
  -2  -1   6   40.77    1.93
   2  -1  -6   37.12    1.98
   2   1  -6   36.99    1.94
   2   1  -6   40.26    1.94
   2   1  -6   36.63    1.97
  -2   1   6   38.46    1.94
  -2   1   6   38.75    1.93
  -2   1   6   35.81    2.11
   1  -1  -6    4.85    0.61
  -1  -1   6    6.84    0.51
   1  -1  -6    5.46    0.59
   1  -1  -6    6.08    0.57
  -1  -1   6    5.36    0.50
   1   1  -6    5.21    0.62
   1   1  -6    5.94    0.61
   1   1  -6    6.35    0.60
  -1   1   6    6.40    0.49
  -1   1   6    5.54    0.60
  -1   1   6    5.62    0.47
   0  -1  -6    0.43    0.31
   0  -1   6    0.17    0.25
   0  -1   6    1.01    0.26
   0  -1   6    0.28    0.23
   0  -1  -6    0.81    0.30
   0  -1  -6    0.42    0.35
   0   1  -6    1.04    0.32
   0   1   6    0.63    0.25
   0   1   6    0.68    0.25
   0   1  -6    0.67    0.33
  -1  -1  -6    6.49    0.78
   1  -1   6    9.86    0.67
  -1  -1  -6    7.26    0.77
  -1  -1  -6    8.37    0.86
   1   1   6    7.53    0.64
   1   1   6    8.10    0.67
   2  -1   6   -0.06    0.39
  -2  -1  -6    0.10    0.41
   2  -1   6   -0.19    0.29
  -2  -1  -6    0.72    0.94
  -2   1  -6   -0.04    0.40
  -2   1  -6   -0.20    0.36
   2   1   6   -0.12    0.28
   2   1   6   -0.32    0.30
  -2   1  -6   -0.07    0.84
  -3  -1  -6   28.43    1.76
   3  -1   6   33.54    1.78
  -3  -1  -6   35.26    2.88
   3  -1   6   32.45    1.71
  -3  -1  -6   29.95    1.85
  -3   1  -6   39.17    2.98
  -3   1  -6   30.07    1.76
  -3   1  -6   31.66    1.88
   3   1   6   30.04    1.68
  -4  -1  -6    3.77    1.96
  -4   1  -6    5.43    2.10
   5  -2  -6    2.44    0.86
   5  -2  -6    1.16    1.02
   5   2  -6    2.25    1.07
   4  -2  -6    3.73    0.53
   4  -2  -6    3.51    0.39
   4   2  -6    3.95    0.94
   4   2  -6    5.07    0.78
   3  -2  -6   27.29    1.58
   3  -2  -6   25.96    1.48
   3  -2  -6   26.45    1.42
  -3  -2   6   27.64    1.39
   3   2  -6   27.46    1.47
  -3   2   6   25.62    1.74
   3   2  -6   24.47    1.86
  -3   2   6   27.46    1.43
   3   2  -6   28.76    1.43
   2  -2  -6   12.79    0.90
   2  -2  -6   12.83    0.86
  -2  -2   6   12.56    0.75
  -2  -2   6   12.82    0.76
  -2  -2   6   11.29    0.89
   2  -2  -6   11.01    1.54
   2  -2  -6   12.47    0.83
  -2   2   6   14.00    0.79
  -2   2   6   12.20    1.03
  -2   2   6   12.60    0.79
   2   2  -6   12.70    0.80
   2   2  -6   12.29    0.83
   2   2  -6   12.30    0.78
   1  -2  -6   28.42    1.56
  -1  -2   6   26.71    1.58
   1  -2  -6   28.86    1.58
   1  -2  -6   28.57    1.59
  -1  -2   6   30.79    1.53
  -1  -2   6   31.06    1.53
   1   2  -6   29.07    1.55
   1   2  -6   27.96    1.55
  -1   2   6   29.75    1.52
   1   2  -6   29.59    1.57
  -1   2   6   30.20    1.51
  -1   2   6   29.10    1.63
   0  -2  -6    0.89    0.41
   0  -2  -6    1.00    0.32
   0  -2  -6    0.44    0.30
   0   2   6    0.91    0.26
   0   2   6    1.79    0.29
   0   2   6    1.58    0.27
  -1  -2  -6    9.35    0.82
  -1  -2  -6    9.57    0.98
  -1  -2  -6   10.06    0.90
   1   2   6   11.16    0.75
   1   2   6   11.19    0.72
   1   2   6   12.41    0.84
  -2  -2  -6    0.19    0.42
  -2  -2  -6   -0.06    0.38
  -2  -2  -6    0.51    0.88
   2  -2   6    1.02    0.35
   2  -2   6   -0.08    0.33
  -2   2  -6   -0.35    0.38
  -2   2  -6    2.60    1.15
  -2   2  -6    0.46    0.39
   2   2   6    0.06    0.27
   2   2   6    0.14    0.43
  -3  -2  -6    3.72    0.53
  -3  -2  -6    3.85    0.66
   3  -2   6    4.41    0.60
   3  -2   6    4.57    0.61
  -3   2  -6    3.23    0.51
   3   2   6    3.72    0.44
  -3   2  -6    6.79    1.74
   3   2   6    4.31    0.60
  -3   2  -6    4.22    0.66
  -4  -2  -6    5.87    2.00
  -4   2  -6    4.50    2.05
   5  -3  -6    0.89    0.82
   5  -3  -6   -0.73    1.01
   5   3  -6   -0.05    0.97
   4  -3  -6    2.28    0.43
   4  -3  -6    2.72    0.41
   4  -3  -6    3.20    0.76
   4   3  -6    2.93    0.88
   4   3  -6    3.55    0.52
   3  -3  -6    0.40    0.34
   3  -3  -6    0.13    0.29
  -3  -3   6   -0.26    0.18
   3  -3  -6    0.32    0.44
  -3   3   6    1.74    0.65
   3   3  -6    0.25    0.27
   3   3  -6   -0.46    0.58
   3   3  -6    0.46    0.30
  -3   3   6    0.17    0.28
   2  -3  -6    6.91    0.65
   2  -3  -6    6.29    0.64
   2  -3  -6    7.40    0.72
   2  -3  -6    9.71    1.66
  -2  -3   6    6.59    0.58
  -2  -3   6    6.71    0.53
   2   3  -6    9.02    0.95
  -2   3   6    7.29    0.57
  -2   3   6    7.10    0.85
  -2   3   6    6.91    0.55
   2   3  -6    6.18    0.60
   2   3  -6    6.31    0.55
   2   3  -6    6.45    0.61
  -1  -3   6   19.44    1.02
   1  -3  -6   17.22    1.06
  -1  -3   6   15.74    1.03
   1  -3  -6   17.30    1.07
  -1  -3   6   19.09    1.04
   1  -3  -6   16.26    1.11
  -1   3   6   17.56    1.01
   1   3  -6   18.86    1.06
   1   3  -6   17.89    1.08
  -1   3   6   16.69    1.12
   1   3  -6   18.44    1.24
  -1   3   6   18.78    1.01
   1   3  -6   17.44    1.01
   0  -3   6   14.57    0.89
  -1  -3  -6   59.74    3.16
  -1  -3  -6   60.91    3.19
   1   3   6   66.02    3.12
  -1   3  -6   62.20    3.09
   1   3   6   64.33    3.13
   1   3   6   64.80    3.16
  -2  -3  -6   12.14    0.96
  -2  -3  -6   14.15    1.57
   2  -3   6   13.70    0.91
   2  -3   6   11.69    0.94
  -2  -3  -6   12.71    1.04
  -2  -3  -6   11.68    0.77
  -2   3  -6   11.30    0.99
   2   3   6   12.09    0.99
   2   3   6   14.50    1.14
   2   3   6   12.27    0.85
  -2   3  -6   12.33    0.96
  -2   3  -6   12.55    1.68
  -3  -3  -6    6.45    1.60
  -3  -3  -6    3.40    0.51
  -3  -3  -6    2.60    0.63
   3  -3   6    1.92    0.46
  -3   3  -6    2.17    0.44
  -3   3  -6    3.74    1.59
   3   3   6    2.56    0.41
  -3   3  -6    3.04    0.60
   3   3   6    2.71    0.39
   4  -3   6   -1.04    0.83
  -4  -3  -6    1.76    1.77
  -4   3  -6    0.85    1.87
   5  -4  -6    1.07    0.87
   5  -4  -6    0.84    1.05
   5   4  -6    1.94    1.12
   4  -4  -6   10.47    0.87
   4  -4  -6    9.77    0.81
   4  -4  -6    9.88    1.26
   4   4  -6    8.93    1.06
   4   4  -6    9.01    1.44
  -3  -4   6   16.19    0.91
   3  -4  -6   17.50    1.24
   3  -4  -6   16.76    1.08
   3  -4  -6   16.69    1.04
   3   4  -6   15.65    1.46
   3   4  -6   16.60    0.97
   3   4  -6   16.74    0.96
   2  -4  -6  138.59    6.76
   2  -4  -6  136.64    6.79
   2  -4  -6  139.69    6.77
  -2  -4   6  144.46    6.77
  -2  -4   6  140.04    6.72
  -2  -4   6  143.36    6.74
   2  -4  -6  133.90    7.33
  -2   4   6  138.87    6.76
   2   4  -6  143.51    6.74
   2   4  -6  131.25    6.68
  -2   4   6  144.90    6.98
   2   4  -6  142.69    6.75
   2   4  -6  141.39    6.93
  -2   4   6  147.13    6.76
   1  -4  -6  242.12   12.84
  -1  -4   6  300.23   12.83
  -1  -4   6  309.23   12.83
   1  -4  -6  243.57   12.83
   1  -4  -6  244.93   12.82
  -1   4   6  262.07   12.91
  -1   4   6  261.54   12.81
  -1   4   6  257.43   12.82
   1   4  -6  306.42   12.86
   0  -4   6  157.99    7.44
   0  -4  -6  146.12    7.64
   0  -4  -6  143.51    7.56
   0  -4  -6  150.97    7.47
   0  -4   6  161.16    7.48
   0  -4  -6  151.14    7.49
   0  -4   6  159.73    7.47
   0   4  -6  159.13    7.50
   0   4   6  159.04    7.47
   0   4   6  166.82    7.48
   0   4  -6  152.51    7.48
   0   4   6  160.74    7.46
   0   4  -6  152.88    7.51
  -1  -4  -6   24.08    1.42
  -1  -4  -6   22.54    1.43
   1  -4   6   23.96    1.37
   1  -4   6   22.13    1.51
  -1  -4  -6   24.89    1.50
   1   4   6   24.56    1.33
  -1   4  -6   24.22    1.41
   1   4   6   25.37    1.37
  -1   4  -6   24.11    1.45
   1   4   6   25.49    1.35
  -2  -4  -6    4.02    0.57
  -2  -4  -6    5.39    1.16
  -2  -4  -6    3.96    0.46
   2  -4   6    4.62    0.54
   2  -4   6    3.40    0.50
  -2  -4  -6    3.22    0.58
   2   4   6    4.21    0.61
   2   4   6    3.53    0.44
  -2   4  -6    4.09    1.26
   2   4   6    3.48    0.43
  -2   4  -6    3.80    0.55
  -2   4  -6    3.31    0.55
  -3  -4  -6    1.09    0.42
   3  -4   6    1.72    0.43
  -3  -4  -6    0.65    0.56
   3  -4   6    1.49    0.45
  -3  -4  -6    3.62    1.47
  -3   4  -6    2.14    2.22
  -3   4  -6    0.97    0.54
   3   4   6    1.02    0.32
   4  -4   6   -0.60    0.93
  -4  -4  -6    1.62    1.65
  -4   4  -6    1.50    2.00
   4  -5  -6   12.56    1.02
   4  -5  -6   13.83    1.39
   4  -5  -6   11.23    0.93
   4   5  -6   11.50    0.87
   4   5  -6   11.56    1.50
   3  -5  -6   40.63    2.11
   3  -5  -6   38.93    2.22
   3  -5  -6   37.95    2.07
  -3  -5   6   39.96    1.97
   3   5  -6   40.20    2.43
   3   5  -6   39.72    2.01
   3   5  -6   39.40    1.97
   2  -5  -6   86.32    4.31
  -2  -5   6   85.69    4.21
   2  -5  -6   85.67    4.26
   2  -5  -6   80.06    4.68
   2  -5  -6   87.82    4.26
  -2  -5   6   90.58    4.22
   2  -5  -6   84.08    4.91
  -2  -5   6   87.60    4.18
   2   5  -6   82.34    4.15
   2   5  -6   92.60    4.23
  -2   5   6   89.68    4.49
  -2   5   6   82.83    4.25
  -2   5   6   87.55    4.24
   2   5  -6   86.74    4.44
   2   5  -6   90.28    4.26
   1  -5  -6  105.75    5.48
   1  -5  -6  108.07    5.45
  -1  -5   6  115.83    5.45
   1  -5  -6  107.98    5.80
  -1  -5   6  115.57    5.44
   1  -5  -6  109.13    5.45
   1   5  -6  113.95    5.57
  -1   5   6  111.44    5.45
  -1   5   6  112.15    5.43
   1   5  -6  113.91    5.46
   1   5  -6  117.89    5.46
  -1   5   6  117.24    5.56
   0  -5  -6  111.28    5.44
   0  -5   6  112.29    5.41
   0  -5  -6  108.96    5.63
   0  -5  -6  103.39    5.52
   0  -5  -6  105.70    5.41
   0  -5   6  108.13    5.38
   0  -5   6  116.89    5.43
   0   5  -6  112.49    5.45
   0   5   6  109.21    5.40
   0   5  -6  115.06    5.44
   0   5   6  111.63    5.40
   0   5  -6  116.92    5.45
   0   5   6  118.40    5.42
  -1  -5  -6   17.30    1.15
   1  -5   6   18.24    1.08
  -1  -5  -6   17.79    1.28
  -1  -5  -6   16.34    1.09
   1  -5   6   18.18    1.13
   1   5   6   16.72    1.04
  -1   5  -6   16.65    1.07
   1   5   6   17.90    1.01
  -1   5  -6   17.27    1.15
  -1   5  -6   16.03    1.53
  -1   5  -6   15.99    1.17
   1   5   6   17.88    1.05
  -2  -5  -6   10.99    1.02
  -2  -5  -6   10.95    1.01
   2  -5   6   12.78    1.00
   2  -5   6   12.63    0.95
  -2  -5  -6   13.91    1.56
   2   5   6   13.08    1.09
  -2   5  -6   11.38    1.82
  -2   5  -6   12.94    1.03
  -2   5  -6   12.34    1.04
   2   5   6   11.84    0.85
   2   5   6   12.56    0.86
  -3  -5  -6    4.90    0.71
  -3  -5  -6    3.04    0.72
  -3  -5  -6    7.26    1.65
   3  -5   6    3.97    0.60
   3  -5   6    4.36    0.57
  -3   5  -6    4.25    0.68
   3   5   6    4.04    0.48
  -3   5  -6    6.46    1.98
  -3   5  -6    3.26    0.53
   3   5   6    4.12    0.50
   4  -5   6    1.24    1.05
  -4  -5  -6    4.01    1.93
  -4   5  -6    4.04    2.12
   4  -6  -6    1.88    0.49
   4  -6  -6    1.67    0.52
   4  -6  -6    1.67    0.42
   4  -6  -6    2.03    0.72
   4   6  -6    2.13    0.89
   4   6  -6    1.67    0.38
   3  -6  -6   39.85    2.05
   3  -6  -6   39.02    2.22
  -3  -6   6   34.95    2.05
   3  -6  -6   39.03    2.08
   3   6  -6   41.15    1.98
   3   6  -6   39.51    2.41
   3   6  -6   37.37    2.79
   3   6  -6   37.24    1.90
  -2  -6   6   29.99    1.52
  -2  -6   6   27.29    1.52
   2  -6  -6   27.76    1.58
   2  -6  -6   29.62    1.58
   2  -6  -6   27.29    2.43
   2  -6  -6   26.69    2.29
   2  -6  -6   28.40    1.67
   2   6  -6   28.23    1.56
   2   6  -6   31.00    1.56
  -2   6   6   27.33    1.56
  -2   6   6   26.91    1.58
  -2   6   6   28.52    1.88
   2   6  -6   29.91    1.86
   1  -6  -6   32.21    1.81
   1  -6  -6   34.65    2.28
   1  -6  -6   31.82    1.88
   1  -6  -6   32.90    1.83
  -1  -6   6   35.84    1.81
  -1  -6   6   34.79    1.81
   1   6  -6   34.46    1.86
  -1   6   6   33.98    1.81
  -1   6   6   35.26    1.81
  -1   6   6   35.53    1.97
   1   6  -6   35.76    1.98
   1   6  -6   35.23    1.85
   0  -6  -6   41.39    2.33
   0  -6  -6   40.93    2.18
   0  -6  -6   43.53    2.45
   0  -6   6   41.80    2.20
   0  -6  -6   39.57    2.15
   0  -6   6   40.64    2.16
   0   6  -6   41.17    2.23
   0   6  -6   40.26    2.21
   0   6   6   42.81    2.14
   0   6   6   45.72    2.18
   0   6  -6   40.45    2.19
   0   6   6   42.18    2.15
   1  -6   6    7.48    0.87
  -1  -6  -6    7.20    1.06
  -1  -6  -6    7.62    1.00
  -1  -6  -6    7.49    0.81
  -1  -6  -6    6.94    0.71
   1  -6   6    8.13    0.72
   1   6   6    8.53    0.69
  -1   6  -6    7.94    1.29
   1   6   6    7.91    0.64
  -1   6  -6    7.11    0.75
   1   6   6    7.66    0.68
  -1   6  -6    6.77    0.86
  -1   6  -6    7.20    0.81
   1   6   6    7.74    1.19
  -2  -6  -6    4.58    0.57
  -2  -6  -6    4.30    0.74
  -2  -6  -6    4.34    0.62
   2  -6   6    4.41    0.58
  -2  -6  -6    7.04    1.26
   2  -6   6    4.03    0.76
   2   6   6    4.31    0.58
   2   6   6    4.27    0.91
  -2   6  -6    3.54    0.53
  -2   6  -6    7.49    1.53
  -2   6  -6    4.49    0.62
  -2   6  -6    4.23    0.63
   2   6   6    4.69    0.76
   2   6   6    3.37    0.46
  -3  -6  -6   -0.79    0.59
   3  -6   6    0.14    0.45
  -3  -6  -6   -0.19    0.57
  -3  -6  -6   -0.06    0.35
   3  -6   6   -0.58    0.81
   3  -6   6   -0.33    0.43
  -3  -6  -6    1.52    1.32
  -3   6  -6   -0.10    1.50
   3   6   6    0.10    0.33
   3   6   6    0.29    0.34
  -3   6  -6    0.74    0.57
  -3   6  -6    0.24    0.42
  -4  -6  -6    2.47    1.85
   4  -6   6   -0.68    1.04
  -4   6  -6    2.59    2.21
   4  -7  -6    1.05    0.50
   4  -7  -6    0.70    0.45
   4  -7  -6    1.34    0.72
   4   7  -6    0.80    0.86
   3  -7  -6   11.55    1.05
   3  -7  -6   12.08    1.24
  -3  -7   6   12.25    0.81
   3  -7  -6   12.56    1.23
   3  -7  -6   12.23    0.96
   3   7  -6   13.62    0.87
   3   7  -6   13.27    1.42
   3   7  -6   11.87    1.51
   2  -7  -6   52.52    2.69
   2  -7  -6   51.34    3.50
   2  -7  -6   52.78    2.77
   2  -7  -6   49.37    3.36
   2  -7  -6   52.39    2.71
  -2  -7   6   53.33    2.64
   2   7  -6   53.55    2.67
   2   7  -6   55.27    2.67
   2   7  -6   52.36    2.91
  -2   7   6   54.63    3.01
  -2   7   6   48.72    2.71
   1  -7  -6   51.98    2.58
  -1  -7   6   49.27    2.56
   1  -7  -6   52.62    2.60
   1  -7  -6   46.93    2.62
  -1  -7   6   50.80    2.57
   1  -7  -6   49.59    2.99
  -1   7   6   54.63    2.71
   1   7  -6   48.54    2.71
  -1   7   6   50.43    2.56
   1   7  -6   49.20    2.58
  -1   7   6   50.77    2.57
   1   7  -6   48.75    2.58
   0  -7   6   56.42    2.85
   0  -7   6   56.56    2.87
   0  -7  -6   54.96    2.86
   0  -7  -6   53.42    3.00
   0  -7  -6   56.58    3.07
   0  -7  -6   53.80    2.83
   0  -7   6   56.69    2.90
   0   7   6   61.64    2.86
   0   7   6   58.72    2.84
   0   7  -6   52.52    2.91
   0   7  -6   55.52    2.89
   0   7   6   59.02    2.83
   0   7  -6   52.01    2.86
  -1  -7  -6   59.53    3.02
   1  -7   6   60.19    2.96
  -1  -7  -6   58.14    3.13
   1  -7   6   60.60    3.02
  -1  -7  -6   50.06    3.20
   1  -7   6   57.88    2.98
  -1  -7  -6   58.13    3.01
   1   7   6   62.21    2.96
  -1   7  -6   55.82    3.31
   1   7   6   58.87    3.20
  -1   7  -6   54.28    2.97
   1   7   6   62.60    2.95
  -1   7  -6   55.99    3.02
  -1   7  -6   59.66    3.04
   1   7   6   61.22    2.95
  -2  -7  -6   24.88    2.02
  -2  -7  -6   22.81    1.65
  -2  -7  -6   23.39    1.47
   2  -7   6   24.36    1.36
  -2  -7  -6   23.46    1.50
   2  -7   6   25.88    1.49
   2  -7   6   25.38    1.55
   2   7   6   24.08    1.70
  -2   7  -6   24.61    2.31
  -2   7  -6   24.37    1.58
   2   7   6   24.24    1.41
  -2   7  -6   25.05    1.57
   2   7   6   24.69    1.71
   2   7   6   24.18    1.40
  -3  -7  -6    7.82    0.94
   3  -7   6   12.07    1.00
  -3  -7  -6    7.79    1.13
   3  -7   6   10.80    1.31
  -3  -7  -6   13.08    2.00
   3  -7   6    9.41    1.04
  -3  -7  -6    9.13    0.85
   3   7   6   10.03    0.80
  -3   7  -6    8.35    1.12
  -3   7  -6    8.97    0.98
  -3   7  -6   12.89    2.19
   3   7   6    9.42    1.17
   3   7   6    9.42    0.85
  -4  -7  -6    6.25    1.90
  -4   7  -6    6.10    2.47
   4  -8  -6    2.96    0.64
   4  -8  -6    3.66    0.60
   4  -8  -6    1.96    0.81
   4   8  -6    2.61    0.99
   3  -8  -6   16.06    1.17
   3  -8  -6   16.63    1.13
   3  -8  -6   15.47    1.25
  -3  -8   6   16.18    0.96
   3   8  -6   15.54    1.65
   3   8  -6   16.06    1.02
  -2  -8   6   35.37    1.92
   2  -8  -6   35.22    2.06
   2  -8  -6   35.35    1.99
   2  -8  -6   34.63    1.96
   2   8  -6   38.51    2.42
   2   8  -6   36.25    1.96
   2   8  -6   36.96    2.22
   2   8  -6   38.05    1.95
   1  -8  -6   14.46    1.03
   1  -8  -6   15.70    1.67
   1  -8  -6   14.61    1.21
  -1  -8   6   15.61    1.09
  -1  -8   6   16.23    1.05
   1  -8  -6   15.31    1.07
  -1   8   6   14.92    1.02
  -1   8   6   17.26    1.21
  -1   8   6   14.80    1.01
   1   8  -6   16.99    1.29
   1   8  -6   14.16    1.06
   1   8  -6   15.27    1.08
   0  -8  -6   10.45    1.17
   0  -8  -6    8.09    0.75
   0  -8  -6    6.24    1.06
   0  -8  -6    9.58    0.83
   0  -8   6    9.43    0.79
   0  -8   6   10.58    0.88
   0   8   6    8.90    0.76
   0   8  -6    7.30    0.81
   0   8   6    8.17    0.72
   0   8  -6    8.31    0.87
   0   8  -6   11.04    1.00
   0   8   6    8.66    0.80
  -1  -8  -6   17.04    1.37
  -1  -8  -6   13.22    1.51
   1  -8   6   19.20    1.20
   1  -8   6   17.74    1.09
   1  -8   6   18.24    1.12
  -1  -8  -6   13.98    1.11
  -1  -8  -6   13.63    1.05
  -1   8  -6   15.60    1.53
  -1   8  -6   14.43    1.19
   1   8   6   14.67    1.52
   1   8   6   15.37    1.02
  -1   8  -6   14.73    1.13
   1   8   6   14.52    1.05
   1   8   6   14.02    1.00
  -1   8  -6   14.29    1.15
  -2  -8  -6    6.68    1.39
  -2  -8  -6    6.31    0.84
  -2  -8  -6    8.05    0.89
  -2  -8  -6    6.76    0.82
   2  -8   6   10.72    1.37
   2   8   6    7.85    0.77
   2   8   6    8.43    1.23
  -2   8  -6    8.98    1.07
   2   8   6    6.23    0.73
   3  -8   6    0.52    0.50
  -3  -8  -6   -0.21    0.43
  -3  -8  -6    0.28    0.61
  -3  -8  -6    1.34    1.30
   3  -8   6    0.89    0.47
  -3  -8  -6    0.59    0.55
   3  -8   6    0.00    0.88
  -3   8  -6    1.51    1.67
   3   8   6   -0.30    0.35
   3   8   6    0.57    0.40
   3   8   6    0.55    0.70
  -3   8  -6    0.28    0.51
  -3   8  -6    0.19    0.57
  -4  -8  -6    2.55    1.80
   4  -8   6    0.06    1.06
  -4   8  -6    0.30    2.37
   4  -9  -6    0.31    0.75
   4  -9  -6    1.36    0.52
   4  -9  -6    1.53    0.54
   4   9  -6    2.02    1.00
   3  -9  -6    2.25    0.62
   3  -9  -6    2.97    0.55
   3  -9  -6    3.83    0.72
  -3  -9   6    2.75    0.39
   3  -9  -6    3.54    0.60
   3   9  -6    3.29    0.48
   3   9  -6    3.70    1.04
   3   9  -6    4.16    0.96
   2  -9  -6    6.21    0.87
   2  -9  -6    7.00    0.80
   2  -9  -6    7.33    1.01
   2   9  -6    7.20    0.80
   2   9  -6    9.50    1.12
   2   9  -6    7.08    0.79
  -1  -9   6   39.01    2.24
   1  -9  -6   37.27    2.18
   1  -9  -6   38.50    2.55
   1  -9  -6   38.88    2.11
   1  -9  -6   42.61    2.15
  -1  -9   6   37.42    2.11
  -1  -9   6   37.66    2.09
   1   9  -6   37.86    2.12
   1   9  -6   37.39    2.11
  -1   9   6   41.19    2.10
  -1   9   6   40.93    2.26
   1   9  -6   39.61    2.32
  -1   9   6   38.22    2.06
   0  -9  -6  209.63   10.52
   0  -9  -6  244.82   10.58
   0  -9  -6  184.00   10.63
   0   9   6  239.43   10.55
   0   9   6  221.28   10.52
   1  -9   6  105.21    4.65
   1  -9   6  103.10    4.66
  -1  -9  -6   90.46    4.80
   1  -9   6   97.23    4.72
   1  -9   6  105.76    4.70
  -1  -9  -6   87.95    4.68
  -1  -9  -6   86.82    4.61
   1   9   6   85.57    4.84
  -1   9  -6   91.47    4.68
  -1   9  -6   91.76    4.68
   1   9   6   88.74    4.59
  -1   9  -6   93.81    4.98
   1   9   6   86.85    4.59
  -1   9  -6   93.25    4.70
   2  -9   6   55.67    2.84
  -2  -9  -6   51.54    3.19
  -2  -9  -6   50.43    2.74
   2  -9   6   57.24    2.79
   2  -9   6   52.75    3.01
  -2  -9  -6   48.86    2.77
  -2  -9  -6   47.88    2.76
   2  -9   6   55.14    2.67
  -2   9  -6   50.89    2.81
  -2   9  -6   53.28    2.85
   2   9   6   48.65    2.69
   2   9   6   50.30    2.94
  -2   9  -6   55.18    3.51
   2   9   6   49.98    2.66
  -2   9  -6   51.19    2.85
  -3  -9  -6   16.97    1.39
  -3  -9  -6   14.59    1.16
   3  -9   6   18.95    1.91
   3  -9   6   18.22    1.29
   3  -9   6   19.58    1.49
  -3  -9  -6   17.54    2.08
   3   9   6   17.05    1.23
  -3   9  -6   16.17    1.35
   3   9   6   15.71    1.21
  -3   9  -6   20.47    2.70
   3   9   6   17.36    1.52
  -3   9  -6   14.45    1.38
  -4  -9  -6    3.69    1.83
   4  -9   6    3.90    1.21
  -4   9  -6    4.52    2.53
   4 -10  -6    4.41    0.96
   4 -10  -6    3.39    0.63
   4 -10  -6    3.85    0.70
   4  10  -6    3.87    1.17
   3 -10  -6    1.49    0.53
   3 -10  -6    1.71    0.55
  -3 -10   6    1.89    0.36
   3 -10  -6    1.00    0.64
   3 -10  -6    2.25    0.61
   3  10  -6    1.75    0.98
   3  10  -6    1.24    0.84
   2 -10  -6   17.26    1.25
   2 -10  -6   18.17    1.24
   2 -10  -6   17.13    1.42
   2  10  -6   15.97    1.43
   2  10  -6   17.27    1.19
   2  10  -6   18.39    1.62
   2  10  -6   18.28    1.19
  -1 -10   6   51.55    2.81
  -1 -10   6   49.46    2.55
   1 -10  -6   44.74    2.50
   1 -10  -6   44.97    2.49
   1 -10  -6   44.18    2.56
  -1  10   6   45.59    2.49
  -1  10   6   50.20    2.63
   1  10  -6   44.73    2.65
   1  10  -6   48.19    2.50
   1  10  -6   45.47    2.50
   0 -10   6   16.26    1.15
   0 -10  -6   14.26    1.50
   0 -10  -6   17.24    1.17
   0 -10   6   17.12    1.19
   0 -10   6   16.70    1.19
   0 -10   6   16.41    1.24
   0 -10  -6   19.68    1.59
   0 -10  -6   18.42    1.22
   0  10   6   17.32    1.10
   0  10  -6   15.55    1.25
   0  10   6   20.32    1.83
   0  10   6   18.99    1.17
   0  10   6   18.48    1.18
   0  10  -6   15.63    1.33
   0  10  -6   16.41    1.28
   1 -10   6    8.57    0.88
   1 -10   6    7.17    0.94
   1 -10   6    7.73    0.88
   1 -10   6    8.44    1.01
  -1  10  -6    6.95    1.12
  -1  10  -6    6.26    0.80
  -1  10  -6    8.42    1.41
  -1  10  -6    6.39    0.79
  -2 -10  -6    1.71    0.50
  -2 -10  -6    1.64    0.52
   2 -10   6    1.81    0.48
  -2 -10  -6    2.20    1.06
   2 -10   6    1.70    0.74
  -2 -10  -6    1.89    0.55
   2 -10   6    2.14    0.66
   2 -10   6    1.99    0.53
  -2  10  -6    0.46    0.64
  -2  10  -6    2.39    1.41
   2  10   6    1.78    0.47
  -2  10  -6    1.35    0.65
   2  10   6    1.41    0.47
  -2  10  -6    1.35    0.66
   2  10   6    0.82    0.80
  -3 -10  -6    3.25    1.37
  -3 -10  -6    1.47    0.67
  -3 -10  -6    0.27    0.70
   3 -10   6    2.08    0.54
   3 -10   6    1.69    0.98
   3  10   6    2.25    1.14
  -3  10  -6    2.00    0.70
  -3  10  -6    0.45    0.65
  -3  10  -6    2.48    2.08
   4 -10   6    2.63    1.23
  -4 -10  -6    0.22    1.75
   4 -10   6   -0.23    0.56
  -4  10  -6    1.03    2.43
   4 -11  -6    8.27    1.14
   4 -11  -6    7.49    1.06
   4 -11  -6    8.70    1.13
   4  11  -6    9.27    1.32
   3 -11  -6   11.92    1.30
   3 -11  -6   12.25    1.16
   3 -11  -6   14.18    1.39
   3  11  -6   12.54    1.39
   3  11  -6   12.23    1.63
   2 -11  -6   35.08    2.03
   2 -11  -6   35.48    2.16
   2 -11  -6   35.46    2.07
   2  11  -6   35.74    2.31
   2  11  -6   35.28    1.99
   2  11  -6   36.82    1.99
   2  11  -6   33.19    2.19
   1 -11  -6   86.25    4.41
   1 -11  -6   85.02    4.36
   1 -11  -6   86.91    4.34
   1 -11  -6   84.10    4.77
  -1  11   6   83.96    4.34
   1  11  -6   88.74    4.36
   1  11  -6   89.68    4.36
   1  11  -6   87.33    4.49
   0 -11  -6  139.41    6.56
   0 -11  -6  139.10    6.54
   0 -11   6  131.12    6.56
   0 -11   6  128.54    6.46
   0 -11  -6  125.52    6.69
   0 -11   6  128.59    6.59
   0  11  -6  132.37    6.57
   0  11  -6  124.77    6.61
   0  11  -6  129.22    6.55
   0  11   6  140.82    6.53
   0  11  -6  126.61    6.67
   0  11   6  139.29    6.52
   0  11   6  151.53    6.91
  -1 -11  -6   37.47    2.99
   1 -11   6   46.16    2.57
  -1 -11  -6   48.74    2.53
   1 -11   6   46.45    2.59
   1 -11   6   45.01    2.47
  -1 -11  -6   46.27    2.75
   1 -11   6   45.24    2.53
  -1 -11  -6   45.73    2.46
  -1  11  -6   41.43    2.59
   1  11   6   52.80    2.92
   1  11   6   46.52    2.47
  -1  11  -6   44.49    2.57
  -1  11  -6   44.92    2.92
  -1  11  -6   44.53    2.55
   1  11   6   48.20    2.42
   2 -11   6   15.51    1.34
  -2 -11  -6   17.70    1.25
   2 -11   6   16.12    1.32
  -2 -11  -6   15.64    1.63
  -2 -11  -6   14.79    1.34
   2 -11   6   16.25    1.26
   2 -11   6   15.75    1.67
  -2 -11  -6   17.53    1.29
   2  11   6   16.36    1.18
  -2  11  -6   15.97    1.42
  -2  11  -6   15.50    1.47
   2  11   6   17.00    1.74
  -2  11  -6   16.27    2.15
  -2  11  -6   16.26    1.39
   2  11   6   15.95    1.13
  -3 -11  -6    5.30    0.81
   3 -11   6    5.93    1.15
  -3 -11  -6    7.94    1.56
   3  11   6    6.11    1.10
  -3  11  -6    8.26    2.28
  -3  11  -6    5.51    0.92
  -4 -11  -6    3.17    1.84
   4 -11   6    2.40    1.37
   4 -11   6    2.11    0.69
  -4  11  -6    2.22    2.82
   4 -12  -6    0.55    0.61
   4 -12  -6    0.35    0.63
   4 -12  -6   -0.75    0.82
   4  12  -6    0.38    1.04
   3 -12  -6    0.35    0.73
   3 -12  -6    0.13    0.53
   3 -12  -6    0.16    0.56
   3  12  -6    0.98    0.89
   2 -12  -6    4.96    0.81
   2 -12  -6    5.04    0.75
   2 -12  -6    5.15    0.74
   2  12  -6    4.24    0.91
   2  12  -6    4.15    0.64
   2  12  -6    4.22    0.65
   2  12  -6    5.13    0.92
   1 -12  -6    2.62    0.64
   1 -12  -6    3.00    0.70
   1 -12  -6    2.64    0.57
   1 -12  -6    3.17    1.12
  -1  12   6    2.54    0.67
   1  12  -6    2.43    0.59
   1  12  -6    2.69    0.61
   1  12  -6    2.73    0.79
   0 -12  -6    3.67    0.60
   0 -12  -6    2.72    0.88
   0 -12  -6    3.33    0.60
   0 -12   6    2.11    0.60
   0 -12   6    4.05    1.08
   0 -12   6    3.12    0.53
   0  12   6    4.18    0.60
   0  12  -6    1.77    0.64
   0  12  -6    4.40    0.99
   0  12   6    6.01    1.22
   0  12  -6    2.03    0.73
   0  12  -6    3.43    0.69
   0  12   6    4.81    0.82
  -1 -12  -6    4.85    1.35
   1 -12   6    8.30    1.10
  -1 -12  -6   10.49    1.08
   1 -12   6    8.17    0.92
  -1 -12  -6    9.75    0.93
   1 -12   6    6.82    1.01
  -1  12  -6    9.11    1.50
  -1  12  -6   10.34    1.33
   1  12   6   11.03    1.00
  -1  12  -6    6.44    0.87
  -1  12  -6    7.91    0.97
   2 -12   6    7.03    1.05
  -2 -12  -6    8.28    0.96
   2 -12   6    7.77    1.07
  -2 -12  -6    8.23    1.35
  -2 -12  -6    7.18    0.99
   2 -12   6    8.15    1.01
   2  12   6    7.19    0.82
  -2  12  -6    5.34    0.87
  -2  12  -6    6.68    1.02
   2  12   6    7.51    0.92
   2  12   6   11.37    1.67
  -2  12  -6   10.89    1.94
  -2  12  -6    8.33    0.99
   3 -12   6    3.67    1.07
  -3 -12  -6    2.40    0.71
  -3 -12  -6    4.81    1.40
  -3  12  -6    3.49    1.11
  -3  12  -6    1.48    0.80
  -3  12  -6    4.08    1.97
   3  12   6    2.47    1.04
   4 -12   6    0.50    0.71
   4 -12   6   -0.44    0.81
   4 -12   6    1.07    1.41
  -4  12  -6   -0.44    2.84
   4 -13  -6    2.52    1.01
   4 -13  -6    1.75    0.82
   4 -13  -6    1.82    0.71
   4  13  -6    2.20    1.14
   3 -13  -6    1.94    0.80
   3 -13  -6    1.59    0.62
   3 -13  -6    1.74    0.67
   3  13  -6    1.05    0.92
   2 -13  -6   10.18    1.08
   2 -13  -6   10.01    1.32
   2 -13  -6    9.40    1.16
   2  13  -6    9.71    1.01
   2  13  -6    8.59    1.12
   2  13  -6   10.62    1.47
   1 -13  -6   57.79    3.14
   1 -13  -6   59.67    3.20
   1 -13  -6   57.68    3.54
   1 -13  -6   61.77    3.27
   1  13  -6   59.91    3.38
   1  13  -6   58.66    3.15
  -1  13   6   59.25    4.03
   1  13  -6   60.45    3.17
   0 -13  -6   58.38    3.26
   0 -13  -6   56.15    2.97
   0 -13  -6   59.11    2.99
   0 -13   6   53.74    2.85
   0  13   6   58.89    2.94
   0  13  -6   51.05    3.16
   0  13  -6   53.57    3.01
   0  13  -6   55.40    3.03
   0  13  -6   54.37    3.14
   1 -13   6   61.78    3.38
  -1 -13  -6   65.88    3.45
   1 -13   6   61.20    3.40
   1 -13   6   63.43    3.45
  -1 -13  -6   63.36    3.35
  -1 -13  -6   53.05    3.96
   1  13   6   71.31    3.31
  -1  13  -6   62.45    3.56
   1  13   6   69.86    3.35
  -1  13  -6   62.12    3.44
  -1  13  -6   62.27    3.44
  -1  13  -6   68.13    3.85
  -2 -13  -6   44.64    2.44
  -2 -13  -6   40.97    2.71
  -2 -13  -6   43.75    2.47
   2 -13   6   46.82    2.53
   2 -13   6   43.29    2.75
   2 -13   6   44.31    2.52
  -2  13  -6   44.95    3.29
   2  13   6   42.74    2.90
   2  13   6   41.46    2.39
  -2  13  -6   41.37    2.54
  -2  13  -6   45.07    2.62
  -2  13  -6   38.00    2.65
   2  13   6   42.04    2.33
   3 -13   6   32.10    2.45
  -3 -13  -6   32.25    2.52
  -3  13  -6   29.75    2.18
   3  13   6   29.31    2.46
  -3  13  -6   30.82    3.40
   3 -14  -6    1.22    0.63
   3 -14  -6    1.84    0.88
   3 -14  -6    1.19    0.68
   3  14  -6    1.57    1.00
   2 -14  -6    5.25    0.86
   2 -14  -6    3.80    0.72
   2 -14  -6    5.17    0.81
   2  14  -6    4.13    1.03
   2  14  -6    5.27    0.87
   1 -14  -6    3.61    1.22
   1 -14  -6    1.73    0.67
   1  14  -6    1.04    0.63
  -1  14   6    2.55    1.44
   1  14  -6    0.16    0.82
   1  14  -6    1.60    1.68
   0 -14  -6   19.52    1.41
   0 -14  -6   19.82    1.83
   0 -14   6   14.33    1.15
   0 -14  -6   20.33    1.42
   0  14  -6   18.72    1.78
   0  14  -6   18.08    1.61
   0  14   6   22.40    2.31
   0  14  -6   16.27    1.49
   0  14  -6   15.68    1.49
   0  14   6   17.34    1.33
   1 -14   6   19.88    1.57
   1 -14   6   22.54    1.69
  -1 -14  -6   19.31    1.59
  -1 -14  -6   23.26    1.56
  -1  14  -6   25.05    2.16
  -1  14  -6   21.61    1.71
   1  14   6   23.96    1.48
  -1  14  -6   22.71    1.91
   1  14   6   22.81    1.50
  -1  14  -6   23.97    1.71
   2 -14   6    1.30    0.82
  -2 -14  -6    0.01    0.56
   2 -14   6    0.27    0.75
   2 -14   6    0.24    0.61
  -2 -14  -6   -0.03    0.60
  -2 -14  -6    0.28    0.85
  -2  14  -6   -1.30    0.84
   2  14   6    1.53    1.19
  -2  14  -6    0.00    0.69
   2  14   6    0.23    0.46
  -2  14  -6    1.71    1.67
  -2  14  -6   -0.51    0.74
   3 -14   6    1.53    0.95
   3  14   6    3.55    1.35
  -3  14  -6    0.90    2.00
  -3  14  -6    1.68    1.37
   3 -15  -6   23.91    1.80
   3 -15  -6   22.86    1.78
   3 -15  -6   22.15    2.00
   3  15  -6   21.69    2.34
   2 -15  -6   49.58    2.82
   2 -15  -6   49.80    2.95
   2 -15  -6   51.10    2.91
   2  15  -6   52.97    3.22
   1 -15  -6   38.18    2.27
   1 -15  -6   40.59    2.37
   1 -15  -6   38.75    2.82
   1 -15  -6   37.82    2.45
   1  15  -6   36.77    2.24
   1  15  -6   37.59    2.29
   1  15  -6   42.50    2.64
  -1  15   6   43.42    3.32
   1  15  -6   37.34    2.30
   0 -15  -6   23.10    1.63
   0 -15  -6   23.84    1.67
   0 -15  -6   23.89    1.84
   0 -15   6   23.48    1.42
   0 -15  -6   24.61    2.28
   0  15   6   21.09    1.56
   0  15   6   26.49    2.56
  -1 -15  -6   33.80    2.33
  -1 -15  -6   37.42    2.34
   1 -15   6   37.58    2.31
  -1  15  -6   41.08    2.45
  -1  15  -6   46.81    2.90
  -1  15  -6   43.89    2.71
   1  15   6   37.43    2.27
  -1  15  -6   43.39    2.50
   2 -15   6   14.27    1.57
  -2 -15  -6   13.25    1.45
  -2 -15  -6   11.84    1.28
  -2  15  -6   16.04    1.58
  -2  15  -6   15.83    1.87
  -2  15  -6   16.46    1.57
   2  15   6   14.17    2.19
  -2  15  -6   15.58    2.55
   3 -15   6    1.03    0.78
   3 -15   6    0.81    0.75
   3 -15   6    2.49    1.04
   3  15   6    2.10    1.43
  -3  15  -6    1.54    0.92
  -3  15  -6    1.93    2.17
   3 -16  -6    0.67    0.90
   3 -16  -6    0.81    0.75
   3 -16  -6    0.58    0.78
   3  16  -6    3.22    1.27
   2 -16  -6   13.63    1.45
  -2 -16   6   13.35    1.23
   2 -16  -6   11.85    1.26
   2 -16  -6   13.08    1.59
   2  16  -6   13.53    1.88
   1 -16  -6   11.97    1.33
   1 -16  -6   12.62    1.66
   1 -16  -6   11.48    1.93
   1 -16  -6   12.20    1.43
  -1 -16   6   15.75    1.47
   1  16  -6   12.39    1.32
   1  16  -6   13.58    1.40
  -1  16   6   18.60    2.34
   1  16  -6   14.29    1.85
   0 -16  -6   23.81    1.82
   0 -16  -6   24.16    2.24
   0 -16  -6   22.49    1.69
   0 -16  -6   22.64    1.73
   0  16   6   21.93    1.56
   0  16   6   25.25    2.68
  -1 -16  -6   20.26    1.57
  -1 -16  -6   16.06    2.26
   1 -16   6   19.05    1.48
  -1 -16  -6   18.71    1.51
  -1  16  -6   19.63    1.71
  -1  16  -6   20.55    1.75
   1  16   6   19.39    1.44
   1  16   6   20.68    2.49
  -1  16  -6   20.54    2.08
  -1  16  -6   17.38    1.98
   2 -16   6    2.01    0.84
  -2 -16  -6    1.10    0.72
  -2  16  -6    0.28    1.56
   2  16   6    0.30    1.36
  -2  16  -6    0.83    0.86
  -2  16  -6    1.72    0.88
   3 -16   6    1.17    0.85
   3 -16   6    0.44    0.82
   3 -16   6   -1.48    0.98
   3  16   6    0.78    1.52
  -3  16  -6    2.47    0.96
  -3  16  -6    2.51    2.24
   3 -17  -6    0.85    0.90
   3 -17  -6    0.87    0.89
   3 -17  -6    1.04    1.02
   3  17  -6    2.13    1.35
   2 -17  -6   -0.65    0.79
   2 -17  -6    1.00    0.75
   2 -17  -6    0.47    0.67
  -2 -17   6    2.96    0.73
   2  17  -6    2.67    1.10
   1 -17  -6   12.56    2.61
  -1 -17   6   17.53    1.48
   1 -17  -6   12.78    1.33
   1 -17  -6   11.27    1.37
  -1  17   6   13.60    2.14
   0 -17   6   22.00    2.03
   0 -17  -6   19.29    2.25
   0 -17  -6   20.68    1.69
   0 -17  -6   21.75    1.74
   0 -17   6   26.48    1.80
   0  17   6   19.41    2.69
   0  17  -6   21.90    1.79
   0  17  -6   23.15    1.82
   0  17  -6   24.31    2.19
   0  17  -6   24.14    1.83
  -1 -17  -6   21.96    1.77
  -1 -17  -6   16.38    2.30
  -1 -17  -6   16.42    1.65
   1 -17   6   20.81    1.58
   1  17   6   20.48    2.59
  -1  17  -6   23.26    1.86
  -1  17  -6   26.11    2.18
  -1  17  -6   22.85    1.80
  -1  17  -6   24.36    2.20
   2 -17   6    9.56    1.29
   2 -17   6    6.92    1.03
   2 -17   6    8.30    1.08
  -2 -17  -6    7.83    1.01
  -2  17  -6   10.56    2.20
  -2  17  -6    7.00    1.09
   2  17   6    6.48    1.62
  -2  17  -6    6.68    1.43
   3 -17   6    4.45    1.21
   3 -17   6    3.78    1.03
   3 -17   6    3.31    1.09
   3  17   6    4.74    1.79
  -3  17  -6    1.96    2.37
  -3  17  -6    2.92    1.06
   2 -18  -6   -1.01    0.68
   2 -18  -6    1.00    0.93
   2 -18  -6   -0.28    0.76
   2  18  -6   -0.46    1.19
   1 -18  -6    0.04    0.73
   1 -18  -6    0.40    0.69
  -1 -18   6    0.29    0.63
   1 -18  -6    1.52    0.99
  -1  18   6   -0.53    1.75
   1  18  -6    2.79    1.17
   0 -18   6    9.35    0.98
   0  18  -6    9.87    1.56
  -1 -18  -6   -0.91    0.70
   1 -18   6    0.12    0.62
   1 -18   6   -0.54    0.74
   1 -18   6    1.17    1.20
  -1 -18  -6   -2.84    1.47
  -1 -18  -6   -0.11    0.72
  -1  18  -6    0.00    0.79
   1  18   6    1.84    1.52
  -1  18  -6   -0.54    1.31
  -1  18  -6    0.15    1.17
  -2 -18  -6    0.39    0.76
   2 -18   6   -0.23    0.75
   2 -18   6    0.57    0.79
   2 -18   6   -1.28    0.75
   2  18   6    1.07    1.56
  -2  18  -6    0.08    1.90
  -2  18  -6   -0.24    1.21
  -2  18  -6   -0.45    0.85
   2 -19  -6   11.89    1.57
   2 -19  -6   12.07    1.51
   2 -19  -6    8.39    1.31
   2  19  -6    9.64    1.74
   1 -19  -6   10.04    1.42
   1 -19  -6    9.64    1.19
   1 -19  -6    9.87    1.39
  -1  19   6   11.10    2.22
   0 -19  -6   25.71    2.04
   0 -19  -6   25.01    1.86
   0 -19   6   26.90    1.92
   0 -19  -6   26.47    2.55
   0 -19   6   25.45    2.00
   0  19   6   28.71    3.16
   0  19  -6   24.89    2.48
   1 -19   6   10.52    1.47
  -1 -19  -6    9.31    1.34
  -1 -19  -6    9.27    1.97
   1 -19   6    9.31    1.25
   1 -19   6   10.34    1.23
   1  19   6   14.59    2.09
  -1  19  -6   14.72    2.94
  -1  19  -6   10.15    1.59
   2 -19   6    5.18    1.01
   2 -19   6    4.05    0.97
  -2 -19  -6    4.76    1.39
   2 -19   6    3.90    1.06
  -2  19  -6    4.62    2.10
   2  19   6    4.38    1.89
  -2  19  -6    5.19    1.45
   2 -20  -6    5.16    1.10
   2 -20  -6    5.34    1.13
   2 -20  -6    4.38    1.27
   2  20  -6    6.18    1.76
  -1 -20   6    4.20    0.93
   1 -20  -6    2.92    0.92
   1 -20  -6    5.74    1.04
   1 -20  -6    5.66    1.25
  -1  20   6    4.60    2.14
   1  20  -6    3.10    1.44
   0 -20   6    3.37    1.52
   0 -20  -6    3.84    0.87
   0 -20   6    2.14    0.81
   0 -20  -6    3.46    0.94
   0  20  -6    4.02    1.43
   0  20   6    3.70    1.86
   1 -20   6    0.37    0.82
   1 -20   6   -0.62    0.87
   1 -20   6    1.21    0.85
  -1 -20  -6    1.82    0.87
  -1 -20  -6    1.38    1.84
   1  20   6    4.10    1.92
  -1  20  -6    2.58    1.38
   1 -21  -6    1.61    0.90
   1 -21  -6    2.03    0.97
  -1 -21   6    0.45    0.80
   1 -21  -6    1.13    1.19
   1  21  -6    3.53    1.66
  -1  21   6   -0.66    2.39
   0 -21  -6    1.83    1.36
   0 -21  -6    1.32    0.84
   0 -21   6    1.00    0.85
   0 -21  -6    2.36    1.08
   0  21   6    4.21    2.04
   0  21  -6    1.29    1.40
   1 -21   6    1.95    1.00
   1 -21   6    2.72    1.03
  -1 -21  -6    2.41    2.01
  -1 -21  -6    3.21    0.96
   1  21   6    3.83    2.16
  -1  21  -6   -0.04    1.43
   4   0  -7    0.24    0.48
   4   0  -7   -0.84    0.79
  -3   0   7   -0.08    0.44
   3   0  -7   -0.33    0.32
   3   0  -7   -0.52    0.28
  -3   0   7   -0.19    0.26
   3   0  -7    0.15    0.37
  -2   0   7    0.17    0.25
  -2   0   7   -0.37    0.40
   2   0  -7    0.05    0.30
   2   0  -7    0.13    0.33
  -2   0   7   -0.24    0.22
   2   0  -7   -0.10    0.34
   1   0  -7    0.76    0.38
  -2   0  -7    0.30    0.46
   2   0   7   -0.26    0.36
   2   0   7   -0.45    0.30
  -2   0  -7    0.70    1.07
  -2   0  -7   -0.57    0.45
   3   0   7   -0.40    0.33
  -3   0  -7   -0.23    0.52
  -3   0  -7   -0.25    0.40
   3   0   7   -0.20    0.35
  -4   0  -7    4.00    1.94
   4  -1  -7    2.40    0.60
   4  -1  -7    2.57    0.40
   4   1  -7    2.98    0.55
   4   1  -7    3.36    0.97
   3  -1  -7   32.01    1.77
   3  -1  -7   31.70    1.80
  -3  -1   7   33.38    1.90
  -3  -1   7   32.42    1.69
   3  -1  -7   31.32    1.70
   3   1  -7   34.67    1.75
  -3   1   7   30.08    1.99
   3   1  -7   33.87    1.69
  -3   1   7   32.45    1.73
   3   1  -7   33.67    1.76
  -2  -1   7   90.84    4.35
  -2  -1   7   97.24    4.35
  -2  -1   7   90.73    4.48
   2  -1  -7   86.42    4.37
   2  -1  -7   84.29    4.39
   2  -1  -7   84.61    4.37
   2   1  -7   93.62    4.37
  -2   1   7   83.88    4.35
  -2   1   7   83.00    4.52
  -2   1   7   88.93    4.34
   2   1  -7   99.27    4.41
   2   1  -7   90.29    4.35
  -1  -1   7  223.88    9.77
   1  -1  -7  182.77    9.78
  -1  -1   7  214.71    9.77
   1  -1  -7  185.94    9.80
   1  -1  -7  183.85    9.78
   1   1  -7  222.89    9.82
  -1   1   7  197.66    9.75
  -1   1   7  202.14    9.76
   1   1  -7  214.38    9.80
   1   1  -7  218.02    9.80
   0  -1  -7  193.87    9.46
   0  -1  -7  180.45    9.48
   0  -1  -7  190.90    9.44
   0   1   7  203.22    9.41
   0   1   7  206.36    9.40
   0   1   7  205.28    9.40
   1  -1   7  148.58    6.33
  -1  -1  -7  112.26    6.28
   1  -1   7  143.46    6.28
   1   1   7  122.25    6.25
  -1   1  -7  124.25    6.29
  -1   1  -7  138.75    6.34
   1   1   7  120.81    6.24
   1   1   7  118.73    6.28
  -1   1  -7  136.43    6.31
   2  -1   7   70.37    3.24
  -2  -1  -7   60.42    3.86
  -2  -1  -7   57.98    3.30
   2  -1   7   74.86    3.30
  -2  -1  -7   57.77    3.29
  -2   1  -7   67.73    3.32
  -2   1  -7   70.07    3.94
   2   1   7   59.21    3.23
   2   1   7   59.14    3.20
  -2   1  -7   66.94    3.32
  -3  -1  -7   17.05    1.39
   3  -1   7   20.30    1.22
   3  -1   7   21.52    1.30
  -3  -1  -7   17.66    1.28
  -3  -1  -7   20.30    2.80
  -3   1  -7   20.57    1.39
  -3   1  -7   25.50    2.77
   3   1   7   17.50    1.21
  -4  -1  -7   13.07    2.41
  -4   1  -7   12.58    2.52
   4  -2  -7   -0.50    0.31
   4  -2  -7    0.58    0.55
   4   2  -7    0.08    0.42
   4   2  -7    0.21    0.80
   3  -2  -7    0.94    0.39
  -3  -2   7    1.56    0.45
   3  -2  -7    1.11    0.45
   3  -2  -7    0.77    0.36
  -3  -2   7    1.00    0.26
  -3   2   7   -0.02    0.58
   3   2  -7    1.15    0.35
   3   2  -7    0.87    0.33
   3   2  -7    0.39    0.71
   3   2  -7    1.17    0.31
  -2  -2   7   11.29    0.71
   2  -2  -7   10.36    0.83
   2  -2  -7   10.23    0.86
  -2  -2   7   10.26    0.86
  -2  -2   7   10.05    0.72
   2  -2  -7   11.68    0.83
  -2   2   7   11.10    0.72
   2   2  -7   10.50    0.78
  -2   2   7   10.62    0.75
  -2   2   7    9.95    0.97
   2   2  -7   10.78    0.81
   2   2  -7    9.95    0.75
  -1  -2   7   61.65    2.87
   1  -2  -7   56.27    2.91
   1  -2  -7   54.14    2.92
   1  -2  -7   54.26    2.92
   1   2  -7   63.38    2.90
  -1   2   7   56.92    2.85
   1   2  -7   61.12    2.90
  -1   2   7   56.03    2.86
   1   2  -7   61.11    2.92
  -1   2   7   49.43    2.92
   0  -2  -7   73.92    3.91
   0  -2  -7   68.83    3.97
   0  -2   7   85.56    3.92
   0  -2   7   82.82    3.87
   0  -2  -7   73.56    3.94
   0  -2   7   81.39    3.88
   0   2   7   81.46    3.87
   0   2  -7   78.34    3.91
   0   2   7   79.45    3.87
   0   2   7   78.67    3.86
   0   2  -7   82.38    3.94
   1  -2   7   20.39    1.27
   1  -2   7   20.94    1.21
   1  -2   7   20.65    1.27
  -1  -2  -7   19.06    1.48
  -1  -2  -7   20.92    1.29
  -1   2  -7   18.72    1.33
   1   2   7   20.89    1.16
   1   2   7   18.87    1.19
  -1   2  -7   18.37    1.20
  -1   2  -7   21.17    1.29
   1   2   7   21.46    1.23
   2  -2   7    0.14    0.40
  -2  -2  -7   -0.15    0.99
   2  -2   7    0.62    0.37
  -2  -2  -7    0.46    0.47
  -2  -2  -7   -0.14    0.26
  -2  -2  -7    0.82    0.48
   2   2   7    0.21    0.30
  -2   2  -7   -0.56    0.44
  -2   2  -7    0.09    0.46
   2   2   7    0.23    0.33
  -2   2  -7    2.20    1.27
  -3  -2  -7   -0.01    0.44
  -3  -2  -7   -0.92    0.56
   3  -2   7    0.44    0.38
  -3  -2  -7    0.94    1.45
   3  -2   7   -0.37    0.42
   3   2   7    0.31    0.35
  -3   2  -7    0.92    1.46
   3   2   7    0.17    0.33
  -3   2  -7   -0.55    0.53
  -4  -2  -7    2.18    1.77
  -4   2  -7    4.72    2.02
   4  -3  -7    2.71    0.46
   4  -3  -7    2.97    0.88
   4   3  -7    3.73    0.98
   4   3  -7    3.76    0.52
   3  -3  -7    1.80    0.47
   3  -3  -7    2.22    0.50
   3  -3  -7    1.96    0.41
  -3  -3   7    2.13    0.32
   3   3  -7    2.23    0.34
   3   3  -7    2.46    0.37
   3   3  -7    2.07    0.38
   3   3  -7    1.52    0.75
  -2  -3   7    8.21    0.63
  -2  -3   7    6.98    0.71
   2  -3  -7    8.07    0.78
   2  -3  -7    7.88    0.75
  -2  -3   7    8.28    0.64
   2  -3  -7    8.19    0.77
  -2   3   7    7.10    0.69
  -2   3   7    7.75    0.91
   2   3  -7    8.56    1.13
  -2   3   7    7.40    0.64
   2   3  -7    9.05    0.73
   2   3  -7    8.80    0.73
   2   3  -7    8.33    0.64
   1  -3  -7   36.78    2.09
  -1  -3   7   40.33    2.03
   1  -3  -7   38.12    2.08
   1  -3  -7   38.61    2.06
  -1  -3   7   41.41    2.02
   1   3  -7   40.62    2.21
   1   3  -7   40.14    2.06
   1   3  -7   38.06    2.03
  -1   3   7   39.52    2.00
  -1   3   7   35.12    2.09
   1   3  -7   40.71    2.08
  -1   3   7   39.36    2.01
   0  -3  -7  156.87    7.91
   0  -3  -7  145.50    8.05
   0  -3   7  170.12    7.87
   0  -3  -7  153.51    7.88
   0  -3   7  192.68    7.90
   0  -3  -7  141.48    7.96
   0  -3   7  186.53    7.86
   0   3   7  163.09    7.86
   0   3   7  162.98    7.85
   0   3   7  163.06    7.84
   1  -3   7  108.37    5.14
  -1  -3  -7   97.61    5.24
   1  -3   7  108.80    5.16
  -1  -3  -7  104.43    5.18
  -1   3  -7  101.14    5.10
  -1   3  -7  107.51    5.20
   1   3   7  103.44    5.14
   1   3   7  107.09    5.12
   1   3   7  108.04    5.11
  -1   3  -7  104.93    5.17
  -2  -3  -7   30.16    2.41
  -2  -3  -7   30.45    1.78
   2  -3   7   31.39    1.69
  -2  -3  -7   27.65    1.80
  -2  -3  -7   26.79    1.57
   2  -3   7   31.14    1.74
   2   3   7   30.27    1.64
   2   3   7   29.77    1.61
  -2   3  -7   29.90    1.75
  -2   3  -7   30.01    1.76
  -2   3  -7   30.71    2.49
  -3  -3  -7   13.01    2.15
   3  -3   7    9.44    0.96
  -3  -3  -7    8.59    1.05
  -3  -3  -7    7.21    0.89
   3  -3   7    8.78    0.86
  -3   3  -7    8.99    1.02
  -3   3  -7   13.24    2.25
  -3   3  -7    7.28    0.87
   3   3   7    9.53    0.78
   3   3   7    8.72    0.79
  -4  -3  -7    3.34    1.90
  -4   3  -7    2.88    2.06
   4  -4  -7    0.26    0.60
   4  -4  -7    0.41    0.40
   4   4  -7    0.27    0.50
   4   4  -7    0.11    0.83
  -3  -4   7    0.40    0.26
   3  -4  -7    0.46    0.36
   3  -4  -7    0.13    0.43
   3  -4  -7    0.25    0.47
   3   4  -7    0.04    0.28
   3   4  -7    0.21    0.29
   3   4  -7    0.43    0.34
   3   4  -7    0.41    0.68
   2  -4  -7    8.41    0.80
  -2  -4   7    8.80    0.63
  -2  -4   7    6.96    0.66
   2  -4  -7    8.62    0.83
  -2  -4   7    8.20    0.64
   2  -4  -7    7.38    0.77
   2   4  -7    8.57    0.72
  -2   4   7    8.02    0.67
   2   4  -7    8.10    0.72
   2   4  -7    8.24    1.11
  -2   4   7    8.13    0.77
  -2   4   7    7.18    0.97
   1  -4  -7    1.18    0.41
   1  -4  -7    0.93    0.44
   1  -4  -7    0.83    0.37
   1   4  -7    1.14    0.37
  -1   4   7    0.90    0.27
  -1   4   7    1.23    0.31
  -1   4   7    1.24    0.48
   0  -4   7   30.63    1.49
   0  -4  -7   24.31    1.83
   0  -4  -7   24.51    1.72
   0  -4   7   27.10    1.52
   0  -4   7   28.14    1.50
   0  -4  -7   25.84    1.57
   0  -4  -7   24.54    1.53
   0   4  -7   27.10    1.57
   0   4   7   27.31    1.49
   0   4   7   28.01    1.46
   0   4  -7   26.18    1.54
   0   4   7   29.19    1.50
   0   4  -7   26.23    1.59
  -1  -4  -7   11.66    0.97
   1  -4   7   11.00    0.92
   1  -4   7   10.93    0.87
  -1  -4  -7   11.79    1.08
  -1   4  -7   10.18    0.93
  -1   4  -7   10.91    1.00
   1   4   7   12.40    0.84
   1   4   7   11.74    0.84
   1   4   7   11.82    0.80
  -1   4  -7   11.14    0.87
  -2  -4  -7    5.70    1.37
  -2  -4  -7    5.07    0.56
  -2  -4  -7    5.82    0.71
  -2  -4  -7    4.57    0.69
   2  -4   7    5.34    0.65
   2  -4   7    5.04    0.72
  -2   4  -7    4.81    0.67
   2   4   7    4.86    0.65
   2   4   7    4.71    0.61
  -2   4  -7    5.09    0.68
  -2   4  -7    5.27    1.38
  -3  -4  -7   -0.70    0.54
  -3  -4  -7    0.10    0.44
  -3  -4  -7    2.01    1.40
   3  -4   7    0.06    0.47
   3  -4   7    0.30    0.41
  -3   4  -7    1.68    1.70
  -3   4  -7    0.31    0.56
   3   4   7   -0.31    0.36
  -3   4  -7   -0.18    0.45
   3   4   7   -0.24    0.34
   4  -4   7   -0.66    1.00
  -4  -4  -7    4.35    1.90
  -4   4  -7    0.99    2.05
   4  -5  -7    7.89    1.18
   4  -5  -7    7.28    0.72
   4  -5  -7    6.75    0.86
   4   5  -7    7.56    0.88
   4   5  -7    7.35    1.11
  -3  -5   7   27.10    1.44
   3  -5  -7   25.64    1.59
   3  -5  -7   24.78    1.46
   3   5  -7   24.60    1.34
   3   5  -7   24.64    1.38
   3   5  -7   22.87    1.85
   3   5  -7   22.97    1.31
  -2  -5   7   36.07    1.88
   2  -5  -7   35.84    1.94
   2  -5  -7   35.91    1.99
  -2  -5   7   34.66    1.84
   2  -5  -7   36.39    1.96
  -2   5   7   36.57    2.22
   2   5  -7   36.68    1.91
   2   5  -7   35.36    1.82
   2   5  -7   37.04    1.93
   2   5  -7   34.43    2.18
  -2   5   7   36.72    1.93
   1  -5  -7  149.05    7.44
  -1  -5   7  158.81    7.42
   1  -5  -7  148.48    7.77
   1  -5  -7  153.12    7.48
  -1  -5   7  156.07    7.43
   1  -5  -7  152.34    7.45
   1   5  -7  153.98    7.45
   1   5  -7  153.44    7.44
  -1   5   7  162.97    7.43
  -1   5   7  148.80    7.52
  -1   5   7  158.93    7.43
   1   5  -7  154.37    7.55
   0  -5  -7  107.58    5.45
   0  -5  -7  104.68    5.66
   0  -5  -7  109.51    5.47
   0  -5   7  117.21    5.41
   0  -5   7  113.01    5.44
   0  -5   7  112.91    5.46
   0  -5  -7  107.63    5.60
   0   5   7  112.84    5.42
   0   5   7  111.72    5.43
   0   5  -7  108.42    5.46
   0   5   7  122.85    5.45
   0   5  -7  109.22    5.49
   0   5  -7  113.21    5.49
  -1  -5  -7   62.70    3.40
   1  -5   7   67.03    3.29
  -1  -5  -7   62.58    3.29
  -1  -5  -7   62.98    3.37
   1  -5   7   66.69    3.27
   1   5   7   61.57    3.34
   1   5   7   65.99    3.23
  -1   5  -7   65.12    3.31
  -1   5  -7   63.65    3.31
   1   5   7   67.43    3.22
  -1   5  -7   62.42    3.23
  -2  -5  -7   27.86    1.75
  -2  -5  -7   28.21    2.36
  -2  -5  -7   26.51    1.74
   2  -5   7   27.99    1.69
  -2  -5  -7   27.18    1.61
   2  -5   7   31.31    1.66
  -2   5  -7   29.94    1.75
  -2   5  -7   31.34    2.50
  -2   5  -7   25.11    1.52
   2   5   7   28.71    1.56
  -2   5  -7   28.03    1.73
   2   5   7   27.69    1.59
   3  -5   7    4.35    0.86
  -3  -5  -7    5.10    0.74
  -3  -5  -7    8.81    1.78
  -3  -5  -7    5.58    0.77
   3  -5   7    4.72    0.62
  -3   5  -7    6.24    1.91
   3   5   7    4.44    0.54
  -3   5  -7    4.43    0.67
   3   5   7    4.49    0.55
  -3   5  -7    3.63    0.70
  -4  -5  -7    2.79    1.82
  -4   5  -7    2.26    2.29
   4  -6  -7   12.25    1.34
   4  -6  -7    8.85    1.13
   4  -6  -7   12.26    1.02
   4   6  -7    9.92    1.60
   3  -6  -7   13.23    1.17
   3  -6  -7   12.16    1.01
   3  -6  -7   11.93    0.99
   3   6  -7   11.83    0.88
   3   6  -7   13.26    0.82
   3   6  -7   10.81    0.72
   2  -6  -7  132.02    6.48
  -2  -6   7  128.38    6.43
   2  -6  -7  133.55    6.52
   2  -6  -7  132.57    6.49
  -2   6   7  136.74    6.77
   2   6  -7  132.65    6.47
   2   6  -7  137.14    6.46
   2   6  -7  134.63    6.68
   1  -6  -7  122.98    6.10
   1  -6  -7  118.10    6.41
   1  -6  -7  122.72    6.15
  -1  -6   7  126.65    6.08
   1  -6  -7  124.12    6.09
  -1  -6   7  128.69    6.08
   1   6  -7  124.38    6.09
  -1   6   7  130.10    6.09
  -1   6   7  125.04    6.18
   1   6  -7  128.63    6.22
   1   6  -7  121.22    6.10
  -1   6   7  129.37    6.08
   0  -6   7   56.28    2.88
   0  -6  -7   56.30    3.11
   0  -6   7   57.75    2.83
   0  -6  -7   55.43    2.90
   0  -6  -7   55.65    3.18
   0  -6   7   57.83    2.87
   0  -6  -7   54.35    2.87
   0   6  -7   53.31    2.91
   0   6   7   56.66    2.84
   0   6   7   63.99    2.89
   0   6  -7   52.04    2.88
   0   6  -7   54.93    2.94
   0   6   7   56.57    2.85
  -1  -6  -7   23.84    1.58
  -1  -6  -7   20.91    1.45
  -1  -6  -7   21.72    1.38
   1  -6   7   21.06    1.38
   1  -6   7   23.21    1.34
  -1   6  -7   22.29    1.88
  -1   6  -7   20.83    1.42
   1   6   7   22.66    1.27
   1   6   7   23.80    1.32
  -1   6  -7   20.37    1.44
  -1   6  -7   20.53    1.33
   1   6   7   18.18    1.54
  -2  -6  -7   34.14    1.99
   2  -6   7   37.36    2.00
   2  -6   7   35.49    2.08
  -2  -6  -7   35.45    2.10
  -2  -6  -7   36.78    2.08
  -2  -6  -7   37.35    2.66
   2   6   7   34.91    1.94
  -2   6  -7   36.71    2.10
  -2   6  -7   32.16    1.93
  -2   6  -7   38.48    2.78
   2   6   7   36.26    1.91
  -3  -6  -7    1.90    0.40
  -3  -6  -7    2.08    0.57
   3  -6   7    1.68    0.76
  -3  -6  -7    2.41    0.68
  -3  -6  -7    4.06    1.53
   3  -6   7    1.57    0.51
  -3   6  -7    3.30    1.72
  -3   6  -7    1.81    0.66
  -3   6  -7    2.36    0.56
   3   6   7    1.90    0.42
   3   6   7    0.85    0.53
   4  -6   7   -0.63    1.11
  -4  -6  -7    2.05    1.89
  -4   6  -7    4.30    2.57
   4  -7  -7    2.03    0.59
   4  -7  -7    1.46    0.72
   4   7  -7    4.01    1.04
   3  -7  -7    0.96    0.65
   3  -7  -7    1.96    0.50
   3  -7  -7    2.49    0.55
   3   7  -7    1.08    0.41
   3   7  -7    1.45    0.79
   3   7  -7    1.14    0.55
   2  -7  -7  167.39    8.34
  -2  -7   7  178.47    8.38
   2  -7  -7  176.43    8.31
   2  -7  -7  168.10    8.31
   2   7  -7  171.22    8.49
   2   7  -7  170.35    8.29
   2   7  -7  173.10    8.28
   1  -7  -7   24.80    1.43
   1  -7  -7   23.71    1.40
  -1  -7   7   23.43    1.38
  -1  -7   7   23.03    1.38
   1  -7  -7   22.35    1.58
  -1   7   7   22.97    1.40
   1   7  -7   27.11    1.63
  -1   7   7   23.09    1.39
   1   7  -7   24.61    1.45
   1   7  -7   22.33    1.41
  -1   7   7   22.55    1.53
   0  -7  -7   16.61    1.04
   0  -7   7   13.98    1.03
   0  -7   7   12.68    0.97
   0  -7  -7   17.83    1.08
   0   7  -7   12.88    1.05
   0   7   7   14.33    0.97
   0   7  -7   17.39    1.20
   0   7   7   11.81    0.92
   0   7   7   13.42    0.99
   0   7  -7   13.26    1.11
  -1  -7  -7  103.69    4.60
  -1  -7  -7   86.32    4.81
   1  -7   7   86.93    4.54
  -1  -7  -7   96.96    4.54
   1  -7   7   88.42    4.51
  -1   7  -7   87.68    4.57
   1   7   7   89.78    4.48
  -1   7  -7   82.92    4.49
   1   7   7   95.12    4.48
  -1   7  -7   92.87    4.58
   1   7   7   95.31    4.50
  -1   7  -7   85.46    4.90
   2  -7   7   21.11    1.51
  -2  -7  -7   29.49    2.49
   2  -7   7   19.45    1.40
  -2   7  -7   20.61    1.58
   2   7   7   24.15    1.35
   2   7   7   25.95    1.38
  -2   7  -7   20.61    1.49
  -2   7  -7   19.14    1.52
  -2   7  -7   21.78    2.37
   3  -7   7    7.29    0.87
  -3  -7  -7    9.62    1.15
  -3  -7  -7    6.37    1.06
  -3  -7  -7    9.67    1.14
   3  -7   7    5.09    0.77
   3  -7   7    6.58    1.20
   3   7   7    8.20    0.78
  -3   7  -7    6.58    0.88
  -3   7  -7    7.83    0.99
  -3   7  -7    8.46    2.17
   4  -7   7    0.15    1.13
  -4  -7  -7    4.36    1.93
  -4   7  -7    2.16    2.58
   4  -8  -7    0.35    0.50
   4  -8  -7    0.09    0.55
   4  -8  -7    1.36    0.75
   4   8  -7    2.19    1.51
   3  -8  -7   25.50    1.70
   3  -8  -7   23.63    1.53
   3  -8  -7   24.88    1.64
   3   8  -7   25.13    1.44
   3   8  -7   23.19    1.91
   2  -8  -7    3.27    0.55
   2  -8  -7    3.10    0.62
   2  -8  -7    3.08    0.51
   2   8  -7    4.37    0.81
   2   8  -7    3.43    0.64
   2   8  -7    3.96    0.52
   1  -8  -7   55.69    3.30
  -1  -8   7   54.79    2.83
  -1  -8   7   52.11    2.74
   1  -8  -7   51.18    2.74
   1  -8  -7   49.58    2.85
   1  -8  -7   52.28    2.77
  -1   8   7   53.79    2.99
   1   8  -7   50.60    2.89
   1   8  -7   54.18    2.76
  -1   8   7   55.90    2.75
  -1   8   7   53.76    2.74
   1   8  -7   52.32    2.77
   0  -8  -7    6.19    0.82
   0  -8  -7    6.14    0.76
   0   8   7    7.15    0.79
   0   8   7    6.01    0.72
   0   8   7    6.38    0.69
   1  -8   7    3.72    0.62
  -1  -8  -7    5.15    0.78
   1  -8   7    4.49    0.73
  -1  -8  -7    4.11    0.68
  -1  -8  -7    1.77    0.89
  -1  -8  -7    3.12    0.56
   1  -8   7    3.61    0.55
  -1   8  -7    6.23    1.28
  -1   8  -7    2.86    0.67
  -1   8  -7    2.54    0.61
   1   8   7    4.46    0.52
   1   8   7    3.62    0.50
   1   8   7    4.72    0.75
  -1   8  -7    3.30    0.61
  -2  -8  -7   28.50    1.79
   2  -8   7   29.31    1.88
  -2  -8  -7   28.90    1.88
   2  -8   7   31.80    1.81
  -2  -8  -7   30.22    2.42
  -2  -8  -7   29.92    1.84
  -2   8  -7   34.38    2.75
  -2   8  -7   29.45    1.92
   2   8   7   30.96    2.11
   2   8   7   31.43    1.71
   2   8   7   31.32    1.75
  -2   8  -7   29.91    1.87
  -2   8  -7   30.76    1.97
   3  -8   7    3.51    1.07
  -3  -8  -7    3.80    0.78
   3  -8   7    3.74    0.59
  -3  -8  -7    5.26    1.80
   3   8   7    3.07    0.64
  -3   8  -7    3.38    0.70
  -3   8  -7    2.82    0.76
  -3   8  -7    7.22    1.99
   4  -8   7    1.22    1.24
  -4  -8  -7    1.55    1.86
  -4   8  -7    2.96    2.50
   4  -9  -7    3.80    0.71
   4  -9  -7    4.30    0.71
   4  -9  -7    3.91    0.89
   4   9  -7    4.04    1.17
   3  -9  -7   26.19    1.65
   3  -9  -7   25.28    1.85
   3  -9  -7   27.32    1.87
   3   9  -7   29.09    2.06
   3   9  -7   26.25    1.55
   3   9  -7   28.69    2.51
   2  -9  -7    4.88    0.66
   2  -9  -7    3.90    0.69
   2  -9  -7    3.96    0.59
   1  -9  -7   69.76    3.98
   1  -9  -7   73.56    3.91
   1  -9  -7   71.85    3.89
  -1   9   7   71.84    3.89
   1   9  -7   86.54    3.94
   1   9  -7   87.68    4.11
   1   9  -7   82.43    3.94
   0  -9  -7   62.22    3.37
   0  -9  -7   59.70    3.45
   0  -9  -7   60.90    3.24
   0  -9   7   66.25    3.29
   0  -9  -7   70.50    3.56
   0  -9   7   68.05    3.26
   0  -9   7   62.04    3.23
   0   9   7   68.88    3.30
   0   9  -7   58.69    3.31
   0   9   7   60.18    3.21
   0   9  -7   60.53    3.25
   0   9  -7   60.98    3.28
   0   9   7   58.06    3.17
  -1  -9  -7    1.24    0.49
  -1  -9  -7    1.38    0.53
  -1  -9  -7    2.07    0.71
  -1  -9  -7    0.67    0.87
  -1   9  -7    4.01    1.31
  -1   9  -7    2.86    0.60
  -1   9  -7    2.15    0.60
   1   9   7    1.75    0.42
  -1   9  -7    2.78    0.60
   1   9   7    2.51    0.99
   1   9   7    1.70    0.50
  -2  -9  -7    5.54    1.41
   2  -9   7    5.94    0.98
  -2  -9  -7    5.39    0.71
   2  -9   7    5.33    0.69
  -2  -9  -7    5.04    0.70
   2  -9   7    7.37    1.02
  -2  -9  -7    5.64    0.78
  -2   9  -7    5.04    0.79
   2   9   7    4.77    0.59
   2   9   7    5.85    1.09
   2   9   7    4.99    0.64
  -2   9  -7    9.18    1.88
  -2   9  -7    5.09    0.78
  -2   9  -7    6.73    1.05
   3  -9   7    0.89    0.92
  -3  -9  -7    0.92    0.69
  -3  -9  -7    1.83    1.44
  -3   9  -7    1.68    0.72
  -3   9  -7    0.23    1.72
   3   9   7    1.25    0.90
   4  -9   7    1.09    1.29
  -4  -9  -7    2.13    1.95
  -4   9  -7    0.78    2.58
   4 -10  -7    6.35    0.79
   4 -10  -7    6.90    0.85
   4 -10  -7    6.58    1.06
   4  10  -7    8.34    1.34
   3 -10  -7   15.29    1.28
   3 -10  -7   16.13    1.24
   3 -10  -7   15.90    1.49
   3  10  -7   15.28    1.10
   3  10  -7   14.44    2.17
   3  10  -7   17.37    1.83
   2 -10  -7   65.80    3.53
   2 -10  -7   65.00    3.47
   2 -10  -7   67.72    3.45
   2  10  -7   66.78    3.74
   2  10  -7   69.88    3.43
   2  10  -7   66.21    3.43
   1 -10  -7   65.15    3.30
   1 -10  -7   60.53    3.36
   1 -10  -7   63.36    3.24
   1  10  -7   63.57    3.45
   1  10  -7   62.97    3.27
   1  10  -7   63.78    3.28
  -1  10   7   62.16    3.28
   0 -10   7   68.50    3.60
   0 -10   7   70.50    3.50
   0 -10   7   68.38    3.59
   0  10  -7   67.88    3.66
   0  10  -7   69.16    3.61
   0  10  -7   70.97    3.59
   1 -10   7    7.93    0.85
   1 -10   7    7.61    1.13
  -1 -10  -7    7.31    0.92
  -1 -10  -7    7.52    0.97
   1 -10   7    7.24    0.81
   1 -10   7    6.83    0.92
  -1 -10  -7    5.86    1.27
  -1  10  -7    6.82    0.83
   1  10   7   10.14    1.31
   1  10   7    6.50    0.85
   1  10   7    7.07    0.77
  -1  10  -7    6.93    1.10
  -1  10  -7    7.24    1.04
  -1  10  -7   10.34    1.55
  -2 -10  -7    1.55    0.61
   2 -10   7    2.44    0.86
   2 -10   7    1.00    0.60
  -2 -10  -7    2.26    1.22
   2 -10   7    1.79    0.51
   2 -10   7    1.05    0.58
  -2 -10  -7    1.85    0.58
  -2 -10  -7    1.48    0.54
  -2  10  -7    1.63    0.71
   2  10   7    1.93    1.01
   2  10   7    1.51    0.49
  -2  10  -7    1.44    0.69
   2  10   7    1.62    0.45
  -2  10  -7    1.03    0.65
  -2  10  -7    3.71    1.71
  -3 -10  -7   -0.44    1.34
  -3 -10  -7    0.09    0.64
   3 -10   7    0.06    0.89
   3  10   7    0.45    0.98
  -3  10  -7   -1.10    0.66
  -3  10  -7    1.06    1.98
  -4 -10  -7    0.70    1.99
   4 -10   7    0.34    1.28
  -4  10  -7    0.12    2.67
   4 -11  -7   -0.58    0.62
   4 -11  -7    0.37    0.58
   4 -11  -7    0.76    0.90
   4  11  -7    0.68    1.08
   3 -11  -7    8.20    1.02
   3 -11  -7    8.82    1.32
   3 -11  -7    7.59    1.04
   3  11  -7    7.14    0.85
   3  11  -7    7.86    1.23
   2 -11  -7   11.80    1.29
   2 -11  -7    9.19    1.27
   2 -11  -7   11.65    1.08
   2  11  -7   10.75    1.05
   2  11  -7   11.92    1.05
   2  11  -7    9.56    1.38
   2  11  -7   12.49    1.52
   1  11  -7    6.90    0.78
   1  11  -7    6.20    0.91
   1  11  -7    6.66    0.94
   0 -11  -7   31.16    1.79
   0 -11  -7   22.81    2.07
   0 -11  -7   26.60    1.72
   0  11   7   31.01    1.73
   0  11   7   30.97    1.83
   1 -11   7    1.85    0.63
   1 -11   7    1.25    0.55
  -1 -11  -7    2.14    0.59
   1 -11   7    2.27    0.66
  -1 -11  -7    2.21    1.12
  -1 -11  -7    1.24    0.56
   1  11   7    2.11    1.12
  -1  11  -7    1.53    0.70
  -1  11  -7    3.06    1.19
  -1  11  -7    1.45    0.66
   1  11   7    1.87    0.45
  -1  11  -7    2.63    0.75
   1  11   7    2.44    0.60
  -2 -11  -7    0.98    0.58
   2 -11   7    1.96    0.50
  -2 -11  -7    0.59    0.65
   2 -11   7    1.74    0.68
  -2 -11  -7    0.30    0.64
   2 -11   7    1.46    0.86
  -2 -11  -7    1.99    1.16
  -2  11  -7    0.36    0.65
   2  11   7    0.70    1.01
   2  11   7    1.33    0.52
   2  11   7    0.67    0.45
  -2  11  -7    2.66    1.73
  -2  11  -7    0.29    0.69
  -2  11  -7    0.37    0.73
  -3 -11  -7    1.27    1.45
   3 -11   7    1.01    1.00
  -3 -11  -7   -0.19    0.71
   3  11   7   -0.72    2.06
  -3  11  -7    0.81    1.98
  -3  11  -7    0.08    0.75
   4 -11   7   -1.55    1.46
  -4 -11  -7    1.28    1.97
  -4  11  -7    2.84    4.61
   4 -12  -7    6.58    0.89
   4 -12  -7    7.97    1.20
   4 -12  -7    6.75    1.10
   4  12  -7    8.13    1.40
   3 -12  -7   11.19    1.45
   3 -12  -7   10.66    1.17
   3 -12  -7    9.57    1.17
   3  12  -7   10.17    1.64
   2 -12  -7    8.08    1.10
   2 -12  -7    7.45    0.84
   2 -12  -7    9.36    1.26
   2  12  -7    8.28    0.94
   2  12  -7    7.83    0.97
   2  12  -7    7.32    1.17
   2  12  -7    8.77    1.15
   1 -12  -7   15.81    1.50
   1 -12  -7   15.79    1.27
   1 -12  -7   14.48    1.22
   1  12  -7   12.90    1.49
   1  12  -7   12.55    1.21
   1  12  -7   11.21    1.22
   0 -12  -7   19.35    1.33
   0 -12  -7   13.46    1.19
   0 -12  -7   10.92    1.71
   0  12   7   16.79    1.21
  -1 -12  -7    0.07    0.56
  -1 -12  -7    0.54    0.56
   1 -12   7   -0.16    0.55
   1 -12   7    0.23    0.62
   1 -12   7    0.59    0.62
  -1 -12  -7   -0.35    1.17
  -1  12  -7    0.07    0.74
   1  12   7    0.48    1.13
   1  12   7   -0.16    0.45
  -1  12  -7   -0.28    0.67
  -1  12  -7    0.50    1.16
   1  12   7   -0.55    0.62
  -1  12  -7    0.68    0.65
   2 -12   7    1.68    0.71
   2 -12   7    1.66    0.94
  -2 -12  -7    0.40    0.63
  -2 -12  -7    2.30    1.20
   2 -12   7    1.94    0.55
  -2 -12  -7    0.69    0.60
   2  12   7    0.86    0.46
   2  12   7    0.42    0.54
  -2  12  -7    1.69    0.79
  -2  12  -7    1.87    1.58
  -2  12  -7    0.61    0.75
   2  12   7    1.16    1.14
  -2  12  -7    1.77    0.76
  -3 -12  -7    2.55    1.43
   3 -12   7    0.32    1.00
  -3  12  -7    1.18    0.85
  -3  12  -7    1.09    2.06
   3  12   7    2.01    1.15
   3 -13  -7   -0.07    0.61
   3 -13  -7    0.54    0.80
   3 -13  -7    0.36    0.63
   3  13  -7    0.88    0.96
   2 -13  -7    1.08    0.75
   2 -13  -7    1.39    0.63
   2 -13  -7    1.68    0.64
   2  13  -7    0.76    0.54
   2  13  -7    0.85    0.59
   2  13  -7    0.24    0.78
   2  13  -7    1.02    0.87
   1 -13  -7    0.64    1.09
   1 -13  -7    1.20    1.34
   1 -13  -7   -0.11    0.58
   1  13  -7   -0.39    0.57
   1  13  -7   -0.10    0.77
   0 -13  -7   -0.01    0.93
   0 -13  -7    0.38    0.56
   0 -13  -7    0.92    0.58
   0 -13   7   -0.38    0.44
   0  13  -7    0.05    0.64
   0  13  -7    0.24    0.65
   0  13  -7    1.13    0.97
   0  13   7    0.49    0.52
   0  13   7    0.24    1.32
  -1 -13  -7    4.27    1.41
   1 -13   7    0.80    0.63
  -2 -13  -7    1.03    0.59
   2 -13   7    0.19    0.80
  -2 -13  -7    1.60    1.17
  -2 -13  -7   -0.18    0.66
   2 -13   7    0.10    0.58
   2 -13   7    0.66    0.70
  -2  13  -7    0.10    0.68
  -2  13  -7   -0.50    0.75
  -2  13  -7   -1.33    0.71
   2  13   7    0.87    0.48
  -2  13  -7    0.53    2.67
   2  13   7   -1.04    1.17
  -3 -13  -7   -0.75    1.26
   3 -13   7    0.98    0.99
   3  13   7    0.59    1.26
  -3  13  -7    0.53    2.30
   3 -14  -7   15.21    1.77
   3 -14  -7   14.64    1.47
   3 -14  -7   17.65    1.52
   3  14  -7   15.85    1.98
   2 -14  -7   14.36    1.61
   2 -14  -7   12.67    1.32
   2 -14  -7   14.32    1.37
   2  14  -7   13.23    1.73
   2  14  -7   13.14    1.20
   1 -14  -7    7.50    1.08
   1 -14  -7    7.85    0.98
   1 -14  -7    7.62    0.91
   1  14  -7   11.62    1.63
   1  14  -7    8.28    1.14
   1  14  -7    8.00    0.95
   0 -14  -7    4.34    0.74
   0 -14   7    3.01    0.53
   0 -14  -7    3.27    0.73
   0  14   7    3.77    0.68
   0  14  -7    4.80    0.81
   0  14  -7    5.44    1.07
   0  14  -7    3.67    0.79
   1 -14   7    2.07    0.67
  -1 -14  -7    3.83    0.75
  -1  14  -7    4.00    1.51
  -1  14  -7    3.22    0.96
  -1  14  -7    1.86    0.76
  -1  14  -7    2.38    0.81
  -2 -14  -7    0.10    1.69
   2 -14   7   -0.22    0.76
  -2 -14  -7    0.75    0.66
  -2  14  -7   -0.94    0.89
   2  14   7    0.95    1.29
  -2  14  -7    1.49    0.86
  -2  14  -7    0.42    0.77
  -2  14  -7    1.03    1.92
   3 -14   7    0.01    1.00
  -3  14  -7    1.94    2.24
  -3  14  -7   -1.21    0.88
   3  14   7   -0.38    1.46
   3 -15  -7    2.62    0.95
   3 -15  -7    2.81    0.82
   3 -15  -7    2.01    0.79
   3  15  -7    3.36    1.23
   2 -15  -7    2.77    0.74
   2 -15  -7    1.53    0.83
   2 -15  -7    2.64    0.76
   2  15  -7    2.95    1.13
   2  15  -7    2.21    0.65
   1 -15  -7    3.69    0.78
   1 -15  -7    3.45    0.76
   1 -15  -7    3.37    0.98
   1  15  -7    3.38    1.03
   1  15  -7    4.49    0.78
   1  15  -7    6.08    1.04
   1  15  -7    4.20    0.83
   0 -15  -7    2.38    0.68
   0 -15  -7    1.91    0.72
   0 -15  -7    2.32    1.11
   0 -15   7    3.49    0.54
   0  15   7    2.95    0.85
   0  15  -7    5.31    0.88
   0  15  -7    4.95    0.88
  -1 -15  -7   -0.96    1.51
  -1 -15  -7    2.53    0.76
  -1 -15  -7    1.62    0.72
   1  15   7    3.44    1.45
  -1  15  -7    2.74    0.84
  -1  15  -7    3.39    0.86
   1  15   7    2.55    0.65
  -1  15  -7    4.74    1.49
  -1  15  -7    3.67    1.05
  -2 -15  -7    2.23    0.74
   2 -15   7    3.33    0.91
  -2 -15  -7    3.94    1.14
  -2  15  -7    0.72    1.03
  -2  15  -7    1.80    1.80
  -2  15  -7    0.65    0.90
   2  15   7    3.42    1.46
  -2  15  -7    1.93    0.90
   3 -15   7    0.12    1.03
   3  15   7   -0.23    1.55
  -3  15  -7   -0.98    2.09
  -3  15  -7    0.23    0.92
   3 -16  -7    5.46    1.00
   3 -16  -7    4.75    1.10
   3 -16  -7    3.75    0.94
   3  16  -7    6.10    1.45
   2 -16  -7   14.64    1.59
   2 -16  -7   19.79    1.83
   2 -16  -7   14.41    1.54
   2  16  -7   20.83    2.09
   1 -16  -7   42.22    2.77
   1 -16  -7   39.65    3.02
   1  16  -7   52.96    2.81
   1  16  -7   52.60    3.15
   1  16  -7   53.30    2.85
   1  16  -7   52.52    2.83
   0 -16  -7   19.89    1.86
   0 -16  -7   19.45    1.64
   0 -16  -7   18.24    1.66
   0 -16  -7   20.52    2.20
   0  16   7   22.43    2.76
  -1 -16  -7    5.05    0.95
   1 -16   7    5.49    0.82
  -1 -16  -7    4.36    0.82
  -1 -16  -7    3.09    2.22
  -1  16  -7    4.96    1.01
  -1  16  -7    7.52    1.67
  -1  16  -7    5.72    1.46
  -1  16  -7    5.47    0.95
  -2 -16  -7    1.48    0.81
   2 -16   7    1.58    0.81
  -2  16  -7    0.39    1.14
   2  16   7    2.59    1.58
  -2  16  -7    1.22    1.89
  -2  16  -7   -0.84    0.80
  -2  16  -7   -0.28    0.86
   3 -16   7    0.28    0.95
   3 -16   7    0.88    1.12
  -3  16  -7   -1.11    0.94
  -3  16  -7   -1.38    2.32
   3  16   7    1.04    1.67
   3 -17  -7    3.81    1.39
   3 -17  -7    2.70    1.06
   3 -17  -7    2.30    1.06
   3  17  -7    3.02    1.56
   2 -17  -7    5.41    1.08
   2 -17  -7    4.73    0.98
  -2 -17   7    5.99    1.04
   2 -17  -7    6.13    1.01
   2  17  -7    4.94    1.31
   1 -17  -7    8.60    1.11
   1 -17  -7    7.99    1.07
   1 -17  -7   10.25    1.69
   1  17  -7   13.96    1.98
   1  17  -7    9.98    1.34
   1  17  -7    9.66    1.35
   0 -17  -7   13.51    1.43
   0 -17  -7   11.79    1.62
   0 -17  -7   10.08    1.16
   0 -17   7    9.45    0.99
   0  17  -7   13.94    1.69
   0  17  -7   11.70    1.55
   0  17   7   16.59    2.23
   0  17  -7   15.52    1.99
   0  17  -7   13.77    1.52
  -1 -17  -7    7.82    0.97
  -1 -17  -7    8.81    1.10
  -1 -17  -7    3.62    1.85
   1 -17   7    5.90    0.88
  -1  17  -7    7.18    1.07
  -1  17  -7    7.98    1.14
  -1  17  -7    8.86    1.77
   1  17   7    8.96    1.87
  -1  17  -7    7.79    1.36
   2 -17   7    3.35    0.92
  -2 -17  -7    2.38    0.92
  -2  17  -7    1.33    1.29
  -2  17  -7    4.84    1.06
   2  17   7    4.46    1.76
  -2  17  -7    2.42    1.28
  -2  17  -7    3.26    2.15
   2 -18  -7    1.68    0.97
   2 -18  -7    1.11    0.84
   2 -18  -7    1.72    0.78
   2  18  -7    1.30    1.26
   1 -18  -7    2.15    1.08
   1 -18  -7    1.62    0.81
   1 -18  -7    2.09    0.79
   1  18  -7    4.18    1.27
   0 -18   7   -0.13    0.78
   0 -18  -7   -0.02    1.17
   0 -18  -7    0.25    0.86
   0 -18  -7    1.60    0.77
   0  18  -7    0.02    0.78
   0  18  -7    1.62    1.16
   0  18   7    1.12    1.74
   0  18  -7    0.28    0.78
   1 -18   7    0.78    0.68
  -1 -18  -7   -2.73    1.70
  -1 -18  -7    0.04    0.75
  -1  18  -7    1.53    1.54
  -1  18  -7    1.24    0.98
   1  18   7    3.35    2.50
  -1  18  -7    0.82    1.16
  -1  18  -7   -0.53    0.87
   2 -18   7    1.59    0.85
  -2 -18  -7    0.80    0.87
   2 -18   7    1.20    0.94
   2 -18   7    1.43    0.90
  -2  18  -7    0.39    1.31
  -2  18  -7   -0.41    0.84
  -2  18  -7    0.77    2.21
   2  18   7    1.04    1.75
   2 -19  -7    1.53    1.09
   2 -19  -7    3.98    0.96
   2 -19  -7    1.74    1.19
   2  19  -7    2.43    1.62
  -1 -19   7    7.86    1.05
   1 -19  -7    7.68    1.11
   1 -19  -7    6.25    1.02
   1 -19  -7    7.87    1.36
   1  19  -7    8.71    1.52
   0 -19  -7   11.48    1.70
   0 -19  -7   14.08    1.58
   0 -19  -7   15.44    1.84
   0 -19   7   14.16    1.68
   0  19   7   15.89    2.44
   0  19  -7   15.31    2.23
   0  19  -7   12.59    1.43
   1 -19   7   10.10    1.27
  -1 -19  -7    6.14    2.09
   1 -19   7    6.41    1.02
  -1 -19  -7    9.05    1.11
   1  19   7   12.86    2.20
  -1  19  -7    6.97    1.49
  -1  19  -7    6.71    1.18
   2 -19   7    2.89    0.88
   2 -19   7    3.40    1.21
   2 -19   7    5.06    1.01
  -2  19  -7    2.66    1.09
  -2  19  -7    1.70    2.26
  -2  19  -7    1.12    1.44
   2  19   7    4.09    1.98
   1 -20  -7   15.48    1.72
   1 -20  -7   14.47    2.18
   1 -20  -7   13.51    1.69
  -1 -20   7   15.22    1.65
   1  20  -7   14.99    2.00
   0 -20  -7    9.41    1.55
   0 -20  -7   15.29    1.93
   0 -20   7   11.22    1.47
   0 -20  -7   13.97    1.66
   0  20  -7   16.15    2.50
   0  20   7   17.08    2.59
   1 -20   7    5.70    1.13
  -1 -20  -7    4.23    2.07
   1 -20   7    6.82    1.17
  -1 -20  -7    8.40    1.20
  -1  20  -7    8.05    1.63
   1  20   7   10.18    2.18
   0 -21  -7   12.60    1.94
   0 -21  -7   10.59    1.33
   0 -21   7    8.92    1.21
   0  21  -7   11.13    1.92
   0  21   7   13.68    2.87
   4   0  -8   11.24    1.72
   4   0  -8   13.40    0.92
   4   0  -8   13.59    1.12
   3   0  -8  150.08    6.75
   3   0  -8  132.22    6.85
  -3   0   8  133.33    6.96
   3   0  -8  143.94    6.78
   2   0  -8   85.10    4.10
   2   0  -8   82.32    4.08
   2   0  -8   86.24    4.13
  -2   0   8   73.63    4.20
  -2   0   8   85.71    4.05
   1   0  -8   98.55    4.77
  -1   0   8   99.71    4.69
   1   0  -8   88.78    4.74
  -1   0   8  102.86    4.69
  -1   0   8   89.31    4.73
   1   0  -8   96.49    4.73
   0   0   8    8.14    0.71
   0   0   8    9.53    0.73
   0   0  -8   11.05    0.84
   0   0   8    7.07    0.68
  -2   0  -8   16.82    1.34
  -2   0  -8   20.38    2.25
   2   0   8   18.76    1.16
   2   0   8   18.61    1.24
  -2   0  -8   17.94    1.37
  -3   0  -8    1.48    0.53
   3   0   8    2.95    0.47
  -3   0  -8    6.54    1.84
  -3   0  -8    2.59    0.64
   3   0   8    2.76    0.50
  -4   0  -8    5.58    2.18
   4  -1  -8    1.98    0.44
   4  -1  -8    1.09    0.78
   4   1  -8    1.56    0.38
   4   1  -8    1.65    0.95
   4   1  -8    1.63    0.51
   3  -1  -8   16.95    1.15
   3  -1  -8   14.10    1.06
  -3  -1   8   16.82    1.26
   3   1  -8   18.21    1.07
   3   1  -8   16.50    1.19
   3   1  -8   16.52    1.08
   2  -1  -8   13.14    1.00
  -2  -1   8   14.09    0.88
   2  -1  -8   12.77    1.03
  -2  -1   8   11.96    1.05
   2  -1  -8   13.69    0.99
   2   1  -8   14.24    0.94
   2   1  -8   15.40    0.98
   2   1  -8   15.23    1.03
  -2   1   8   11.76    0.88
   1  -1  -8   36.55    2.07
  -1  -1   8   33.49    2.04
   1  -1  -8   40.50    2.12
   1  -1  -8   36.23    2.11
  -1  -1   8   43.34    2.02
  -1  -1   8   39.45    2.01
  -1   1   8   38.23    1.99
  -1   1   8   36.33    2.00
   1   1  -8   40.25    2.10
   1   1  -8   38.79    2.07
   1   1  -8   40.38    2.11
   0  -1   8    3.32    0.52
   0  -1   8    2.23    0.41
   0  -1   8    1.52    0.37
   0   1  -8    2.32    0.48
   0   1  -8    2.50    0.54
   1  -1   8    2.87    0.47
   1  -1   8    2.48    0.54
   1  -1   8    3.32    0.52
  -1   1  -8    2.30    0.60
  -1   1  -8    2.45    0.50
  -1   1  -8    2.60    0.53
   2  -1   8    0.33    0.36
   2  -1   8    0.35    0.47
  -2  -1  -8    0.02    1.23
  -2  -1  -8    0.11    0.54
  -2  -1  -8   -0.61    0.51
  -2   1  -8   -0.04    0.54
  -2   1  -8   -0.59    0.50
  -2   1  -8    1.14    1.28
   2   1   8    0.28    0.32
   2   1   8    0.19    0.37
  -3  -1  -8    1.45    1.59
  -3  -1  -8   -0.11    0.58
   3  -1   8    0.46    0.38
   3  -1   8    0.45    0.41
   3   1   8   -0.47    0.37
  -3   1  -8   -0.25    1.63
  -3   1  -8   -0.47    0.58
   3   1   8    0.29    0.36
  -3   1  -8   -0.04    0.45
  -4  -1  -8    8.71    2.32
  -4   1  -8    8.99    2.62
   4  -2  -8    4.79    0.56
   4  -2  -8    3.76    1.09
   4   2  -8    5.29    0.56
   4   2  -8    5.20    1.09
   4   2  -8    5.30    0.71
   3  -2  -8    0.51    0.68
  -3   2   8    0.88    0.85
   2  -2  -8    6.87    0.79
   2  -2  -8    8.52    0.86
   2  -2  -8    7.70    0.81
  -2   2   8    8.34    0.75
  -2   2   8    5.79    0.91
  -1  -2   8    5.50    0.66
   1  -2  -8    5.79    0.68
   1  -2  -8    5.11    0.66
  -1  -2   8    7.37    0.61
   1  -2  -8    5.22    0.69
  -1   2   8    5.45    0.57
  -1   2   8    5.41    0.59
   0  -2  -8    1.75    0.49
   0  -2  -8    1.50    0.56
   0  -2   8    1.25    0.32
   0  -2  -8    1.49    0.44
   0  -2   8    0.88    0.34
   0  -2   8    1.02    0.40
   0   2  -8    1.82    0.51
   0   2  -8    1.18    0.41
   1  -2   8   16.53    1.12
   1  -2   8   17.92    1.23
  -1  -2  -8   20.61    1.42
   1  -2   8   17.22    1.23
  -1  -2  -8   20.32    1.28
  -1  -2  -8   17.93    1.40
  -1   2  -8   17.34    1.31
   1   2   8   17.18    1.19
   1   2   8   19.08    1.18
  -1   2  -8   15.30    1.24
  -1   2  -8   16.09    1.14
   1   2   8   18.32    1.08
   2  -2   8   17.85    1.26
  -2  -2  -8   16.64    1.31
  -2  -2  -8   14.14    1.08
  -2  -2  -8   16.03    2.19
   2  -2   8   18.37    1.16
  -2  -2  -8   16.17    1.31
  -2   2  -8   18.10    1.32
  -2   2  -8   17.71    1.37
   2   2   8   17.66    1.15
   2   2   8   18.94    1.09
  -2   2  -8   19.71    2.21
   3  -2   8    1.04    0.61
   3  -2   8    1.38    0.42
  -3  -2  -8    3.72    1.68
  -3  -2  -8    1.54    0.67
  -3   2  -8    0.56    0.62
   3   2   8    0.97    0.40
  -3   2  -8    0.79    0.60
  -3   2  -8    1.54    1.74
   3   2   8    1.82    0.42
  -4  -2  -8    2.60    1.99
  -4   2  -8    4.72    2.33
   4  -3  -8    0.38    0.44
   4  -3  -8    0.44    0.61
   4   3  -8    0.76    0.40
   4   3  -8    0.17    0.85
   4   3  -8    0.79    0.34
   3  -3  -8    3.95    0.64
   3  -3  -8    3.99    0.59
   3  -3  -8    3.36    0.52
  -3  -3   8    4.08    0.67
   3   3  -8    4.41    0.47
   3   3  -8    3.77    0.47
   3   3  -8    3.54    0.97
   2  -3  -8    0.26    0.42
  -2  -3   8   -0.60    0.35
  -2  -3   8   -0.05    0.32
   2  -3  -8    0.08    0.40
   2  -3  -8   -0.10    0.40
  -2   3   8   -0.09    0.49
   2   3  -8    0.51    0.35
   2   3  -8   -0.12    0.36
   2   3  -8    0.33    0.72
   2   3  -8   -0.15    0.37
   1  -3  -8    0.23    0.47
  -1  -3   8    0.65    0.32
   1  -3  -8   -0.62    0.37
   1  -3  -8    0.12    0.43
  -1  -3   8    0.40    0.31
   1   3  -8    1.15    0.60
  -1   3   8    0.14    0.29
   1   3  -8    0.62    0.38
   1   3  -8    0.95    0.43
  -1   3   8    0.90    0.37
  -1   3   8    0.38    0.27
   0  -3   8   29.97    1.66
   0  -3   8   30.49    1.71
   0  -3  -8   33.14    2.10
   0  -3  -8   25.99    1.85
   0  -3   8   32.86    1.64
   0  -3  -8   29.96    1.78
   0  -3  -8   28.94    1.73
   0   3  -8   27.80    1.77
   0   3  -8   27.19    1.72
   0   3   8   29.95    1.62
   0   3   8   33.36    1.68
   0   3   8   32.07    1.65
   0   3  -8   30.76    1.78
  -1  -3  -8    9.21    0.94
   1  -3   8    6.84    0.71
   1  -3   8    7.03    0.84
  -1  -3  -8    8.07    0.92
   1  -3   8    6.20    0.72
  -1  -3  -8    7.85    1.15
   1   3   8    6.22    0.63
  -1   3  -8    6.52    0.75
  -1   3  -8    6.11    0.77
   1   3   8    7.40    0.74
  -1   3  -8    6.81    0.79
   1   3   8    6.52    0.70
   2  -3   8    8.82    0.99
   2  -3   8    8.76    0.84
  -2  -3  -8   11.43    1.83
  -2  -3  -8    8.89    1.10
  -2  -3  -8    8.59    1.05
  -2  -3  -8    6.93    0.85
   2   3   8    9.67    0.83
  -2   3  -8   11.74    1.88
   2   3   8   10.21    0.76
  -2   3  -8    9.30    1.09
  -2   3  -8    8.19    1.03
   3  -3   8    2.36    0.61
  -3  -3  -8    4.81    1.55
   3  -3   8    2.94    0.47
  -3  -3  -8    1.72    0.67
  -3   3  -8    1.56    0.55
  -3   3  -8    2.44    0.69
  -3   3  -8    2.21    1.75
   3   3   8    2.38    0.45
   3   3   8    2.59    0.46
  -4  -3  -8    4.15    1.99
  -4   3  -8    0.16    2.17
   4  -4  -8    5.26    0.81
   4  -4  -8    4.73    0.51
   4  -4  -8    4.22    0.62
   4   4  -8    4.20    1.07
   3  -4  -8   21.31    1.41
   3  -4  -8   19.79    1.30
   3  -4  -8   20.78    1.38
   3   4  -8   19.59    1.28
   3   4  -8   21.32    1.22
   3   4  -8   21.15    1.75
   3   4  -8   19.82    1.18
   2  -4  -8   12.60    1.03
   2  -4  -8   12.82    0.99
  -2  -4   8   11.02    1.12
   2  -4  -8   12.31    1.03
  -2  -4   8   11.14    0.88
   2   4  -8   12.47    1.32
   2   4  -8   12.07    0.95
  -2   4   8   11.13    1.22
   2   4  -8   12.43    0.89
   2   4  -8   13.17    0.95
  -1  -4   8   67.07    3.68
  -1  -4   8   70.15    3.53
   1  -4  -8   71.89    3.62
   1  -4  -8   70.21    3.58
   1  -4  -8   70.06    3.60
   1   4  -8   72.26    3.71
  -1   4   8   70.59    3.52
   1   4  -8   70.90    3.57
  -1   4   8   69.96    3.61
  -1   4   8   72.90    3.53
   1   4  -8   72.64    3.60
   0  -4  -8   55.74    2.95
   0  -4  -8   55.30    2.98
   0  -4  -8   55.93    3.23
   0  -4   8   60.50    2.87
   0  -4   8   56.28    2.92
   0  -4  -8   53.50    3.13
   0  -4   8   56.90    2.91
   0   4  -8   53.96    2.95
   0   4   8   57.28    2.86
   0   4   8   57.70    2.89
   0   4  -8   56.74    3.00
   0   4  -8   57.56    2.98
   0   4   8   61.35    2.90
  -1  -4  -8   16.12    1.21
   1  -4   8   15.08    1.11
  -1  -4  -8   17.13    1.31
   1  -4   8   13.71    1.02
   1   4   8   15.63    1.02
   1   4   8   15.70    1.03
  -1   4  -8   14.35    1.19
  -1   4  -8   13.97    1.15
   1   4   8   13.48    0.95
  -1   4  -8   13.71    1.03
  -2  -4  -8   -1.85    1.14
  -2  -4  -8    0.48    0.59
  -2  -4  -8   -0.74    0.77
   2  -4   8   -0.05    0.40
  -2  -4  -8    0.04    0.61
  -2   4  -8   -0.58    0.63
   2   4   8    1.00    0.38
  -2   4  -8   -0.27    0.57
   2   4   8    0.32    0.33
  -2   4  -8   -0.39    1.36
  -3  -4  -8    0.65    0.65
   3  -4   8    0.17    0.50
   3  -4   8    0.74    0.42
  -3  -4  -8    4.30    1.65
  -3   4  -8    0.11    0.55
  -3   4  -8    4.91    2.76
   3   4   8    1.29    0.41
  -3   4  -8    0.60    0.64
   3   4   8    0.99    0.38
  -4  -4  -8    4.68    1.90
  -4   4  -8    2.42    2.23
   4  -5  -8    3.29    0.77
   4  -5  -8    3.88    0.54
   4  -5  -8    4.15    0.66
   4   5  -8    3.74    1.45
   3  -5  -8   30.55    2.22
   3  -5  -8   32.00    1.84
   3  -5  -8   30.42    1.84
   3   5  -8   28.84    1.63
   3   5  -8   31.78    2.18
   3   5  -8   32.10    1.73
   3   5  -8   33.08    1.69
  -2  -5   8   91.86    5.04
   2  -5  -8  112.99    5.18
   2  -5  -8  108.19    5.17
   2  -5  -8  110.88    5.16
   2   5  -8  100.70    5.33
   2   5  -8  104.26    5.11
   2   5  -8  101.01    5.12
   1  -5  -8  120.53    5.98
  -1  -5   8  119.98    5.95
  -1  -5   8  120.01    5.94
   1  -5  -8  118.41    6.37
   1  -5  -8  126.53    6.01
   1  -5  -8  120.76    6.02
   1   5  -8  124.54    5.98
   1   5  -8  122.25    5.99
  -1   5   8  124.83    5.95
   1   5  -8  124.34    6.10
  -1   5   8  119.13    6.04
  -1   5   8  125.02    5.95
   0  -5   8   74.33    3.67
   0  -5  -8   70.26    3.71
   0  -5   8   69.65    3.68
   0  -5  -8   71.36    3.70
   0  -5  -8   68.66    4.12
   0  -5  -8   67.47    3.87
   0  -5   8   79.36    3.63
   0   5   8   81.19    3.70
   0   5   8   73.16    3.62
   0   5  -8   70.65    3.70
   0   5  -8   71.93    3.73
   0   5   8   74.55    3.63
   0   5  -8   72.62    3.72
  -1  -5  -8   42.83    2.23
  -1  -5  -8   42.12    2.29
   1  -5   8   38.99    2.17
  -1  -5  -8   39.61    2.29
   1  -5   8   38.87    2.13
  -1   5  -8   38.05    2.23
  -1   5  -8   35.92    2.11
   1   5   8   38.85    2.24
   1   5   8   39.91    2.10
   1   5   8   39.87    2.07
  -1   5  -8   37.14    2.20
   2  -5   8    9.63    0.88
  -2  -5  -8    7.75    0.98
  -2  -5  -8    9.25    1.10
  -2  -5  -8   11.89    2.01
  -2  -5  -8   10.61    1.21
   2  -5   8    9.71    1.04
  -2   5  -8   11.29    2.02
  -2   5  -8    8.40    1.13
   2   5   8    9.35    0.78
  -2   5  -8    9.21    1.09
   2   5   8    8.62    0.84
  -2   5  -8    6.62    0.81
   3  -5   8    3.17    0.53
  -3  -5  -8    2.38    0.69
  -3  -5  -8    5.48    1.70
  -3   5  -8    1.01    0.60
  -3   5  -8    2.71    0.72
  -3   5  -8    3.84    1.93
   3   5   8    2.65    0.50
  -4  -5  -8    3.61    1.90
   4  -5   8    1.23    1.11
  -4   5  -8   -0.09    2.36
   4  -6  -8    3.89    0.70
   4  -6  -8    4.35    0.61
   4  -6  -8    4.88    0.86
   4   6  -8    3.45    1.06
   3  -6  -8    1.88    0.64
   3   6  -8    1.32    0.81
   3   6  -8    0.37    0.40
   3   6  -8    0.40    0.38
   2  -6  -8   16.89    1.21
   2  -6  -8   15.83    1.24
   2  -6  -8   17.08    1.19
   2   6  -8   15.55    1.12
   2   6  -8   17.16    1.54
   2   6  -8   17.48    1.17
  -1  -6   8    2.36    0.44
  -1  -6   8    2.38    0.46
  -1   6   8    3.57    0.59
   1   6  -8    2.23    0.52
   1   6  -8    2.56    0.70
  -1   6   8    4.76    0.65
   0  -6  -8    1.64    0.71
   0  -6   8    0.70    0.38
   0  -6  -8    1.26    0.46
   0  -6  -8    1.26    0.50
   0  -6   8    0.74    0.34
   0  -6   8    0.47    0.39
   0   6   8    1.16    0.42
   0   6   8    0.17    0.31
   0   6  -8    0.16    0.44
   0   6  -8    0.03    0.44
   0   6  -8    0.70    0.52
   0   6   8    0.37    0.37
  -1  -6  -8   -0.08    0.57
   1  -6   8   -0.25    0.37
  -1  -6  -8    0.97    0.57
   1  -6   8    0.14    0.47
  -1  -6  -8    0.88    0.52
  -1   6  -8   -0.82    0.48
   1   6   8   -0.18    0.31
   1   6   8    0.23    0.34
  -1   6  -8   -1.02    0.52
  -1   6  -8   -0.18    0.45
   2  -6   8    0.68    0.48
  -2  -6  -8    2.23    1.41
   2  -6   8    1.41    0.55
   2   6   8    0.59    0.35
  -2   6  -8    0.89    0.77
   2   6   8    1.57    0.41
  -2   6  -8   -0.36    0.52
  -2   6  -8    1.06    0.62
  -2   6  -8    1.46    1.44
  -3  -6  -8    2.46    1.54
   3  -6   8    1.29    0.50
  -3  -6  -8    1.91    0.69
  -3   6  -8   -0.48    0.58
  -3   6  -8   -0.42    0.64
  -3   6  -8    1.00    1.82
   4  -6   8    1.04    1.23
  -4  -6  -8    5.29    1.96
  -4   6  -8    4.08    2.68
   4  -7  -8    2.24    0.58
   4  -7  -8    1.71    0.85
   4  -7  -8    2.79    0.68
   4   7  -8    3.18    1.06
   3  -7  -8   13.12    1.26
   3  -7  -8   15.65    1.15
   3   7  -8   12.26    0.98
   3   7  -8   12.24    1.53
   3   7  -8   11.21    0.97
   2  -7  -8   40.88    2.20
   2  -7  -8   39.31    2.21
   2  -7  -8   37.22    2.24
   2   7  -8   39.78    2.62
   2   7  -8   41.89    2.17
   2   7  -8   40.22    2.18
  -1  -7   8  104.17    5.07
   1  -7  -8  106.08    4.78
   1  -7  -8  100.33    4.75
   1  -7  -8   93.38    4.82
   1   7  -8   87.30    4.72
   1   7  -8   87.93    4.74
   1   7  -8   89.36    4.86
  -1   7   8   95.26    4.73
   0  -7  -8   60.08    2.83
   0  -7  -8   56.28    2.78
   0  -7  -8   60.87    3.10
   0  -7   8   48.88    2.76
   0  -7   8   47.77    2.76
   0  -7   8   52.90    2.69
   0   7  -8   50.52    2.84
   0   7   8   55.73    2.74
   0   7  -8   48.05    2.80
   0   7   8   52.27    2.72
   0   7  -8   47.41    2.85
   0   7   8   55.26    2.78
  -1  -7  -8   27.01    1.72
   1  -7   8   24.30    1.60
  -1  -7  -8   24.82    1.80
   1  -7   8   27.04    1.62
  -1  -7  -8   24.34    1.63
  -1   7  -8   26.12    1.60
   1   7   8   27.40    1.50
   1   7   8   26.95    1.54
  -1   7  -8   25.42    1.70
  -1   7  -8   24.98    1.68
  -1   7  -8   28.00    2.30
   2  -7   8   13.56    1.23
   2  -7   8   11.77    1.11
  -2  -7  -8   14.82    1.37
  -2  -7  -8   13.38    2.09
  -2  -7  -8   16.10    1.29
  -2  -7  -8   13.79    1.19
  -2   7  -8   13.36    1.31
   2   7   8   13.97    1.04
  -2   7  -8   13.52    2.21
   2   7   8   14.48    1.00
  -2   7  -8   13.03    1.31
  -2   7  -8   12.20    1.21
  -3  -7  -8    5.12    1.72
  -3  -7  -8    2.91    0.81
  -3   7  -8    2.70    0.76
  -3   7  -8    4.64    2.11
  -4  -7  -8    4.40    2.09
   4  -7   8    1.66    1.35
  -4   7  -8    2.32    2.64
   4  -8  -8    1.65    0.80
   4  -8  -8    1.72    0.68
   4  -8  -8    1.78    0.87
   4   8  -8    1.70    1.01
   3  -8  -8    3.35    0.62
   3  -8  -8    3.00    0.82
   3  -8  -8    2.74    0.61
   3   8  -8    3.30    0.54
   3   8  -8    4.11    0.94
   3   8  -8    4.20    0.54
   2  -8  -8    2.30    0.61
   2  -8  -8    2.24    0.53
   2  -8  -8    2.80    0.56
   2   8  -8    2.75    0.56
   2   8  -8    3.39    0.84
   2   8  -8    2.53    0.53
   1  -8  -8    4.26    0.74
   1  -8  -8    3.75    0.62
   1  -8  -8    4.27    0.59
   1   8  -8    3.43    0.60
   1   8  -8    4.71    0.81
  -1   8   8    3.57    0.53
   1   8  -8    4.32    0.64
   0  -8  -8    0.92    0.48
   0  -8   8    0.03    0.46
   0  -8  -8    1.21    0.82
   0  -8  -8    0.49    0.46
   0  -8  -8    1.54    0.72
   0  -8   8    0.69    0.35
   0   8  -8   -0.16    0.52
   0   8   8    0.61    0.41
   0   8  -8    0.26    0.55
   0   8   8    0.54    0.44
   0   8  -8    1.26    0.63
  -1  -8  -8    0.52    0.52
  -1  -8  -8    1.60    0.60
  -1  -8  -8   -0.42    0.89
   1  -8   8   -0.54    0.44
  -1  -8  -8    0.18    0.55
   1  -8   8   -0.37    0.51
  -1   8  -8   -0.55    0.51
   1   8   8   -0.05    0.36
   1   8   8    0.27    0.35
  -1   8  -8    0.14    0.52
  -1   8  -8    1.11    1.26
  -1   8  -8    0.22    0.56
  -2  -8  -8    0.26    0.61
   2  -8   8   -0.53    0.51
  -2  -8  -8   -0.28    0.58
   2  -8   8   -0.08    0.51
  -2  -8  -8   -0.26    0.47
  -2  -8  -8   -1.85    1.18
  -2   8  -8    0.06    0.63
   2   8   8   -0.04    0.41
   2   8   8    0.21    0.41
  -2   8  -8    0.77    1.57
  -2   8  -8   -0.28    0.62
   3  -8   8   -0.01    0.95
  -3  -8  -8    0.69    0.72
  -3  -8  -8    1.25    1.84
  -3   8  -8    1.69    2.01
  -3   8  -8   -0.32    0.69
   4  -8   8   -0.69    1.34
  -4  -8  -8    3.99    2.04
  -4   8  -8    1.39    2.90
   4  -9  -8    2.20    0.64
   4  -9  -8    1.81    0.84
   4  -9  -8    1.10    0.67
   4   9  -8    1.81    1.12
   3  -9  -8    3.54    0.76
   3  -9  -8    3.22    0.67
   3  -9  -8    2.57    0.61
   3   9  -8    3.84    0.58
   3   9  -8    2.58    0.55
   3   9  -8    2.90    0.91
   2  -9  -8    1.32    0.58
   2  -9  -8    0.54    0.54
   2  -9  -8    0.74    0.60
   2   9  -8    0.91    0.49
   1  -9  -8   11.77    1.38
   1  -9  -8   15.00    1.23
   1  -9  -8   14.57    1.16
   1   9  -8   17.12    1.24
   1   9  -8   15.72    1.22
   1   9  -8   19.19    1.53
   0  -9  -8   38.98    2.66
   0  -9   8   43.88    2.17
   0  -9   8   41.00    2.31
   0  -9  -8   38.82    2.88
   0  -9  -8   40.71    2.28
   0  -9  -8   40.85    2.30
   0   9   8   43.63    2.26
   0   9   8   42.89    2.27
   0   9  -8   40.24    2.37
   0   9  -8   43.04    2.43
   0   9  -8   37.11    2.30
  -1  -9  -8   51.05    2.76
  -1  -9  -8   43.04    3.24
   1  -9   8   49.75    2.70
  -1  -9  -8   50.41    2.71
  -1  -9  -8   48.22    2.90
   1   9   8   50.14    2.60
   1   9   8   52.71    2.66
  -1   9  -8   50.82    3.22
  -1   9  -8   52.16    2.79
  -1   9  -8   46.45    2.73
  -1   9  -8   48.89    2.71
  -2  -9  -8   16.25    1.29
  -2  -9  -8   10.88    1.97
  -2  -9  -8   15.49    1.44
  -2  -9  -8   14.46    1.31
   2  -9   8   17.10    1.40
   2  -9   8   16.46    1.39
  -2   9  -8   15.92    1.42
   2   9   8   16.86    1.21
  -2   9  -8   16.66    2.40
  -2   9  -8   13.72    1.39
   2   9   8   15.66    1.32
  -2   9  -8   12.64    1.32
   3  -9   8    3.38    1.11
  -3  -9  -8    5.19    0.90
  -3   9  -8    5.78    0.94
  -3   9  -8    7.98    2.27
   4  -9   8    3.98    1.58
  -4  -9  -8    2.48    2.66
  -4   9  -8    4.31    3.19
   4 -10  -8    1.11    0.68
   4 -10  -8    0.86    0.74
   4 -10  -8    0.74    0.88
   4  10  -8    0.53    1.11
   3 -10  -8   13.32    1.21
   3 -10  -8   11.48    1.18
   3 -10  -8   13.14    1.42
   3  10  -8   12.78    1.72
   3  10  -8   12.26    1.04
   2 -10  -8    7.40    0.95
   2 -10  -8    6.47    0.82
   2 -10  -8    6.73    1.12
   2  10  -8    7.13    0.77
   2  10  -8    6.55    0.91
   2  10  -8    6.91    1.10
   1 -10  -8   11.37    1.35
   1 -10  -8   13.09    1.19
   1 -10  -8   13.26    1.11
   1  10  -8   13.32    1.18
   1  10  -8   13.04    1.49
   1  10  -8   12.02    1.16
   0 -10  -8   14.01    1.72
   0 -10   8   13.50    1.41
   0 -10   8   14.29    1.15
   0 -10  -8   15.31    1.16
   0 -10  -8   14.39    1.22
   0  10  -8   14.78    1.42
   0  10  -8   14.38    1.33
   0  10   8   14.74    1.11
   0  10  -8   15.65    1.31
  -1 -10  -8    3.25    0.69
  -1 -10  -8    2.25    1.19
   1 -10   8    3.58    0.79
  -1 -10  -8    3.51    0.67
   1 -10   8    3.04    0.67
  -1 -10  -8    3.81    1.05
   1  10   8    2.91    0.55
  -1  10  -8    4.24    0.75
  -1  10  -8    2.60    0.74
   1  10   8    4.25    0.67
  -1  10  -8    3.16    0.75
  -1  10  -8    5.24    1.41
   2 -10   8    0.67    0.98
  -2 -10  -8    0.25    0.71
  -2 -10  -8    0.11    0.54
  -2 -10  -8    1.13    0.61
   2 -10   8   -1.23    0.53
   2  10   8   -0.22    0.40
  -2  10  -8   -0.24    0.67
   2  10   8    0.70    0.50
  -2  10  -8   -0.19    0.70
  -2  10  -8   -0.63    0.67
   3 -10   8   -0.12    1.00
  -3 -10  -8    0.87    0.79
  -3  10  -8    1.45    2.15
  -3  10  -8    0.90    0.81
   4 -11  -8    9.35    1.23
   4 -11  -8    8.18    1.04
   4 -11  -8    6.01    1.16
   4  11  -8   10.18    1.58
   3 -11  -8   37.99    2.39
   3 -11  -8   38.80    2.25
   3 -11  -8   38.18    2.24
   3  11  -8   35.34    2.64
   3  11  -8   37.20    2.11
   2 -11  -8   51.64    2.71
   2 -11  -8   48.52    2.67
   2 -11  -8   50.56    2.80
   2  11  -8   50.30    3.02
   2  11  -8   38.81    3.12
   2  11  -8   49.18    2.66
   1 -11  -8   56.00    3.07
   1 -11  -8   62.36    3.57
   1 -11  -8   57.24    3.10
   1  11  -8   57.90    3.30
   1  11  -8   56.61    3.08
   1  11  -8   57.22    3.12
   0 -11   8   57.03    3.21
   0 -11  -8   63.98    3.67
   0 -11  -8   64.48    3.33
   0 -11  -8   63.29    3.34
   0  11  -8   67.56    3.46
   0  11   8   65.26    3.29
   0  11  -8   59.89    3.34
   0  11  -8   62.65    3.38
   1 -11   8   48.14    2.68
  -1 -11  -8   43.09    3.42
   1 -11   8   51.34    2.74
   1 -11   8   48.41    2.77
  -1 -11  -8   50.31    2.68
  -1 -11  -8   48.58    2.73
  -1  11  -8   45.97    2.79
  -1  11  -8   49.52    3.22
   1  11   8   49.42    2.63
  -1  11  -8   46.97    2.78
   1  11   8   50.22    2.64
  -1  11  -8   49.21    2.77
  -2 -11  -8   14.31    1.42
   2 -11   8   11.61    1.89
  -2 -11  -8    9.19    1.89
   2 -11   8   13.09    1.26
  -2 -11  -8   11.55    1.42
  -2 -11  -8   11.07    1.23
   2  11   8   12.40    1.01
   2  11   8   12.65    1.28
  -2  11  -8   11.77    2.45
  -2  11  -8   10.11    1.39
  -2  11  -8   10.34    1.36
   2  11   8   14.04    2.02
  -2  11  -8   12.01    1.38
  -3 -11  -8    3.15    1.99
   3 -11   8    1.66    1.04
  -3  11  -8    3.12    2.17
  -3  11  -8   -0.31    0.84
   3 -12  -8    3.06    0.87
   3 -12  -8    2.26    0.69
   3 -12  -8    3.02    0.73
   3  12  -8    3.48    0.62
   3  12  -8    3.13    1.12
   2 -12  -8    0.76    0.58
   2 -12  -8    0.34    0.68
   2 -12  -8    0.13    0.61
   2  12  -8   -0.30    1.09
   2  12  -8    0.05    0.66
   2  12  -8   -0.37    0.55
   1 -12  -8    4.00    0.76
   1 -12  -8    2.51    0.60
   1 -12  -8    2.60    0.83
   1  12  -8    2.58    0.89
   1  12  -8    2.37    0.68
   0 -12  -8    5.04    0.76
   0 -12  -8    5.47    0.75
   0 -12  -8    5.39    1.22
   0  12  -8    2.16    0.88
   0  12   8    4.36    0.68
   0  12  -8    6.20    1.28
   0  12  -8    3.69    0.74
   0  12  -8    4.58    0.92
   1 -12   8    3.27    0.77
  -1 -12  -8    1.74    1.62
   1 -12   8    3.22    0.78
   1 -12   8    4.01    0.79
  -1 -12  -8    3.37    0.70
  -1 -12  -8    2.85    0.63
   1  12   8    5.88    1.38
  -1  12  -8    3.58    1.46
  -1  12  -8    2.35    0.76
  -1  12  -8    3.03    0.90
  -1  12  -8    2.92    0.81
   1  12   8    3.56    0.76
   2 -12   8    0.94    0.90
  -2 -12  -8    1.44    1.15
  -2 -12  -8    1.53    0.66
   2 -12   8    1.17    0.77
  -2 -12  -8    3.43    1.40
   2 -12   8    2.61    0.75
  -2  12  -8    1.62    1.82
  -2  12  -8    0.81    0.82
  -2  12  -8    1.63    0.85
  -2  12  -8    1.80    0.77
   2  12   8    1.34    0.52
   2  12   8    2.42    1.32
  -3 -12  -8    0.73    1.64
   3 -12   8    1.66    1.08
   3  12   8    0.07    1.26
  -3  12  -8   -0.17    2.14
  -3  12  -8    0.66    1.04
   3 -13  -8    0.20    0.64
   3 -13  -8   -0.16    0.65
   3 -13  -8    0.65    0.86
   3  13  -8    1.12    1.03
   2 -13  -8   21.71    1.70
   2  13  -8   18.28    1.41
   2  13  -8   17.47    1.83
   2  13  -8   17.19    1.46
   1 -13  -8   47.00    2.38
   1 -13  -8   44.57    2.61
   1  13  -8   34.18    2.34
   1  13  -8   35.00    2.35
   0 -13   8   68.66    3.62
   0 -13  -8   72.16    3.79
   0 -13  -8   69.65    4.12
   0 -13  -8   69.34    3.76
   0  13   8   74.73    3.82
   0  13  -8   71.62    3.93
   0  13  -8   74.40    3.85
   0  13  -8   71.34    4.05
   0  13  -8   72.89    3.82
   1 -13   8   44.40    2.60
  -1 -13  -8   45.29    2.58
  -1 -13  -8   46.69    2.58
  -1 -13  -8   53.77    3.64
  -1  13  -8   39.40    2.64
   1  13   8   50.22    3.37
   1  13   8   42.43    2.49
  -1  13  -8   40.94    2.63
  -1  13  -8   42.05    2.75
  -1  13  -8   44.44    3.20
  -2 -13  -8   23.37    2.27
  -2 -13  -8   21.61    1.70
   2 -13   8   22.55    1.93
  -2  13  -8   18.70    2.80
  -2  13  -8   19.57    1.80
   2  13   8   23.49    2.58
  -2  13  -8   23.41    1.86
   3 -13   8    7.17    1.32
  -3 -13  -8    9.73    2.00
   3  13   8    9.62    1.97
  -3  13  -8    6.79    1.18
  -3  13  -8   10.79    2.57
   3 -14  -8   19.06    1.67
   3 -14  -8   19.08    1.64
   3 -14  -8   18.14    1.93
   3  14  -8   18.58    2.12
   2 -14  -8   11.98    1.32
   2 -14  -8   10.02    1.22
   2 -14  -8   11.05    1.48
   2  14  -8    8.52    1.00
   2  14  -8   10.39    1.37
   2  14  -8    7.68    1.10
   1 -14  -8   17.68    1.59
   1 -14  -8   17.81    1.84
   1 -14  -8   18.14    1.48
   0 -14   8   11.76    1.06
   0  14  -8   12.31    1.46
   0  14  -8   15.99    1.75
   0  14  -8   14.05    1.49
   1 -14   8    5.24    0.88
  -1 -14  -8    9.17    1.21
  -1  14  -8    2.83    1.06
  -1  14  -8    3.99    0.91
   1  14   8    7.09    0.84
  -1  14  -8    6.45    1.70
  -1  14  -8    4.68    0.93
   2 -14   8    6.36    1.11
  -2 -14  -8    8.78    1.71
  -2 -14  -8    6.07    0.95
  -2  14  -8    5.12    1.16
  -2  14  -8    7.71    1.08
  -2  14  -8    9.58    2.29
  -2  14  -8    7.36    1.14
   2  14   8    4.24    2.95
   3 -14   8    0.84    1.11
  -3  14  -8    0.38    0.96
  -3  14  -8    0.42    2.34
   3 -15  -8   22.83    2.09
   3 -15  -8   19.00    1.76
   3 -15  -8   16.30    1.80
   3  15  -8   18.84    2.31
   2 -15  -8   51.66    3.10
   2 -15  -8   50.47    2.89
   2 -15  -8   50.36    2.93
   2  15  -8   49.06    2.81
   2  15  -8   48.40    2.86
   2  15  -8   51.68    3.24
   1 -15  -8   70.63    3.76
   1 -15  -8   70.04    3.94
   1 -15  -8   73.65    4.01
   1  15  -8   69.44    3.79
   1  15  -8   69.83    3.79
   1  15  -8   69.58    4.04
   0 -15  -8   46.02    2.77
   0 -15  -8   46.86    3.22
   0 -15   8   44.26    2.50
   0 -15  -8   47.12    2.71
   0  15  -8   45.03    3.03
   0  15  -8   47.85    2.82
   0  15   8   58.44    3.76
   0  15  -8   48.72    2.84
   0  15  -8   47.05    3.10
  -1 -15  -8   22.35    3.00
  -1 -15  -8   20.39    1.71
  -2 -15  -8    8.41    1.55
  -2 -15  -8    6.59    1.00
   2 -15   8    6.38    1.03
  -2  15  -8    5.81    1.10
  -2  15  -8    6.12    2.25
  -2  15  -8    5.37    1.25
   2  15   8    9.86    1.99
  -2  15  -8    5.38    1.05
   3 -15   8    3.80    1.27
  -3  15  -8    0.91    1.01
  -3  15  -8    5.19    2.62
   3 -16  -8    5.08    1.06
   3 -16  -8    3.21    1.05
   3 -16  -8    3.90    1.30
   3  16  -8    4.78    1.69
   2 -16  -8   -0.05    0.72
   2 -16  -8    0.94    0.81
   2 -16  -8    0.68    0.92
   2  16  -8    2.25    1.19
   2  16  -8    0.65    0.66
   1 -16  -8   10.72    1.42
   1 -16  -8   10.81    1.33
   1 -16  -8    8.82    1.22
   1  16  -8    9.24    1.33
   1  16  -8   11.51    1.36
   1  16  -8    9.00    1.46
   1  16  -8    9.76    1.13
   0 -16  -8    3.88    0.83
   0 -16  -8    3.17    1.27
   0 -16  -8    2.52    0.78
   0 -16   8    5.41    0.77
   0  16  -8    2.21    0.89
   0  16  -8    3.43    1.33
   0  16  -8    4.36    0.91
  -1 -16  -8    0.87    1.67
   1 -16   8    1.93    0.74
  -1 -16  -8    2.39    0.78
  -1 -16  -8    2.42    0.79
   1  16   8    6.76    1.94
  -1  16  -8    2.41    0.94
  -1  16  -8    2.03    0.89
  -1  16  -8    5.49    1.80
  -1  16  -8    1.66    1.07
   2 -16   8    4.47    0.98
  -2  16  -8    2.43    1.25
  -2  16  -8    4.22    1.05
   2  16   8    5.91    1.97
  -2  16  -8    4.76    3.32
  -2  16  -8    4.97    1.40
   2 -17  -8    1.39    1.05
   2 -17  -8    2.32    0.83
   2 -17  -8    1.06    0.83
   2  17  -8    1.74    1.17
   1 -17  -8    5.00    0.94
   1 -17  -8    7.99    1.05
   1 -17  -8    5.96    1.23
   1  17  -8    5.52    0.99
   1  17  -8    7.32    1.30
   1  17  -8    5.23    0.93
   0 -17  -8   16.89    1.70
   0 -17  -8   17.44    1.58
   0 -17  -8   13.96    2.28
   0  17  -8   16.07    2.04
   0  17   8   23.47    2.62
   0  17  -8   16.63    2.13
   0  17  -8   16.46    1.74
   0  17  -8   16.75    1.68
   1 -17   8   14.35    1.41
  -1 -17  -8   16.66    1.58
  -1 -17  -8   10.63    2.35
  -1  17  -8   14.95    1.76
  -1  17  -8   13.80    1.67
   1  17   8   21.14    2.52
  -1  17  -8   16.42    2.58
  -1  17  -8   12.45    1.69
  -2 -17  -8    6.75    1.09
   2 -17   8    5.76    1.09
  -2  17  -8    5.85    1.08
   2  17   8    7.72    2.22
  -2  17  -8    5.91    2.21
  -2  17  -8    6.70    1.41
   2 -18  -8    0.43    0.96
   2 -18  -8   -1.20    1.15
   2 -18  -8    0.90    0.97
   2  18  -8   -0.39    1.32
   1 -18  -8    1.85    0.97
   1 -18  -8    1.88    0.91
   1 -18  -8    3.20    1.19
   1  18  -8    1.85    0.92
   1  18  -8    2.32    0.86
   1  18  -8    2.74    1.34
   0 -18  -8    3.97    1.41
   0 -18  -8    1.75    0.98
   0 -18  -8    2.56    0.98
   0  18   8    1.90    2.02
   0  18  -8    4.63    1.00
   0  18  -8    4.05    1.07
   0  18  -8    3.48    1.60
  -1 -18  -8    1.44    1.96
   1 -18   8    4.08    0.81
  -1 -18  -8    4.93    0.96
  -1  18  -8    7.71    2.22
  -1  18  -8    4.22    1.10
   1  18   8    7.93    2.24
  -1  18  -8    5.17    1.10
  -1  18  -8    4.86    1.36
   2 -18   8    0.10    0.91
  -2 -18  -8    0.76    0.98
  -2  18  -8   -0.93    1.36
   2  18   8    4.93    2.25
  -2  18  -8    1.64    2.20
  -2  18  -8    0.82    1.07
   1 -19  -8   17.36    2.31
   1 -19  -8   20.24    1.95
   1 -19  -8   20.77    1.93
   1  19  -8   19.73    2.71
   0 -19  -8   13.55    1.64
   0 -19  -8   10.35    1.86
   0 -19  -8   11.32    1.50
   0  19   8   13.45    2.62
   0  19  -8   12.34    1.72
   0  19  -8   12.21    1.41
   0  19  -8   11.52    1.35
  -1 -19  -8   14.81    2.61
  -1 -19  -8   11.87    1.34
  -1  19  -8   13.75    1.93
  -1  19  -8   10.45    1.73
  -1  19  -8   12.84    1.51
   1  19   8   16.97    2.64
  -1 -20   8    0.57    0.83
   1 -20  -8    1.76    0.97
   1 -20  -8    1.10    1.15
   1 -20  -8    0.81    1.52
   1  20  -8    1.70    1.63
   0 -20  -8   -0.78    1.54
   0 -20  -8   -1.27    1.25
   0 -20  -8    0.86    0.96
   0  20   8   -1.83    2.43
   0  20  -8   -1.15    1.15
   0  20  -8    0.68    1.49
   4   0  -9   -0.70    0.40
   4   0  -9   -1.43    0.91
   4   0  -9   -0.51    0.50
  -3   0   9   -0.60    0.56
   3   0  -9   -0.14    0.39
   3   0  -9   -0.41    0.41
   3   0  -9    0.28    0.43
   2   0  -9   -0.23    0.40
   2   0  -9    0.15    0.45
  -2   0   9   -0.85    0.42
   2   0  -9   -0.09    0.42
   1   0  -9    0.08    0.42
  -1   0   9    0.00    0.34
   1   0  -9    0.01    0.50
  -1   0   9    0.27    0.35
  -1   0   9   -0.14    0.33
   1   0  -9   -0.25    0.47
   0   0   9    0.76    0.33
   0   0   9   -0.21    0.35
  -1   0  -9   -0.16    0.51
   1   0   9   -0.31    0.37
  -1   0  -9   -0.25    0.57
   1   0   9   -0.04    0.44
   1   0   9   -0.17    0.35
  -2   0  -9   -0.33    0.59
  -2   0  -9   -1.11    1.42
   2   0   9   -0.02    0.36
  -3   0  -9    1.78    1.84
  -3   0  -9    0.22    0.64
  -4   0  -9    3.81    2.32
   4  -1  -9   11.12    1.21
   4  -1  -9   12.67    1.18
   4   1  -9   12.35    1.07
   4   1  -9   12.61    1.78
   4   1  -9   12.50    0.93
   3  -1  -9   24.40    1.50
   3  -1  -9   25.73    1.46
   3  -1  -9   24.12    1.50
  -3  -1   9   21.64    1.58
   3   1  -9   23.84    1.45
  -3   1   9   21.92    1.98
   3   1  -9   25.99    1.46
   3   1  -9   24.93    1.50
   2  -1  -9   90.57    4.55
   2  -1  -9   98.14    4.59
   2  -1  -9   95.31    4.62
   2   1  -9   90.08    4.54
   2   1  -9   95.77    4.57
   2   1  -9   92.84    4.59
  -2   1   9   79.41    5.05
  -1  -1   9  120.49    5.78
   1  -1  -9  112.33    5.86
   1  -1  -9  120.79    5.88
  -1  -1   9  118.98    5.81
  -1  -1   9  117.71    5.78
   1  -1  -9  119.19    5.84
  -1   1   9  118.38    5.77
   1   1  -9  122.83    5.86
  -1   1   9  122.34    5.84
  -1   1   9  120.32    5.77
   1   1  -9  113.50    5.85
   1   1  -9  116.55    5.82
   0  -1   9  108.23    5.38
   0  -1   9  104.61    5.37
   0  -1   9  111.93    5.35
   0  -1  -9  106.76    5.48
   0  -1  -9  102.14    5.43
   0   1   9  107.48    5.36
   0   1   9  111.69    5.36
   0   1  -9  111.80    5.45
   0   1   9  106.90    5.37
   0   1  -9  127.12    5.50
   1  -1   9   50.63    2.66
  -1  -1  -9   51.76    2.74
  -1  -1  -9   49.46    2.78
   1  -1   9   52.23    2.77
   1  -1   9   50.10    2.61
  -1  -1  -9   48.39    2.87
  -1   1  -9   47.62    2.71
  -1   1  -9   51.91    2.77
   1   1   9   51.18    2.64
   1   1   9   53.90    2.84
  -1   1  -9   45.62    2.64
   1   1   9   49.69    2.59
  -2  -1  -9   16.16    1.01
  -2  -1  -9   18.94    1.13
  -2  -1  -9   16.10    1.58
  -2  -1  -9   12.69    2.36
  -2  -1  -9   15.92    1.38
   2  -1   9   18.32    1.14
   2  -1   9   16.35    1.26
   2   1   9   18.20    1.11
  -2   1  -9   15.68    1.46
  -2   1  -9   16.78    2.36
   2   1   9   16.84    1.20
  -2   1  -9   14.46    1.31
  -3  -1  -9    4.30    0.83
  -3  -1  -9    8.42    2.12
  -3   1  -9    5.22    0.86
  -3   1  -9    9.91    2.30
  -4  -1  -9    6.91    2.54
  -4   1  -9    4.34    2.55
   4  -2  -9   -0.16    0.46
   4  -2  -9    0.25    0.59
   4   2  -9   -0.59    0.38
   4   2  -9   -0.24    0.46
   4   2  -9   -0.73    0.95
  -3  -2   9    1.62    0.52
   3  -2  -9    1.78    0.54
   3  -2  -9    1.43    0.48
   3  -2  -9    1.29    0.53
   3   2  -9    0.81    0.41
   3   2  -9    1.57    0.46
   3   2  -9    0.69    0.85
   3   2  -9    1.21    0.46
   2  -2  -9    0.04    0.44
   2  -2  -9    0.74    0.46
   2  -2  -9    0.18    0.48
   2   2  -9   -0.34    0.43
   2   2  -9    0.05    0.45
  -2   2   9   -0.20    0.50
   2   2  -9    0.33    0.41
   1  -2  -9    6.77    1.03
   1  -2  -9    6.05    0.86
  -1  -2   9    5.90    0.69
   1  -2  -9    6.36    0.73
  -1  -2   9    5.81    0.70
  -1  -2   9    7.04    0.68
  -1   2   9    6.59    0.74
   1   2  -9    6.36    0.84
   1   2  -9    6.32    0.70
  -1   2   9    9.04    0.86
  -1   2   9    6.45    0.68
   1   2  -9    6.61    0.75
   0   2   9   42.88    2.24
   1  -2   9   12.00    1.04
   1  -2   9   11.10    0.88
   1  -2   9   10.24    0.99
  -1   2  -9    7.72    1.06
  -1   2  -9    8.43    1.13
  -1   2  -9    8.00    0.94
  -2  -2  -9    3.19    0.74
   2  -2   9    2.99    0.64
  -2  -2  -9    0.03    1.64
   2  -2   9    1.98    0.48
  -2  -2  -9    2.07    0.67
   2   2   9    2.20    0.48
  -2   2  -9    2.00    1.61
  -2   2  -9    1.42    0.74
   2   2   9    2.21    0.43
  -2   2  -9    1.80    0.64
  -3  -2  -9   -0.32    0.66
  -3  -2  -9    3.33    1.80
  -3   2  -9    3.00    1.82
  -3   2  -9   -0.37    0.65
  -4  -2  -9    4.66    2.30
  -4   2  -9    2.14    2.53
   4  -3  -9   -0.08    0.62
   4  -3  -9    0.49    0.50
   4   3  -9    0.22    0.91
   4   3  -9    0.31    0.39
   3  -3  -9   15.26    1.22
  -3  -3   9   17.67    1.17
   3  -3  -9   16.40    1.18
   3  -3  -9   15.64    1.23
   3   3  -9   16.68    1.10
   3   3  -9   16.39    1.69
   3   3  -9   16.07    1.13
   3   3  -9   15.65    1.06
   2  -3  -9   24.09    1.47
   2  -3  -9   22.13    1.48
   2  -3  -9   23.18    1.52
   2   3  -9   22.73    1.83
   2   3  -9   23.65    1.42
   2   3  -9   23.24    1.45
  -2   3   9   19.67    1.78
   2   3  -9   22.86    1.42
   1  -3  -9   35.57    2.03
   1  -3  -9   35.90    2.11
  -1  -3   9   36.46    1.98
  -1  -3   9   32.94    1.90
   1  -3  -9   36.48    2.08
  -1   3   9   40.67    2.04
  -1   3   9   34.72    1.92
   1   3  -9   35.73    2.23
   1   3  -9   34.94    2.00
   1   3  -9   34.04    2.04
   0  -3   9   38.89    2.09
   0  -3   9   36.59    2.05
   0  -3   9   40.86    2.00
   0   3  -9   36.64    2.18
   0   3  -9   36.26    2.11
   0   3  -9   36.31    2.18
  -1  -3  -9   58.07    3.26
  -1  -3  -9   60.75    3.19
   1  -3   9   61.89    3.03
   1  -3   9   56.82    3.07
   1  -3   9   61.78    3.10
  -1  -3  -9   57.80    3.14
  -1   3  -9   57.26    3.02
   1   3   9   57.35    2.97
   1   3   9   57.43    3.00
  -1   3  -9   57.53    3.14
  -1   3  -9   57.71    3.12
  -2  -3  -9   19.97    1.56
  -2  -3  -9   19.39    1.64
   2  -3   9   22.24    1.55
   2  -3   9   21.89    1.39
  -2   3  -9   19.26    1.55
   2   3   9   22.93    1.37
  -2   3  -9   20.85    1.63
  -2   3  -9   23.79    2.60
   2   3   9   21.96    1.29
  -3  -3  -9    4.18    1.75
  -3  -3  -9    2.02    0.71
  -3   3  -9    2.34    0.74
  -3   3  -9    3.59    1.83
  -4  -3  -9    6.43    2.31
  -4   3  -9    4.36    2.66
   4  -4  -9    0.69    0.91
   4  -4  -9    0.25    0.51
   4   4  -9    1.04    0.96
   4   4  -9   -0.51    0.37
  -3  -4   9    0.26    0.39
   3  -4  -9   -0.17    0.46
   3  -4  -9    0.19    0.51
   3  -4  -9    0.46    0.53
   3   4  -9   -0.23    0.36
   3   4  -9   -0.46    0.39
   3   4  -9    0.70    0.78
   3   4  -9    0.00    0.40
   2  -4  -9    6.83    0.79
  -2  -4   9    4.76    0.62
   2  -4  -9    6.24    0.76
   2  -4  -9    6.50    0.73
   2   4  -9    6.23    0.78
   2   4  -9    7.83    1.26
   2   4  -9    7.23    0.82
   2   4  -9    5.95    0.85
  -1  -4   9   48.53    2.47
   1  -4  -9   39.99    2.31
   1  -4  -9   39.12    2.27
   1  -4  -9   39.24    2.35
  -1  -4   9   39.84    2.15
   1   4  -9   40.50    2.28
   1   4  -9   41.07    2.44
  -1   4   9   40.74    2.18
   1   4  -9   41.72    2.26
  -1   4   9   41.69    2.28
   0  -4  -9   11.52    1.34
   0  -4  -9   13.10    1.16
   0  -4   9   14.33    0.90
   0  -4   9   10.70    1.04
   0  -4  -9   13.12    1.23
   0   4   9   12.90    0.91
   0   4  -9   10.85    1.14
   0   4   9   14.48    0.96
   0   4  -9    9.92    1.17
   0   4  -9   11.42    1.08
   0   4   9   14.66    0.98
   1  -4   9   15.08    1.16
   1  -4   9   14.99    1.24
   1  -4   9   18.18    1.28
   1   4   9   17.57    1.12
  -1   4  -9   16.80    1.40
  -1   4  -9   14.88    1.15
  -1   4  -9   15.65    1.34
   1   4   9   15.89    1.04
   2  -4   9    6.97    0.87
  -2  -4  -9    7.62    0.97
  -2  -4  -9    6.96    0.93
  -2  -4  -9    4.32    1.83
  -2  -4  -9    8.50    0.97
   2  -4   9    7.56    0.89
  -2   4  -9    9.79    2.07
   2   4   9    6.67    0.82
  -2   4  -9    6.28    0.88
   2   4   9    7.35    0.76
  -2   4  -9    7.67    1.06
  -3  -4  -9    1.72    0.74
  -3  -4  -9    3.88    1.81
  -3   4  -9    2.77    2.13
  -3   4  -9    1.69    0.75
  -4  -4  -9    4.45    2.28
  -4   4  -9    3.60    2.73
   4  -5  -9   11.72    1.05
   4  -5  -9   13.22    1.39
   4  -5  -9   11.71    1.16
   4   5  -9   13.48    1.01
   4   5  -9   13.19    1.82
   3  -5  -9   25.39    1.79
   3  -5  -9   24.83    1.66
   3  -5  -9   23.92    1.77
   3   5  -9   24.69    1.43
   3   5  -9   26.79    1.53
   3   5  -9   24.13    2.00
   3   5  -9   25.83    1.51
   2  -5  -9   52.45    2.95
   2  -5  -9   56.22    2.95
   2  -5  -9   55.98    2.94
   2   5  -9   56.16    2.90
   2   5  -9   55.32    3.16
   2   5  -9   55.23    2.87
   1  -5  -9   34.32    1.94
  -1  -5   9   29.42    1.77
   1  -5  -9   33.92    1.98
   1  -5  -9   37.57    2.06
   1   5  -9   32.33    2.12
   1   5  -9   33.12    1.95
   1   5  -9   30.93    1.90
  -1   5   9   34.07    1.87
  -1   5   9   35.16    2.06
   0  -5  -9   82.58    4.57
   0  -5  -9   70.71    4.97
   0  -5   9   95.59    4.24
   0  -5   9   86.17    4.31
   0  -5   9   88.12    4.38
   0  -5  -9   86.22    4.35
   0  -5  -9   85.33    4.38
   0   5  -9   85.21    4.35
   0   5   9   87.23    4.25
   0   5   9   86.35    4.26
   0   5  -9   87.46    4.37
   0   5  -9   83.90    4.38
  -1  -5  -9   37.90    2.30
   1  -5   9   37.30    2.12
   1  -5   9   36.27    2.16
  -1  -5  -9   37.40    2.24
  -1  -5  -9   39.87    2.32
   1  -5   9   38.86    2.15
   1   5   9   39.23    2.08
  -1   5  -9   36.22    2.21
  -1   5  -9   37.31    2.11
  -1   5  -9   37.63    2.24
   1   5   9   39.45    2.05
  -2  -5  -9    8.64    0.99
  -2  -5  -9    8.54    1.09
  -2  -5  -9    9.93    1.03
  -2  -5  -9    5.05    2.03
   2  -5   9    7.78    0.95
   2  -5   9    8.16    1.03
  -2   5  -9    7.49    0.92
   2   5   9    7.50    0.88
  -2   5  -9    8.12    1.17
  -2   5  -9    6.85    0.74
   2   5   9    7.57    0.78
  -3  -5  -9    1.92    0.74
  -3  -5  -9    3.53    1.67
  -3   5  -9    3.17    2.03
  -3   5  -9    0.86    0.72
  -4  -5  -9    4.31    2.19
  -4   5  -9    3.96    2.95
   4  -6  -9    3.92    0.82
   4  -6  -9    3.59    0.74
   4  -6  -9    3.90    1.02
   4   6  -9    3.21    1.16
   4   6  -9    3.24    0.49
   3  -6  -9   22.79    1.60
   3  -6  -9   24.32    1.59
   3  -6  -9   23.24    1.64
   3   6  -9   25.63    2.02
   3   6  -9   25.67    1.48
   3   6  -9   22.36    1.45
   2  -6  -9    5.83    0.74
   2  -6  -9    6.46    1.02
   2  -6  -9    5.47    0.71
   2   6  -9    6.05    0.69
   2   6  -9    5.11    0.93
   2   6  -9    5.57    0.69
   1  -6  -9   20.83    1.38
  -1  -6   9   17.42    1.14
   1  -6  -9   19.69    1.44
   1  -6  -9   21.05    1.56
   1   6  -9   20.38    1.37
   1   6  -9   20.03    1.39
   1   6  -9   21.67    1.64
   0  -6  -9   31.33    1.87
   0  -6   9   34.30    1.71
   0  -6   9   30.00    1.80
   0  -6  -9   28.75    2.21
   0  -6  -9   30.26    1.90
   0  -6  -9   28.70    2.25
   0   6  -9   32.50    1.91
   0   6  -9   27.58    1.86
   0   6   9   34.07    1.76
   0   6  -9   29.06    1.92
   0   6   9   29.66    1.81
  -1  -6  -9    3.74    0.74
  -1  -6  -9    7.68    1.05
   1  -6   9    4.84    0.86
   1  -6   9    4.97    0.68
  -1  -6  -9    5.07    0.79
  -1   6  -9    4.16    0.71
   1   6   9    3.95    0.51
   1   6   9    3.91    0.56
  -1   6  -9    5.28    0.69
  -1   6  -9    4.21    0.77
  -2  -6  -9    1.24    0.85
  -2  -6  -9    0.79    0.61
   2  -6   9    0.43    0.56
  -2  -6  -9   -0.04    0.67
   2  -6   9    0.22    0.53
  -2   6  -9   -0.26    0.64
  -2   6  -9   -0.41    0.59
  -2   6  -9    0.96    1.72
   2   6   9   -0.06    0.34
   2   6   9    0.38    0.44
  -2   6  -9   -0.24    0.61
  -3  -6  -9    3.60    1.70
  -3  -6  -9    1.20    0.75
  -3   6  -9    1.68    2.02
  -3   6  -9    0.95    0.74
   4  -6   9    0.97    1.46
  -4  -6  -9    5.30    2.34
  -4   6  -9   -0.83    2.98
   4  -7  -9    0.18    0.73
   4  -7  -9    0.27    0.57
   4  -7  -9    0.90    0.68
   4   7  -9    0.04    0.40
   4   7  -9   -1.14    0.98
   3  -7  -9    0.72    0.54
   3  -7  -9    0.84    0.59
   3  -7  -9    0.75    0.63
   3   7  -9    0.51    1.00
   3   7  -9    0.32    0.45
   3   7  -9    0.73    0.87
   2  -7  -9    0.73    0.59
   2  -7  -9    0.58    0.56
   2  -7  -9    0.77    0.59
   2   7  -9    0.52    0.49
   2   7  -9    0.60    1.09
   2   7  -9    0.96    0.67
   1  -7  -9  204.82    9.89
   1  -7  -9  196.24    9.94
   1  -7  -9  203.87    9.91
   1   7  -9  207.81    9.91
   1   7  -9  210.69   10.03
   1   7  -9  203.81    9.88
   0  -7  -9   66.50    3.46
   0  -7  -9   64.84    3.76
   0  -7  -9   67.04    3.50
   0  -7  -9   61.63    3.87
   0  -7   9   63.54    3.43
   0  -7   9   73.08    3.34
   0   7  -9   64.62    3.47
   0   7   9   68.27    3.38
   0   7  -9   63.42    3.50
   0   7  -9   68.07    3.52
  -1  -7  -9    8.96    1.25
   1  -7   9    8.40    0.95
  -1  -7  -9    7.67    0.91
  -1  -7  -9    7.11    0.89
  -1   7  -9    7.75    1.12
   1   7   9    7.39    0.83
  -1   7  -9    6.81    0.87
   1   7   9    5.77    0.75
  -1   7  -9    8.53    1.00
  -2  -7  -9   22.10    1.65
   2  -7   9   23.34    1.55
  -2  -7  -9   16.93    2.68
  -2  -7  -9   20.52    1.77
  -2  -7  -9   16.33    1.87
   2  -7   9   19.25    1.51
  -2   7  -9   22.34    2.64
  -2   7  -9   21.34    1.64
   2   7   9   20.24    1.59
  -2   7  -9   18.34    1.50
   2   7   9   21.47    1.30
  -2   7  -9   23.12    1.74
  -3  -7  -9    5.69    1.00
  -3  -7  -9    7.11    1.95
  -3   7  -9    5.22    0.94
  -3   7  -9   10.41    2.54
  -4  -7  -9   -0.35    2.09
   4  -7   9   -0.17    1.50
  -4   7  -9    2.91    3.52
   4  -8  -9    0.35    0.61
   4  -8  -9    0.04    0.70
   4  -8  -9    0.53    0.81
   4   8  -9    0.30    1.08
   3  -8  -9    2.51    0.79
   3  -8  -9    3.69    0.68
   3  -8  -9    3.08    0.66
   3   8  -9    2.31    0.95
   3   8  -9    3.04    0.58
   3   8  -9    2.96    0.59
   2  -8  -9    4.00    0.68
   2  -8  -9    3.68    0.72
   2   8  -9    3.60    0.64
   2   8  -9    4.74    0.98
   2   8  -9    3.98    0.64
  -1  -8   9    2.42    0.51
   1  -8  -9    2.47    0.74
   1  -8  -9    2.12    0.59
   1  -8  -9    1.68    0.57
   1   8  -9    2.33    0.81
   1   8  -9    1.79    0.59
   1   8  -9    1.94    0.61
   0  -8   9   77.14    4.25
   0  -8  -9   78.31    4.51
   0  -8  -9   83.07    4.24
   0  -8   9   92.58    4.12
   0  -8  -9   82.56    4.27
   0   8  -9   80.30    4.30
   0   8  -9   83.66    4.29
   0   8  -9   80.63    4.25
   0   8   9   86.09    4.18
  -1  -8  -9   23.11    1.69
  -1  -8  -9   24.91    1.82
   1  -8   9   22.36    1.56
  -1  -8  -9   22.21    1.65
  -1   8  -9   26.66    2.49
  -1   8  -9   22.16    1.65
  -1   8  -9   22.02    1.57
  -1   8  -9   23.33    1.69
   1   8   9   23.42    1.46
   1   8   9   23.28    1.45
  -2  -8  -9    2.10    1.75
   2  -8   9    3.61    0.66
  -2  -8  -9    4.99    0.86
  -2   8  -9    4.02    0.77
   2   8   9    3.27    0.91
  -2   8  -9    8.45    2.06
   2   8   9    4.17    0.57
  -2   8  -9    4.79    0.86
  -2   8  -9    3.99    0.83
   3  -8   9    6.19    1.30
  -3  -8  -9    8.13    2.04
  -3  -8  -9    7.06    1.09
  -3   8  -9    8.40    1.10
  -3   8  -9   11.36    2.50
   4  -9  -9    2.03    0.72
   4  -9  -9    1.54    0.91
   4  -9  -9    1.26    0.79
   4   9  -9    3.72    1.30
   3  -9  -9    9.16    1.38
   3  -9  -9    7.02    0.87
   3  -9  -9    9.28    1.12
   3   9  -9    7.58    0.95
   3   9  -9    6.68    1.07
   3   9  -9    9.50    1.54
   2  -9  -9   59.82    3.20
   2  -9  -9   59.05    3.26
   2  -9  -9   61.11    3.18
   2   9  -9   58.83    3.15
   2   9  -9   60.73    3.46
   1  -9  -9    4.98    0.73
  -1  -9   9    6.11    0.52
   1  -9  -9    5.67    0.79
   1  -9  -9    5.36    0.90
   1   9  -9    4.57    0.95
   1   9  -9    5.21    0.79
   1   9  -9    5.34    0.76
   0  -9   9   29.44    1.48
   0  -9  -9   22.76    2.75
   0  -9  -9   23.49    1.68
   0  -9  -9   24.30    1.65
   0   9   9   24.99    1.56
   0   9  -9   22.28    1.70
   0   9  -9   24.49    1.81
   0   9  -9   24.28    1.72
   1  -9   9   15.20    1.38
  -1  -9  -9   19.42    1.82
  -1  -9  -9   16.63    1.52
  -1  -9  -9   18.98    1.43
  -1  -9  -9   16.41    2.15
  -1   9  -9   18.08    1.55
  -1   9  -9   22.72    2.36
  -1   9  -9   19.42    1.50
   1   9   9   18.75    1.44
   1   9   9   18.34    1.33
  -1   9  -9   20.44    1.55
  -2  -9  -9   -0.16    0.69
  -2  -9  -9    1.86    0.70
  -2  -9  -9    0.41    0.83
  -2  -9  -9   -0.16    1.57
   2  -9   9    0.20    0.55
  -2   9  -9   -1.21    0.62
  -2   9  -9   -1.55    1.58
  -2   9  -9    0.31    0.76
   2   9   9    0.31    0.59
  -2   9  -9    0.03    0.72
   2   9   9    0.01    0.45
  -3  -9  -9    1.72    1.70
  -3  -9  -9   -0.93    0.81
   3  -9   9    0.13    1.03
  -3   9  -9    0.32    0.84
  -3   9  -9    0.08    2.17
   4 -10  -9    3.65    0.80
   4 -10  -9    3.43    0.98
   4 -10  -9    4.36    1.01
   4  10  -9    3.54    1.42
   3 -10  -9    7.59    0.92
   3 -10  -9    7.04    0.90
   3 -10  -9    9.05    1.33
   3  10  -9    9.22    1.34
   3  10  -9    8.14    1.02
   3  10  -9    8.27    0.97
   2 -10  -9   11.50    1.17
   2 -10  -9   10.31    1.38
   2 -10  -9   11.67    1.15
   2  10  -9   11.77    1.60
   2  10  -9   13.01    1.39
   2  10  -9    9.09    1.09
   1 -10  -9   26.98    1.82
   1  10  -9   28.20    1.82
   1  10  -9   29.33    2.13
   0 -10  -9   14.60    1.33
   0 -10  -9   12.51    1.81
   0 -10  -9   13.48    1.32
   0 -10   9   18.35    1.06
   0  10  -9   16.99    1.52
   0  10  -9   17.91    1.45
   0  10   9   13.75    1.19
   0  10  -9   14.87    1.39
  -1 -10  -9    2.66    0.67
  -1 -10  -9    3.33    0.74
  -1 -10  -9    1.83    1.26
   1 -10   9    4.50    0.76
  -1  10  -9    4.02    0.81
   1  10   9    3.12    0.62
  -1  10  -9    3.06    0.78
  -2 -10  -9    0.88    0.72
   2 -10   9   -0.72    0.85
  -2 -10  -9    0.04    0.94
  -2 -10  -9    1.40    1.64
  -2 -10  -9    0.41    0.73
   2 -10   9    0.36    0.65
   2  10   9    0.31    0.48
  -2  10  -9    0.71    1.69
  -2  10  -9   -0.12    0.68
  -2  10  -9   -0.24    0.73
  -2  10  -9    0.82    0.76
   3 -10   9   -0.02    1.03
  -3 -10  -9   -0.02    1.66
  -3  10  -9    2.12    2.36
  -3  10  -9   -0.21    0.95
   3 -11  -9    1.14    0.65
   3 -11  -9    0.58    0.65
   3 -11  -9    0.45    0.77
   3  11  -9   -0.93    0.99
   3  11  -9    0.43    0.53
   3  11  -9   -0.06    0.57
   2 -11  -9    4.34    0.75
   2 -11  -9    3.43    0.84
   2 -11  -9    4.27    0.72
   2  11  -9    4.35    0.70
   2  11  -9    3.60    1.06
   2  11  -9    4.25    0.73
   1 -11  -9    3.81    0.71
   1 -11  -9    2.85    0.95
   1 -11  -9    3.71    0.90
   1  11  -9    3.06    0.76
   1  11  -9    3.95    1.06
   1  11  -9    3.24    0.73
   0 -11   9    5.51    0.67
   0 -11   9    4.25    0.64
   0 -11  -9    1.61    1.06
   0 -11  -9    3.03    0.69
   0 -11  -9    2.84    0.63
   0  11  -9    3.77    0.80
   0  11   9    3.25    0.65
   0  11  -9    4.47    0.79
   0  11  -9    4.28    0.88
  -1 -11  -9    1.95    0.70
  -1 -11  -9    3.09    0.77
  -1 -11  -9    0.45    1.32
   1  11   9    1.66    0.50
  -1  11  -9    5.16    1.19
  -2 -11  -9    0.63    1.64
   2 -11   9    2.19    0.98
  -2 -11  -9    1.85    1.01
  -2 -11  -9    0.71    0.74
  -2  11  -9    0.00    0.71
  -2  11  -9   -0.19    0.79
  -2  11  -9   -0.41    0.84
  -2  11  -9    1.21    1.95
  -3 -11  -9    1.47    1.74
   3 -11   9   -0.90    1.05
  -3  11  -9   -1.06    0.89
  -3  11  -9   -0.78    2.32
   3 -12  -9    6.88    1.07
   3 -12  -9    6.27    0.93
   3 -12  -9    5.53    0.90
   3  12  -9    6.84    0.82
   3  12  -9    5.80    1.27
   2 -12  -9    2.07    0.69
   2 -12  -9    1.95    0.84
   2 -12  -9    1.13    0.62
   2  12  -9    2.56    0.65
   2  12  -9    1.19    0.67
   2  12  -9    1.58    0.92
   1 -12  -9    1.58    0.86
   1 -12  -9    1.56    0.60
   1 -12  -9    2.06    0.68
   1  12  -9    2.62    0.91
   1  12  -9    2.53    0.71
   1  12  -9    1.43    0.64
   0 -12   9    8.90    0.80
  -1 -12  -9    6.56    1.74
  -1 -12  -9    6.33    0.89
   1 -12   9    8.93    1.26
  -1 -12  -9    8.35    1.01
  -1  12  -9    6.55    1.01
  -1  12  -9    8.98    1.44
  -1  12  -9    7.17    1.00
  -1  12  -9   11.60    2.17
   1  12   9   10.33    1.03
  -2 -12  -9    4.70    0.88
  -2 -12  -9    5.23    1.87
   2 -12   9    4.27    1.07
  -2  12  -9    4.93    1.00
  -2  12  -9    5.49    2.28
  -2  12  -9    4.26    0.96
  -2  12  -9    2.88    1.04
  -3 -12  -9    4.90    1.85
   3 -12   9    2.54    1.22
  -3  12  -9    1.79    0.97
  -3  12  -9    5.36    2.58
   3 -13  -9    0.24    0.72
   3 -13  -9   -0.11    0.86
   3 -13  -9   -0.05    0.69
   3  13  -9   -0.18    1.02
   3  13  -9   -0.54    0.56
   2 -13  -9    0.45    0.80
   2 -13  -9    1.32    0.73
   2 -13  -9    0.99    0.64
   2  13  -9    0.64    0.61
   2  13  -9    1.68    0.92
   2  13  -9    0.00    0.66
   1 -13  -9    0.31    0.87
   1 -13  -9    0.08    0.59
   1 -13  -9    1.03    0.88
   1  13  -9   -0.06    0.67
   1  13  -9   -0.02    0.64
   1  13  -9    1.04    0.90
   0 -13  -9   -0.30    1.06
   0 -13   9    0.57    0.38
   0 -13   9    0.58    0.51
   0 -13  -9    1.50    0.66
   0 -13  -9    0.80    0.60
   0  13  -9    0.02    1.31
   0  13  -9    0.08    0.68
   0  13  -9    0.05    0.74
  -1 -13  -9    0.27    0.65
  -1 -13  -9   -1.83    1.43
  -1 -13  -9    0.56    0.64
   1 -13   9   -0.15    0.69
   1  13   9   -0.50    0.67
  -1  13  -9    1.16    1.57
  -1  13  -9   -1.21    0.72
  -1  13  -9   -0.60    0.88
  -1  13  -9   -0.46    0.75
  -2 -13  -9   -0.94    1.47
   2 -13   9    0.52    0.87
  -2 -13  -9   -0.04    0.76
  -2  13  -9    0.58    0.83
  -2  13  -9    0.44    0.81
  -2  13  -9   -1.83    0.91
  -2  13  -9   -1.07    2.01
   3 -13   9   -0.30    1.10
  -3 -13  -9    1.04    1.84
  -3  13  -9   -1.62    0.94
  -3  13  -9   -1.11    2.51
   3 -14  -9    4.33    0.95
   3 -14  -9    4.14    0.93
   3 -14  -9    3.09    1.07
   3  14  -9    5.16    0.82
   3  14  -9    3.26    1.33
   2 -14  -9   10.64    1.59
   2 -14  -9   12.42    1.30
   2  14  -9    7.78    0.96
   2  14  -9    7.86    1.29
   2  14  -9    8.10    1.02
   1 -14  -9   17.92    1.61
   1 -14   9    2.56    0.80
  -1 -14  -9    2.07    0.76
  -1 -14  -9    2.75    1.69
  -1 -14  -9    4.01    0.86
  -1  14  -9    1.57    0.84
  -1  14  -9    2.28    0.90
  -1  14  -9    1.72    1.73
  -1  14  -9    1.96    1.34
  -2 -14  -9    1.97    1.65
  -2 -14  -9    0.42    0.82
   2 -14   9    1.98    0.90
  -2  14  -9    0.13    0.92
  -2  14  -9   -0.13    1.04
  -2  14  -9    0.83    0.86
  -2  14  -9   -0.43    2.02
   3 -14   9    0.42    1.21
  -3  14  -9   -1.61    2.61
  -3  14  -9   -0.88    1.00
   3 -15  -9    0.14    0.95
   3 -15  -9    0.45    0.91
   3 -15  -9   -0.24    1.12
   3  15  -9    0.63    1.35
   2 -15  -9    1.17    0.77
   2 -15  -9    1.91    0.86
   2 -15  -9    1.19    0.99
   2  15  -9    2.18    0.81
   2  15  -9    2.33    1.13
   2  15  -9    1.52    0.71
   1 -15  -9    2.71    1.05
   1 -15  -9    2.61    0.77
   1 -15  -9    3.66    0.87
   1  15  -9    1.62    0.79
   1  15  -9    2.55    0.74
   1  15  -9    3.92    1.18
   0 -15  -9    6.63    0.94
   0 -15  -9    7.30    0.97
   0 -15   9    4.05    0.64
   0 -15  -9    8.24    1.52
   0  15  -9    3.53    0.95
   0  15  -9    4.77    1.01
   0  15  -9    6.40    1.58
   0  15  -9    4.96    1.21
  -1 -15  -9    1.83    0.70
   1 -15   9    1.32    0.75
  -1 -15  -9    1.57    0.76
  -1 -15  -9   -3.46    1.63
  -1  15  -9    1.56    0.91
  -1  15  -9    0.61    0.87
  -1  15  -9    3.21    1.94
  -1  15  -9    0.52    1.08
  -2 -15  -9    1.27    1.61
   2 -15   9   -1.23    0.84
  -2 -15  -9   -0.52    0.79
  -2  15  -9   -2.16    1.17
  -2  15  -9    1.69    0.95
   2  15   9    4.39    1.82
  -2  15  -9   -0.67    2.12
   2 -16  -9    0.76    0.81
   2 -16  -9    0.44    1.09
   2 -16  -9    1.46    0.82
   2  16  -9    0.80    0.71
   2  16  -9    2.18    1.24
   2  16  -9    0.32    0.80
   1 -16  -9    2.62    0.81
   1 -16  -9    3.39    0.86
   1 -16  -9    1.67    1.08
   1  16  -9    2.82    1.11
   1  16  -9    1.73    0.88
   1  16  -9    2.51    0.85
   1  16  -9    3.89    1.38
   0 -16  -9    6.21    1.06
   0 -16  -9    5.74    1.46
   0 -16  -9    6.68    0.97
   0  16  -9    6.72    1.07
   0  16  -9    5.75    1.28
   0  16  -9    4.95    1.06
   0  16  -9    8.73    1.70
  -1 -16  -9    1.45    1.89
   1 -16   9    2.43    0.78
  -1 -16  -9    2.95    0.81
  -1  16  -9    1.86    0.96
  -1  16  -9    4.34    2.92
  -1  16  -9    1.04    0.93
  -1  16  -9    1.44    1.17
   2 -16   9    0.54    0.85
  -2 -16  -9    0.10    0.88
   2  16   9    2.94    1.91
  -2  16  -9   -1.25    2.18
  -2  16  -9    0.03    0.90
   2 -17  -9    4.88    1.02
   2 -17  -9    5.66    1.42
   2 -17  -9    4.08    1.04
   2  17  -9    5.72    1.49
   2  17  -9    3.75    0.93
   1 -17  -9    3.58    1.23
   1 -17  -9    4.16    1.02
   1 -17  -9    5.90    1.00
   1  17  -9    4.79    1.35
   1  17  -9    4.70    1.08
   1  17  -9    6.13    0.98
   0 -17  -9    5.13    0.91
   0 -17  -9    5.30    1.03
   0 -17  -9    4.04    1.48
   0  17  -9    1.54    0.92
   0  17  -9    4.41    1.32
   0  17  -9    3.34    1.53
  -1 -17  -9    3.87    0.93
  -1 -17  -9   -2.04    1.96
   1 -17   9    2.07    0.76
  -1  17  -9    2.80    1.23
   1  17   9    2.69    2.06
  -1  17  -9    1.73    1.02
  -1  17  -9    3.94    1.08
  -1  17  -9    5.82    3.09
  -2 -17  -9    2.48    1.03
   2 -17   9    1.98    0.94
  -2  17  -9    1.01    2.22
   2  17   9    5.15    2.23
  -2  17  -9    0.82    1.09
   1 -18  -9    3.22    0.96
   1 -18  -9    1.47    0.90
   1 -18  -9    2.05    1.30
   1  18  -9    1.63    0.89
   1  18  -9    1.94    1.01
   1  18  -9    0.35    1.30
   0 -18  -9    0.68    0.96
   0 -18  -9    0.39    0.80
   0 -18  -9   -1.61    1.45
   0  18  -9    2.41    1.23
   0  18  -9   -0.17    0.96
   0  18  -9    1.81    0.93
  -1 -18  -9    1.99    2.30
  -1 -18  -9   -0.43    0.87
   1  18   9    0.16    2.16
  -1  18  -9    1.96    1.03
  -1  18  -9    1.54    1.07
  -1  18  -9    1.63    2.15
  -1  18  -9    0.01    1.28
   1 -19  -9    8.35    1.75
   1 -19  -9    7.21    1.27
   1 -19  -9    6.26    1.22
   1  19  -9    7.22    1.35
   1  19  -9    8.88    1.84
   1  19  -9    6.47    1.19
   0 -19  -9    3.98    1.15
   0 -19  -9    5.76    1.10
   0 -19  -9    5.99    1.75
   0  19  -9    4.42    1.28
   0  19  -9    3.91    1.51
   0  19  -9    3.08    1.05
  -1 -19  -9    3.11    2.58
  -1  19  -9    4.84    1.41
  -1  19  -9    5.77    1.20
   4   0 -10    4.36    1.35
   4   0 -10    6.07    0.70
   4   0 -10    6.23    1.20
   3   0 -10    6.46    0.76
   3   0 -10    5.49    0.86
  -3   0  10    3.79    0.97
   3   0 -10    6.33    0.71
   2   0 -10  108.02    5.28
   2   0 -10  106.80    5.23
   2   0 -10  100.88    5.21
   1   0 -10   19.08    1.44
   1   0 -10   19.25    1.52
  -1   0  10   24.69    1.37
   1   0 -10   19.72    1.50
   0   0 -10   13.23    1.27
   0   0 -10   14.05    1.18
   0   0  10   13.86    1.05
   0   0  10   14.00    0.98
  -1   0 -10    9.25    1.19
   1   0  10    8.18    0.88
   1   0  10    9.59    0.92
  -1   0 -10    9.95    1.17
  -2   0 -10    9.09    1.21
  -2   0 -10    6.64    0.73
   2   0  10    8.34    0.84
  -2   0 -10    7.14    0.73
  -2   0 -10    8.89    1.05
   2   0  10    8.18    0.98
  -2   0 -10    7.87    2.28
  -3   0 -10   -0.18    1.81
  -3   0 -10   -0.63    0.72
  -4   0 -10    4.56    3.18
   4  -1 -10    8.29    1.01
   4  -1 -10    9.58    1.27
   4  -1 -10   10.08    1.55
   4  -1 -10    8.63    1.06
   4   1 -10    9.31    0.92
   4   1 -10    9.28    1.46
   4   1 -10   10.39    1.25
   3  -1 -10    4.50    0.67
   3  -1 -10    3.83    0.66
   3   1 -10    4.66    1.14
   3   1 -10    5.14    0.65
   3   1 -10    4.96    0.64
   3   1 -10    4.55    0.67
   2  -1 -10    5.26    0.77
   2  -1 -10    4.48    0.74
  -2  -1  10    4.23    0.65
   2  -1 -10    5.87    0.73
   2   1 -10    5.02    0.68
   2   1 -10    6.31    0.76
   2   1 -10    5.50    0.70
   1   1 -10    7.78    1.00
   1   1 -10    6.42    0.93
   1   1 -10    7.45    1.05
   0  -1  10    9.08    0.86
   0  -1 -10    7.45    0.98
   0  -1  10    9.83    0.73
   0  -1 -10    6.44    0.87
   0   1  10    5.76    0.78
   0   1  10    8.77    0.80
   0   1 -10    7.83    1.09
   0   1 -10    8.20    0.97
   1  -1  10    4.34    0.61
  -1  -1 -10    4.33    0.79
   1  -1  10    5.18    0.66
  -1  -1 -10    5.14    0.88
  -1  -1 -10    3.96    0.78
  -1   1 -10    4.55    0.80
  -1   1 -10    4.36    0.67
   1   1  10    4.70    0.61
   1   1  10    3.77    0.54
  -1   1 -10    4.89    0.79
  -2  -1 -10    0.55    0.49
  -2  -1 -10    0.47    0.77
   2  -1  10    0.78    0.45
  -2  -1 -10    0.30    0.65
   2  -1  10    1.56    0.55
  -2  -1 -10   -2.29    1.72
  -2   1 -10    1.08    1.92
   2   1  10    0.13    0.46
  -2   1 -10    1.44    0.72
  -2   1 -10    0.96    0.39
  -2   1 -10    1.65    0.51
   2   1  10    0.85    0.41
  -2   1 -10    1.32    0.76
  -3  -1 -10    3.44    1.96
  -3  -1 -10    0.81    0.78
  -3   1 -10    1.58    0.76
  -3   1 -10    2.50    2.01
  -4  -1 -10    2.64    2.89
  -4   1 -10    4.26    3.25
   4  -2 -10   -0.21    0.55
   4  -2 -10    0.46    0.65
   4   2 -10    0.65    0.48
   4   2 -10    1.14    1.08
   3  -2 -10    0.80    0.53
   3  -2 -10    0.98    0.55
   3  -2 -10    0.71    0.57
   3   2 -10    1.25    0.51
   3   2 -10    0.87    0.48
   3   2 -10    0.76    0.92
   3   2 -10    1.00    0.52
   2  -2 -10   16.69    1.24
   2  -2 -10   15.89    1.22
   2  -2 -10   15.82    1.40
   2   2 -10   15.29    2.37
   2   2 -10   12.84    1.43
   2   2 -10   15.78    1.20
  -2   2  10   13.09    1.64
   2   2 -10   15.31    1.22
  -1  -2  10    7.08    0.68
   1  -2 -10    5.47    0.83
   1  -2 -10    5.58    0.75
   1  -2 -10    9.42    1.13
   1   2 -10    5.08    0.75
   1   2 -10    3.41    0.68
   0  -2  10   33.70    1.72
   0  -2  10   31.51    1.81
   0   2 -10   30.06    1.96
   0   2 -10   30.59    1.99
   0   2 -10   29.38    1.91
  -1  -2 -10   11.03    1.21
   1  -2  10   14.56    1.09
  -1  -2 -10   11.44    1.31
  -1  -2 -10   11.68    1.35
   1  -2  10   11.64    1.09
   1   2  10   11.81    0.96
  -1   2 -10   12.60    1.30
  -1   2 -10   11.66    1.07
  -1   2 -10   12.40    1.25
   1   2  10   12.60    1.00
  -2  -2 -10    6.57    1.13
  -2  -2 -10    8.89    1.23
   2  -2  10    8.79    0.93
  -2  -2 -10    8.62    1.10
   2  -2  10    9.56    1.10
   2   2  10    9.88    0.97
  -2   2 -10   12.13    2.37
  -2   2 -10    8.22    1.00
   2   2  10    8.24    0.83
  -2   2 -10    8.99    1.01
  -2   2 -10    6.98    0.76
  -3  -2 -10    7.88    2.22
  -3  -2 -10    4.57    0.99
  -3   2 -10    9.43    2.38
  -3   2 -10    5.28    0.96
  -4  -2 -10    5.64    2.91
  -4   2 -10    5.79    3.31
   4  -3 -10    0.55    0.52
   4  -3 -10    0.18    0.55
   4  -3 -10    0.53    0.64
   4   3 -10    0.35    1.05
   4   3 -10   -0.06    0.42
   3  -3 -10    0.99    0.57
   3  -3 -10    0.19    0.59
   3  -3 -10    0.47    0.53
   3   3 -10    0.23    0.45
   3   3 -10   -0.36    0.46
   3   3 -10   -0.19    0.82
   3   3 -10    0.45    0.48
   2  -3 -10    1.65    1.07
   2  -3 -10    1.93    0.59
   2  -3 -10    0.83    0.55
   2   3 -10    2.09    0.57
   2   3 -10    3.05    0.60
  -1  -3  10    1.52    0.35
   1  -3 -10    0.55    0.57
   1  -3 -10   -0.01    0.53
   1  -3 -10    0.47    0.64
   1   3 -10   -0.14    0.76
   1   3 -10    0.79    0.58
   1   3 -10    0.45    0.53
   0  -3 -10   19.58    1.63
   0   3  10   15.43    1.13
  -1  -3 -10   12.85    1.43
  -1  -3 -10   11.81    1.32
  -1  -3 -10    9.56    1.24
   1  -3  10   11.82    1.09
   1   3  10    9.41    0.89
   1   3  10   10.98    0.90
  -1   3 -10   11.28    1.24
  -1   3 -10   10.52    1.03
  -1   3 -10    8.36    1.23
   2  -3  10    3.34    0.80
  -2  -3 -10    3.21    0.89
  -2  -3 -10    3.96    0.80
  -2  -3 -10    2.60    0.75
   2  -3  10    3.95    0.70
  -2   3 -10    3.67    1.87
   2   3  10    2.07    0.50
   2   3  10    2.36    0.46
  -2   3 -10    1.97    0.48
  -2   3 -10    2.38    0.77
  -2   3 -10    3.76    0.83
  -3  -3 -10    1.27    0.86
  -3  -3 -10    3.13    1.76
  -3   3 -10   -0.29    0.73
  -3   3 -10    2.82    2.21
  -4  -3 -10    2.48    2.96
  -4   3 -10    1.95    3.60
   4  -4 -10    4.05    0.88
   4  -4 -10    4.25    0.75
   4  -4 -10    6.39    0.99
   4   4 -10    5.40    1.34
   4   4 -10    4.90    0.60
   3  -4 -10    3.65    0.69
   3  -4 -10    3.96    0.68
   3   4 -10    3.05    0.60
   3   4 -10    3.42    0.59
   3   4 -10    4.00    0.63
   3   4 -10    3.87    1.02
   2  -4 -10   10.81    1.44
   2  -4 -10   11.80    1.14
   2  -4 -10   11.26    1.16
   2   4 -10   12.04    1.08
   2   4 -10   10.36    1.45
   2   4 -10   10.53    1.00
   2   4 -10   11.69    1.08
  -1  -4  10    2.54    0.41
   1  -4 -10    1.71    0.62
   1  -4 -10    1.24    0.68
   1  -4 -10    1.46    0.63
   1   4 -10    1.06    0.75
   1   4 -10    1.51    0.57
   1   4 -10    1.84    0.61
   0  -4 -10   34.67    2.30
   0  -4 -10   38.22    2.06
   0   4  10   28.41    1.84
   1  -4  10    1.18    0.58
  -1   4 -10    0.67    0.52
  -1   4 -10   -0.52    0.59
  -1   4 -10    0.72    0.67
  -2  -4 -10   -1.14    0.76
   2  -4  10   -0.83    0.63
  -2  -4 -10   -0.44    0.64
   2  -4  10    0.51    0.60
  -2  -4 -10    0.68    0.58
   2   4  10    0.02    0.45
  -2   4 -10    1.95    1.76
  -2   4 -10    0.28    0.72
  -2   4 -10   -0.47    0.66
  -2   4 -10   -0.69    0.61
   2   4  10   -0.54    0.36
  -3  -4 -10    3.43    1.96
  -3  -4 -10    0.20    0.82
  -3   4 -10    2.38    2.34
   4  -5 -10    5.03    0.86
   4  -5 -10    4.40    0.75
   4  -5 -10    4.35    0.80
   4   5 -10    4.81    1.27
   4   5 -10    4.59    0.60
   3  -5 -10   11.34    1.18
   3  -5 -10   12.58    1.28
   3  -5 -10   13.23    1.28
   3   5 -10   11.69    1.00
   3   5 -10   12.08    1.66
   3   5 -10   12.97    1.09
   2  -5 -10   37.39    2.19
   2  -5 -10   32.49    2.21
   2  -5 -10   34.51    2.14
   2   5 -10   38.02    2.07
   2   5 -10   35.86    2.39
   2   5 -10   35.81    2.06
   1  -5 -10   80.19    4.29
  -1  -5  10   74.87    4.05
   1  -5 -10   83.30    4.27
   1  -5 -10   83.53    4.22
   1   5 -10   85.78    4.37
   1   5 -10   82.48    4.20
   1   5 -10   85.43    4.23
   0  -5 -10   57.32    3.65
   0  -5  10   58.15    3.16
   0  -5 -10   62.53    3.27
   0  -5  10   63.57    3.02
   0  -5 -10   59.34    3.22
   0  -5 -10   58.31    3.43
   0   5  10   59.39    3.06
   0   5 -10   57.01    3.18
   0   5 -10   58.87    3.22
   0   5 -10   59.12    3.24
   1  -5  10   18.02    1.39
  -1  -5 -10   19.16    1.53
  -1  -5 -10   18.05    1.52
  -1  -5 -10   20.40    1.64
   1   5  10   17.47    1.23
  -1   5 -10   16.75    1.53
  -1   5 -10   18.73    1.53
   1   5  10   19.80    1.27
  -1   5 -10   17.49    1.33
  -2  -5 -10    4.05    0.99
   2  -5  10    5.35    0.80
  -2  -5 -10    5.90    0.94
  -2   5 -10    4.48    0.89
  -2   5 -10    4.00    0.87
   2   5  10    4.55    0.64
  -2   5 -10    7.02    2.05
  -2   5 -10    4.74    0.73
   2   5  10    3.46    0.54
  -3  -5 -10    0.49    0.82
  -3  -5 -10    2.22    1.91
  -3   5 -10    1.22    0.83
  -3   5 -10    1.69    2.33
   4  -6 -10    0.50    0.69
   4  -6 -10   -0.33    0.70
   4  -6 -10    0.25    0.61
   4   6 -10   -0.28    1.13
   4   6 -10   -0.04    0.46
   3  -6 -10    3.22    0.73
   3  -6 -10    2.75    0.68
   3  -6 -10    2.71    0.75
   3   6 -10    3.86    0.62
   3   6 -10    3.61    0.63
   3   6 -10    3.32    1.03
   2  -6 -10    2.05    0.69
   2  -6 -10    3.13    0.67
  -2  -6  10    1.06    0.48
   2  -6 -10    4.09    0.73
   2   6 -10    2.29    0.84
   2   6 -10    2.62    0.90
   2   6 -10    1.90    0.56
   1  -6 -10    0.86    0.58
   1  -6 -10    0.65    0.65
   1  -6 -10    0.68    0.72
   1   6 -10    0.07    0.71
   1   6 -10    0.36    0.55
   1   6 -10    0.48    0.57
   0  -6 -10    8.40    1.27
   0  -6  10    6.77    0.86
   0  -6 -10    7.86    0.96
   0  -6 -10    6.24    0.83
   0   6  10    7.86    0.84
   0   6 -10    8.32    0.97
   0   6 -10    6.39    0.91
   0   6 -10    8.46    1.10
  -1  -6 -10    3.84    0.86
  -1  -6 -10    6.35    0.89
  -1  -6 -10    5.00    0.93
   1  -6  10    5.08    0.72
  -1   6 -10    5.09    0.86
  -1   6 -10    4.80    0.84
   1   6  10    3.59    0.52
  -1   6 -10    5.26    0.75
  -2  -6 -10    2.69    0.81
   2  -6  10    1.67    0.63
  -2  -6 -10    3.10    1.01
  -2  -6 -10    3.55    0.73
  -2   6 -10   -0.07    0.69
   2   6  10    1.62    0.49
  -2   6 -10    3.47    1.90
  -2   6 -10    0.77    0.70
  -2   6 -10    1.11    0.78
   2   6  10    2.10    0.48
  -3  -6 -10    3.07    1.88
  -3  -6 -10    1.92    0.85
  -3   6 -10    6.04    2.44
  -3   6 -10   -0.16    0.87
   4  -7 -10    0.96    0.79
   4  -7 -10    1.01    0.82
   4  -7 -10    1.87    0.67
   4   7 -10    2.25    0.56
   4   7 -10    3.66    1.35
   3  -7 -10    8.23    1.14
   3  -7 -10    8.96    1.20
   3  -7 -10    7.57    1.26
   3   7 -10    9.44    0.99
   3   7 -10   10.65    1.64
   3   7 -10    9.07    0.97
   2  -7 -10   25.38    1.84
   2  -7 -10   25.88    1.72
   2  -7 -10   26.73    1.80
   2   7 -10   25.08    1.67
   2   7 -10   26.93    2.05
   2   7 -10   25.80    1.67
   1  -7 -10   34.92    2.08
  -1  -7  10   28.48    1.71
   1  -7 -10   31.36    2.18
   1  -7 -10   35.12    2.00
   1   7 -10   33.85    2.01
   1   7 -10   33.12    1.98
   1   7 -10   32.20    2.23
   0  -7 -10   40.84    2.50
   0  -7 -10   42.46    2.45
   0  -7 -10   43.67    2.90
   0   7 -10   42.70    2.49
   0   7 -10   42.66    2.51
   0   7 -10   40.57    2.45
   0   7  10   43.28    2.32
  -1  -7 -10   16.47    1.59
   1  -7  10   13.11    1.24
  -1  -7 -10   12.33    1.42
  -1  -7 -10   14.21    1.48
  -1   7 -10   15.62    1.28
   1   7  10   11.38    1.07
  -1   7 -10   15.11    1.39
  -1   7 -10   13.57    1.38
  -2  -7 -10    4.07    0.89
  -2  -7 -10    4.42    1.12
   2  -7  10    3.77    0.70
  -2  -7 -10   -1.11    2.02
  -2   7 -10    2.67    1.86
  -2   7 -10    2.95    0.82
  -2   7 -10    3.00    0.75
  -2   7 -10    3.53    0.89
   2   7  10    2.69    0.51
  -3  -7 -10   -0.07    1.84
  -3  -7 -10    2.42    0.87
  -3   7 -10    1.80    2.51
  -3   7 -10    1.40    0.87
   4  -8 -10   -0.57    0.78
   4  -8 -10   -0.50    0.68
   4  -8 -10   -0.31    0.89
   4   8 -10   -0.24    0.50
   4   8 -10    0.77    1.47
   3  -8 -10    1.21    0.70
   3  -8 -10    1.07    0.68
   3  -8 -10    0.92    0.74
   3   8 -10    1.40    0.56
   3   8 -10    1.27    1.00
   3   8 -10    1.17    0.56
   2  -8 -10    0.58    0.65
   2  -8 -10   -0.55    0.57
   2  -8 -10    0.10    0.70
   2   8 -10    0.68    0.52
   2   8 -10   -0.55    0.53
   2   8 -10    0.24    0.84
   1  -8 -10    2.89    1.51
   1  -8 -10    4.95    0.87
  -1  -8  10    7.46    0.61
   1   8 -10    5.75    0.95
   1   8 -10    8.01    1.12
   1   8 -10    5.55    1.01
   0  -8 -10    4.35    1.22
   0  -8 -10    4.07    0.86
   0  -8 -10    4.67    0.79
   0   8 -10    3.66    0.79
   0   8  10    5.60    0.70
   0   8 -10    4.69    0.84
   0   8 -10    5.75    0.92
  -1  -8 -10    1.93    0.77
  -1  -8 -10    2.35    0.83
   1   8  10    1.57    0.44
  -2  -8 -10    1.73    0.84
  -2  -8 -10   -2.95    1.81
   2  -8  10   -0.18    0.79
  -2  -8 -10    0.77    1.05
  -2   8 -10    0.83    0.80
  -2   8 -10    1.88    1.90
  -2   8 -10    0.25    0.72
   2   8  10    0.56    0.49
  -2   8 -10    0.72    0.75
  -3  -8 -10   -1.63    1.73
  -3  -8 -10   -0.31    1.44
  -3   8 -10    0.68    2.53
  -3   8 -10    0.51    1.04
   3  -9 -10    9.33    1.26
   3  -9 -10    9.50    1.33
   3  -9 -10    8.48    1.17
   3   9 -10    7.83    2.10
   3   9 -10    8.29    1.02
   3   9 -10    7.77    1.08
   2  -9 -10   13.10    1.54
   2  -9 -10   15.11    1.36
   2  -9 -10   17.13    1.39
   2   9 -10   16.33    1.72
   2   9 -10   15.78    1.29
   2   9 -10   16.77    1.76
   1  -9 -10    4.97    0.97
  -1  -9  10    7.28    0.71
   1  -9 -10    6.69    0.84
   1  -9 -10    4.79    0.84
   1   9 -10    5.92    0.82
   1   9 -10    5.85    1.09
   0  -9  10   15.26    1.17
   0   9 -10   20.21    1.61
   0   9 -10   20.93    1.66
   0   9 -10   21.41    1.62
   1  -9  10    6.69    0.92
  -1  -9 -10    7.06    0.99
  -1  -9 -10    8.23    1.01
   1   9  10    6.82    0.91
  -1   9 -10    8.35    1.19
  -1   9 -10    8.34    1.00
  -1   9 -10   11.48    2.13
  -2  -9 -10    5.99    1.22
  -2  -9 -10    6.31    1.05
  -2  -9 -10    3.03    2.12
   2   9  10    7.33    0.96
  -2   9 -10    6.10    0.98
  -2   9 -10    9.13    2.33
  -2   9 -10    4.39    0.91
  -2   9 -10    6.61    1.35
   3  -9  10    0.80    1.16
  -3  -9 -10    1.36    1.95
  -3   9 -10    1.89    0.91
  -3   9 -10   -0.48    2.50
   3 -10 -10    2.92    0.81
   3 -10 -10    2.50    0.89
   3 -10 -10    2.26    0.74
   3  10 -10    2.60    0.68
   3  10 -10    2.37    0.66
   3  10 -10    2.06    1.05
   2 -10 -10   14.68    1.39
   2 -10 -10   12.72    1.60
   2 -10 -10   14.38    1.38
   2  10 -10   15.67    1.30
   2  10 -10   15.30    1.32
   2  10 -10   16.43    1.77
   1 -10 -10    6.76    0.93
   1 -10 -10    6.85    0.85
   1 -10 -10    6.42    1.07
   0  10 -10   15.55    1.63
   0  10 -10   19.66    1.58
   0  10 -10   20.86    1.73
  -1 -10 -10   -0.88    1.26
  -1 -10 -10    0.75    0.77
  -1 -10 -10    0.13    0.73
  -1  10 -10    2.80    0.81
  -1  10 -10    1.86    0.79
   1  10  10    1.81    0.61
  -1  10 -10    6.19    2.56
  -1  10 -10    1.76    0.86
  -2 -10 -10    0.54    1.88
  -2 -10 -10    0.05    0.80
  -2  10 -10   -1.08    0.78
  -2  10 -10    0.89    1.97
  -2  10 -10   -1.25    0.76
  -2  10 -10   -0.68    0.81
  -3 -10 -10    0.72    1.99
   3 -10  10   -0.50    1.11
  -3  10 -10    0.10    0.96
  -3  10 -10    2.70    2.66
   3 -11 -10   24.97    1.85
   3 -11 -10   24.82    1.86
   3 -11 -10   23.82    2.01
   3  11 -10   24.29    1.69
   3  11 -10   23.46    1.66
   3  11 -10   24.76    2.40
   2 -11 -10   53.33    3.22
   2 -11 -10   54.63    3.06
   2 -11 -10   55.81    3.09
   2  11 -10   56.13    3.40
   2  11 -10   54.64    3.02
   2  11 -10   54.85    3.01
   1 -11 -10   52.93    3.27
   1 -11 -10   55.05    3.04
   1 -11 -10   56.60    3.64
   1  11 -10   55.78    3.06
   1  11 -10   54.37    3.09
   1  11 -10   56.86    3.31
   0 -11 -10   32.83    2.04
   0 -11 -10   31.95    2.03
   0 -11  10   30.72    1.90
   0 -11 -10   28.26    2.62
   0  11 -10   31.94    2.22
   0  11 -10   30.31    2.12
   0  11 -10   30.25    2.08
  -1 -11 -10   10.84    1.88
  -1 -11 -10   15.47    1.50
   1 -11  10   13.55    1.54
  -1 -11 -10   13.44    1.49
  -1  11 -10   13.01    1.46
  -1  11 -10   13.84    3.96
   1  11  10   13.98    1.18
  -1  11 -10   12.82    1.48
  -1  11 -10   10.36    1.51
   2 -11  10    4.22    1.11
  -2 -11 -10    3.94    2.09
  -2 -11 -10    5.00    1.04
  -2  11 -10    5.05    1.02
  -2  11 -10    3.33    1.01
  -2  11 -10    7.36    2.29
  -2  11 -10    5.02    0.96
   3 -11  10    0.39    1.17
  -3 -11 -10    1.83    1.94
  -3  11 -10    2.60    2.71
  -3  11 -10    0.49    0.99
   3 -12 -10    2.89    0.87
   3 -12 -10    1.79    0.85
   3 -12 -10    1.30    1.01
   3  12 -10    2.33    1.27
   3  12 -10    2.28    0.71
   3  12 -10    2.69    0.75
   2 -12 -10    8.17    1.00
   2 -12 -10    8.24    1.19
   2 -12 -10   11.01    1.29
   2  12 -10    8.19    1.17
   2  12 -10    8.35    1.00
   2  12 -10    8.78    1.32
   1 -12 -10    1.16    0.72
   1 -12 -10   -0.42    0.91
   1 -12 -10    0.67    0.65
   1  12 -10    1.16    0.89
   1  12 -10    0.55    0.68
   1  12 -10   -0.62    0.63
   0 -12 -10    0.91    0.72
   0 -12 -10    1.02    1.23
   0 -12  10    0.87    0.53
   0 -12 -10    1.65    0.74
   0  12 -10    1.19    0.77
   0  12 -10    1.23    1.04
   1 -12  10    1.28    0.82
  -1 -12 -10   -1.12    1.47
  -1 -12 -10    0.22    0.78
  -1 -12 -10    0.44    0.71
  -1  12 -10    0.32    0.83
  -1  12 -10   -1.20    1.76
  -1  12 -10    0.32    0.91
  -1  12 -10   -0.53    0.76
  -2 -12 -10   -1.31    1.74
  -2 -12 -10    0.21    0.89
   2 -12  10   -0.27    0.89
  -2  12 -10    1.24    0.89
  -2  12 -10   -0.32    0.94
  -2  12 -10    2.30    2.26
  -2  12 -10    0.15    0.86
   3 -12  10    0.61    1.29
  -3 -12 -10    3.45    1.94
  -3  12 -10    0.78    1.01
  -3  12 -10   -0.05    2.78
   3 -13 -10    5.61    1.02
   3 -13 -10    6.84    1.07
   3 -13 -10    5.06    1.18
   3  13 -10    5.02    0.85
   3  13 -10    5.47    1.45
   2 -13 -10   10.43    1.38
   2 -13 -10   11.90    1.76
   2 -13 -10   10.11    1.34
   2  13 -10    8.56    1.23
   2  13 -10   11.14    1.16
   2  13 -10   11.84    1.81
   1 -13 -10   24.07    1.84
   1 -13 -10   24.35    2.21
   1 -13 -10   24.84    1.77
   1  13 -10   22.64    1.81
   1  13 -10   24.33    1.82
   1  13 -10   24.07    2.17
   0 -13 -10   21.77    2.48
   0 -13 -10   24.62    1.82
   0 -13 -10   24.11    1.88
   0 -13  10   21.16    1.61
   0  13 -10   30.24    2.23
   0  13 -10   27.82    1.95
   0  13 -10   27.23    2.64
   0  13 -10   25.77    1.94
   1 -13  10   15.44    1.70
  -1 -13 -10   13.35    1.62
  -1 -13 -10   15.70    1.48
  -1 -13 -10   12.18    2.14
  -1  13 -10   13.25    1.56
  -1  13 -10   12.89    1.81
  -1  13 -10   14.65    2.55
  -1  13 -10   14.57    1.64
  -2 -13 -10    7.37    2.06
  -2 -13 -10    8.86    1.18
   2 -13  10    7.60    1.21
  -2  13 -10    9.25    2.91
  -2  13 -10    7.52    1.16
  -2  13 -10    7.68    1.23
   3 -14 -10    1.50    1.07
   3  14 -10    2.17    0.93
   2 -14 -10   29.89    2.45
   2 -14 -10   30.79    2.12
   2 -14 -10   31.05    2.15
   2  14 -10   29.45    2.50
   2  14 -10   30.55    2.06
   2  14 -10   31.61    2.12
   1 -14 -10   13.06    1.57
   1 -14 -10   11.07    1.48
   1 -14 -10   12.24    1.40
   1  14 -10   17.62    1.53
   1  14 -10   17.74    1.92
   1  14 -10   14.76    1.56
   0 -14 -10   16.53    1.56
   0 -14 -10   14.50    2.34
   0 -14 -10   14.77    1.52
   0 -14  10   12.04    1.18
   0  14 -10   15.51    2.37
   0  14 -10   12.04    1.56
   0  14 -10   13.81    1.58
   0  14 -10   14.59    1.84
  -1 -14 -10   -0.15    0.78
  -1 -14 -10    0.37    0.79
  -1 -14 -10   -0.93    1.62
   1 -14  10    0.05    0.76
  -1  14 -10    1.98    1.24
  -1  14 -10    3.15    1.94
  -1  14 -10    0.22    0.88
  -2 -14 -10    1.40    0.97
  -2 -14 -10   -1.99    1.78
   2 -14  10    0.04    0.90
  -2  14 -10   -0.69    2.36
  -2  14 -10    1.05    0.94
   2 -15 -10   21.20    2.26
   2 -15 -10   21.03    1.84
   2 -15 -10   21.86    1.88
   2  15 -10   21.45    2.34
   2  15 -10   21.69    1.75
   2  15 -10   23.55    1.86
   1 -15 -10   43.86    3.07
   1 -15 -10   46.38    2.76
   1 -15 -10   43.98    2.68
   1  15 -10   44.37    2.80
   1  15 -10   47.15    3.13
   1  15 -10   42.79    2.73
   0 -15 -10   29.90    2.12
   0 -15 -10   30.91    2.89
   0 -15 -10   33.03    2.20
   0  15 -10   27.89    3.14
   0  15 -10   30.76    2.23
   0  15 -10   29.27    2.43
   0  15 -10   30.42    2.25
   1 -15  10   16.82    1.65
  -1 -15 -10   17.57    1.64
  -1 -15 -10   11.96    2.38
  -1  15 -10   17.32    1.84
  -1  15 -10   17.99    2.74
  -1  15 -10   14.57    1.77
  -1  15 -10   13.58    2.05
  -2 -15 -10    0.17    0.99
   2 -15  10    1.33    0.95
  -2  15 -10    0.52    0.98
  -2  15 -10    0.19    2.45
   2 -16 -10    3.99    1.35
   2 -16 -10    3.15    1.03
   2 -16 -10    5.94    1.05
   2  16 -10    2.64    0.96
   2  16 -10    3.98    1.43
   2  16 -10    3.35    0.92
   1 -16 -10    1.54    0.80
   1 -16 -10    2.78    0.82
   1 -16 -10    1.60    1.22
   1  16 -10    1.13    0.81
   1  16 -10    1.13    0.92
   1  16 -10    2.73    1.27
   0 -16 -10    5.14    1.60
   0 -16 -10    5.19    0.95
   0  16 -10    1.72    0.96
   0  16 -10    5.15    1.28
   0  16 -10    6.03    1.94
   0  16 -10    3.33    1.09
  -1 -16 -10    0.69    0.85
  -1 -16 -10   -3.57    1.97
  -1  16 -10   -0.33    0.92
  -1  16 -10    0.61    1.23
  -1  16 -10   -0.20    0.95
  -1  16 -10   -0.42    2.13
  -2 -16 -10    0.86    1.01
   2 -16  10    0.11    0.94
  -2  16 -10   -0.64    1.11
  -2  16 -10   -1.51    2.40
   1 -17 -10    3.29    1.02
   1 -17 -10    1.81    0.95
   1 -17 -10    1.56    1.40
   1  17 -10    4.16    1.34
   1  17 -10    4.73    1.11
   1  17 -10    3.58    0.96
   0 -17 -10    4.69    1.73
   0 -17 -10    6.89    1.09
   0 -17 -10    4.65    1.07
   0  17 -10    5.46    1.17
   0  17 -10    5.81    1.08
   0  17 -10    9.08    2.87
   0  17 -10    5.86    1.44
  -1 -17 -10    6.86    1.14
  -1 -17 -10    4.19    2.35
  -1  17 -10    8.63    2.51
  -1  17 -10    6.10    1.44
  -1  17 -10    2.79    1.23
  -1  17 -10    5.27    1.13
   1 -18 -10    2.28    1.08
   1 -18 -10    2.33    1.64
   1 -18 -10    2.47    1.02
   1  18 -10    2.40    1.26
   1  18 -10    0.95    0.98
   1  18 -10    0.62    1.41
   0 -18 -10    4.04    1.11
   0 -18 -10    4.33    1.83
   0 -18 -10    7.71    1.22
   0  18 -10    6.34    1.50
   0  18 -10    3.81    1.30
   0  18 -10    6.76    1.19
   4   0 -11   -0.21    0.61
   4   0 -11    0.33    0.58
   4   0 -11   -2.09    1.22
   3   0 -11   -0.39    0.56
   3   0 -11   -0.74    0.54
   3   0 -11   -0.06    0.58
   2   0 -11    0.07    0.55
   2   0 -11    0.23    0.58
  -2   0  11   -1.32    0.61
   2   0 -11    0.16    0.57
   1   0 -11    0.20    0.66
   1   0 -11   -0.42    0.61
  -1   0  11    0.56    0.48
   1   0 -11    0.00    0.55
   0   0  11    0.18    0.47
   0   0 -11    0.29    0.59
   0   0 -11   -0.04    0.61
  -1   0 -11    1.08    0.71
  -1   0 -11    1.98    0.78
  -1   0 -11   -0.08    0.66
   1   0  11    0.33    0.47
  -2   0 -11    0.91    0.76
  -2   0 -11   -0.61    0.78
   2   0  11    0.19    0.52
  -2   0 -11   -2.98    2.06
  -2   0 -11   -0.38    0.53
  -3   0 -11    2.65    2.23
  -3   0 -11   -0.84    0.85
   4  -1 -11    5.50    0.81
   4  -1 -11    8.06    1.22
   4  -1 -11    6.79    0.74
   4  -1 -11    4.71    1.48
   4   1 -11    6.09    0.77
   4   1 -11    5.01    1.43
   3  -1 -11   29.39    1.84
   3  -1 -11   29.41    1.85
   3  -1 -11   30.16    1.87
   3   1 -11   29.24    1.87
   3   1 -11   30.93    2.42
   3   1 -11   29.44    1.82
   3   1 -11   30.67    1.84
   2  -1 -11   46.60    2.64
   2  -1 -11   44.99    2.61
   2  -1 -11   47.48    2.61
   2   1 -11   46.86    2.62
   2   1 -11   48.06    2.60
   2   1 -11   45.88    2.63
  -1  -1  11   86.70    4.00
   1  -1 -11   77.32    4.08
   1  -1 -11   76.41    4.15
   1  -1 -11   77.94    4.13
   1   1 -11   71.01    4.17
   1   1 -11   81.18    4.12
   1   1 -11   79.18    4.08
   0  -1 -11   49.54    2.78
   0  -1  11   49.02    2.59
   0  -1 -11   45.01    2.72
   0   1  11   47.18    2.60
   0   1 -11   48.16    2.70
   0   1 -11   47.14    2.74
   1  -1  11   16.19    1.25
  -1  -1 -11   13.60    1.49
  -1  -1 -11   19.36    1.62
  -1  -1 -11   16.22    1.47
   1   1  11   15.66    1.17
  -1   1 -11   15.33    1.50
  -1   1 -11   15.06    1.30
  -1   1 -11   14.86    1.48
  -2  -1 -11    4.28    0.94
   2  -1  11    3.91    0.67
  -2  -1 -11   -1.29    1.93
  -2  -1 -11    3.05    0.86
  -2  -1 -11    2.28    0.58
  -2   1 -11    2.57    0.85
  -2   1 -11    2.99    0.62
  -2   1 -11    3.85    0.88
   2   1  11    2.93    0.53
  -2   1 -11    0.55    2.03
  -3  -1 -11    0.15    0.84
  -3  -1 -11    2.55    2.14
  -3   1 -11    0.48    0.87
  -3   1 -11    1.15    2.24
   4  -2 -11    1.22    0.67
   4  -2 -11    1.56    0.80
   4  -2 -11    1.37    0.84
   4   2 -11    0.65    0.57
   4   2 -11    2.29    1.27
   3   2 -11    4.38    0.71
   3   2 -11    3.14    0.66
   3   2 -11    5.81    1.16
   2   2 -11   15.19    1.69
   2   2 -11   11.07    1.21
   2   2 -11   12.89    1.24
  -1  -2  11    4.70    0.66
   0   2 -11   10.87    1.34
   0   2 -11   10.15    1.24
   0   2 -11   12.11    1.32
  -1  -2 -11    2.67    0.84
  -1  -2 -11    3.65    0.83
   1  -2  11    6.63    0.93
  -1  -2 -11    4.52    0.81
  -1   2 -11    4.33    0.71
  -1   2 -11    5.17    0.86
  -1   2 -11    3.69    0.84
   1   2  11    2.43    0.53
  -2  -2 -11    0.55    0.81
  -2  -2 -11    1.39    0.79
  -2  -2 -11    1.36    0.56
   2  -2  11    0.21    0.55
   2   2  11    1.10    0.51
  -2   2 -11    0.86    0.79
  -2   2 -11   -0.19    0.77
  -2   2 -11    0.68    2.09
  -2   2 -11    0.34    0.73
  -3  -2 -11    1.11    0.84
  -3  -2 -11    0.96    2.10
  -3   2 -11    0.92    0.95
  -3   2 -11    0.04    2.25
   4  -3 -11    3.71    0.77
   4  -3 -11    4.02    0.69
   4  -3 -11    2.59    0.85
   4   3 -11    4.22    1.34
   4   3 -11    2.65    0.64
   3  -3 -11    2.09    0.84
   3  -3 -11    2.17    0.66
   3  -3 -11    0.89    0.61
   3   3 -11    1.99    0.94
   3   3 -11    1.55    0.61
   3   3 -11    2.24    0.61
   3   3 -11    1.54    0.60
   2  -3 -11   18.67    1.43
   2  -3 -11   22.03    1.57
   2  -3 -11   17.29    1.46
   2   3 -11   18.14    1.40
   2   3 -11   16.44    1.36
   2   3 -11   17.99    1.83
   2   3 -11   19.13    1.41
   1  -3 -11   24.04    1.92
  -1  -3  11   26.35    1.49
   1  -3 -11   25.96    1.82
   1  -3 -11   29.29    1.90
   1   3 -11   23.13    2.10
   1   3 -11   24.60    1.77
   1   3 -11   24.29    1.78
   0  -3 -11   31.32    1.98
   0  -3 -11   28.35    1.87
   0  -3  11   29.08    1.71
   0   3 -11   23.26    1.83
   0   3 -11   21.87    1.73
   0   3  11   25.25    1.58
   0   3 -11   23.85    1.84
  -1  -3 -11   10.69    1.35
  -1  -3 -11   12.30    1.49
   1  -3  11    9.63    1.09
  -1  -3 -11    9.40    1.10
  -1   3 -11    9.60    1.11
  -1   3 -11    7.35    1.02
   1   3  11    9.93    0.91
  -1   3 -11    9.14    1.09
  -2  -3 -11    5.62    1.00
  -2  -3 -11    6.29    1.06
   2  -3  11    7.12    0.86
  -2   3 -11    6.21    0.78
  -2   3 -11    5.42    2.14
  -2   3 -11    6.84    1.02
  -2   3 -11    5.45    0.96
  -3  -3 -11    4.43    2.19
  -3  -3 -11    1.35    0.92
  -3   3 -11    1.61    2.33
  -3   3 -11    0.45    0.93
   4  -4 -11    0.97    0.61
   4  -4 -11   -0.35    0.71
   4  -4 -11    0.17    0.73
   4   4 -11   -0.18    0.53
   4   4 -11   -0.88    1.25
   3  -4 -11    2.84    0.73
   3  -4 -11    2.01    0.73
   3  -4 -11    2.39    0.68
   3   4 -11    3.78    0.67
   3   4 -11    3.72    0.63
   3   4 -11    1.94    1.01
   3   4 -11    2.91    0.64
   2  -4 -11    2.55    0.76
   2  -4 -11    1.82    0.66
   2  -4 -11    1.83    0.71
   2   4 -11    1.17    0.58
   2   4 -11    1.47    0.92
   2   4 -11    1.72    0.63
   1  -4 -11   17.53    1.60
   1  -4 -11   14.36    1.49
  -1  -4  11   15.47    1.00
   1   4 -11   12.33    1.35
   1   4 -11   13.58    1.60
   0  -4  11   41.16    2.25
   0  -4 -11   47.90    2.56
   0  -4 -11   50.67    2.64
   0  -4 -11   47.48    2.81
   0   4 -11   36.40    2.52
   0   4  11   43.35    2.34
   0   4 -11   37.06    2.52
   0   4 -11   37.67    2.48
   1  -4  11   18.46    1.44
  -1  -4 -11   19.61    1.73
  -1  -4 -11   22.50    1.75
   1   4  11   18.44    1.28
  -1   4 -11   17.65    1.63
  -1   4 -11   17.81    1.60
  -1   4 -11   15.46    1.36
  -2  -4 -11    4.27    0.92
  -2  -4 -11    5.78    1.09
  -2   4 -11    6.18    1.16
  -2   4 -11   10.25    2.61
  -2   4 -11    5.78    0.95
  -2   4 -11    5.22    0.74
  -3  -4 -11    4.66    2.16
  -3  -4 -11    0.65    0.90
  -3   4 -11    1.02    2.48
  -3   4 -11    1.69    0.97
   4  -5 -11    9.54    1.18
   4  -5 -11    8.44    1.07
   4  -5 -11    9.14    1.43
   4   5 -11    7.93    1.00
   4   5 -11    8.63    1.61
   3  -5 -11   30.63    1.97
   3  -5 -11   29.49    2.04
   3  -5 -11   30.20    2.03
   3   5 -11   28.89    2.38
   3   5 -11   32.03    2.14
   3   5 -11   31.33    1.87
   2  -5 -11   33.26    2.12
   2  -5 -11   32.94    2.11
   2   5 -11   30.54    1.98
   2   5 -11   32.87    2.34
   2   5 -11   33.25    1.99
   1  -5 -11   40.06    2.53
  -1  -5  11   38.10    2.07
   1  -5 -11   42.18    2.34
   1  -5 -11   44.95    2.46
   1   5 -11   36.46    2.30
   1   5 -11   35.60    2.52
   1   5 -11   35.80    2.32
   0  -5 -11    8.64    1.01
   0  -5  11    9.40    0.87
   0  -5 -11    9.57    1.18
   0  -5 -11    9.21    1.30
   0   5 -11    6.65    0.96
   0   5  11    5.73    0.75
   0   5 -11    7.48    1.06
   0   5 -11    6.59    0.96
   1  -5  11   11.10    1.29
   1   5  11   12.06    1.02
  -1   5 -11   11.07    1.40
  -1   5 -11   10.46    1.42
  -1   5 -11    9.68    1.18
  -2  -5 -11    4.96    1.00
  -2  -5 -11    4.76    0.97
  -2   5 -11    5.17    2.18
  -2   5 -11    2.76    0.71
  -2   5 -11    3.61    0.93
  -2   5 -11    4.39    0.99
  -3  -5 -11    1.38    2.16
  -3  -5 -11    0.56    0.90
  -3   5 -11    0.19    0.98
  -3   5 -11   -1.24    2.47
   3  -6 -11    1.59    0.78
   3  -6 -11    2.63    0.79
   3  -6 -11    1.73    0.71
   3   6 -11    1.38    1.05
   3   6 -11    1.52    0.59
   3   6 -11    2.36    0.62
   2  -6 -11   16.15    1.46
   2  -6 -11   14.45    1.47
   2  -6 -11   15.12    1.40
   2   6 -11   15.15    1.74
   2   6 -11   15.94    1.33
   2   6 -11   14.20    1.43
   1  -6 -11    0.64    1.10
   1  -6 -11    1.92    0.67
  -1  -6  11    1.65    0.35
   1  -6 -11    0.76    0.73
   1   6 -11   -0.79    0.82
   1   6 -11   -0.01    0.62
   0  -6  11    6.69    0.75
  -1  -6 -11    3.48    0.91
   1  -6  11    1.08    0.68
  -1  -6 -11    3.82    0.93
  -1  -6 -11    3.97    0.94
  -1   6 -11    3.37    0.85
   1   6  11    2.02    0.46
  -1   6 -11    3.24    1.26
  -2  -6 -11    1.98    0.97
  -2  -6 -11    2.89    0.99
  -2   6 -11    1.07    2.04
  -2   6 -11   -0.28    0.78
  -3  -6 -11    2.60    2.04
  -3  -6 -11    0.94    1.14
  -3   6 -11    3.88    2.76
  -3   6 -11   -0.73    0.99
   3  -7 -11    0.99    0.73
   3  -7 -11    0.57    0.90
   3  -7 -11    1.20    0.79
   3   7 -11    0.68    1.04
   3   7 -11    0.70    0.58
   3   7 -11    0.91    0.57
   2  -7 -11   10.46    1.30
   2  -7 -11    8.63    1.33
   2  -7 -11   10.30    1.29
   2   7 -11    9.25    1.12
   2   7 -11   11.06    1.39
   2   7 -11    8.99    0.96
   1  -7 -11    0.91    0.73
   1  -7 -11   -0.38    0.79
   1  -7 -11    1.00    0.61
   1   7 -11   -0.01    0.58
   1   7 -11   -0.37    1.03
   1   7 -11   -0.18    0.63
   0  -7 -11   81.98    4.55
   0  -7  11   84.69    4.25
   0  -7 -11   77.59    4.78
   0   7 -11   88.71    4.49
   0   7 -11   93.35    4.55
   0   7 -11   88.51    4.52
  -1  -7 -11   41.77    2.67
  -1  -7 -11   38.90    2.72
   1  -7  11   50.86    2.73
  -1   7 -11   42.77    2.52
   1   7  11   41.32    2.42
  -1   7 -11   44.44    2.70
  -1   7 -11   47.30    2.67
  -2  -7 -11    0.88    0.94
  -2  -7 -11    2.63    1.10
  -2   7 -11    1.35    0.80
  -2   7 -11    2.39    0.87
  -2   7 -11    1.92    2.19
  -2   7 -11    1.65    0.89
  -3  -7 -11    2.09    2.08
  -3   7 -11    6.89    2.91
  -3   7 -11    1.44    1.00
   3  -8 -11    0.20    0.93
   3  -8 -11   -0.24    0.70
   3  -8 -11   -0.09    0.72
   3   8 -11    0.27    0.59
   3   8 -11    0.00    0.56
   3   8 -11    0.33    1.11
   2  -8 -11   17.90    1.56
   2  -8 -11   19.37    1.63
   2  -8 -11   18.24    1.67
   2   8 -11   19.33    1.93
   2   8 -11   19.79    1.47
   2   8 -11   20.58    1.51
  -1  -8  11   10.78    0.78
   1  -8 -11    9.30    1.54
   1  -8 -11    7.71    1.19
   1  -8 -11    9.23    1.23
   1   8 -11    9.39    1.26
   1   8 -11   10.43    1.28
   1   8 -11   10.41    1.52
   0  -8  11    9.14    0.86
   0   8 -11   11.37    1.28
   0   8 -11   14.39    1.45
  -1  -8 -11   35.20    2.47
  -1  -8 -11   36.53    2.44
  -1   8 -11   39.01    2.41
  -1   8 -11   35.75    2.27
  -1   8 -11   36.76    2.37
   1   8  11   37.62    2.12
  -2  -8 -11   14.29    1.67
  -2   8 -11   10.55    1.28
  -2   8 -11   11.10    1.56
  -2   8 -11   14.11    2.66
  -3  -8 -11    0.05    2.21
  -3   8 -11    1.20    1.01
  -3   8 -11    1.65    2.94
   3  -9 -11    6.59    1.02
   3  -9 -11    7.24    1.04
   3  -9 -11    8.20    1.15
   3   9 -11    8.28    0.90
   3   9 -11    9.29    1.47
   3   9 -11    7.04    0.86
   2  -9 -11    7.29    1.08
   2  -9 -11    7.76    1.01
   2  -9 -11    8.03    0.97
   2   9 -11    7.84    1.29
   2   9 -11    7.60    0.93
   2   9 -11    7.91    0.90
   1  -9 -11   47.02    3.02
   1  -9 -11   46.47    2.84
   1  -9 -11   43.32    3.02
   1   9 -11   51.80    2.85
   1   9 -11   57.56    3.09
   1   9 -11   52.36    2.87
   0  -9 -11    1.84    1.25
   0  -9 -11    1.21    0.83
   0  -9 -11    2.33    0.80
   0   9 -11    4.06    0.95
   0   9 -11    3.40    0.86
   0   9 -11    3.97    0.83
  -1  -9 -11    0.99    0.87
  -1  -9 -11    1.77    1.06
  -1   9 -11    0.83    0.78
   1   9  11    1.96    0.53
  -1   9 -11    1.66    0.84
  -1   9 -11    2.64    2.08
  -1   9 -11    2.44    0.90
  -2  -9 -11   -1.91    1.98
  -2  -9 -11    3.37    1.09
  -2   9 -11    2.99    2.34
  -2   9 -11    1.39    0.91
  -2   9 -11    3.35    0.95
  -3  -9 -11    2.03    2.27
   3  -9  11   -0.96    1.22
  -3   9 -11    0.94    3.01
  -3   9 -11    0.66    0.97
   3 -10 -11    1.39    0.86
   3 -10 -11    2.34    0.83
   3 -10 -11    2.01    0.98
   3  10 -11    2.06    1.18
   3  10 -11    2.56    0.76
   3  10 -11    1.63    0.70
   2 -10 -11   -0.04    0.65
   2 -10 -11    0.22    0.83
   2 -10 -11    0.59    0.74
   2  10 -11    2.11    1.00
   2  10 -11    1.04    0.63
   2  10 -11    0.02    0.66
   1 -10 -11    0.19    0.79
   1 -10 -11    1.09    0.93
   1 -10 -11    0.93    0.72
   1  10 -11    1.20    0.69
   1  10 -11    0.64    0.72
   1  10 -11    0.28    0.91
  -1 -10 -11    1.31    0.88
  -1 -10 -11    1.29    0.87
  -1  10 -11    1.91    1.98
  -1  10 -11    0.33    0.83
  -1  10 -11    1.39    0.87
  -1  10 -11    2.54    0.90
  -2 -10 -11   -0.97    1.60
  -2 -10 -11   -0.48    2.00
  -2  10 -11   -0.99    0.86
  -2  10 -11   -0.55    0.91
  -2  10 -11    0.71    3.05
  -3 -10 -11    3.36    2.48
   3 -10  11   -0.72    1.36
  -3  10 -11    1.05    1.03
  -3  10 -11    0.68    3.16
   3 -11 -11    2.75    1.06
   3 -11 -11    2.95    0.98
   3 -11 -11    2.51    0.91
   3  11 -11    1.54    1.40
   3  11 -11    0.76    0.69
   3  11 -11    2.31    0.76
   2 -11 -11   -0.51    0.85
   2 -11 -11    0.09    0.71
   2 -11 -11    1.33    0.76
   2  11 -11   -0.35    0.68
   2  11 -11    0.80    1.00
   2  11 -11   -0.20    0.61
   1 -11 -11    0.42    0.98
   1 -11 -11    0.13    0.72
   1 -11 -11   -0.57    0.67
   1  11 -11    2.35    0.75
   1  11 -11    2.87    0.97
   0 -11 -11   -0.71    1.28
   0 -11 -11    0.20    0.80
   0 -11 -11   -0.10    0.69
   0  11 -11   -0.57    0.73
   0  11 -11    1.44    0.91
   0  11 -11   -1.00    0.78
  -1 -11 -11    0.50    0.91
  -1 -11 -11   -0.85    0.79
  -1  11 -11   -0.64    0.84
  -1  11 -11   -0.12    1.90
  -1  11 -11    0.37    0.91
  -1  11 -11   -0.62    0.85
  -2 -11 -11    0.23    0.99
   2 -11  11   -0.79    0.93
  -2 -11 -11   -1.30    1.98
  -2  11 -11    0.10    2.38
  -2  11 -11    0.73    0.99
  -2  11 -11    0.15    0.91
   3 -12 -11    0.22    0.95
   3 -12 -11   -1.71    0.87
   3 -12 -11   -0.08    1.11
   3  12 -11   -0.32    1.34
   3  12 -11   -0.44    0.70
   3  12 -11   -0.17    0.75
   2 -12 -11    0.45    0.93
   2 -12 -11    0.39    0.73
   2 -12 -11   -0.57    0.72
   2  12 -11    0.25    1.00
   2  12 -11    0.34    0.65
   2  12 -11    0.70    0.75
   1 -12 -11    1.66    0.73
   1 -12 -11    2.16    1.04
   1 -12 -11    2.84    0.81
   1  12 -11    2.35    0.78
   1  12 -11    1.98    0.83
   1  12 -11    3.57    1.09
   0 -12 -11   11.19    1.57
   0 -12 -11   10.60    1.75
   0 -12  11   10.99    1.24
   0 -12 -11    9.92    1.36
   0  12 -11   12.51    1.55
   0  12 -11    8.62    1.15
   0  12 -11   11.06    1.68
  -1 -12 -11    6.90    1.04
  -1 -12 -11    6.70    1.09
   1 -12  11    7.74    1.13
  -1  12 -11    6.56    1.11
  -1  12 -11    7.97    1.14
  -1  12 -11   11.48    2.32
  -1  12 -11    8.17    1.20
   2 -12  11    6.02    1.21
  -2 -12 -11    4.56    1.14
  -2 -12 -11    1.58    2.22
  -2  12 -11    6.00    2.51
  -2  12 -11    1.85    1.00
   2 -13 -11    0.63    1.00
   2 -13 -11    0.34    0.80
   2 -13 -11    1.08    0.81
   2  13 -11   -0.07    0.69
   2  13 -11    0.12    0.78
   2  13 -11    1.55    1.09
   1 -13 -11    1.82    0.75
   1 -13 -11    1.71    1.14
   1 -13 -11    2.05    0.85
   1  13 -11    0.50    0.79
   1  13 -11    1.67    0.85
   1  13 -11    1.99    1.00
   0 -13 -11   -0.35    0.78
   0 -13  11   -0.11    0.59
   0 -13 -11    0.54    0.72
   0 -13 -11    0.87    1.32
   0  13 -11    0.61    2.60
   0  13 -11   -0.22    0.98
   0  13 -11   -1.06    0.76
   0  13 -11   -1.43    0.81
  -1 -13 -11   -2.04    1.62
  -1 -13 -11   -0.01    0.80
   1 -13  11    1.64    0.91
  -1 -13 -11    0.43    0.90
  -1  13 -11    1.76    2.21
  -1  13 -11    2.44    2.12
  -1  13 -11   -1.25    0.90
  -1  13 -11    0.40    0.87
   2 -13  11    2.05    1.07
  -2 -13 -11    1.51    1.11
  -2 -13 -11   -0.94    2.10
  -2  13 -11    1.08    2.55
  -2  13 -11   -0.15    0.92
   2 -14 -11    0.90    1.11
   2 -14 -11   -0.27    0.80
   2 -14 -11   -0.13    0.85
   2  14 -11   -1.82    0.71
   2  14 -11   -0.96    1.21
   2  14 -11   -0.71    0.81
   1 -14 -11    0.28    0.73
   1 -14 -11   -0.91    1.12
   1 -14 -11   -0.87    0.74
   1  14 -11   -0.14    0.77
   1  14 -11    0.00    0.85
   1  14 -11   -1.05    0.97
   0 -14 -11    3.48    1.58
   0 -14 -11    4.71    0.93
   0  14 -11    4.69    2.14
   0  14 -11    2.77    0.98
   0  14 -11    3.54    1.14
   0  14 -11    3.27    0.95
  -1 -14 -11    0.42    2.02
  -1 -14 -11    5.23    0.96
  -1  14 -11    3.18    1.07
  -1  14 -11    3.07    1.02
  -1  14 -11    4.85    2.27
  -1  14 -11    1.47    1.20
  -2 -14 -11    3.06    1.11
  -2 -14 -11    2.42    2.19
   2 -14  11    2.90    1.15
  -2  14 -11    7.07    2.99
  -2  14 -11    0.97    1.02
   2 -15 -11    1.14    1.79
   2 -15 -11    1.07    1.03
   2 -15 -11   -0.01    0.86
   2  15 -11    0.72    1.33
   2  15 -11   -0.09    0.84
   2  15 -11   -0.47    0.89
   1 -15 -11    1.14    1.24
   1 -15 -11   -0.26    0.75
   1 -15 -11    1.17    0.83
   1  15 -11   -0.50    0.85
   1  15 -11    0.43    0.82
   1  15 -11   -0.89    1.11
   0 -15 -11    0.78    0.85
   0 -15 -11   -1.28    1.54
   0 -15 -11    0.10    0.83
   0  15 -11    0.92    0.94
   0  15 -11   -1.36    0.92
   0  15 -11    1.60    1.09
   0  15 -11   -1.09    2.41
  -1 -15 -11    2.44    0.97
   1 -15  11    2.00    0.91
  -1 -15 -11   -1.49    2.05
  -1  15 -11    0.37    1.18
  -1  15 -11    2.21    1.06
  -1  15 -11    2.52    2.29
  -1  15 -11   -0.13    0.96
   1 -16 -11    0.93    0.93
   1 -16 -11   -0.54    1.36
   1 -16 -11    0.16    0.94
   1  16 -11    0.00    0.84
   1  16 -11   -1.32    1.02
   1  16 -11    2.41    1.38
   0 -16 -11    1.36    0.94
   0 -16 -11   -1.42    1.73
   0 -16 -11    0.81    0.94
   0  16 -11    0.23    2.19
   0  16 -11    1.50    1.07
   0  16 -11   -0.20    0.92
   0  16 -11    1.97    1.16
  -1 -16 -11    0.30    0.87
  -1  16 -11   -1.38    1.01
  -1  16 -11    1.51    1.32
  -1  16 -11   -1.86    1.05
  -1  16 -11    2.43    2.32
   1 -17 -11    1.47    0.95
   1 -17 -11    2.53    1.13
   1 -17 -11    2.41    2.62
   1  17 -11    2.05    1.02
   1  17 -11    1.95    1.48
   1  17 -11    1.82    1.49
   0 -17 -11    7.83    2.17
   0  17 -11   -0.21    1.27
   0  17 -11   -0.68    0.91
   0  17 -11    1.79    1.34
   3   0 -12    9.55    1.22
   3   0 -12    8.50    1.01
   3   0 -12    8.41    1.31
   2   0 -12    0.77    0.75
   2   0 -12    0.02    0.59
   2   0 -12   -0.28    0.62
   1   0 -12   20.66    1.79
   1   0 -12   21.84    1.60
   0   0 -12    0.69    0.68
   0   0 -12    0.79    0.74
  -1   0 -12    0.11    1.21
  -1   0 -12    0.01    0.79
   1   0  12    0.02    0.52
  -1   0 -12    0.81    0.69
  -2   0 -12    2.20    1.03
  -2   0 -12    1.57    2.54
  -2   0 -12    2.71    0.93
  -3   0 -12    5.34    3.05
   3  -1 -12   12.42    1.34
   3  -1 -12   11.72    1.30
   3  -1 -12   12.31    1.31
   3   1 -12   12.63    1.32
   3   1 -12   11.89    1.30
   3   1 -12   13.71    2.02
   3   1 -12   13.41    1.31
   2  -1 -12    5.48    0.84
   2  -1 -12    6.45    0.97
   2  -1 -12    5.37    0.86
   2   1 -12    6.63    0.88
   2   1 -12    5.74    0.94
   2   1 -12    5.45    0.86
   1  -1 -12    0.61    0.66
   1  -1 -12    0.38    0.80
   1   1 -12    0.54    0.60
   0  -1 -12    1.63    0.72
   0  -1 -12    2.06    0.79
   0   1 -12    1.35    0.73
   0   1 -12    0.98    0.71
  -1  -1 -12   -0.33    0.76
   1  -1  12   -0.02    0.52
  -1  -1 -12   -0.11    1.13
  -1   1 -12    0.30    0.66
  -1   1 -12    0.01    0.78
   1   1  12   -0.54    0.47
  -2  -1 -12   -3.99    2.22
  -2  -1 -12    1.19    0.92
  -2  -1 -12   -0.14    0.88
  -2   1 -12    0.69    0.90
  -3  -1 -12   -1.03    2.51
  -3  -1 -12   -2.00    1.09
  -3   1 -12   -0.58    1.37
  -3   1 -12   -1.20    2.71
   3  -2 -12    2.21    0.73
   3  -2 -12    2.65    0.75
   3  -2 -12    2.46    0.79
   3   2 -12    4.90    0.81
   3   2 -12    4.01    0.77
   3   2 -12    3.88    0.76
   3   2 -12    3.80    1.25
   2  -2 -12    4.28    0.81
   2  -2 -12    4.37    0.80
   2  -2 -12    4.56    0.89
   2   2 -12    4.12    0.82
   2   2 -12    3.06    1.02
   2   2 -12    4.13    0.77
   2   2 -12    3.83    0.78
   1  -2 -12   44.60    2.58
   1  -2 -12   39.19    2.82
   1   2 -12   46.18    2.58
   1   2 -12   44.51    2.69
   1   2 -12   42.90    3.84
   0  -2 -12   23.01    1.84
   0  -2 -12   22.53    1.70
   0   2 -12   22.04    1.67
   0   2 -12   20.27    1.80
   0   2 -12   22.63    1.82
   1  -2  12   18.43    1.44
  -1  -2 -12   17.45    2.02
  -1  -2 -12   18.35    1.71
  -1  -2 -12   20.12    1.74
   1   2  12   18.74    1.32
  -1   2 -12   16.92    1.44
  -1   2 -12   17.82    1.69
  -1   2 -12   17.12    1.80
  -2  -2 -12    5.73    1.06
  -2  -2 -12    5.22    0.95
  -2  -2 -12    2.30    2.66
  -2  -2 -12    5.94    1.07
  -2   2 -12    5.23    1.23
  -2   2 -12    2.85    2.56
  -2   2 -12    5.23    1.05
  -3  -2 -12    0.37    1.05
  -3  -2 -12   -1.79    2.53
  -3   2 -12    2.98    3.11
  -3   2 -12    1.26    1.08
   3  -3 -12   -0.59    0.67
   3  -3 -12    0.73    0.75
   3  -3 -12    0.09    0.65
   3   3 -12   -0.43    0.98
   3   3 -12    0.14    0.61
   3   3 -12   -0.56    0.60
   2  -3 -12    0.15    0.68
   2  -3 -12    0.96    1.28
   2  -3 -12    0.57    0.64
   2   3 -12   -0.12    0.92
   2   3 -12    0.03    0.60
   2   3 -12    0.53    0.61
  -1  -3  12    1.63    0.46
   1  -3 -12    0.72    0.70
   1  -3 -12    0.71    0.92
   1  -3 -12   -0.07    1.25
   1   3 -12    0.81    0.69
   1   3 -12    0.18    0.71
   1   3 -12    0.87    0.95
   0  -3 -12    1.59    0.86
   0  -3 -12    0.63    0.75
   0   3 -12   -0.36    0.78
   0   3 -12    1.51    0.79
   0   3 -12    1.77    0.74
  -1  -3 -12   -0.92    0.79
  -1  -3 -12    0.92    1.01
   1  -3  12   -1.04    0.78
  -1   3 -12    0.15    0.68
  -1   3 -12   -0.12    0.81
   1   3  12    0.42    0.45
  -1   3 -12    0.36    0.78
  -2  -3 -12    1.39    0.92
  -2  -3 -12    1.21    0.91
  -2   3 -12   -0.35    0.85
  -2   3 -12    0.90    0.87
  -2   3 -12   -0.20    2.30
  -3  -3 -12    0.03    2.60
  -3  -3 -12   -1.14    1.15
  -3   3 -12    4.83    3.11
  -3   3 -12   -0.43    0.95
   3  -4 -12    2.17    0.90
   3  -4 -12    2.66    0.78
   3  -4 -12    0.89    0.77
   3   4 -12    1.31    0.67
   3   4 -12    1.98    1.11
   3   4 -12    2.62    0.65
   2  -4 -12    0.92    0.77
   2  -4 -12    0.16    0.66
   2  -4 -12    0.27    0.69
   2   4 -12   -0.04    0.65
   2   4 -12   -0.16    0.84
   2   4 -12   -0.17    0.58
   1  -4 -12    1.04    0.72
   1  -4 -12    1.00    0.98
  -1  -4  12    1.53    0.43
   1   4 -12    0.58    0.69
   1   4 -12    1.49    0.71
   1   4 -12    0.77    0.88
   0  -4 -12    2.52    0.82
   0   4 -12    1.17    0.69
   0   4 -12    0.69    0.80
   0   4 -12   -0.03    0.75
  -1  -4 -12    0.16    0.81
  -1  -4 -12    3.64    1.14
  -1  -4 -12    0.46    1.03
  -1   4 -12   -0.68    0.76
  -1   4 -12    0.24    0.81
  -1   4 -12    0.14    0.66
   1   4  12   -0.11    0.51
  -2  -4 -12    1.51    1.12
  -2  -4 -12    0.43    0.92
  -2   4 -12    1.23    2.50
  -2   4 -12    0.67    0.85
  -2   4 -12    0.44    0.93
  -3  -4 -12    0.38    2.59
  -3   4 -12    0.14    3.03
  -3   4 -12   -0.07    1.02
   3  -5 -12    4.45    0.86
   3  -5 -12    5.16    0.93
   3  -5 -12    6.03    0.95
   3   5 -12    5.83    0.84
   3   5 -12    7.19    1.35
   3   5 -12    5.48    0.80
   2  -5 -12   18.05    1.62
   2  -5 -12   19.16    1.54
   2  -5 -12   20.70    1.62
   2   5 -12   13.77    1.43
   2   5 -12   15.06    1.81
   2   5 -12   12.76    1.39
   1  -5 -12   16.53    1.92
   1  -5 -12   18.46    1.71
  -1  -5  12   19.18    1.15
   1  -5 -12   18.12    1.60
   1   5 -12   16.78    1.77
   1   5 -12   16.00    1.54
   1   5 -12   15.94    1.54
   0  -5 -12   28.06    2.01
   0  -5 -12   25.41    2.41
   0  -5 -12   29.23    2.13
   0   5 -12   31.11    2.09
   0   5 -12   25.68    1.99
   0   5 -12   27.89    2.07
  -1  -5 -12   13.59    1.63
  -1   5 -12    8.53    1.12
  -1   5 -12   10.21    1.23
   1   5  12    9.07    1.06
  -1   5 -12    8.79    1.19
  -2   5 -12    2.08    0.96
  -2   5 -12    3.80    2.51
  -2   5 -12    1.76    0.86
  -3  -5 -12    1.14    2.64
  -3   5 -12    3.39    3.24
  -3   5 -12   -0.91    1.01
   3  -6 -12    2.42    0.79
   3  -6 -12    1.50    0.82
   3  -6 -12    2.71    0.82
   3   6 -12    0.62    0.66
   3   6 -12    0.51    0.62
   3   6 -12    1.47    1.08
   2  -6 -12    3.01    0.80
   2  -6 -12    1.15    0.88
   2  -6 -12    2.49    0.85
   2   6 -12   -0.31    0.89
   2   6 -12    0.24    0.60
   2   6 -12   -0.54    0.61
  -1  -6  12   11.15    0.82
   1   6 -12    8.48    1.07
   1   6 -12    8.63    1.26
   1   6 -12    9.30    1.08
   0  -6 -12    9.59    1.40
   0  -6 -12   12.92    1.44
   0  -6 -12    9.19    1.50
   0   6 -12   14.30    1.53
   0   6 -12   11.18    1.45
   0   6 -12   14.84    1.56
  -1  -6 -12   14.08    1.49
  -1  -6 -12   10.90    1.51
   1   6  12   11.89    1.04
  -1   6 -12    9.86    1.24
  -1   6 -12    9.10    1.28
  -1   6 -12   12.29    1.55
  -2  -6 -12    4.89    1.13
  -2   6 -12    7.65    2.78
  -2   6 -12    3.36    0.99
  -2   6 -12    3.06    0.97
  -3  -6 -12    5.18    2.68
  -3   6 -12    1.02    3.37
  -3   6 -12    0.23    1.12
   3  -7 -12    3.20    0.94
   3  -7 -12    4.21    0.95
   3  -7 -12    3.32    0.88
   3   7 -12    4.43    1.28
   3   7 -12    2.68    0.73
   3   7 -12    4.78    0.80
   2  -7 -12    9.38    1.11
   2  -7 -12    8.78    1.13
   2  -7 -12    9.59    1.10
   2   7 -12    7.62    1.21
   2   7 -12    8.73    1.02
   2   7 -12    7.21    1.24
   1  -7 -12   17.00    1.64
   1  -7 -12   16.68    2.60
   1  -7 -12   16.35    1.75
   1   7 -12   17.92    1.58
   1   7 -12   20.66    1.65
   1   7 -12   21.07    1.92
   0  -7 -12   17.52    2.24
   0  -7 -12   20.35    1.64
   0   7 -12   15.25    1.59
   0   7 -12   14.33    1.64
   0   7 -12   13.50    1.69
  -1  -7 -12    7.92    1.21
  -1   7 -12    7.27    1.07
  -1   7 -12    7.10    1.13
   1   7  12    6.66    1.04
  -1   7 -12    6.11    0.96
  -2  -7 -12    1.38    1.04
  -2   7 -12    1.03    0.90
  -2   7 -12    1.22    2.65
  -2   7 -12    0.55    0.83
  -3  -7 -12    4.52    2.81
  -3   7 -12   -3.76    3.37
  -3   7 -12   -0.50    1.02
   3  -8 -12    0.86    0.88
   3  -8 -12    2.06    0.92
   3  -8 -12    0.50    0.80
   3   8 -12    0.65    0.67
   3   8 -12    0.21    0.64
   3   8 -12    0.16    1.28
   2  -8 -12   -0.60    0.72
   2  -8 -12   -0.77    0.73
   2  -8 -12    0.87    0.89
   2   8 -12    0.18    0.63
   2   8 -12    0.09    0.94
   2   8 -12    0.60    0.69
   1  -8 -12    1.52    1.02
   1  -8 -12    0.78    0.75
   1  -8 -12    1.09    0.84
   1   8 -12    1.50    0.80
   1   8 -12    1.90    0.95
   1   8 -12    1.69    0.79
   0  -8 -12   10.41    1.65
   0  -8 -12   14.14    1.59
   0  -8 -12   15.15    1.72
  -1  -8 -12   12.82    1.66
  -1   8 -12   10.23    1.39
  -1   8 -12    7.69    1.11
  -1   8 -12    6.99    1.11
  -2  -8 -12    1.11    1.07
  -2   8 -12    4.13    1.03
  -2   8 -12    4.89    2.83
  -2   8 -12    2.87    1.30
   3  -9 -12    5.04    1.09
   3  -9 -12    5.53    1.14
   3  -9 -12    4.39    1.03
   3   9 -12    5.15    1.47
   3   9 -12    4.88    0.83
   3   9 -12    4.60    0.87
   2  -9 -12    7.08    1.05
   2  -9 -12    9.63    1.15
   2  -9 -12    7.91    1.19
   2   9 -12    8.11    1.00
   2   9 -12    8.70    1.02
   2   9 -12   10.67    1.45
   1  -9 -12   12.20    1.44
   1  -9 -12   10.36    1.46
   1  -9 -12   11.88    1.54
   1   9 -12   10.29    1.41
   1   9 -12   13.67    1.71
   1   9 -12   12.46    1.44
   0  -9 -12    3.89    1.04
   0  -9 -12    2.93    1.42
   0  -9 -12    2.76    0.89
   0   9 -12    3.52    1.17
   0   9 -12    3.39    0.93
   0   9 -12    3.77    0.90
  -1  -9 -12    0.96    1.09
  -1  -9 -12   -0.16    0.92
  -1   9 -12    0.32    0.89
  -1   9 -12   -0.10    0.82
  -1   9 -12    0.86    0.94
  -1   9 -12    0.19    2.29
  -2  -9 -12   -1.91    2.38
  -2  -9 -12    0.61    1.09
  -2   9 -12   -1.19    2.46
  -2   9 -12    0.73    0.91
   3 -10 -12    3.70    1.14
   3 -10 -12    5.28    1.15
   3 -10 -12    5.29    1.14
   3  10 -12    4.55    0.93
   3  10 -12    5.71    1.64
   3  10 -12    5.03    0.88
   2 -10 -12    3.50    0.94
   2 -10 -12    2.68    0.89
   2 -10 -12    1.42    1.01
   2  10 -12    3.03    0.81
   2  10 -12    3.13    0.80
   2  10 -12    2.60    1.17
   1 -10 -12    7.01    1.30
   1 -10 -12    5.18    1.27
   1 -10 -12    7.51    1.11
   1  10 -12    5.89    1.19
   1  10 -12    6.36    1.00
   1  10 -12    7.82    1.04
   0 -10 -12    3.48    1.44
   0 -10 -12    2.61    0.91
   0 -10 -12    2.94    0.99
   0  10 -12    2.48    0.98
   0  10 -12    3.11    0.91
   0  10 -12    3.57    1.01
  -1 -10 -12    2.21    0.98
  -1 -10 -12   -0.53    0.90
  -1  10 -12    3.26    2.35
  -1  10 -12    0.60    0.92
  -1  10 -12   -0.09    0.86
  -1  10 -12    0.15    0.94
  -2 -10 -12   -1.22    1.13
  -2 -10 -12   -4.06    2.35
  -2  10 -12    0.49    2.58
  -2  10 -12   -0.29    0.96
   2 -11 -12   25.03    2.00
   2 -11 -12   19.02    1.87
   2 -11 -12   22.72    2.13
   2  11 -12   21.70    1.74
   2  11 -12   21.44    2.38
   2  11 -12   20.49    1.79
   1 -11 -12   23.79    2.38
   1 -11 -12   22.17    1.91
   1 -11 -12   27.73    2.04
   1  11 -12   22.63    1.90
   1  11 -12   23.31    2.23
   1  11 -12   23.76    1.89
   0 -11 -12   18.25    2.68
   0 -11 -12   17.29    1.67
   0 -11 -12   17.71    1.94
   0  11 -12   15.19    1.90
   0  11 -12   16.98    1.83
   0  11 -12   20.04    1.81
  -1 -11 -12    7.00    1.32
  -1 -11 -12    6.41    1.14
  -1  11 -12    5.35    1.16
  -1  11 -12    3.52    1.05
  -1  11 -12    8.91    2.54
  -1  11 -12    6.27    1.18
   2 -11  12    1.67    1.11
  -2 -11 -12    1.15    2.60
  -2 -11 -12    0.84    1.19
  -2  11 -12    3.85    2.69
  -2  11 -12    0.69    1.02
   2 -12 -12    4.61    1.06
   2 -12 -12    5.12    1.22
   2 -12 -12    2.49    0.91
   2  12 -12    1.49    0.89
   2  12 -12    3.68    0.89
   2  12 -12    2.53    1.23
   1  12 -12   11.29    1.58
   1  12 -12   10.32    1.43
   1  12 -12    9.34    1.17
   0 -12 -12    1.24    0.80
   0 -12  12    2.00    0.73
   0 -12 -12    1.01    1.02
   0  12 -12    0.38    0.87
   0  12 -12    0.38    1.01
   0  12 -12    0.13    0.86
  -1 -12 -12    0.19    0.96
  -1 -12 -12    2.22    1.09
   1 -12  12   -1.05    0.93
  -1  12 -12   -1.42    0.87
  -1  12 -12   -0.03    0.97
  -1  12 -12    0.40    1.19
  -1  12 -12   -0.58    2.13
   2 -12  12    0.57    1.06
  -2 -12 -12    0.39    1.22
  -2  12 -12   -0.38    2.65
  -2  12 -12   -0.39    1.00
   2 -13 -12    9.16    1.52
   2 -13 -12   11.42    1.38
   2 -13 -12    7.46    1.21
   2  13 -12    7.69    1.14
   2  13 -12    9.02    1.18
   2  13 -12    9.00    1.61
   1 -13 -12    9.72    1.62
   1 -13 -12   13.11    1.52
   1 -13 -12   13.15    1.40
   1  13 -12   12.76    1.59
   1  13 -12   14.30    1.66
   1  13 -12   12.26    1.96
   0 -13 -12    8.58    1.22
   0 -13 -12    9.86    1.19
   0 -13 -12    7.11    1.82
   0  13 -12    8.98    1.35
   0  13 -12    8.36    1.21
   0  13 -12    7.01    1.20
   1 -13  12    3.39    1.02
  -1 -13 -12    4.10    1.12
  -1  13 -12    3.02    1.27
  -1  13 -12    3.47    1.14
  -1  13 -12    3.52    1.06
  -1  13 -12    5.89    2.49
   2  14 -12    0.84    1.27
   1 -14 -12   19.40    1.97
   1 -14 -12   23.29    2.73
   1 -14 -12   20.37    1.89
   1  14 -12   18.99    2.33
   1  14 -12   18.75    1.98
   1  14 -12   19.96    1.88
   0 -14 -12    7.25    1.17
   0 -14 -12   11.06    1.41
   0 -14 -12    9.70    2.07
   0  14 -12    6.43    1.23
   0  14 -12    9.46    1.56
   0  14 -12    7.03    1.18
  -1 -14 -12    7.87    1.20
   1 -14  12    4.18    1.09
  -1  14 -12    4.52    1.19
  -1  14 -12    8.07    2.62
  -1  14 -12    5.06    1.26
  -1  14 -12    4.51    1.44
   1 -15 -12    6.52    1.08
   1 -15 -12    9.52    1.88
   1 -15 -12    7.92    1.30
   1  15 -12    6.57    1.16
   1  15 -12    7.48    1.56
   1  15 -12    7.28    1.34
   0 -15 -12   14.68    1.97
   0 -15 -12   13.74    1.75
   0 -15 -12   10.20    2.36
   0  15 -12   11.16    1.52
   0  15 -12   12.25    1.64
   0  15 -12   10.56    1.33
   0  15 -12   18.38    2.83
  -1 -15 -12    5.28    1.17
  -1  15 -12    2.81    1.15
  -1  15 -12    3.13    1.43
  -1  15 -12    5.63    2.64
  -1  15 -12    1.21    1.28
   3   0 -13   -0.20    0.70
   3   0 -13   -1.62    1.10
   3   0 -13    0.47    0.75
   2   0 -13    0.13    0.70
   2   0 -13    0.89    0.90
   2   0 -13    0.00    0.68
   1   0 -13    0.31    0.76
   1   0 -13   -0.10    0.73
   0   0 -13   -0.53    0.79
   0   0 -13   -0.51    0.72
  -1   0 -13    0.22    0.80
  -1   0 -13   -0.50    0.88
  -1   0 -13   -0.64    0.71
  -2   0 -13   -0.39    2.81
  -2   0 -13    0.27    0.93
  -3   0 -13   -0.32    4.04
   3  -1 -13    9.66    1.37
   3  -1 -13   10.45    1.49
   3  -1 -13    9.91    1.45
   3   1 -13    9.27    1.57
   3   1 -13    8.50    1.06
   3   1 -13    8.94    1.05
   3   1 -13    8.39    1.82
   2  -1 -13   22.69    2.28
   2  -1 -13   25.52    1.92
   2  -1 -13   25.66    1.85
   2   1 -13   23.18    1.81
   2   1 -13   25.26    2.87
   2   1 -13   22.24    1.92
   2   1 -13   25.03    1.83
   1  -1 -13   24.69    1.94
   1  -1 -13   22.67    2.38
   1  -1 -13   24.12    1.83
   1   1 -13   23.72    1.85
   1   1 -13   24.91    1.91
   0  -1 -13   22.72    1.81
   0  -1 -13   22.04    1.86
   0   1 -13   21.15    1.92
   0   1 -13   20.10    1.90
   0   1 -13   22.28    1.78
  -1  -1 -13    5.18    1.06
  -1  -1 -13    6.34    1.15
  -1   1 -13    5.96    0.95
  -1   1 -13    4.62    1.05
  -1   1 -13    4.96    0.99
  -2  -1 -13   -0.41    2.92
  -2  -1 -13   -0.86    0.88
  -2   1 -13   -0.95    0.87
  -3  -1 -13   -2.49    3.74
  -3   1 -13    1.34    4.47
  -3   1 -13   -2.59    1.69
   3  -2 -13    0.28    0.78
   3  -2 -13   -0.07    0.70
   3  -2 -13    0.68    0.88
   3   2 -13    0.26    0.70
   3   2 -13    0.76    0.73
   3   2 -13    0.88    1.25
   2  -2 -13    0.38    0.90
   2  -2 -13    0.66    0.71
   2  -2 -13   -0.07    0.69
   2   2 -13   -0.13    1.15
   2   2 -13    0.22    0.75
   2   2 -13   -0.69    0.67
   1  -2 -13    1.04    0.73
   1  -2 -13    2.14    0.82
   1  -2 -13    0.04    0.95
   1   2 -13    0.62    0.81
   1   2 -13    0.07    0.73
   1   2 -13   -0.70    0.94
   0  -2 -13   -0.65    0.72
   0  -2 -13    0.22    0.86
   0   2 -13   -0.33    0.89
   0   2 -13    0.01    0.89
   0   2 -13   -0.07    0.81
  -1  -2 -13    0.76    0.88
  -1  -2 -13    0.40    0.92
  -1   2 -13    1.60    0.77
  -1   2 -13    0.48    0.88
  -1   2 -13    0.81    0.78
  -2  -2 -13    0.28    0.92
  -2   2 -13   -1.71    2.85
  -2   2 -13   -1.51    0.84
  -3  -2 -13   -2.55    3.54
   3  -3 -13    6.32    1.06
   3  -3 -13    6.12    0.98
   3  -3 -13    6.18    0.97
   3   3 -13    7.34    0.98
   3   3 -13    7.28    0.95
   3   3 -13    7.55    1.50
   2  -3 -13    3.48    0.99
   2  -3 -13    3.29    0.83
   2  -3 -13    2.64    0.86
   2   3 -13    2.60    0.81
   2   3 -13    3.16    0.86
   2   3 -13    3.71    1.19
   1  -3 -13    3.56    0.88
   1  -3 -13    3.52    1.09
   1  -3 -13    4.24    0.96
   1   3 -13    4.45    1.13
   1   3 -13    3.53    0.86
   1   3 -13    4.37    0.92
   0  -3 -13    4.70    0.94
   0  -3 -13    4.57    1.09
   0   3 -13    5.78    1.07
   0   3 -13    3.85    0.92
   0   3 -13    4.40    1.05
  -1  -3 -13    5.60    0.99
  -1  -3 -13    4.76    1.05
  -1   3 -13    3.59    0.99
  -1   3 -13    3.72    0.89
  -1   3 -13    3.85    1.06
  -2  -3 -13   -0.23    0.92
  -2   3 -13   -1.02    0.90
  -2   3 -13    1.12    2.86
   3  -4 -13   -0.16    0.80
   3  -4 -13    1.68    0.91
   3  -4 -13    0.96    0.79
   3   4 -13    1.56    0.75
   3   4 -13    0.98    0.69
   3   4 -13    0.34    1.13
   2  -4 -13    7.98    1.50
   2  -4 -13   10.51    1.42
   2  -4 -13   10.46    1.47
   2   4 -13   11.84    1.36
   2   4 -13   11.64    1.54
   2   4 -13    9.25    1.11
   1  -4 -13    6.31    0.99
   1  -4 -13    6.04    1.24
   1  -4 -13    9.01    1.26
   1   4 -13    6.89    0.97
   1   4 -13    7.05    1.31
   1   4 -13    5.70    1.00
   0  -4 -13    7.27    1.24
   0  -4 -13    6.90    1.03
   0   4 -13    7.84    1.17
   0   4 -13    7.40    1.05
   0   4 -13    4.06    1.75
  -1  -4 -13    8.58    1.37
  -1  -4 -13    9.68    1.28
  -1   4 -13    8.68    1.10
  -1   4 -13   10.60    1.30
  -1   4 -13    9.19    1.22
  -2  -4 -13    6.98    1.13
  -2   4 -13    7.46    3.09
  -2   4 -13    6.50    1.15
   3  -5 -13   15.95    1.76
   3  -5 -13   14.42    1.73
   3  -5 -13   15.63    1.73
   3   5 -13   15.19    1.45
   3   5 -13   15.23    1.50
   3   5 -13   15.95    2.32
   2  -5 -13   22.90    1.91
   2  -5 -13   25.57    2.09
   2  -5 -13   24.96    1.88
   2   5 -13   23.64    1.85
   2   5 -13   23.69    1.79
   2   5 -13   22.06    2.17
   1  -5 -13   12.25    1.57
   1  -5 -13   12.58    1.78
   1  -5 -13   14.99    2.11
   1   5 -13   17.88    1.65
   1   5 -13   17.75    1.64
   1   5 -13   19.77    1.89
   0  -5 -13    9.40    1.24
   0  -5 -13   10.81    1.48
   0   5 -13   14.55    1.69
   0   5 -13   11.94    1.59
   0   5 -13   11.85    1.54
  -1  -5 -13    0.63    0.94
  -1  -5 -13    1.60    0.94
  -1   5 -13   -0.79    0.76
  -1   5 -13   -0.42    0.92
  -1   5 -13    1.02    0.95
  -2  -5 -13    0.25    0.93
  -2   5 -13    1.08    2.93
  -2   5 -13   -0.41    0.99
   3  -6 -13    2.21    0.98
   3  -6 -13    1.62    0.99
   3  -6 -13    0.67    0.86
   3   6 -13    1.82    0.76
   3   6 -13   -0.11    0.87
   3   6 -13   -0.57    1.31
   2  -6 -13    0.61    0.93
   2  -6 -13   -0.34    0.80
   2  -6 -13    0.76    0.81
   2   6 -13   -0.07    0.99
   2   6 -13    0.05    0.70
   2   6 -13    0.66    0.72
   1  -6 -13    1.81    1.02
   1  -6 -13    1.78    0.82
   1  -6 -13    2.75    1.22
   1   6 -13    4.25    0.88
   1   6 -13    2.84    0.87
   1   6 -13    5.78    1.13
   0  -6 -13    0.70    1.24
   0  -6 -13    1.05    1.11
   0  -6 -13    1.65    0.84
   0   6 -13    1.87    0.87
   0   6 -13   -0.87    0.76
  -1  -6 -13    9.08    1.38
  -1  -6 -13    5.87    1.20
  -1   6 -13    6.82    1.04
  -1   6 -13   11.99    1.57
  -1   6 -13    8.89    1.21
  -2  -6 -13    0.57    1.00
  -2   6 -13   -1.40    0.91
  -2   6 -13    1.86    2.89
   3  -7 -13    1.00    0.93
   3  -7 -13    0.59    0.93
   3  -7 -13    1.00    1.02
   3   7 -13    0.05    1.50
   3   7 -13    1.82    0.75
   3   7 -13    0.86    0.84
   2  -7 -13    0.10    0.88
   2  -7 -13   -1.22    1.12
   2  -7 -13    0.10    0.79
   2   7 -13    0.53    1.06
   2   7 -13    0.07    0.70
   2   7 -13    0.24    0.77
   1  -7 -13   10.35    1.54
   1  -7 -13   10.85    1.49
   1  -7 -13   15.77    1.72
   1   7 -13   10.21    1.16
   1   7 -13   11.33    1.75
   1   7 -13    9.87    1.17
   0  -7 -13   -1.02    1.20
   0  -7 -13    0.51    1.20
   0  -7 -13    0.84    0.89
   0   7 -13   -0.12    0.86
   0   7 -13    0.43    0.78
   0   7 -13    0.06    0.78
  -1  -7 -13    9.35    1.48
  -1  -7 -13    7.30    1.23
  -1   7 -13    8.60    1.22
  -1   7 -13    7.44    1.24
  -1   7 -13    5.10    1.04
  -2  -7 -13    8.57    1.32
  -2   7 -13   11.44    3.50
  -2   7 -13    8.84    1.29
   2  -8 -13    1.38    0.90
   2  -8 -13    3.19    1.08
   2  -8 -13    2.22    1.05
   2   8 -13    3.67    1.23
   2   8 -13    2.94    0.84
   2   8 -13    3.72    0.91
   1  -8 -13   19.95    2.02
   1  -8 -13   19.83    1.85
   1  -8 -13   18.66    2.32
   1   8 -13   22.22    1.88
   1   8 -13   22.98    1.85
   1   8 -13   25.72    2.15
   0  -8 -13   22.95    2.84
   0   8 -13   20.97    1.86
   0   8 -13   16.00    1.86
   0   8 -13   14.92    1.66
  -1  -8 -13    1.03    1.23
  -1  -8 -13    0.53    1.00
  -1   8 -13   -1.55    1.26
  -1   8 -13    0.10    0.89
  -1   8 -13    0.25    0.93
  -2  -8 -13    7.98    1.35
  -2  -8 -13    0.33    2.82
  -2   8 -13    8.52    3.34
  -2   8 -13    3.14    1.12
   2  -9 -13    8.09    1.20
   2  -9 -13    8.10    1.35
   2  -9 -13   10.62    1.38
   2   9 -13    9.10    1.13
   2   9 -13    8.81    1.50
   2   9 -13   11.01    1.50
   1  -9 -13    3.29    1.32
   1  -9 -13    3.48    1.11
   1  -9 -13    3.55    0.99
   1   9 -13    3.00    0.89
   1   9 -13    2.10    0.95
   1   9 -13    2.75    1.06
   0  -9 -13   14.68    1.88
   0  -9 -13   14.44    1.78
   0  -9 -13   13.75    1.94
   0   9 -13   12.51    1.68
   0   9 -13   11.68    1.69
   0   9 -13   12.18    1.77
  -1  -9 -13    2.58    1.12
  -1   9 -13    1.15    1.05
  -1   9 -13   -0.35    0.95
  -1   9 -13    0.17    0.98
  -1   9 -13   -0.01    2.71
  -2  -9 -13    0.17    1.16
  -2   9 -13    0.68    2.92
  -2   9 -13   -0.66    0.96
   2 -10 -13   -0.33    1.09
   2 -10 -13   -1.57    0.92
   2 -10 -13   -0.24    0.95
   2  10 -13    0.47    1.23
   2  10 -13    0.39    0.84
   2  10 -13    1.08    0.82
   1 -10 -13    0.44    1.29
   1 -10 -13    0.17    0.84
   1 -10 -13    0.71    0.95
   1  10 -13    0.58    1.06
   1  10 -13    0.21    0.89
   1  10 -13    0.57    0.82
   0 -10 -13    1.27    0.98
   0 -10 -13   -2.53    1.47
   0 -10 -13    1.40    1.16
   0  10 -13   -1.02    0.90
   0  10 -13   -0.74    0.85
   0  10 -13   -1.36    0.90
  -1 -10 -13    0.11    1.22
  -1 -10 -13   -0.42    1.09
  -1  10 -13    1.33    2.60
  -1  10 -13    0.64    0.98
  -1  10 -13    0.67    1.05
  -1  10 -13   -1.76    0.99
  -2 -10 -13    0.13    1.24
  -2  10 -13   -3.69    3.00
  -2  10 -13   -0.56    1.08
   2 -11 -13    1.17    1.21
   2 -11 -13   -0.02    1.02
   2 -11 -13    0.93    1.40
   2  11 -13   -0.70    1.35
   2  11 -13    0.33    0.88
   2  11 -13   -0.23    0.88
   1 -11 -13   -0.83    1.31
   1 -11 -13    0.07    0.98
   1 -11 -13   -0.98    0.86
   1  11 -13   -0.03    0.84
   1  11 -13   -0.20    0.83
   1  11 -13   -0.50    1.03
   0 -11 -13   -2.49    1.10
   0 -11 -13   -0.03    1.67
   0 -11 -13    2.88    1.01
   0  11 -13    0.34    0.90
   0  11 -13    0.17    1.04
   0  11 -13    1.29    1.01
  -1 -11 -13    2.36    1.09
  -1  11 -13    0.29    1.06
  -1  11 -13   -0.53    1.00
  -1  11 -13   -1.58    0.96
  -1  11 -13    0.46    2.51
   2 -12 -13    5.59    1.28
   2 -12 -13    6.99    1.85
   2  12 -13    4.88    1.29
   2  12 -13    5.03    1.15
   1 -12 -13    3.26    1.52
   1 -12 -13    5.13    1.15
   1 -12 -13    4.05    1.15
   1  12 -13    4.60    1.35
   1  12 -13    3.57    1.02
   1  12 -13    4.49    1.10
   0 -12 -13    8.31    1.33
   0 -12 -13    7.97    1.30
   0 -12 -13    4.00    1.89
   0  12 -13    5.20    1.29
   0  12 -13    7.69    1.24
   0  12 -13    7.05    1.20
  -1 -12 -13    7.11    1.29
   1 -12  13    8.05    1.28
  -1  12 -13    6.49    1.35
  -1  12 -13    7.30    1.27
  -1  12 -13    6.99    2.79
  -1  12 -13    5.32    1.27
   1 -13 -13    0.70    1.08
   1 -13 -13    0.62    0.97
   1 -13 -13   -0.93    1.59
   1  13 -13   -0.91    0.90
   1  13 -13    1.51    1.32
   1  13 -13    1.93    1.24
   0 -13 -13    0.81    1.03
   0 -13 -13    2.84    2.03
   0 -13 -13    2.19    1.18
   0  13 -13    1.58    0.98
   0  13 -13    0.78    1.23
   0  13 -13   -0.18    1.07
   1 -13  13    1.21    1.00
  -1 -13 -13    0.02    1.10
  -1  13 -13    0.28    1.17
  -1  13 -13    0.66    1.03
  -1  13 -13    1.33    1.46
  -1  13 -13   -2.49    2.64
   0 -14 -13    1.30    1.16
   0 -14 -13    0.66    2.36
   0 -14 -13    2.21    1.14
   0  14 -13    3.66    1.35
   0  14 -13   -0.99    2.61
   0  14 -13    0.30    1.05
   0  14 -13    0.27    1.20
   3   0 -14   -1.00    1.86
   3   0 -14   -0.27    0.87
   3   0 -14   -0.61    1.16
   2   0 -14    3.41    0.97
   2   0 -14    3.95    0.97
   2   0 -14    2.79    1.11
   1   0 -14    3.20    0.94
   1   0 -14    3.55    0.94
   0   0 -14    1.43    0.95
   0   0 -14    1.23    0.94
   0   0 -14    0.60    0.84
  -1   0 -14    1.03    0.94
  -1   0 -14    0.61    0.86
  -1   0 -14    0.42    1.08
  -2   0 -14    0.67    1.00
  -2   0 -14    0.26    3.53
   3  -1 -14    0.23    0.89
   3  -1 -14   -0.62    1.09
   3  -1 -14    0.15    1.05
   3   1 -14   -0.18    1.09
   3   1 -14    0.48    0.88
   3   1 -14    0.58    1.94
   2  -1 -14    8.52    1.13
   2  -1 -14    6.69    1.26
   2  -1 -14    6.44    1.09
   2   1 -14    6.99    1.12
   2   1 -14    8.28    1.54
   2   1 -14    7.86    1.11
   1  -1 -14    4.04    0.93
   1  -1 -14    1.88    0.85
   1   1 -14    1.91    0.90
   1   1 -14    3.02    0.94
   1   1 -14    0.95    1.02
   0  -1 -14    1.53    0.95
   0  -1 -14    0.92    0.81
   0   1 -14    2.46    0.85
   0   1 -14    1.32    0.97
   0   1 -14    3.67    1.01
  -1  -1 -14   -1.96    0.86
  -1  -1 -14    0.26    0.84
  -1  -1 -14    0.67    1.05
  -1   1 -14   -1.57    0.85
  -1   1 -14    0.07    0.86
  -1   1 -14   -0.36    0.99
  -2  -1 -14   -0.14    1.01
  -2  -1 -14   -1.40    3.64
  -2   1 -14   -0.01    1.04
   3  -2 -14    6.09    1.67
   3   2 -14    5.27    1.57
   2  -2 -14   13.22    1.71
   2  -2 -14   13.72    1.67
   2  -2 -14   15.15    2.18
   2   2 -14   19.05    1.78
   2   2 -14   19.37    1.70
   2   2 -14   18.73    2.17
   1  -2 -14   11.33    1.62
   1  -2 -14   12.62    1.61
   1   2 -14   12.05    1.64
   1   2 -14   16.37    1.69
   1   2 -14   14.60    1.87
   0  -2 -14   29.01    2.30
   0  -2 -14   25.56    2.17
   0   2 -14   33.53    2.37
   0   2 -14   34.61    2.26
   0   2 -14   35.96    2.41
  -1  -2 -14   15.17    1.76
  -1  -2 -14   15.23    1.92
  -1   2 -14   14.30    1.64
  -1   2 -14   16.96    1.98
  -1   2 -14   17.23    1.79
  -2  -2 -14    0.31    3.74
  -2  -2 -14    3.08    1.12
  -2   2 -14    3.42    1.19
  -2   2 -14    2.93    3.59
   2  -3 -14   -0.42    1.12
   2  -3 -14    0.36    0.85
   2  -3 -14   -0.09    0.78
   2   3 -14    0.00    1.10
   2   3 -14   -0.50    0.83
   2   3 -14    0.90    0.82
   1  -3 -14    0.03    0.80
   1  -3 -14    0.41    0.83
   1  -3 -14    0.47    1.12
   1   3 -14    0.49    1.02
   1   3 -14    0.80    0.83
   1   3 -14   -0.47    0.82
   0  -3 -14    0.94    0.93
   0  -3 -14    0.35    0.82
   0   3 -14    3.04    1.06
   0   3 -14    2.92    1.01
   0   3 -14    1.43    1.02
  -1  -3 -14    1.02    1.01
  -1  -3 -14    0.63    0.89
  -1   3 -14    1.25    0.93
  -1   3 -14   -0.39    0.84
  -1   3 -14    0.46    1.07
  -2  -3 -14   -0.05    1.04
  -2  -3 -14   -1.88    3.69
  -2   3 -14    0.50    1.12
  -2   3 -14    0.04    3.56
   2  -4 -14   -0.63    0.86
   2  -4 -14   -0.72    0.81
   2  -4 -14    0.00    1.05
   2   4 -14    0.17    0.81
   2   4 -14    0.58    1.10
   2   4 -14    1.13    0.90
   1  -4 -14    2.85    1.20
   1  -4 -14    0.73    0.86
   1  -4 -14    0.42    0.88
   1   4 -14    0.89    0.88
   1   4 -14    0.44    0.99
   1   4 -14    0.39    0.86
   0   4 -14   27.21    2.31
   0   4 -14   32.69    2.34
   0   4 -14   28.64    2.19
  -1  -4 -14    0.77    1.11
  -1  -4 -14    0.55    0.93
  -1   4 -14    0.00    0.83
  -1   4 -14    0.34    0.98
  -1   4 -14   -0.77    1.08
  -2  -4 -14    0.95    1.05
  -2  -4 -14   -3.51    3.81
  -2   4 -14    2.58    1.20
  -2   4 -14   -0.70    3.47
   2  -5 -14    2.81    1.20
   2  -5 -14    1.63    0.92
   2  -5 -14    2.48    1.03
   2   5 -14    3.34    1.22
   2   5 -14    1.05    0.84
   2   5 -14    1.68    0.92
   1  -5 -14    5.05    1.17
   1  -5 -14    4.15    1.38
   1  -5 -14    4.63    1.02
   1   5 -14    6.66    1.09
   1   5 -14    7.12    1.09
   1   5 -14    8.28    1.36
   0  -5 -14    3.27    1.04
   0  -5 -14    2.62    0.91
   0   5 -14    2.48    1.03
   0   5 -14    1.62    1.06
   0   5 -14    2.15    0.96
  -1  -5 -14    1.10    0.89
  -1  -5 -14    0.25    1.11
  -1   5 -14    0.58    1.37
  -1   5 -14   -0.32    0.84
  -1   5 -14    0.83    1.00
  -2  -5 -14   -0.11    1.02
  -2   5 -14   -2.16    1.04
  -2   5 -14    2.20    3.62
   2  -6 -14    3.48    1.10
   2  -6 -14    3.89    1.02
   2  -6 -14    2.31    1.17
   2   6 -14    3.46    1.34
   2   6 -14    0.60    0.85
   2   6 -14    3.84    0.96
   1  -6 -14    4.05    0.97
   1  -6 -14    2.81    1.22
   1  -6 -14    3.90    1.37
   1   6 -14    3.87    1.18
   1   6 -14    2.82    0.99
   1   6 -14    3.25    0.97
   0  -6 -14    4.17    1.35
   0  -6 -14    7.06    1.21
   0   6 -14    6.31    1.17
   0   6 -14    5.54    1.15
   0   6 -14    6.64    1.17
  -1  -6 -14    4.74    1.29
  -1  -6 -14    5.62    1.19
  -1   6 -14    4.97    1.12
  -1   6 -14    4.28    1.17
  -1   6 -14    4.31    1.17
  -2  -6 -14    2.87    1.62
  -2  -6 -14   -3.12    3.57
  -2   6 -14    8.93    3.98
  -2   6 -14    5.54    1.26
   2  -7 -14    2.48    1.10
   2  -7 -14    2.23    1.01
   2  -7 -14    2.18    1.18
   2   7 -14    1.06    1.33
   2   7 -14    2.94    0.97
   2   7 -14    1.46    0.89
   1  -7 -14    2.10    1.03
   1  -7 -14    1.91    1.41
   1  -7 -14    1.65    0.91
   1   7 -14    2.46    1.07
   1   7 -14    1.37    0.88
   1   7 -14    0.82    0.86
   0  -7 -14    5.51    1.28
   0  -7 -14    4.62    1.04
   0   7 -14    1.96    1.01
   0   7 -14    2.13    1.09
   0   7 -14    2.77    0.99
  -1  -7 -14    1.66    1.27
  -1  -7 -14    0.71    1.09
  -1   7 -14   -0.28    1.01
  -1   7 -14   -1.12    1.08
  -1   7 -14   -0.54    1.01
  -2  -7 -14    1.37    1.18
  -2  -7 -14   -0.81    3.71
  -2   7 -14   -1.37    1.08
  -2   7 -14   -3.58    3.78
   2  -8 -14    1.86    1.19
   2  -8 -14    4.81    1.46
   2  -8 -14    1.84    1.08
   2   8 -14    2.03    1.00
   2   8 -14    0.73    0.92
   2   8 -14    2.62    1.40
   1  -8 -14    0.91    1.47
   1  -8 -14    1.43    1.07
   1  -8 -14    1.45    0.96
   1   8 -14    2.66    0.97
   1   8 -14    1.76    0.98
   1   8 -14    1.13    1.10
   0  -8 -14    2.27    1.61
   0  -8 -14    0.50    1.14
   0  -8 -14    2.73    1.09
   0   8 -14    3.17    1.04
   0   8 -14    0.44    0.92
   0   8 -14    2.99    1.09
  -1  -8 -14    6.77    1.32
  -1  -8 -14    5.50    1.77
  -1   8 -14    4.51    1.24
  -1   8 -14    6.82    1.28
  -1   8 -14    5.25    1.20
  -1   8 -14    7.62    3.34
   2  -9 -14    6.50    1.30
   2  -9 -14    8.64    1.46
   2  -9 -14    6.36    1.41
   2   9 -14    6.11    1.19
   2   9 -14    6.39    1.66
   2   9 -14    5.47    1.13
   1  -9 -14    3.43    1.07
   1  -9 -14    3.67    1.62
   1  -9 -14    3.24    1.20
   1   9 -14    3.02    1.07
   1   9 -14    2.30    0.99
   1   9 -14    2.92    1.20
   0  -9 -14    1.87    1.08
   0  -9 -14    0.48    1.23
   0  -9 -14    0.59    1.62
   0   9 -14    1.66    1.07
   0   9 -14    1.62    1.02
   0   9 -14    0.43    1.01
  -1  -9 -14    0.06    1.09
  -1   9 -14    3.03    3.14
  -1   9 -14    1.80    1.16
  -1   9 -14    0.76    1.13
   1 -10 -14    3.68    1.14
   1 -10 -14    2.21    1.56
   1 -10 -14    2.12    1.16
   1  10 -14    1.04    1.08
   1  10 -14    2.08    1.24
   1  10 -14    0.69    1.00
   0 -10 -14    0.00    1.74
   0 -10 -14    2.80    1.26
   0 -10 -14    0.82    1.18
   0  10 -14    2.24    1.09
   0  10 -14    1.01    1.05
   0  10 -14    1.42    1.12
  -1 -10 -14    2.83    1.27
  -1  10 -14    2.01    3.15
  -1  10 -14    0.25    1.11
  -1  10 -14    1.91    1.24
   1 -11 -14    6.62    1.40
   1 -11 -14    5.87    1.88
   1 -11 -14    6.78    1.38
   1  11 -14    5.11    1.43
   1  11 -14    6.31    1.20
   1  11 -14    5.42    1.30
   0 -11 -14    5.53    1.36
   0 -11 -14    5.62    2.01
   0 -11 -14    4.31    1.34
   0  11 -14    3.64    1.27
   0  11 -14    3.91    1.29
   0  11 -14    3.37    1.06
   0 -12 -14    5.48    2.64
   0 -12 -14    3.68    1.37
   0 -12 -14    3.99    1.34
   0  12 -14    3.24    1.22
   0  12 -14    4.75    1.43
   0  12 -14    4.95    1.41
   2   0 -15    1.30    1.03
   2   0 -15   -1.88    0.91
   2   0 -15   -0.07    1.32
   1   0 -15    0.05    0.91
   1   0 -15    0.34    1.14
   1   0 -15   -0.06    0.93
   0   0 -15    1.27    0.98
   0   0 -15    0.50    0.99
   0   0 -15   -0.93    1.00
  -1   0 -15   -1.23    1.12
  -1   0 -15   -0.70    1.06
  -1   0 -15   -0.76    1.55
   2  -1 -15    5.11    2.10
   2  -1 -15    4.31    1.12
   2  -1 -15    4.91    1.19
   2   1 -15    5.55    1.22
   2   1 -15    5.00    1.49
   2   1 -15    2.69    1.07
   1  -1 -15    5.81    1.14
   1  -1 -15    6.00    1.14
   1   1 -15    6.34    1.38
   1   1 -15    6.38    1.16
   1   1 -15    6.03    1.13
   0  -1 -15    4.44    1.09
   0  -1 -15    3.92    1.12
   0   1 -15    5.25    1.23
   0   1 -15    3.26    1.11
   0   1 -15    3.92    1.14
  -1  -1 -15    1.10    1.05
  -1  -1 -15    2.40    1.27
  -1  -1 -15    0.59    1.20
  -1   1 -15    2.01    1.18
  -1   1 -15    1.27    1.10
   2  -2 -15    0.93    0.97
   2  -2 -15    0.77    1.17
   2  -2 -15    1.18    1.05
   2   2 -15    0.92    0.95
   2   2 -15    0.85    1.33
   2   2 -15    0.09    1.02
   1   2 -15    3.74    1.17
   1   2 -15    3.50    0.96
   1   2 -15    3.34    1.07
   0  -2 -15   -0.44    0.92
   0  -2 -15    1.34    0.96
   0   2 -15    0.05    0.97
   0   2 -15    0.75    1.07
   0   2 -15    1.16    1.02
  -1  -2 -15    1.07    1.17
  -1  -2 -15   -0.08    1.16
  -1  -2 -15   -1.24    0.99
  -1   2 -15    0.96    1.21
  -1   2 -15   -0.44    1.03
   2  -3 -15    3.53    1.08
   2  -3 -15    4.19    1.08
   2  -3 -15    3.20    1.37
   2   3 -15    3.40    1.44
   2   3 -15    2.52    1.10
   2   3 -15    3.74    1.14
   1  -3 -15    1.45    0.95
   1  -3 -15   -0.63    0.89
   1   3 -15    2.77    1.04
   1   3 -15    2.23    0.95
   1   3 -15    1.42    1.13
   0  -3 -15    0.01    0.97
   0  -3 -15    0.37    0.94
   0   3 -15    1.91    1.07
   0   3 -15    0.70    1.00
   0   3 -15    0.70    1.05
  -1  -3 -15    0.22    1.15
  -1  -3 -15   -0.28    0.94
  -1   3 -15   -1.99    1.04
  -1   3 -15   -0.77    1.14
   2  -4 -15    2.60    1.07
   2  -4 -15    1.11    1.13
   2  -4 -15    3.40    1.46
   2   4 -15    0.75    1.02
   2   4 -15    0.94    1.33
   2   4 -15    2.90    1.43
   1  -4 -15    9.80    1.28
   1  -4 -15    7.03    1.20
   1  -4 -15    7.24    1.59
   1   4 -15    7.58    1.21
   1   4 -15    7.67    1.29
   1   4 -15    8.53    1.41
   0  -4 -15    3.60    1.07
   0  -4 -15    4.14    1.12
   0   4 -15    4.17    1.15
   0   4 -15    3.59    1.12
   0   4 -15    4.58    1.24
  -1  -4 -15    0.03    1.04
  -1  -4 -15    0.57    1.14
  -1   4 -15    2.79    1.26
  -1   4 -15   -1.83    1.09
   2  -5 -15    9.99    1.42
   2  -5 -15   14.36    1.84
   2  -5 -15    9.52    1.49
   2   5 -15    8.78    1.56
   2   5 -15   11.08    1.87
   2   5 -15    9.66    1.38
   1  -5 -15    5.11    1.14
   1  -5 -15    6.84    1.52
   1  -5 -15    5.95    1.18
   1   5 -15    5.90    1.18
   1   5 -15    5.59    1.35
   1   5 -15    6.15    1.23
   0  -5 -15    2.64    1.05
   0  -5 -15   -0.97    0.95
   0   5 -15    1.36    1.10
   0   5 -15    0.20    1.06
   0   5 -15    0.18    1.05
  -1  -5 -15    0.25    0.98
  -1  -5 -15   -2.60    1.92
  -1   5 -15   -0.46    1.16
  -1   5 -15    2.33    1.36
   1  -6 -15    0.75    1.39
   1  -6 -15    1.89    1.06
   1  -6 -15   -0.20    1.18
   1   6 -15    2.11    1.11
   1   6 -15   -1.07    0.96
   1   6 -15    1.04    1.18
   0  -6 -15    0.49    0.97
   0  -6 -15    2.19    1.17
   0   6 -15   -0.20    1.06
   0   6 -15    1.29    1.13
   0   6 -15   -1.38    1.03
  -1  -6 -15    0.55    1.16
  -1   6 -15    0.74    1.24
  -1   6 -15    0.63    1.15
   1  -7 -15    1.29    1.25
   1  -7 -15    1.46    1.15
   1  -7 -15    1.02    1.46
   1   7 -15    0.78    1.08
   1   7 -15    0.68    1.03
   1   7 -15   -0.61    1.12
   0  -7 -15    2.97    1.22
   0  -7 -15    4.99    1.40
   0   7 -15    2.46    1.19
   0   7 -15    2.11    1.16
   0   7 -15    3.70    1.18
  -1  -7 -15    0.01    1.09
  -1   7 -15    0.06    1.20
  -1   7 -15   -0.73    1.20
   1  -8 -15    5.02    1.73
   1  -8 -15    4.05    1.30
   1  -8 -15    6.46    1.47
   1   8 -15    6.23    1.26
   1   8 -15    1.97    1.33
   1   8 -15    2.21    1.32
   0  -8 -15    8.60    1.51
   0  -8 -15    7.44    1.51
   0   8 -15   10.16    1.39
   0   8 -15    7.53    1.93
   0   8 -15    6.60    1.38
   0  -9 -15    1.45    1.44
   0  -9 -15    0.43    1.27
   0   9 -15    0.17    1.11
   0   9 -15    0.67    1.43
   0   9 -15    1.23    1.11
   1   0 -16    1.65    1.29
   1   0 -16    2.05    1.31
   1   0 -16    1.48    1.18
   0   0 -16    6.86    1.40
   0   0 -16    7.56    1.41
   0   0 -16    6.84    1.38
   1  -1 -16    1.52    1.33
   1  -1 -16    1.05    1.10
   1   1 -16    2.55    1.39
   1   1 -16    0.09    1.26
   1   1 -16    0.27    1.15
   0  -1 -16    1.70    1.13
   0  -1 -16    1.55    1.74
   0  -1 -16    1.08    1.17
   0   1 -16    0.27    1.17
   0   1 -16    1.38    1.21
   0   1 -16    0.70    1.14
   1  -2 -16   15.86    2.03
   1  -2 -16   12.89    1.78
   1   2 -16   13.82    1.86
   1   2 -16   16.05    2.09
   1   2 -16   17.09    2.34
   0  -2 -16    7.63    1.45
   0  -2 -16    6.29    1.34
   0   2 -16    5.23    1.37
   0   2 -16    6.53    1.50
   0   2 -16    6.43    1.36
   1  -3 -16    1.17    1.41
   1  -3 -16   -0.21    1.00
   1   3 -16    0.41    1.29
   1   3 -16   -0.04    1.12
   1   3 -16    1.21    1.86
   0  -3 -16    2.34    1.21
   0  -3 -16    0.80    0.99
   0   3 -16   -1.42    1.11
   0   3 -16    0.57    1.27
   0   3 -16   -1.05    1.14
   0  -4 -16    1.66    1.23
   0  -4 -16   -0.29    1.05
   0   4 -16   -0.46    1.17
   0   4 -16   -0.75    1.33
   0   4 -16    1.69    1.25
   0   0   0    0.00    0.00
;
_shelx_hkl_checksum              3234
loop_
_space_group_symop_operation_xyz
'x, y, z'
'-x, y+1/2, -z+1/2'
'-x, -y, -z'
'x, -y-1/2, z-1/2'
loop_
_atom_site_label
_atom_site_type_symbol
_atom_site_fract_x
_atom_site_fract_y
_atom_site_fract_z
_atom_site_U_iso_or_equiv
_atom_site_adp_type
_atom_site_occupancy
_atom_site_site_symmetry_order
_atom_site_calc_flag
_atom_site_refinement_flags_posn
_atom_site_refinement_flags_adp
Br1 Br 0.5265(2) 0.48078(4) 0.77804(7) 0.0548(3) Uani 1 1 d . .
Cl1 Cl 0.5394(5) 0.78497(9) 0.74697(14) 0.0425(4) Uani 1 1 d . .
O1 O 0.6673(13) 0.6299(3) 0.6888(4) 0.0444(12) Uani 1 1 d . .
H1 H 0.7056 0.6711 0.6637 0.067 Uiso 1 1 calc R U
O2 O -0.0434(17) 0.7786(3) 1.0419(5) 0.0626(17) Uani 1 1 d . .
O3 O 0.2348(13) 0.8447(3) 0.9279(4) 0.0476(13) Uani 1 1 d . .
C1 C 0.5054(15) 0.6381(4) 0.7795(5) 0.0312(13) Uani 1 1 d . .
C2 C 0.4200(16) 0.5745(3) 0.8331(5) 0.0331(13) Uani 1 1 d . .
C3 C 0.2599(17) 0.5785(4) 0.9274(6) 0.0399(15) Uani 1 1 d . .
H3A H 0.2070 0.5349 0.9631 0.048 Uiso 1 1 calc R U
C4 C 0.1784(17) 0.6463(4) 0.9688(6) 0.0392(15) Uani 1 1 d . .
H4A H 0.0722 0.6483 1.0329 0.047 Uiso 1 1 calc R U
C5 C 0.2518(15) 0.7123(3) 0.9165(5) 0.0313(13) Uani 1 1 d . .
C6 C 0.4198(15) 0.7077(3) 0.8209(5) 0.0306(12) Uani 1 1 d . .
C7 C 0.1333(17) 0.7819(4) 0.9682(5) 0.0371(14) Uani 1 1 d . .
C8 C 0.110(2) 0.9126(4) 0.9748(7) 0.054(2) Uani 1 1 d . .
H8A H 0.1987 0.9552 0.9398 0.082 Uiso 1 1 calc R U
H8B H -0.1236 0.9134 0.9652 0.082 Uiso 1 1 calc R U
H8C H 0.1726 0.9141 1.0504 0.082 Uiso 1 1 calc R U
loop_
_atom_site_aniso_label
_atom_site_aniso_U_11
_atom_site_aniso_U_22
_atom_site_aniso_U_33
_atom_site_aniso_U_23
_atom_site_aniso_U_13
_atom_site_aniso_U_12
Br1 0.0774(6) 0.0311(4) 0.0574(5) -0.0061(3) 0.0185(4) 0.0029(3)
Cl1 0.0659(11) 0.0252(7) 0.0388(9) 0.0056(6) 0.0243(8) 0.0003(7)
O1 0.068(3) 0.034(2) 0.034(3) -0.0003(19) 0.026(2) 0.001(2)
O2 0.095(5) 0.041(3) 0.057(3) -0.003(3) 0.048(3) 0.005(3)
O3 0.065(3) 0.028(2) 0.052(3) -0.006(2) 0.028(3) 0.002(2)
C1 0.033(3) 0.037(3) 0.024(3) -0.001(2) 0.006(2) 0.000(2)
C2 0.039(3) 0.027(3) 0.034(3) -0.004(2) 0.008(3) 0.002(2)
C3 0.049(4) 0.030(3) 0.042(4) 0.007(3) 0.014(3) -0.007(3)
C4 0.043(4) 0.041(4) 0.034(3) 0.001(3) 0.016(3) -0.002(3)
C5 0.034(3) 0.030(3) 0.031(3) -0.002(2) 0.007(2) -0.001(2)
C6 0.033(3) 0.028(3) 0.031(3) 0.001(2) 0.004(2) -0.001(2)
C7 0.041(4) 0.040(4) 0.031(3) -0.003(3) 0.005(3) 0.002(3)
C8 0.075(6) 0.028(3) 0.063(5) -0.006(3) 0.024(4) 0.010(3)
loop_
_atom_type_symbol
_atom_type_description
_atom_type_scat_dispersion_real
_atom_type_scat_dispersion_imag
_atom_type_scat_source
C C 0.0033 0.0016 'International Tables Vol C Tables 4.2.6.8 and 6.1.1.4'
H H 0.0000 0.0000 'International Tables Vol C Tables 4.2.6.8 and 6.1.1.4'
O O 0.0106 0.0060 'International Tables Vol C Tables 4.2.6.8 and 6.1.1.4'
Cl Cl 0.1484 0.1585 'International Tables Vol C Tables 4.2.6.8 and 6.1.1.4'
Br Br -0.2901 2.4595 'International Tables Vol C Tables 4.2.6.8 and 6.1.1.4'
loop_
_geom_angle_atom_site_label_1
_geom_angle_atom_site_label_2
_geom_angle_atom_site_label_3
_geom_angle
C7 O3 C8 116.1(6)
O1 C1 C6 123.4(6)
O1 C1 C2 117.7(6)
C6 C1 C2 119.0(5)
C1 C2 C3 121.0(6)
C1 C2 Br1 119.7(5)
C3 C2 Br1 119.3(5)
C4 C3 C2 120.3(6)
C3 C4 C5 121.1(6)
C4 C5 C6 118.2(6)
C4 C5 C7 115.1(5)
C6 C5 C7 126.6(6)
C1 C6 C5 120.4(6)
C1 C6 Cl1 115.4(5)
C5 C6 Cl1 124.2(5)
O2 C7 O3 123.5(6)
O2 C7 C5 120.7(6)
O3 C7 C5 115.8(6)
loop_
_geom_bond_atom_site_label_1
_geom_bond_atom_site_label_2
_geom_bond_distance
Br1 C2 1.875(6)
Cl1 C6 1.748(6)
O1 C1 1.348(7)
O2 C7 1.201(8)
O3 C7 1.309(8)
O3 C8 1.456(8)
C1 C6 1.401(8)
C1 C2 1.376(9)
C2 C3 1.377(9)
C3 C4 1.369(9)
C4 C5 1.391(9)
C5 C6 1.408(8)
C5 C7 1.496(9)
