#------------------------------------------------------------------------------
#$Date: 2019-11-10 06:54:01 +0200 (Sun, 10 Nov 2019) $
#$Revision: 225756 $
#$URL: file:///home/coder/svn-repositories/cod/cif/4/51/56/4515612.cif $
#------------------------------------------------------------------------------
#
# This file is available in the Crystallography Open Database (COD),
# http://www.crystallography.net/
#
# All data on this site have been placed in the public domain by the
# contributors.
#
data_4515612
loop_
_publ_author_name
'Xiong, Xiaodong'
'Yeung, Ying-Yeung'
_publ_section_title
;
 Ammonium Salt-Catalyzed Highly Practical Ortho-Selective Monohalogenation
 and Phenylselenation of Phenols: Scope and Applications
;
_journal_issue                   5
_journal_name_full               'ACS Catalysis'
_journal_page_first              4033
_journal_paper_doi               10.1021/acscatal.8b00327
_journal_volume                  8
_journal_year                    2018
_chemical_formula_sum            'C6 H3 Br Cl I O'
_chemical_formula_weight         333.34
_space_group_crystal_system      monoclinic
_space_group_IT_number           4
_space_group_name_Hall           'P 2yb'
_space_group_name_H-M_alt        'P 1 21 1'
_atom_sites_solution_hydrogens   geom
_audit_creation_method           SHELXL-2014/6
_cell_angle_alpha                90
_cell_angle_beta                 100.781(5)
_cell_angle_gamma                90
_cell_formula_units_Z            2
_cell_length_a                   7.2559(13)
_cell_length_b                   4.5474(8)
_cell_length_c                   13.321(2)
_cell_measurement_reflns_used    479
_cell_measurement_temperature    296(2)
_cell_measurement_theta_max      15
_cell_measurement_theta_min      15
_cell_volume                     431.77(13)
_computing_cell_refinement       'BRUKER D8VENTURE DIFFRACTOMETER'
_computing_data_collection       'BRUKER D8VENTURE DIFFRACTOMETER'
_computing_data_reduction        'BRUKER D8VENTURE DIFFRACTOMETER'
_computing_molecular_graphics    'BRUKER SHELXTL'
_computing_publication_material  'BRUKER SHELXTL'
_computing_structure_refinement  'SHELXL-2014/6 (Sheldrick, 2014)'
_diffrn_ambient_temperature      296(2)
_diffrn_measured_fraction_theta_full 0.983
_diffrn_measured_fraction_theta_max 0.985
_diffrn_measurement_device_type  'BRUKER D8VENTURE DIFFRACTOMETER'
_diffrn_measurement_method       'PHI & OMEGA SCAN'
_diffrn_radiation_type           MoK\a
_diffrn_radiation_wavelength     0.71073
_diffrn_reflns_av_R_equivalents  0.0339
_diffrn_reflns_av_unetI/netI     0.0163
_diffrn_reflns_Laue_measured_fraction_full 0.983
_diffrn_reflns_Laue_measured_fraction_max 0.985
_diffrn_reflns_limit_h_max       9
_diffrn_reflns_limit_h_min       -9
_diffrn_reflns_limit_k_max       5
_diffrn_reflns_limit_k_min       -5
_diffrn_reflns_limit_l_max       17
_diffrn_reflns_limit_l_min       -17
_diffrn_reflns_number            17353
_diffrn_reflns_point_group_measured_fraction_full 0.987
_diffrn_reflns_point_group_measured_fraction_max 0.987
_diffrn_reflns_theta_full        25.242
_diffrn_reflns_theta_max         27.941
_diffrn_reflns_theta_min         2.858
_exptl_absorpt_coefficient_mu    8.575
_exptl_absorpt_correction_T_max  0.7456
_exptl_absorpt_correction_T_min  0.3195
_exptl_absorpt_correction_type   multi-scan
_exptl_crystal_colour            colourless
_exptl_crystal_density_diffrn    2.564
_exptl_crystal_description       block
_exptl_crystal_F_000             304
_exptl_crystal_size_max          0.400
_exptl_crystal_size_mid          0.300
_exptl_crystal_size_min          0.200
_refine_diff_density_max         2.974
_refine_diff_density_min         -1.812
_refine_diff_density_rms         0.281
_refine_ls_abs_structure_details
;
 Refined as an inversion twin.
;
_refine_ls_abs_structure_Flack   0.52(6)
_refine_ls_extinction_coef       0.15(3)
_refine_ls_extinction_expression Fc^*^=kFc[1+0.001xFc^2^\l^3^/sin(2\q)]^-1/4^
_refine_ls_extinction_method     SHELXL
_refine_ls_goodness_of_fit_ref   1.160
_refine_ls_hydrogen_treatment    constr
_refine_ls_matrix_type           full
_refine_ls_number_parameters     93
_refine_ls_number_reflns         2043
_refine_ls_number_restraints     1
_refine_ls_restrained_S_all      1.159
_refine_ls_R_factor_all          0.0721
_refine_ls_R_factor_gt           0.0702
_refine_ls_shift/su_max          0.000
_refine_ls_shift/su_mean         0.000
_refine_ls_structure_factor_coef Fsqd
_refine_ls_weighting_details
'w=1/[\s^2^(Fo^2^)+(0.1643P)^2^+1.1780P] where P=(Fo^2^+2Fc^2^)/3'
_refine_ls_weighting_scheme      calc
_refine_ls_wR_factor_gt          0.2329
_refine_ls_wR_factor_ref         0.2358
_reflns_Friedel_coverage         0.782
_reflns_Friedel_fraction_full    0.993
_reflns_Friedel_fraction_max     0.991
_reflns_number_gt                1951
_reflns_number_total             2043
_reflns_threshold_expression     'I > 2\s(I)'
_cod_data_source_file            cs8b00327_si_011.cif
_cod_data_source_block           xxd266
_cod_original_sg_symbol_H-M      'P 21'
_cod_database_code               4515612
_shelx_space_group_comment
;
The symmetry employed for this shelxl refinement is uniquely defined
by the following loop, which should always be used as a source of
symmetry information in preference to the above space-group names.
They are only intended as comments.
;
_shelx_estimated_absorpt_t_min   0.131
_shelx_estimated_absorpt_t_max   0.279
_shelxl_version_number           2014/6
_shelx_res_file
;
TITL P in P2(1)
CELL 0.71073   7.25590   4.54740  13.32090  90.0000 100.7808  90.0000
ZERR    2.00   0.00130   0.00080   0.00240   0.0000   0.0050   0.0000
LATT -1
SYMM -X, 0.5+Y, -Z
SFAC C  H  O  Cl Br I
UNIT 12 6 2 2 2 2
REM C6 H3 Br Cl I O
REM D8VENTURE BLOCK COLOURLESS
SIZE 0.40 0.30 0.20

L.S. 16
ACTA

FMAP 2
PLAN 20
TWIN
TEMP 23

WGHT    0.164300    1.178000
EXTI    0.146445
BASF   0.51583
FVAR       0.38288
I1    6    0.790609    1.111568    0.044222    11.00000    0.10802    0.07545 =
         0.05289   -0.00010    0.04004   -0.01200
BR1   5    0.233074    1.165868    0.302208    11.00000    0.06284    0.09216 =
         0.09044    0.00296    0.01637    0.01244
CL1   4    0.854729    0.449739    0.418148    11.00000    0.03418    0.02762 =
         0.03395   -0.00052    0.00695    0.00501
O1    3    0.486993    0.752677    0.434539    11.00000    0.06643    0.04805 =
         0.04946    0.00496    0.02629    0.00574
AFIX  83
H1A   2    0.497197    0.900758    0.470279    11.00000   -1.50000
AFIX   0
C1    1    0.553109    0.810296    0.345653    11.00000    0.04122    0.03776 =
         0.05285   -0.00741    0.01091   -0.00876
C2    1    0.453942    0.999174    0.275628    11.00000    0.03812    0.04999 =
         0.04184   -0.00280    0.00686    0.00185
C3    1    0.518498    1.091000    0.188284    11.00000    0.05768    0.05698 =
         0.04465    0.00615    0.00540   -0.00727
AFIX  43
H3A   2    0.452473    1.227596    0.143456    11.00000   -1.20000
AFIX   0
C4    1    0.679174    0.974093    0.171949    11.00000    0.06708    0.04593 =
         0.04569   -0.00486    0.01699   -0.00336
C5    1    0.784091    0.769012    0.241473    11.00000    0.06379    0.04629 =
         0.04774   -0.00291    0.02606   -0.00192
AFIX  43
H5A   2    0.893845    0.686210    0.227632    11.00000   -1.20000
AFIX   0
C6    1    0.720703    0.696588    0.328487    11.00000    0.05142    0.03285 =
         0.04807   -0.00969    0.01390   -0.01092

HKLF 4

REM  P in P2(1)
REM R1 =  0.0702 for    1951 Fo > 4sig(Fo)  and  0.0721 for all    2043 data
REM     93 parameters refined using      1 restraints

END

WGHT      0.1647      1.1605

REM Highest difference peak  2.974,  deepest hole -1.812,  1-sigma level  0.281
Q1    1   0.8448  0.7897  0.4192  11.00000  0.05    1.88
Q2    1   0.8547  1.2909  0.0810  11.00000  0.05    0.85
Q3    1   0.6869  0.3384  0.3272  11.00000  0.05    0.83
Q4    1   0.8140  1.0041  0.0542  11.00000  0.05    0.78
Q5    1   0.8898  1.1377  0.0766  11.00000  0.05    0.78
Q6    1   0.8427  0.1460  0.4273  11.00000  0.05    0.76
Q7    1   0.5574  0.6626  0.4818  11.00000  0.05    0.75
Q8    1   0.5006  1.1289  0.1026  11.00000  0.05    0.59
Q9    1   0.6105  0.6670  0.3131  11.00000  0.05    0.56
Q10   1   0.3956  0.8425  0.1616  11.00000  0.05    0.53
Q11   1   1.1190  0.6683  0.2212  11.00000  0.05    0.53
Q12   1   0.3459  1.3166  0.3416  11.00000  0.05    0.52
Q13   1   0.2304  1.0458  0.0897  11.00000  0.05    0.51
Q14   1   0.4845  0.7452  0.2860  11.00000  0.05    0.50
Q15   1   0.3685  0.4809  0.4150  11.00000  0.05    0.49
Q16   1   0.1369  1.1383  0.1146  11.00000  0.05    0.49
Q17   1   0.3027  1.1315  0.1607  11.00000  0.05    0.48
Q18   1   1.0806  0.9525  0.1105  11.00000  0.05    0.48
Q19   1   1.0967  0.7544  0.2418  11.00000  0.05    0.46
Q20   1   0.2411  1.2505  0.1395  11.00000  0.05    0.45
;
_shelx_res_checksum              44642
_shelx_hkl_file
;
  -1   0   0    5.84    0.31
  -1   0   0    6.42    0.26
  -1   0   0    5.68    0.34
  -1   0   0    6.76    0.29
  -1   0   0    7.20    0.27
  -1   0   0    6.50    0.27
   1   0   0    6.59    0.26
   1   0   0    6.93    0.27
   1   0   0    7.26    0.27
   1   0   0    6.82    0.27
  -4   0   0  228.50    7.92
  -4   0   0  250.04    8.03
  -4   0   0  226.75    8.31
  -4   0   0  221.22    7.99
  -4   0   0  231.73    7.99
  -4   0   0  220.68    7.98
  -4   0   0  238.83    7.98
  -4   0   0  221.44    8.18
   4   0   0  224.07    7.99
   4   0   0  234.27    7.99
   4   0   0  229.76    7.98
   4   0   0  236.79    7.99
   4   0   0  221.83    7.97
   4   0   0  247.85    8.28
  -5   0   0   73.42    2.68
  -5   0   0   71.15    2.66
  -5   0   0   69.46    3.08
  -5   0   0   68.32    2.94
  -5   0   0   77.06    2.71
  -5   0   0   68.12    2.62
   5   0   0   67.75    2.63
   5   0   0   69.66    2.63
   5   0   0   70.50    2.65
   5   0   0   71.94    2.65
   5   0   0   75.28    3.00
   5   0   0   69.53    2.66
  -6   0   0    1.05    0.31
  -6   0   0    0.95    0.33
  -6   0   0    0.22    0.26
  -6   0   0    0.21    0.31
  -6   0   0    0.78    0.59
  -6   0   0    1.99    0.68
   6   0   0    0.78    0.27
   6   0   0    0.53    0.28
   6   0   0    0.33    0.31
   6   0   0    0.51    0.37
   6   0   0    1.11    0.29
  -7   0   0    6.72    1.05
  -7   0   0    6.15    0.69
  -7   0   0    6.38    0.71
   7   0   0    6.60    0.69
   7   0   0    5.57    0.68
   7   0   0    6.06    0.91
   7   0   0    6.65    0.65
   7   0   0    6.30    0.64
  -8   0   0    3.27    0.55
  -8   0   0    3.16    0.53
   8   0   0    3.36    0.49
   8   0   0    4.21    0.56
   8   0   0    3.65    0.57
  -9   0   0    4.21    0.71
  -9   0   0    6.99    1.56
  -9   0   0    3.84    0.69
   9   0   0    4.03    0.65
   9   0   0    3.48    0.62
   9   0   0    4.72    0.68
   9  -1   0    4.60    0.71
   9  -1   0    4.51    0.64
   9  -1   0    4.84    0.74
  -9   1   0    2.94    1.63
  -9   1   0    5.13    0.69
   8  -1   0    3.53    0.51
   8  -1   0    3.72    0.53
   8  -1   0    3.46    0.61
  -8   1   0    4.99    1.31
  -8   1   0    3.46    0.55
  -8   1   0    3.03    0.52
   7  -1   0   11.79    1.15
   7  -1   0   14.41    0.90
   7  -1   0   12.83    0.84
   7  -1   0   12.93    0.84
  -7   1   0   14.45    1.82
  -7   1   0   15.33    1.18
  -7   1   0   13.12    0.99
  -7   1   0   12.58    0.90
   6  -1   0   24.12    1.11
   6  -1   0   22.60    1.11
   6  -1   0   24.15    1.12
   6  -1   0   23.79    1.74
   6  -1   0   22.09    1.22
  -6   1   0   22.10    1.12
  -6   1   0   22.04    1.13
  -6   1   0   24.10    1.29
  -6   1   0   22.68    1.63
   5  -1   0   49.95    1.93
   5  -1   0   52.69    2.17
   5  -1   0   51.16    2.30
   5  -1   0   48.96    1.89
   5  -1   0   49.51    1.90
   5  -1   0   48.46    1.89
   5  -1   0   48.66    2.00
  -5   1   0   47.33    1.91
  -5   1   0   45.70    2.05
  -5   1   0   46.83    1.90
  -5   1   0   49.60    1.90
  -5   1   0   46.85    1.87
  -5   1   0   49.00    2.36
   4  -1   0   22.50    0.95
   4  -1   0   23.61    1.19
   4  -1   0   22.69    0.92
   4  -1   0   22.19    0.94
   4  -1   0   22.55    0.96
   4  -1   0   24.24    1.27
   4  -1   0   22.37    1.06
   4  -1   0   22.09    0.94
  -4   1   0   20.93    0.94
  -4   1   0   21.37    0.93
  -4   1   0   21.69    1.32
  -4   1   0   18.69    1.05
  -4   1   0   21.89    0.95
  -4   1   0   22.44    0.95
   3  -1   0   91.97    3.21
   3  -1   0   97.97    3.49
   3  -1   0   93.71    3.22
   3  -1   0   89.81    3.20
   3  -1   0   92.83    3.23
   3  -1   0   96.76    3.46
   3  -1   0   90.27    3.22
  -3   1   0   87.31    3.31
  -3   1   0   90.60    3.22
  -3   1   0   89.47    3.53
  -3   1   0   87.05    3.22
  -3   1   0   88.72    3.21
  -3   1   0   91.28    3.21
   2  -1   0   95.47    3.37
   2  -1   0  103.44    3.59
   2  -1   0   94.78    3.38
   2  -1   0   98.73    3.38
   2  -1   0  100.13    3.38
   2  -1   0  100.67    3.58
   2  -1   0   95.43    3.35
   2  -1   0   98.48    3.37
   2  -1   0   95.71    3.65
  -2   1   0   90.88    3.42
  -2   1   0   96.43    3.37
  -2   1   0   96.05    3.36
  -2   1   0   93.46    3.64
  -2   1   0   95.74    3.36
  -2   1   0   99.74    3.64
   1  -1   0   26.49    1.15
   1  -1   0   26.21    0.96
   1  -1   0   26.02    1.11
   1  -1   0   26.84    1.00
   1  -1   0   27.22    1.14
   1  -1   0   27.40    0.97
   1  -1   0   25.96    1.02
   1  -1   0   25.11    0.95
   1  -1   0   27.11    0.95
  -1   1   0   29.86    1.00
  -1   1   0   27.09    0.96
  -1   1   0   24.75    1.12
  -1   1   0   26.16    0.96
  -1   1   0   25.89    1.17
   0  -1   0   -0.17    0.18
   0  -1   0    0.04    0.16
   0  -1   0   -0.09    0.17
   0  -1   0   -0.09    0.12
   0  -1   0   -0.19    0.16
   0  -1   0   -0.15    0.15
   0   1   0   -0.31    0.16
   0   1   0    0.23    0.21
   0   1   0   -0.30    0.15
   0   1   0    0.28    0.17
   0   1   0   -0.22    0.17
  -1  -1   0   25.74    0.97
  -1  -1   0   25.67    0.97
  -1  -1   0   29.27    0.97
  -1  -1   0   26.71    0.98
  -1  -1   0   26.57    1.05
  -1  -1   0   25.64    1.07
   1   1   0   25.70    1.12
   1   1   0   25.75    0.97
   1   1   0   27.06    1.05
   1   1   0   24.66    1.07
   1   1   0   27.09    0.96
   1   1   0   27.87    1.06
   1   1   0   26.23    0.96
  -2  -1   0  107.12    3.74
  -2  -1   0  106.77    3.74
  -2  -1   0  103.77    3.75
  -2  -1   0  106.93    3.83
  -2  -1   0  106.56    3.88
   2   1   0  114.78    3.87
   2   1   0  102.03    3.74
   2   1   0  105.41    3.73
   2   1   0  110.93    3.74
   2   1   0  107.05    3.93
   2   1   0  110.65    3.85
  -3  -1   0  100.05    3.44
  -3  -1   0   96.05    3.50
  -3  -1   0   97.29    3.65
  -3  -1   0   94.03    3.43
  -3  -1   0   99.02    3.42
  -3  -1   0   97.87    3.43
   3   1   0   90.85    3.49
   3   1   0   93.78    3.42
   3   1   0   92.73    3.36
   3   1   0   98.54    3.43
   3   1   0   96.00    3.41
   3   1   0   98.57    3.42
   3   1   0  105.52    3.62
  -4  -1   0   19.54    1.18
  -4  -1   0   19.41    0.90
  -4  -1   0   19.01    0.89
  -4  -1   0   19.80    0.86
  -4  -1   0   20.08    0.91
  -4  -1   0   20.92    0.95
   4   1   0   19.84    0.87
   4   1   0   20.78    1.08
   4   1   0   17.91    0.89
   4   1   0   18.88    0.91
   4   1   0   19.93    0.87
   4   1   0   19.34    0.94
   4   1   0   19.04    0.87
  -5  -1   0   48.01    1.97
  -5  -1   0   50.67    2.00
  -5  -1   0   53.32    2.00
  -5  -1   0   53.22    2.02
  -5  -1   0   47.77    1.95
  -5  -1   0   50.33    2.14
  -5  -1   0   51.48    1.98
  -5  -1   0   46.95    2.33
   5   1   0   51.34    1.91
   5   1   0   48.87    1.95
   5   1   0   50.27    2.23
   5   1   0   51.09    1.97
   5   1   0   49.78    1.95
   5   1   0   51.16    1.95
  -6  -1   0   23.41    1.11
  -6  -1   0   22.28    1.14
  -6  -1   0   22.92    1.11
  -6  -1   0   21.74    1.58
  -6  -1   0   21.11    1.33
   6   1   0   21.49    1.18
   6   1   0   21.46    1.07
   6   1   0   21.73    1.10
   6   1   0   22.66    1.04
  -7  -1   0   12.12    1.42
  -7  -1   0   13.19    0.89
  -7  -1   0   12.80    0.78
  -7  -1   0   12.22    0.93
  -7  -1   0   11.64    1.24
  -7  -1   0   12.05    0.93
   7   1   0   12.67    0.86
   7   1   0   12.75    0.80
   7   1   0   12.48    0.85
  -8  -1   0    3.27    0.58
  -8  -1   0    3.87    1.03
  -8  -1   0    4.01    0.59
  -8  -1   0    2.90    1.05
   8   1   0    3.13    0.51
   8   1   0    3.26    0.51
   8   1   0    3.73    0.56
  -9  -1   0    4.50    2.05
  -9  -1   0    4.10    0.65
  -9  -1   0    2.01    0.70
   9   1   0    4.25    0.67
   9   1   0    4.86    0.71
   8  -2   0    0.78    0.44
   8  -2   0    1.34    0.55
   8  -2   0    0.90    0.41
  -8   2   0    1.08    0.47
  -8   2   0    0.66    1.63
  -8   2   0    0.59    1.23
   7  -2   0   37.09    1.85
   7  -2   0   37.36    1.67
   7  -2   0   38.24    1.68
  -7   2   0   37.17    2.59
  -7   2   0   40.48    1.64
   6  -2   0   39.61    1.97
   6  -2   0   42.34    1.72
   6  -2   0   43.12    1.69
   6  -2   0   40.61    1.70
  -6   2   0   36.94    1.63
  -6   2   0   40.61    1.63
  -6   2   0   39.69    1.69
   5  -2   0   59.79    2.15
   5  -2   0   58.58    2.21
   5  -2   0   59.57    2.22
   5  -2   0   60.22    2.20
   5  -2   0   58.40    2.20
   5  -2   0   59.25    2.39
  -5   2   0   60.63    2.88
  -5   2   0   56.09    2.17
  -5   2   0   54.58    2.15
  -5   2   0   52.60    2.31
   4  -2   0  276.28    9.44
   4  -2   0  276.72    9.44
   4  -2   0  263.14    9.42
   4  -2   0  289.44    9.87
   4  -2   0  284.62    9.46
   4  -2   0  281.64    9.84
   4  -2   0  279.86    9.61
   4  -2   0  281.46    9.45
   4  -2   0  296.36    9.85
  -4   2   0  281.56    9.43
  -4   2   0  279.47   10.02
  -4   2   0  270.75    9.45
  -4   2   0  236.93   10.05
  -4   2   0  267.37    9.39
  -4   2   0  252.27    9.50
   3  -2   0   80.68    2.87
   3  -2   0   80.05    2.92
   3  -2   0   82.11    2.88
   3  -2   0   82.86    2.89
   3  -2   0   83.12    3.25
   3  -2   0   87.40    3.28
   3  -2   0   85.72    3.21
   3  -2   0   82.86    2.91
   3  -2   0   82.09    3.04
  -3   2   0   78.16    2.87
  -3   2   0   82.85    3.37
  -3   2   0   78.24    3.34
  -3   2   0   80.12    2.81
  -3   2   0   78.58    2.88
  -3   2   0   76.63    3.02
  -3   2   0   81.52    2.82
   2  -2   0  425.79   14.47
   2  -2   0  459.58   14.85
   2  -2   0  413.44   14.85
   2  -2   0  439.86   14.83
   2  -2   0  427.79   14.48
   2  -2   0  425.10   14.59
   2  -2   0  422.52   14.76
  -2   2   0  426.54   14.54
  -2   2   0  429.65   14.90
  -2   2   0  420.02   14.81
  -2   2   0  416.07   14.47
  -2   2   0  416.87   14.47
  -2   2   0  421.60   14.83
   1  -2   0   57.61    2.01
   1  -2   0   58.21    2.32
   1  -2   0   58.68    2.35
   1  -2   0   59.01    2.35
   1  -2   0   58.12    2.21
   1  -2   0   58.10    2.02
   1  -2   0   61.25    2.14
   1  -2   0   58.36    2.34
  -1   2   0   58.55    2.39
  -1   2   0   57.77    2.31
   0  -2   0  661.36   22.37
   0  -2   0  644.60   22.24
   0  -2   0  663.96   22.39
   0  -2   0  689.31   22.34
   0  -2   0  654.81   22.41
   0   2   0  648.21   22.41
   0   2   0  660.55   22.39
   0   2   0  633.25   22.36
   0   2   0  628.68   22.37
  -1  -2   0   61.59    2.44
  -1  -2   0   62.93    2.35
  -1  -2   0   65.78    2.51
  -1  -2   0   63.92    2.23
  -1  -2   0   65.11    2.23
  -1  -2   0   65.97    2.55
  -1  -2   0   63.46    2.23
  -1  -2   0   61.37    2.43
  -1  -2   0   66.39    2.47
  -1  -2   0   63.93    2.24
  -1  -2   0   63.58    2.23
   1   2   0   64.37    2.23
   1   2   0   63.81    2.37
   1   2   0   64.55    2.55
   1   2   0   62.75    2.46
   1   2   0   65.83    2.46
   1   2   0   64.30    2.23
  -2  -2   0  466.04   15.08
  -2  -2   0  425.36   14.82
  -2  -2   0  430.31   14.97
  -2  -2   0  439.71   14.98
  -2  -2   0  437.48   15.04
  -2  -2   0  430.04   14.83
  -2  -2   0  429.67   14.83
   2   2   0  415.95   15.03
   2   2   0  450.06   14.98
   2   2   0  436.63   15.17
   2   2   0  427.24   14.82
   2   2   0  437.82   14.80
   2   2   0  420.31   14.81
   2   2   0  453.79   15.00
   2   2   0  439.87   14.82
  -3  -2   0   95.18    3.55
  -3  -2   0   94.39    3.35
  -3  -2   0   95.94    3.36
  -3  -2   0   93.76    3.35
  -3  -2   0   97.53    3.34
  -3  -2   0   94.72    3.57
   3   2   0   91.33    3.34
   3   2   0   88.57    3.53
   3   2   0   95.30    3.53
   3   2   0   92.70    3.34
   3   2   0   96.53    3.32
   3   2   0   91.25    3.46
   3   2   0   95.47    3.74
   3   2   0   95.37    3.32
  -4  -2   0  293.74   10.08
  -4  -2   0  273.43    9.88
  -4  -2   0  285.67   10.19
  -4  -2   0  285.38    9.86
  -4  -2   0  285.04    9.88
  -4  -2   0  284.86    9.89
   4   2   0  278.87   10.05
   4   2   0  292.14    9.85
   4   2   0  285.92    9.85
   4   2   0  278.92    9.87
   4   2   0  276.69    9.86
   4   2   0  281.28   10.33
   4   2   0  304.17   10.12
   4   2   0  299.89    9.97
  -5  -2   0   63.36    2.45
  -5  -2   0   64.35    2.46
  -5  -2   0   63.54    2.84
  -5  -2   0   65.04    2.60
  -5  -2   0   64.53    2.44
   5   2   0   64.16    2.41
   5   2   0   61.42    2.92
   5   2   0   58.19    2.44
   5   2   0   63.60    2.39
   5   2   0   67.14    2.71
  -6  -2   0   42.57    1.77
  -6  -2   0   43.10    1.91
  -6  -2   0   39.54    2.22
  -6  -2   0   40.95    1.81
  -6  -2   0   41.56    1.89
   6   2   0   39.70    2.33
   6   2   0   40.87    1.73
   6   2   0   43.46    1.77
   6   2   0   39.95    1.63
  -7  -2   0   35.55    2.25
  -7  -2   0   38.87    1.76
  -7  -2   0   37.85    1.92
  -7  -2   0   38.42    1.76
   7   2   0   34.80    2.32
   7   2   0   36.73    1.65
   7   2   0   35.20    1.52
   7   2   0   37.48    1.68
  -8  -2   0    0.13    0.88
  -8  -2   0    0.41    0.46
  -8  -2   0    1.36    0.55
   8   2   0    0.83    0.40
   8   2   0    1.63    1.08
   8  -3   0    0.31    0.78
   8  -3   0    1.35    0.55
   8  -3   0    1.15    0.55
  -8   3   0    1.31    1.91
  -8   3   0    1.19    2.03
   7  -3   0    2.43    0.50
   7  -3   0    3.00    0.46
   7  -3   0    3.24    0.69
  -7   3   0    3.18    1.51
  -7   3   0    3.09    1.37
   6  -3   0    3.87    0.55
   6  -3   0    5.46    0.80
   6  -3   0    4.90    0.49
   6  -3   0    4.19    0.60
  -6   3   0    3.68    1.26
  -6   3   0    3.99    1.25
   5  -3   0    9.01    0.96
   5  -3   0    8.69    0.61
   5  -3   0    9.58    0.65
   5  -3   0    8.95    0.59
   5  -3   0    9.17    0.59
   5  -3   0    9.70    0.62
  -5   3   0    9.22    0.56
  -5   3   0    9.22    1.38
  -5   3   0   11.38    1.47
  -5   3   0    8.55    0.58
   4  -3   0   55.31    2.15
   4  -3   0   57.86    2.20
   4  -3   0   61.44    2.44
   4  -3   0   55.76    2.20
   4  -3   0   58.62    2.15
   4  -3   0   59.70    2.61
   4  -3   0   58.56    2.16
   4  -3   0   61.61    2.16
  -4   3   0   55.30    2.19
  -4   3   0   60.35    2.84
  -4   3   0   57.88    2.98
  -4   3   0   55.56    2.13
   3  -3   0   37.41    1.32
   3  -3   0   34.10    1.47
   3  -3   0   35.33    1.70
   3  -3   0   36.31    1.30
   3  -3   0   35.67    1.58
   3  -3   0   30.38    1.84
   3  -3   0   36.11    1.31
   3  -3   0   34.81    1.42
  -3   3   0   35.48    1.83
  -3   3   0   28.84    1.39
  -3   3   0   35.33    1.39
  -3   3   0   32.71    1.29
  -3   3   0   35.19    2.06
   2  -3   0  109.91    4.39
   2  -3   0  114.84    3.88
   2  -3   0  113.02    3.88
   2  -3   0  116.64    4.15
   2  -3   0  109.31    4.40
   2  -3   0  108.46    3.87
   2  -3   0  114.58    3.86
   2  -3   0  113.66    4.04
   2  -3   0  120.58    4.13
   2  -3   0  109.58    4.37
   2  -3   0  111.32    4.33
  -2   3   0  111.20    4.34
  -2   3   0  110.08    4.51
  -2   3   0  111.16    4.41
   1  -3   0  251.85    9.12
   1  -3   0  271.21    9.08
   1  -3   0  258.30    9.35
   1  -3   0  264.48    9.37
   1  -3   0  261.20    9.38
   1  -3   0  261.85    9.07
   1  -3   0  270.20    9.37
   1  -3   0  261.96    9.21
  -1   3   0  261.57    9.43
  -1   3   0  259.95    9.37
  -1   3   0  255.77    9.30
   0  -3   0    0.35    0.38
   0  -3   0    0.24    0.23
   0  -3   0   -0.17    0.21
   0  -3   0   -0.17    0.35
   0  -3   0    0.00    0.22
   0  -3   0    0.64    0.36
   0  -3   0    0.77    0.40
   0  -3   0    0.08    0.28
   0   3   0    0.04    0.45
   0   3   0    0.33    0.45
   0   3   0   -0.23    0.36
  -1  -3   0  255.37    9.08
  -1  -3   0  273.96    9.61
  -1  -3   0  262.88    9.27
  -1  -3   0  266.30    9.13
  -1  -3   0  266.83    9.08
  -1  -3   0  281.47    9.48
  -1  -3   0  255.07    9.09
  -1  -3   0  278.46    9.51
  -1  -3   0  257.14    9.09
  -1  -3   0  266.04    9.44
  -1  -3   0  267.41    9.31
  -1  -3   0  274.20    9.41
   1   3   0  264.82    9.08
   1   3   0  271.45    9.60
   1   3   0  260.25    9.07
   1   3   0  275.39    9.48
   1   3   0  263.76    9.45
  -2  -3   0  112.99    3.96
  -2  -3   0  114.12    3.95
  -2  -3   0  109.33    4.13
  -2  -3   0  109.44    4.22
  -2  -3   0  113.66    4.46
  -2  -3   0  110.86    4.31
  -2  -3   0  115.30    3.95
  -2  -3   0  113.65    4.32
  -2  -3   0  112.76    3.96
   2   3   0  114.96    4.25
   2   3   0  118.01    4.52
   2   3   0  114.89    3.95
   2   3   0  109.84    3.93
   2   3   0  112.50    4.31
   2   3   0  117.09    4.19
  -3  -3   0   36.76    1.38
  -3  -3   0   34.91    1.39
  -3  -3   0   34.50    1.61
  -3  -3   0   33.92    1.57
  -3  -3   0   35.43    1.39
  -3  -3   0   35.82    1.37
   3   3   0   34.54    1.73
   3   3   0   35.17    1.62
   3   3   0   34.92    1.41
   3   3   0   33.80    1.61
   3   3   0   33.71    1.91
  -4  -3   0   56.06    2.48
  -4  -3   0   55.77    2.16
  -4  -3   0   57.36    2.22
  -4  -3   0   58.90    2.21
  -4  -3   0   53.61    2.34
  -4  -3   0   58.34    2.19
   4   3   0   60.21    2.16
   4   3   0   55.49    2.44
   4   3   0   55.95    2.08
   4   3   0   61.53    2.37
   4   3   0   56.90    2.83
  -5  -3   0    9.80    1.07
  -5  -3   0    9.28    0.75
  -5  -3   0    8.47    0.70
  -5  -3   0    9.92    0.66
   5   3   0    8.48    1.27
   5   3   0   10.40    0.80
   5   3   0    9.00    0.65
   5   3   0    8.83    0.63
   5   3   0   10.00    0.56
  -6  -3   0    4.28    0.53
  -6  -3   0    5.44    1.03
  -6  -3   0    3.81    0.58
   6   3   0    5.67    0.71
   6   3   0    3.14    0.64
   6   3   0    3.99    0.47
   6   3   0    4.16    1.11
  -7  -3   0    3.12    0.59
  -7  -3   0    2.33    0.95
  -7  -3   0    2.00    0.54
   7   3   0    2.60    1.05
   7   3   0    2.83    0.52
  -8  -3   0    2.49    0.70
  -8  -3   0    0.35    1.08
  -8  -3   0    1.08    0.72
   8   3   0    0.19    0.54
   8   3   0    3.01    1.58
   6  -4   0    1.84    0.70
   6  -4   0    2.02    0.45
   6  -4   0    1.37    0.36
  -6   4   0    1.56    1.37
  -6   4   0    2.32    1.38
   5  -4   0   13.36    1.18
   5  -4   0   13.61    0.78
   5  -4   0   13.27    0.89
   5  -4   0   12.29    0.71
  -5   4   0   15.94    1.78
  -5   4   0   10.88    1.59
   4  -4   0   11.73    0.65
   4  -4   0   12.71    1.13
   4  -4   0   11.25    0.64
   4  -4   0   11.07    0.58
   4  -4   0   11.87    0.80
   4  -4   0   10.80    0.64
   4  -4   0   11.36    0.76
  -4   4   0   11.86    1.34
  -4   4   0   11.85    1.69
  -4   4   0   11.75    0.53
   3  -4   0    5.25    0.93
   3  -4   0    4.72    0.40
   3  -4   0    4.52    0.42
   3  -4   0    5.25    0.95
   3  -4   0    4.73    0.78
   3  -4   0    5.78    0.68
   3  -4   0    5.81    0.60
  -3   4   0    5.22    1.33
  -3   4   0    6.60    1.01
   2  -4   0   63.97    2.46
   2  -4   0   58.10    2.74
   2  -4   0   60.08    2.14
   2  -4   0   58.66    2.50
   2  -4   0   60.97    2.38
  -2   4   0   61.50    2.88
  -2   4   0   58.83    2.72
  -2   4   0   61.60    3.07
   1  -4   0   13.47    0.82
   1  -4   0   12.74    0.82
   1  -4   0   11.96    0.84
   1  -4   0   12.70    1.16
  -1   4   0   11.65    1.19
  -1   4   0   12.78    1.38
   0  -4   0   40.67    1.65
   0  -4   0   41.17    1.91
   0  -4   0   40.88    2.30
   0  -4   0   35.53    1.99
   0  -4   0   44.01    1.79
   0   4   0   42.18    2.15
   0   4   0   41.37    2.11
   0   4   0   40.60    2.20
  -1  -4   0   14.56    0.96
  -1  -4   0   15.12    0.91
  -1  -4   0   14.70    0.73
  -1  -4   0   12.56    1.06
  -1  -4   0   13.99    0.62
  -1  -4   0   15.09    1.17
   1   4   0   14.89    1.17
   1   4   0   17.55    1.44
  -2  -4   0   54.74    2.51
  -2  -4   0   59.15    2.40
  -2  -4   0   58.21    2.15
  -2  -4   0   61.97    2.15
  -2  -4   0   56.80    2.15
  -2  -4   0   62.51    2.51
   2   4   0   61.48    2.13
   2   4   0   59.68    2.92
   2   4   0   59.17    2.80
  -3  -4   0    4.61    0.69
  -3  -4   0    5.72    0.54
  -3  -4   0    5.54    0.48
  -3  -4   0    5.42    0.45
  -3  -4   0    6.11    0.77
  -3  -4   0    5.18    0.78
   3   4   0    4.69    0.70
   3   4   0    5.06    0.59
   3   4   0    5.94    0.85
   3   4   0    6.61    1.25
  -4  -4   0   10.78    0.70
  -4  -4   0   11.13    1.06
  -4  -4   0   11.75    0.70
   4   4   0   11.36    1.01
   4   4   0   12.71    1.56
   4   4   0    9.00    1.09
  -5  -4   0   13.19    0.95
  -5  -4   0   13.19    1.37
  -5  -4   0   12.03    0.84
   5   4   0   13.19    1.10
   5   4   0   16.81    1.82
  -6  -4   0    0.69    0.40
  -6  -4   0    0.77    0.88
  -6  -4   0    0.62    0.53
   6   4   0    1.97    1.15
   5  -5   0    1.95    0.80
  -5   5   0    2.34    1.29
  -5   5   0    0.97    1.87
   4  -5   0    3.39    0.72
   4  -5   0    2.29    0.84
  -4   5   0    4.07    1.42
  -4   5   0    2.73    1.02
   3  -5   0    4.93    0.75
   3  -5   0    4.90    0.80
   3  -5   0    5.04    0.82
  -3   5   0    5.60    1.19
  -3   5   0    5.29    1.27
   2  -5   0    6.04    0.85
   2  -5   0    7.48    1.03
  -2   5   0    7.90    1.42
  -2   5   0    9.16    1.30
   1  -5   0   15.84    1.08
   1  -5   0   14.72    1.11
   1  -5   0   16.23    1.28
  -1   5   0   16.63    1.63
  -1   5   0   16.23    1.80
   0  -5   0   -0.22    0.36
   0  -5   0   -0.50    0.43
   0  -5   0   -0.38    0.39
   0   5   0   -0.13    0.68
   0   5   0   -0.07    0.80
  -1  -5   0   18.70    1.24
  -1  -5   0   15.75    0.75
  -1  -5   0   16.46    1.10
  -1  -5   0   15.57    0.84
   1   5   0   18.21    1.81
   1   5   0   17.68    1.86
  -2  -5   0    6.54    1.00
  -2  -5   0    9.56    0.96
  -2  -5   0    6.99    0.58
   2   5   0    7.28    1.34
   2   5   0   11.26    1.53
  -3  -5   0    6.14    0.55
  -3  -5   0    6.94    1.09
  -3  -5   0    6.39    0.89
  -3  -5   0    6.34    0.69
  -3  -5   0    5.94    0.54
   3   5   0    6.45    1.34
   3   5   0    5.56    1.01
  -4  -5   0    2.92    0.61
  -4  -5   0    3.98    0.86
  -4  -5   0    3.22    0.47
   4   5   0    3.29    1.35
   4   5   0    3.10    0.90
  -5  -5   0    2.23    0.65
  -5  -5   0    1.72    0.55
  -5  -5   0    1.28    0.86
   5   5   0    2.06    1.70
   5   5  -1    2.57    1.70
  -5  -5   1   -0.39    0.55
  -5  -5   1   -0.51    0.79
  -5  -5   1    0.31    0.47
   4   5  -1    5.35    1.44
  -4  -5   1    5.54    1.04
  -4  -5   1    6.38    0.66
  -4  -5   1    6.09    0.78
  -4  -5   1    5.75    0.94
   3   5  -1    1.38    0.77
   3   5  -1    2.63    1.01
  -3  -5   1    0.64    0.26
  -3  -5   1    0.65    0.38
  -3  -5   1    0.33    0.59
  -3  -5   1    1.45    0.67
   2   5  -1    2.59    1.03
   2   5  -1    2.50    0.81
  -2  -5   1    1.83    0.33
  -2  -5   1    2.38    0.61
  -2  -5   1    1.88    0.68
   1   5  -1   19.55    1.84
   1   5  -1   24.76    1.92
  -1  -5   1   19.79    1.27
  -1  -5   1   18.86    0.96
  -1  -5   1   21.22    1.34
   0   5  -1    0.91    0.71
   0   5  -1    1.40    0.89
   0  -5   1    0.78    0.39
   0  -5   1    1.23    0.53
   0  -5   1    1.84    0.50
  -1   5  -1   17.53    1.67
   1  -5   1   19.80    1.27
   1  -5   1   18.94    1.22
   1  -5   1   20.46    1.17
  -2   5  -1   14.73    1.91
   2  -5   1   14.72    1.25
   2  -5   1   17.04    1.37
   2  -5   1   15.47    1.07
  -3   5  -1    2.24    1.21
  -3   5  -1    1.32    0.84
   3  -5   1    1.39    0.57
   3  -5   1    1.23    0.66
   3  -5   1    1.60    0.48
  -4   5  -1   11.92    1.79
  -4   5  -1    9.56    1.87
   4  -5   1   12.87    1.25
   4  -5   1   11.34    1.64
  -5   5  -1    0.52    1.23
  -5   5  -1    2.35    1.95
   5  -5   1    0.57    0.74
   7   4  -1    2.37    2.07
  -7  -4   1    2.32    0.78
  -7  -4   1    2.01    0.71
  -7  -4   1    2.29    1.07
   6   4  -1    1.69    1.09
  -6  -4   1    0.58    0.42
  -6  -4   1    0.61    0.85
   5   4  -1    5.54    0.80
   5   4  -1    6.48    1.34
  -5  -4   1    3.62    0.46
  -5  -4   1    5.25    0.71
  -5  -4   1    4.43    1.03
   4   4  -1    5.09    1.12
   4   4  -1    3.03    0.60
  -4  -4   1    4.23    0.61
  -4  -4   1    2.53    0.68
  -4  -4   1    3.34    0.42
  -4  -4   1    3.33    0.48
  -4  -4   1    4.09    0.68
  -4  -4   1    3.32    0.52
   3   4  -1   33.13    1.69
   3   4  -1   30.99    1.66
   3   4  -1   33.65    1.87
   3   4  -1   34.28    2.18
   3   4  -1   34.35    1.31
  -3  -4   1   34.65    1.70
  -3  -4   1   34.08    1.35
  -3  -4   1   29.93    1.73
  -3  -4   1   35.11    1.39
  -3  -4   1   33.51    1.33
   2   4  -1   19.74    1.52
   2   4  -1   16.29    1.31
   2   4  -1   16.77    1.15
   2   4  -1   16.59    0.64
  -2  -4   1   16.06    0.71
  -2  -4   1   15.46    1.17
  -2  -4   1   16.14    1.05
  -2  -4   1   13.48    1.03
  -2  -4   1   14.15    1.14
  -2  -4   1   16.28    0.69
  -2  -4   1   15.34    0.75
  -2  -4   1   15.36    0.69
   1   4  -1   13.14    1.29
   1   4  -1   11.64    1.07
   1   4  -1   13.45    1.12
  -1  -4   1   10.90    0.84
  -1  -4   1   12.28    0.64
  -1  -4   1   11.40    0.69
  -1  -4   1   11.63    0.51
  -1  -4   1   11.31    0.85
  -1  -4   1   12.30    1.03
  -1  -4   1   10.82    1.05
   0   4  -1  106.95    4.36
   0   4  -1  118.59    4.57
   0  -4   1  110.88    3.96
   0  -4   1  111.56    4.07
   0  -4   1  107.25    4.11
   0  -4   1  103.56    4.39
  -1   4  -1   24.42    1.75
  -1   4  -1   22.72    1.56
  -1   4  -1   23.76    1.51
   1  -4   1   24.03    1.15
   1  -4   1   22.01    1.26
   1  -4   1   24.35    1.16
  -2   4  -1   35.70    1.96
  -2   4  -1   35.81    2.24
   2  -4   1   31.58    1.66
   2  -4   1   35.88    1.58
   2  -4   1   34.40    1.48
   2  -4   1   33.17    1.65
  -3   4  -1   51.13    2.80
  -3   4  -1   50.71    2.55
   3  -4   1   48.09    1.80
   3  -4   1   48.24    1.95
   3  -4   1   50.13    1.82
   3  -4   1   50.89    2.16
   3  -4   1   46.77    2.08
  -4   4  -1    9.85    1.51
  -4   4  -1    8.51    1.38
  -4   4  -1    6.67    0.41
   4  -4   1    7.65    0.53
   4  -4   1    7.08    0.47
   4  -4   1    8.90    0.91
   4  -4   1    8.38    0.54
   4  -4   1    8.68    0.78
   4  -4   1    8.12    0.62
   4  -4   1    7.15    0.52
  -5   4  -1   12.78    2.26
  -5   4  -1   14.18    2.02
   5  -4   1   13.16    0.72
   5  -4   1   13.93    0.79
   5  -4   1   11.36    1.15
  -6   4  -1    5.45    1.54
   6  -4   1    5.65    0.62
   6  -4   1    6.65    1.10
   6  -4   1    5.95    0.74
   8   3  -1    4.05    1.71
   8   3  -1    3.43    0.62
  -8  -3   1    3.89    0.91
  -8  -3   1    3.94    1.23
  -8  -3   1    3.84    0.73
   7   3  -1    6.25    1.45
   7   3  -1    8.01    0.80
  -7  -3   1    6.15    0.71
  -7  -3   1    6.08    1.18
   6   3  -1   29.29    1.38
   6   3  -1   25.67    1.25
   6   3  -1   25.01    2.05
   6   3  -1   27.04    1.37
   6   3  -1   27.25    1.31
  -6  -3   1   27.59    1.38
  -6  -3   1   26.89    1.34
   5   3  -1   70.91    3.07
   5   3  -1   71.89    2.69
   5   3  -1   73.63    2.64
   5   3  -1   70.89    3.08
   5   3  -1   67.33    3.44
   5   3  -1   77.23    2.81
  -5  -3   1   71.23    2.76
  -5  -3   1   69.91    3.15
  -5  -3   1   72.96    2.79
  -5  -3   1   74.77    2.76
   4   3  -1   18.14    0.84
   4   3  -1   15.70    0.74
   4   3  -1   19.10    1.20
   4   3  -1   17.48    0.81
   4   3  -1   17.48    1.10
   4   3  -1   18.31    1.00
   4   3  -1   18.09    1.50
  -4  -3   1   19.31    1.19
  -4  -3   1   17.97    0.89
  -4  -3   1   18.71    0.91
  -4  -3   1   17.71    0.86
  -4  -3   1   16.98    0.82
  -4  -3   1   13.87    1.09
   3   3  -1  284.46   10.01
   3   3  -1  294.57   10.64
   3   3  -1  306.93   10.36
   3   3  -1  288.84   10.38
   3   3  -1  296.70   10.21
  -3  -3   1  297.30   10.43
  -3  -3   1  275.72   10.30
  -3  -3   1  295.78   10.05
  -3  -3   1  285.09   10.03
  -3  -3   1  295.42   10.03
  -3  -3   1  289.75   10.01
   2   3  -1   51.76    1.89
   2   3  -1   53.81    1.90
   2   3  -1   52.76    2.43
   2   3  -1   51.53    2.27
   2   3  -1   54.91    2.18
   2   3  -1   51.87    2.17
  -2  -3   1   55.02    1.92
  -2  -3   1   53.69    1.91
  -2  -3   1   53.91    2.16
  -2  -3   1   55.18    2.27
  -2  -3   1   52.56    2.11
  -2  -3   1   53.08    2.42
  -2  -3   1   52.51    1.91
  -2  -3   1   52.78    1.93
  -2  -3   1   50.55    2.25
  -2  -3   1   50.10    2.25
   1   3  -1  124.98    4.70
   1   3  -1  125.20    4.59
   1   3  -1  117.90    4.54
  -1  -3   1  118.96    4.19
  -1  -3   1  124.97    4.52
  -1  -3   1  118.59    4.61
  -1  -3   1  119.99    4.24
  -1  -3   1  125.61    4.18
  -1  -3   1  125.51    4.59
  -1  -3   1  123.61    4.73
  -1  -3   1  118.42    4.18
  -1  -3   1  120.29    4.44
  -1  -3   1  130.00    4.58
  -1  -3   1  117.05    4.18
   0   3  -1  183.60    6.59
   0   3  -1  173.12    6.53
   0   3  -1  182.16    6.43
   0   3  -1  182.12    6.55
   0   3  -1  172.00    6.46
   0  -3   1  181.37    6.47
   0  -3   1  174.22    6.46
   0  -3   1  173.84    6.53
   0  -3   1  178.31    6.25
   0  -3   1  189.75    6.61
   0  -3   1  178.86    6.40
   0  -3   1  172.90    6.18
   0  -3   1  169.45    6.30
  -1   3  -1   32.21    1.57
  -1   3  -1   29.02    1.65
  -1   3  -1   29.07    1.39
  -1   3  -1   28.61    1.52
   1  -3   1   27.82    1.51
   1  -3   1   30.02    1.23
   1  -3   1   28.88    1.51
   1  -3   1   29.33    1.55
   1  -3   1   29.17    1.25
   1  -3   1   28.35    1.37
   1  -3   1   28.75    1.34
   1  -3   1   28.42    1.48
  -2   3  -1   41.11    1.99
  -2   3  -1   40.94    2.11
   2  -3   1   40.67    1.92
   2  -3   1   41.62    1.69
   2  -3   1   40.29    1.98
   2  -3   1   40.44    1.58
   2  -3   1   40.48    1.44
   2  -3   1   37.98    1.91
   2  -3   1   40.62    1.69
   2  -3   1   41.63    2.05
   2  -3   1   38.84    1.44
   2  -3   1   39.92    1.42
  -3   3  -1    7.55    1.14
  -3   3  -1    7.31    0.39
  -3   3  -1    6.26    0.39
   3  -3   1    7.29    0.41
   3  -3   1    7.25    0.56
   3  -3   1    7.86    0.70
   3  -3   1    6.58    0.90
   3  -3   1    7.45    0.43
   3  -3   1    7.36    0.48
   3  -3   1    7.36    0.43
   3  -3   1    7.19    0.51
  -4   3  -1   30.06    1.99
  -4   3  -1   29.40    2.01
  -4   3  -1   29.80    1.20
  -4   3  -1   29.79    1.19
   4  -3   1   30.22    1.21
   4  -3   1   29.15    1.21
   4  -3   1   30.46    1.25
   4  -3   1   29.84    1.20
   4  -3   1   28.12    1.19
   4  -3   1   30.39    1.49
   4  -3   1   30.36    1.22
  -5   3  -1    5.41    1.17
  -5   3  -1    5.03    0.44
  -5   3  -1    4.71    1.19
  -5   3  -1    5.03    0.41
   5  -3   1    5.17    0.50
   5  -3   1    5.75    0.50
   5  -3   1    5.45    0.77
   5  -3   1    5.77    0.44
   5  -3   1    5.21    0.71
   5  -3   1    5.12    0.47
  -6   3  -1   27.05    2.30
   6  -3   1   25.20    1.45
   6  -3   1   25.99    1.22
   6  -3   1   27.44    1.54
  -7   3  -1    0.14    1.31
  -7   3  -1   -0.61    1.52
   7  -3   1    0.44    0.36
   7  -3   1    0.76    0.55
   7  -3   1    0.48    0.40
   8  -3   1    7.70    1.01
   8   2  -1    3.18    1.21
   8   2  -1    3.66    0.54
  -8  -2   1    2.91    0.99
  -8  -2   1    3.67    0.62
  -8  -2   1    2.98    0.66
  -8  -2   1    3.72    0.99
   7   2  -1    3.85    0.53
   7   2  -1    3.21    0.50
   7   2  -1    5.81    1.21
  -7  -2   1    5.02    0.85
  -7  -2   1    3.61    0.92
  -7  -2   1    3.03    0.49
   6   2  -1   11.59    0.74
   6   2  -1   12.45    0.69
   6   2  -1    8.02    1.32
   6   2  -1   10.39    0.75
   6   2  -1    9.32    0.88
  -6  -2   1   10.99    1.24
  -6  -2   1   10.48    0.86
  -6  -2   1   10.24    0.81
  -6  -2   1   10.34    0.87
  -6  -2   1    9.26    0.76
   5   2  -1   50.46    2.02
   5   2  -1   50.32    1.99
   5   2  -1   50.43    2.20
   5   2  -1   51.24    1.97
   5   2  -1   49.38    2.55
   5   2  -1   50.84    2.27
   5   2  -1   55.29    2.04
  -5  -2   1   52.21    2.06
  -5  -2   1   53.44    2.18
  -5  -2   1   51.74    2.06
  -5  -2   1   51.16    2.03
  -5  -2   1   51.18    2.43
   4   2  -1   52.05    1.93
   4   2  -1   51.88    1.94
   4   2  -1   48.60    1.95
   4   2  -1   50.22    2.16
   4   2  -1   54.83    2.19
   4   2  -1   50.39    2.41
   4   2  -1   50.78    1.96
  -4  -2   1   52.91    2.15
  -4  -2   1   51.80    1.95
  -4  -2   1   53.11    2.28
  -4  -2   1   50.34    1.99
  -4  -2   1   51.23    1.97
  -4  -2   1   52.99    2.00
   3   2  -1  254.02    8.66
   3   2  -1  251.13    8.65
   3   2  -1  252.90    8.68
   3   2  -1  260.57    8.92
   3   2  -1  246.86    8.90
   3   2  -1  259.33    9.11
   3   2  -1  250.53    8.74
   3   2  -1  253.64    8.81
  -3  -2   1  246.27    8.70
  -3  -2   1  261.36    8.90
  -3  -2   1  248.69    8.70
  -3  -2   1  247.41    8.92
  -3  -2   1  254.90    8.67
  -3  -2   1  250.71    8.69
   2   2  -1  120.02    4.48
   2   2  -1  126.32    4.21
   2   2  -1  117.77    4.25
   2   2  -1  119.49    4.25
   2   2  -1  128.10    4.62
   2   2  -1  119.39    4.36
   2   2  -1  128.15    4.46
   2   2  -1  119.37    4.20
  -2  -2   1  121.79    4.46
  -2  -2   1  124.70    4.26
  -2  -2   1  122.76    4.24
  -2  -2   1  120.83    4.26
  -2  -2   1  119.45    4.42
  -2  -2   1  130.96    4.55
  -2  -2   1  122.93    4.26
   1   2  -1  344.72   11.60
   1   2  -1  319.58   11.49
   1   2  -1  321.44   11.27
   1   2  -1  322.82   11.27
   1   2  -1  325.36   11.47
   1   2  -1  331.89   11.52
  -1  -2   1  329.43   11.28
  -1  -2   1  337.87   11.51
  -1  -2   1  325.33   11.28
  -1  -2   1  352.34   11.53
  -1  -2   1  323.59   11.27
  -1  -2   1  356.69   11.65
  -1  -2   1  332.60   11.28
  -1  -2   1  324.91   11.27
  -1  -2   1  345.72   11.47
  -1  -2   1  323.94   11.46
   0   2  -1  544.66   18.51
   0   2  -1  562.23   18.59
   0   2  -1  530.36   18.60
   0   2  -1  533.33   18.59
   0   2  -1  521.53   18.53
   0  -2   1  575.59   18.55
   0  -2   1  485.90   18.55
   0  -2   1  541.55   18.49
   0  -2   1  531.10   18.60
   0  -2   1  540.45   18.39
   0  -2   1  548.33   18.55
   0  -2   1  570.57   18.63
  -1   2  -1    1.35    0.36
  -1   2  -1    1.15    0.25
  -1   2  -1    1.36    0.36
  -1   2  -1    1.45    0.43
   1  -2   1    1.55    0.40
   1  -2   1    1.38    0.22
   1  -2   1    1.07    0.23
   1  -2   1    1.16    0.31
   1  -2   1    0.92    0.32
   1  -2   1    1.82    0.37
   1  -2   1    0.91    0.23
  -2   2  -1  178.60    6.56
  -2   2  -1  176.10    6.11
  -2   2  -1  179.93    6.12
  -2   2  -1  177.56    6.14
  -2   2  -1  175.68    6.54
   2  -2   1  179.88    6.12
   2  -2   1  175.01    6.21
   2  -2   1  177.53    6.47
   2  -2   1  187.74    6.51
   2  -2   1  171.84    6.15
   2  -2   1  180.31    6.26
   2  -2   1  181.38    6.46
   2  -2   1  175.88    6.11
   2  -2   1  173.58    6.10
   2  -2   1  181.87    6.12
   2  -2   1  188.16    6.53
  -3   2  -1   88.92    3.09
  -3   2  -1   85.45    3.57
  -3   2  -1   87.29    3.08
  -3   2  -1   84.91    3.65
  -3   2  -1   87.62    3.09
   3  -2   1   88.30    3.47
   3  -2   1   89.38    3.25
   3  -2   1   87.68    3.08
   3  -2   1   82.81    3.07
   3  -2   1   86.61    3.09
   3  -2   1   89.21    3.48
   3  -2   1   89.87    3.17
   3  -2   1   87.13    3.09
   3  -2   1   87.83    3.07
  -4   2  -1   37.40    1.50
  -4   2  -1   40.21    2.10
  -4   2  -1   38.23    1.46
  -4   2  -1   32.43    2.14
  -4   2  -1   37.89    1.45
  -4   2  -1   38.17    1.51
   4  -2   1   39.43    1.50
   4  -2   1   39.73    1.92
   4  -2   1   38.60    1.93
   4  -2   1   40.27    1.49
   4  -2   1   37.60    1.54
   4  -2   1   39.66    1.68
   4  -2   1   40.08    1.50
   4  -2   1   39.00    1.50
   4  -2   1   38.82    1.88
  -5   2  -1    5.11    0.97
  -5   2  -1    2.68    0.95
  -5   2  -1    4.42    0.45
  -5   2  -1    3.61    0.47
  -5   2  -1    3.64    0.42
  -5   2  -1    4.55    0.42
   5  -2   1    4.67    0.46
   5  -2   1    5.48    0.48
   5  -2   1    4.56    0.67
   5  -2   1    4.93    0.44
   5  -2   1    4.87    0.47
  -6   2  -1    3.03    0.41
  -6   2  -1    2.49    0.37
  -6   2  -1    1.60    0.40
  -6   2  -1    4.58    1.61
  -6   2  -1    2.54    0.36
  -6   2  -1    2.33    1.08
   6  -2   1    2.42    0.39
   6  -2   1    2.95    0.42
   6  -2   1    2.66    0.54
   6  -2   1    2.68    0.41
  -7   2  -1   11.98    1.94
  -7   2  -1   13.21    1.86
  -7   2  -1   14.20    0.85
   7  -2   1   14.32    1.09
   7  -2   1   14.59    0.91
   7  -2   1   13.12    0.90
  -8   2  -1   -0.87    1.53
  -8   2  -1    0.24    1.19
  -8   2  -1    1.28    0.49
   8  -2   1    1.31    0.43
   8  -2   1    0.99    0.47
   8  -2   1    0.60    0.54
   9   1  -1    8.57    0.93
   9   1  -1    7.40    0.96
  -9  -1   1    8.91    1.59
  -9  -1   1    6.91    1.58
  -9  -1   1    5.90    0.73
  -9  -1   1    5.54    0.82
   8   1  -1   -0.26    0.34
   8   1  -1    0.74    0.41
   8   1  -1    0.48    0.37
  -8  -1   1    0.44    0.95
  -8  -1   1   -0.40    0.74
  -8  -1   1    0.14    0.44
  -8  -1   1    0.35    0.38
   7   1  -1   20.90    1.11
   7   1  -1   21.34    1.06
   7   1  -1   21.01    1.13
   7   1  -1   23.90    1.18
  -7  -1   1   20.89    1.17
  -7  -1   1   21.08    1.19
  -7  -1   1   19.84    1.67
  -7  -1   1   22.80    1.12
  -7  -1   1   20.58    1.57
   6   1  -1    3.24    0.53
   6   1  -1    3.47    0.50
   6   1  -1    4.31    0.51
   6   1  -1    4.04    0.46
   6   1  -1    3.29    0.45
  -6  -1   1    3.46    0.45
  -6  -1   1    3.64    0.47
  -6  -1   1    3.40    0.69
  -6  -1   1    3.40    0.74
  -6  -1   1    2.40    0.39
  -6  -1   1    3.33    0.42
   5   1  -1   99.09    3.65
   5   1  -1   97.47    3.70
   5   1  -1  101.03    3.64
   5   1  -1   96.56    3.63
   5   1  -1   95.98    3.64
   5   1  -1   99.42    3.59
   5   1  -1  102.10    3.91
  -5  -1   1  102.07    3.67
  -5  -1   1  107.49    3.72
  -5  -1   1  112.98    3.75
  -5  -1   1   98.59    4.07
  -5  -1   1  101.50    3.69
  -5  -1   1  100.80    3.68
  -5  -1   1   95.26    3.64
   4   1  -1    5.68    0.41
   4   1  -1    5.80    0.50
   4   1  -1    7.11    0.59
   4   1  -1    5.32    0.45
   4   1  -1    5.77    0.41
   4   1  -1    5.51    0.41
  -4  -1   1    5.12    0.42
  -4  -1   1    5.96    0.48
  -4  -1   1    6.11    0.68
  -4  -1   1    6.48    0.45
  -4  -1   1    5.95    0.43
  -4  -1   1    5.99    0.45
  -4  -1   1    5.91    0.41
   3   1  -1  444.45   15.04
   3   1  -1  482.88   15.24
   3   1  -1  434.88   15.04
   3   1  -1  443.76   15.04
   3   1  -1  429.91   15.13
   3   1  -1  437.67   15.03
  -3  -1   1  440.78   15.05
  -3  -1   1  442.56   15.03
  -3  -1   1  427.83   15.05
  -3  -1   1  434.82   15.05
  -3  -1   1  421.89   15.26
  -3  -1   1  457.27   15.14
   2   1  -1  219.11    7.71
   2   1  -1  221.20    7.69
   2   1  -1  234.29    7.84
   2   1  -1  226.20    7.71
   2   1  -1  236.64    7.92
   2   1  -1  230.46    7.71
   2   1  -1  202.65    7.92
  -2  -1   1  228.69    7.71
  -2  -1   1  229.12    7.72
  -2  -1   1  206.42    7.74
  -2  -1   1  231.01    7.70
  -2  -1   1  232.59    7.81
  -2  -1   1  230.66    7.97
   0   1  -1  402.27   14.06
   0   1  -1  417.58   14.01
   0  -1   1  417.25   14.00
   0  -1   1  372.50   14.08
   0  -1   1  433.38   14.07
   0  -1   1  420.12   14.02
  -2   1  -1  708.47   24.62
  -2   1  -1  671.70   24.68
   2  -1   1  763.18   24.60
   2  -1   1  734.16   24.60
  -3   1  -1   71.83    2.91
  -3   1  -1   76.06    2.62
  -3   1  -1   63.13    2.63
  -3   1  -1   72.25    2.61
  -3   1  -1   71.80    2.59
  -3   1  -1   72.44    2.59
   3  -1   1   77.96    2.87
   3  -1   1   73.34    2.60
   3  -1   1   76.30    2.86
   3  -1   1   73.43    2.59
   3  -1   1   75.33    2.89
   3  -1   1   72.43    2.68
   3  -1   1   70.44    2.55
   3  -1   1   72.80    2.60
   3  -1   1   75.50    2.62
  -4   1  -1  460.06   16.08
  -4   1  -1  464.79   16.07
  -4   1  -1  452.30   16.05
  -4   1  -1  467.05   16.44
  -4   1  -1  468.26   16.08
   4  -1   1  468.33   16.08
   4  -1   1  504.66   16.37
   4  -1   1  508.63   16.39
   4  -1   1  461.90   16.06
   4  -1   1  460.02   16.15
   4  -1   1  496.32   16.45
   4  -1   1  453.43   16.07
   4  -1   1  456.02   16.07
  -5   1  -1   30.66    1.76
  -5   1  -1   28.16    1.62
  -5   1  -1   31.53    1.29
  -5   1  -1   30.12    1.31
  -5   1  -1   29.20    1.24
  -5   1  -1   28.89    1.29
   5  -1   1   29.58    1.28
   5  -1   1   30.96    1.28
   5  -1   1   29.89    1.37
   5  -1   1   29.24    1.68
   5  -1   1   30.05    1.33
   5  -1   1   32.84    1.57
   5  -1   1   30.59    1.29
  -6   1  -1   42.03    2.05
  -6   1  -1   50.45    2.49
  -6   1  -1   48.53    1.98
  -6   1  -1   47.85    1.93
   6  -1   1   48.86    1.95
   6  -1   1   48.67    1.94
   6  -1   1   47.42    1.92
   6  -1   1   48.78    2.04
  -7   1  -1   13.76    0.95
  -7   1  -1   15.57    0.96
  -7   1  -1   16.03    1.77
  -7   1  -1   14.51    1.18
   7  -1   1   14.85    0.92
   7  -1   1   16.72    0.94
   7  -1   1   15.76    1.06
   7  -1   1   15.19    0.95
  -8   1  -1   10.04    1.59
  -8   1  -1    9.76    0.93
  -8   1  -1   12.49    1.43
   8  -1   1   10.48    0.87
   8  -1   1   11.34    1.01
   8  -1   1   10.04    0.88
  -9   1  -1    0.96    0.53
  -9   1  -1    2.11    1.40
   9  -1   1    1.33    0.50
   9  -1   1    1.41    0.63
   9  -1   1    2.44    0.64
   9   0  -1    2.26    0.53
   9   0  -1    1.20    0.48
   9   0  -1    1.38    0.51
  -9   0   1    2.62    1.34
  -9   0   1    2.07    0.63
  -9   0   1    1.67    0.62
   8   0  -1   28.48    1.43
   8   0  -1   30.37    1.50
  -8   0   1   29.78    1.52
  -8   0   1   29.87    2.17
  -8   0   1   30.89    1.54
   7   0  -1   69.27    2.68
   7   0  -1   69.09    2.67
   7   0  -1   69.59    2.65
   7   0  -1   71.25    2.81
   7   0  -1   66.98    2.66
  -7   0   1   64.68    2.70
  -7   0   1   66.42    2.70
  -7   0   1   66.88    3.14
  -7   0   1   63.35    3.30
   6   0  -1    5.33    0.51
   6   0  -1    5.31    0.63
   6   0  -1    7.34    0.66
   6   0  -1    5.29    0.56
   6   0  -1    5.57    0.54
  -6   0   1    5.81    0.57
  -6   0   1    5.63    0.58
  -6   0   1    6.44    1.02
  -6   0   1    5.86    0.98
  -6   0   1    5.69    0.61
  -6   0   1    5.95    0.56
   5   0  -1  302.95   10.29
   5   0  -1  305.55   10.29
   5   0  -1  265.13   10.27
   5   0  -1  279.75   10.31
   5   0  -1  311.70   10.61
   5   0  -1  332.06   10.44
   5   0  -1  281.16   10.19
   5   0  -1  290.11   10.26
  -5   0   1  293.30   10.26
  -5   0   1  289.20   10.29
  -5   0   1  312.16   10.40
  -5   0   1  301.73   10.59
  -5   0   1  307.52   10.30
  -5   0   1  293.34   10.29
   4   0  -1   75.88    2.94
   4   0  -1   79.84    2.82
   4   0  -1   72.58    2.70
   4   0  -1   74.04    2.71
   4   0  -1   70.94    2.65
   4   0  -1   72.61    2.70
   4   0  -1   72.92    2.69
  -4   0   1   74.44    2.73
  -4   0   1   71.54    3.01
  -4   0   1   74.53    2.70
  -4   0   1   74.94    2.71
  -4   0   1   80.96    2.77
  -4   0   1   73.26    2.92
   3   0  -1   41.95    1.55
   3   0  -1   44.22    1.74
   3   0  -1   42.69    1.55
   3   0  -1   40.30    1.56
   3   0  -1   40.66    1.52
   3   0  -1   41.99    1.55
  -3   0   1   41.60    1.56
  -3   0   1   41.14    1.56
  -3   0   1   41.49    1.79
  -3   0   1   42.27    1.59
  -3   0   1   40.72    1.56
  -3   0   1   41.65    1.54
   1   0  -1   14.44    0.55
   1   0  -1   15.17    0.56
   1   0  -1   13.93    0.57
   1   0  -1   14.13    0.55
   1   0  -1   15.01    0.61
   1   0  -1   15.35    0.55
  -1   0   1   15.77    0.56
  -1   0   1   14.93    0.55
  -1   0   1   14.40    0.57
  -1   0   1   14.77    0.55
  -1   0   1   15.10    0.56
  -1   0   1   14.25    0.61
  -1   0  -1  158.82    5.49
  -1   0  -1  156.40    5.49
  -1   0  -1  155.37    5.54
  -1   0  -1  160.52    5.50
  -1   0  -1  161.42    5.50
  -1   0  -1  164.14    5.49
   1   0   1  165.52    5.50
   1   0   1  164.05    5.50
   1   0   1  164.03    5.59
   1   0   1  157.95    5.49
   1   0   1  163.69    5.54
  -2   0  -1  161.50    5.65
  -2   0  -1  166.20    5.64
  -2   0  -1  165.31    5.74
  -2   0  -1  163.16    5.61
  -2   0  -1  169.03    5.65
  -2   0  -1  164.74    5.65
  -2   0  -1  159.85    5.82
   2   0   1  166.92    5.65
   2   0   1  161.07    5.65
   2   0   1  174.91    5.82
   2   0   1  155.51    5.64
   2   0   1  168.68    5.64
   2   0   1  171.87    5.73
   2   0   1  148.54    5.67
  -3   0  -1   39.00    1.46
  -3   0  -1   38.26    1.40
  -3   0  -1   37.03    1.69
  -3   0  -1   37.25    1.61
  -3   0  -1   37.99    1.45
  -3   0  -1   37.96    1.44
  -3   0  -1   38.91    1.46
  -3   0  -1   38.96    1.44
   3   0   1   37.87    1.45
   3   0   1   38.92    1.45
   3   0   1   38.31    1.46
   3   0   1   36.55    1.46
   3   0   1   40.45    1.69
  -4   0  -1   62.64    2.56
  -4   0  -1   62.48    2.32
  -4   0  -1   67.60    2.35
  -4   0  -1   62.66    2.35
  -4   0  -1   60.05    2.66
  -4   0  -1   62.28    2.34
  -4   0  -1   61.71    2.25
  -4   0  -1   64.41    2.34
   4   0   1   61.94    2.33
   4   0   1   66.94    2.65
   4   0   1   60.75    2.34
   4   0   1   66.24    2.35
   4   0   1   61.77    2.33
  -5   0  -1    0.74    0.21
  -5   0  -1    1.00    0.53
  -5   0  -1    0.36    0.23
  -5   0  -1    0.25    0.22
  -5   0  -1    0.28    0.16
  -5   0  -1    0.69    0.27
  -5   0  -1    0.28    0.24
   5   0   1   -0.07    0.21
   5   0   1    0.08    0.24
   5   0   1    0.10    0.39
   5   0   1    0.21    0.22
   5   0   1    0.32    0.25
   5   0   1    0.36    0.23
  -6   0  -1   30.10    1.33
  -6   0  -1   27.45    1.29
  -6   0  -1   26.59    1.27
  -6   0  -1   27.23    1.62
  -6   0  -1   25.70    1.26
   6   0   1   27.51    1.48
   6   0   1   26.56    1.26
   6   0   1   27.99    1.25
   6   0   1   26.59    1.25
  -7   0  -1    1.06    0.39
  -7   0  -1    2.17    0.83
  -7   0  -1    1.07    0.33
   7   0   1    1.04    0.41
   7   0   1    0.90    0.37
   7   0   1    1.32    0.34
   7   0   1    0.70    0.34
  -8   0  -1    1.22    1.10
  -8   0  -1    0.14    0.41
  -8   0  -1   -0.02    0.41
   8   0   1    0.84    0.44
   8   0   1    0.41    0.37
   8   0   1    0.57    0.40
  -9   0  -1    0.46    0.55
  -9   0  -1   -0.75    1.27
   9   0   1   -0.23    0.48
   9   0   1   -0.35    0.52
   9   0   1    0.43    0.47
   9  -1  -1    5.24    0.72
   9  -1  -1    7.41    0.89
   9  -1  -1    5.87    0.79
  -9   1   1    6.59    0.96
  -9   1   1    7.01    1.61
   8  -1  -1    0.53    0.39
   8  -1  -1   -0.03    0.37
   8  -1  -1    0.35    0.44
  -8   1   1   -0.05    0.40
  -8   1   1    0.12    1.07
  -8   1   1    0.48    0.38
   7  -1  -1   21.34    1.12
   7  -1  -1   22.54    1.14
  -7   1   1   25.47    1.54
  -7   1   1   19.66    1.13
  -7   1   1   20.67    1.16
   6  -1  -1    4.21    0.52
   6  -1  -1    4.59    0.60
   6  -1  -1    4.78    0.52
   6  -1  -1    4.09    0.64
  -6   1   1    6.02    1.00
  -6   1   1    3.90    0.55
  -6   1   1    3.88    0.56
   5  -1  -1  103.41    4.10
   5  -1  -1  105.25    3.77
   5  -1  -1  104.26    3.75
   5  -1  -1  111.00    4.02
   5  -1  -1  102.79    3.73
   5  -1  -1  104.09    3.76
   5  -1  -1  109.52    3.80
  -5   1   1  100.96    3.74
  -5   1   1   98.76    3.95
  -5   1   1  100.95    3.77
  -5   1   1  107.65    3.77
  -5   1   1  102.84    4.20
  -5   1   1  104.55    3.78
   4  -1  -1    4.40    0.36
   4  -1  -1    3.95    0.36
   4  -1  -1    4.03    0.36
   4  -1  -1    3.29    0.51
   4  -1  -1    4.93    0.37
   4  -1  -1    4.42    0.59
   4  -1  -1    4.47    0.36
  -4   1   1    4.39    0.51
  -4   1   1    4.15    0.36
  -4   1   1    5.18    0.73
  -4   1   1    2.92    0.34
  -4   1   1    2.69    0.50
  -4   1   1    3.45    0.35
  -4   1   1    3.32    0.33
   3  -1  -1  430.79   14.64
   3  -1  -1  464.72   14.85
   3  -1  -1  436.77   14.63
   3  -1  -1  423.33   14.63
   3  -1  -1  464.75   14.89
   3  -1  -1  424.91   14.62
  -3   1   1  430.27   14.93
  -3   1   1  390.03   14.88
  -3   1   1  412.32   14.63
  -3   1   1  426.54   14.62
  -3   1   1  416.95   14.62
  -3   1   1  414.19   14.78
  -3   1   1  449.07   14.64
   2  -1  -1  243.75    7.63
   2  -1  -1  213.44    7.44
   2  -1  -1  231.10    7.64
   2  -1  -1  221.36    7.43
   2  -1  -1  212.65    7.43
   2  -1  -1  211.29    7.48
   2  -1  -1  220.25    7.77
   2  -1  -1  224.60    7.45
  -2   1   1  212.09    7.66
  -2   1   1  214.23    7.44
  -2   1   1  202.51    7.62
  -2   1   1  205.99    7.52
  -2   1   1  216.34    7.43
  -2   1   1  212.95    7.43
  -2   1   1  221.53    7.64
   0  -1  -1  395.23   13.26
   0  -1  -1  388.69   13.29
   0  -1  -1  392.66   13.27
   0  -1  -1  381.34   13.32
   0   1   1  390.24   13.31
   0   1   1  386.33   13.26
  -3  -1  -1   78.95    2.84
  -3  -1  -1   78.29    2.83
  -3  -1  -1   79.78    2.90
  -3  -1  -1   78.49    3.05
  -3  -1  -1   77.53    2.84
  -3  -1  -1   81.02    2.83
   3   1   1   78.42    3.04
   3   1   1   76.01    2.82
   3   1   1   77.59    2.81
   3   1   1   82.06    2.83
   3   1   1   79.39    2.83
   3   1   1   81.75    3.00
   3   1   1   77.82    2.78
  -4  -1  -1  473.22   16.30
  -4  -1  -1  491.66   16.36
  -4  -1  -1  476.57   16.28
  -4  -1  -1  478.32   16.36
  -4  -1  -1  456.42   16.57
  -4  -1  -1  486.37   16.30
   4   1   1  491.83   16.29
   4   1   1  471.20   16.52
   4   1   1  460.10   16.27
   4   1   1  487.84   16.30
   4   1   1  473.66   16.29
   4   1   1  471.09   16.23
  -5  -1  -1   34.35    1.43
  -5  -1  -1   32.66    1.41
  -5  -1  -1   31.75    1.76
  -5  -1  -1   32.63    1.39
  -5  -1  -1   31.03    1.37
  -5  -1  -1   33.18    1.55
  -5  -1  -1   31.59    1.40
   5   1   1   33.81    1.38
   5   1   1   33.64    1.34
   5   1   1   31.22    1.62
   5   1   1   34.18    1.38
   5   1   1   31.38    1.37
   5   1   1   32.97    1.39
  -6  -1  -1   46.83    2.50
  -6  -1  -1   51.30    2.04
  -6  -1  -1   51.54    2.03
  -6  -1  -1   49.94    2.25
  -6  -1  -1   47.51    2.06
  -6  -1  -1   50.57    2.08
   6   1   1   53.74    1.99
   6   1   1   51.98    2.03
   6   1   1   47.95    2.03
   6   1   1   50.76    2.04
  -7  -1  -1   16.70    0.91
  -7  -1  -1   17.50    1.08
  -7  -1  -1   14.37    1.55
  -7  -1  -1   16.92    1.37
  -7  -1  -1   17.83    1.09
  -7  -1  -1   15.93    1.03
   7   1   1   16.74    0.97
   7   1   1   16.08    0.97
   7   1   1   16.82    0.94
  -8  -1  -1    9.52    0.98
  -8  -1  -1   10.78    0.96
  -8  -1  -1   11.28    1.91
   8   1   1   10.24    0.88
   8   1   1   12.57    0.89
   8   1   1   10.40    0.92
  -9  -1  -1    2.57    0.68
  -9  -1  -1    1.26    0.78
   9   1   1    1.05    0.55
   9   1   1    1.44    1.06
   9   1   1    0.78    0.56
   8  -2  -1    2.78    0.66
   8  -2  -1    2.68    0.53
   8  -2  -1    3.44    0.50
  -8   2   1    3.67    1.41
  -8   2   1    3.89    0.56
  -8   2   1   -0.37    1.50
   7  -2  -1    4.63    0.63
   7  -2  -1    5.44    0.89
   7  -2  -1    4.24    0.53
  -7   2   1    3.38    1.34
  -7   2   1    4.16    0.60
  -7   2   1    5.66    0.60
  -7   2   1    5.63    1.21
   6  -2  -1   10.73    0.71
   6  -2  -1   10.18    0.70
   6  -2  -1   11.03    0.66
  -6   2   1   11.23    0.66
  -6   2   1    9.32    0.68
  -6   2   1    9.94    0.66
   5  -2  -1   54.29    2.10
   5  -2  -1   54.76    2.10
   5  -2  -1   53.81    2.07
   5  -2  -1   53.94    2.09
   5  -2  -1   55.10    2.08
   5  -2  -1   57.69    2.54
  -5   2   1   54.63    2.18
  -5   2   1   54.17    2.72
  -5   2   1   54.13    2.05
  -5   2   1   53.71    2.07
   4  -2  -1   50.34    1.89
   4  -2  -1   48.20    1.84
   4  -2  -1   50.63    1.85
   4  -2  -1   50.16    2.20
   4  -2  -1   54.66    2.23
   4  -2  -1   52.30    1.87
   4  -2  -1   51.67    1.86
   4  -2  -1   48.34    1.87
  -4   2   1   46.68    1.86
  -4   2   1   45.29    2.36
  -4   2   1   44.31    1.96
  -4   2   1   47.46    2.40
  -4   2   1   47.50    1.81
   3  -2  -1  251.82    8.82
   3  -2  -1  242.36    8.75
   3  -2  -1  244.40    8.82
   3  -2  -1  254.25    8.76
   3  -2  -1  264.45    9.11
   3  -2  -1  257.32    8.76
   3  -2  -1  271.71    9.13
   3  -2  -1  256.42    8.78
   3  -2  -1  267.83    9.05
  -3   2   1  257.50    8.87
  -3   2   1  257.48    8.77
  -3   2   1  241.67    8.70
  -3   2   1  263.81    9.15
  -3   2   1  252.84    9.23
  -3   2   1  253.88    8.77
  -3   2   1  257.16    9.15
  -3   2   1  254.28    8.72
   2  -2  -1  134.20    4.53
   2  -2  -1  118.50    4.83
   2  -2  -1  138.56    4.85
   2  -2  -1  127.23    4.61
   2  -2  -1  126.84    4.91
   2  -2  -1  133.78    4.52
   2  -2  -1  126.94    4.51
   2  -2  -1  131.81    4.52
   2  -2  -1  137.14    4.75
   2  -2  -1  139.74    4.86
  -2   2   1  135.99    4.63
  -2   2   1  132.59    4.88
  -2   2   1  129.66    4.77
  -2   2   1  128.85    4.52
  -2   2   1  128.81    4.52
  -2   2   1  129.06    4.92
   1  -2  -1  309.69   10.60
   1  -2  -1  315.81   10.73
   1  -2  -1  300.33   10.48
   1  -2  -1  315.55   10.77
   1  -2  -1  334.90   10.81
   1  -2  -1  307.21   10.84
   1  -2  -1  308.53   10.48
   1  -2  -1  313.70   10.69
   1  -2  -1  306.20   10.50
   1  -2  -1  295.93   10.49
  -1   2   1  324.79   10.85
  -1   2   1  296.05   10.50
  -1   2   1  307.29   10.81
  -1   2   1  289.39   10.49
  -1   2   1  311.51   10.60
   0  -2  -1  538.71   18.13
   0  -2  -1  572.54   18.13
   0  -2  -1  504.99   18.14
   0  -2  -1  519.76   18.17
   0  -2  -1  526.30   18.01
   0   2   1  500.94   18.18
   0   2   1  535.79   18.17
  -1  -2  -1    1.30    0.21
  -1  -2  -1    1.78    0.27
  -1  -2  -1    0.91    0.27
  -1  -2  -1    0.78    0.13
  -1  -2  -1    1.08    0.19
  -1  -2  -1    0.90    0.13
  -1  -2  -1    1.02    0.31
  -1  -2  -1    0.99    0.26
  -1  -2  -1    0.96    0.13
  -1  -2  -1    0.90    0.13
  -1  -2  -1    1.05    0.26
   1   2   1    1.68    0.27
   1   2   1    1.39    0.38
   1   2   1    0.61    0.11
   1   2   1    1.05    0.13
   1   2   1    1.12    0.29
  -2  -2  -1  184.80    6.27
  -2  -2  -1  181.97    6.27
  -2  -2  -1  178.07    6.32
  -2  -2  -1  185.07    6.41
  -2  -2  -1  185.61    6.51
  -2  -2  -1  185.54    6.49
  -2  -2  -1  177.74    6.27
  -2  -2  -1  174.08    6.28
   2   2   1  184.80    6.41
   2   2   1  178.62    6.25
   2   2   1  182.65    6.27
   2   2   1  187.26    6.24
   2   2   1  183.27    6.47
   2   2   1  179.52    6.59
  -3  -2  -1   88.92    3.40
  -3  -2  -1   87.91    3.20
  -3  -2  -1   90.97    3.18
  -3  -2  -1   88.29    3.18
  -3  -2  -1   86.81    3.19
  -3  -2  -1   90.52    3.40
   3   2   1   91.61    3.36
   3   2   1   90.23    3.17
   3   2   1   92.38    3.17
   3   2   1   87.66    3.36
   3   2   1   84.33    3.52
   3   2   1   89.57    3.18
  -4  -2  -1   41.79    1.96
  -4  -2  -1   41.85    1.66
  -4  -2  -1   42.04    1.65
  -4  -2  -1   41.52    1.83
  -4  -2  -1   43.33    1.69
   4   2   1   40.92    2.05
   4   2   1   40.69    1.65
   4   2   1   41.26    1.65
   4   2   1   45.60    1.88
   4   2   1   41.50    1.63
   4   2   1   42.65    1.64
  -5  -2  -1    5.15    0.67
  -5  -2  -1    3.76    0.50
  -5  -2  -1    5.48    0.84
  -5  -2  -1    3.96    0.53
  -5  -2  -1    3.41    0.56
  -5  -2  -1    4.73    0.54
   5   2   1    3.38    0.46
   5   2   1    4.82    0.56
   5   2   1    3.18    0.50
   5   2   1    4.82    0.72
   5   2   1    4.72    0.89
   5   2   1    3.66    0.48
  -6  -2  -1    1.65    0.43
  -6  -2  -1    2.59    0.57
  -6  -2  -1    2.74    0.73
  -6  -2  -1    1.66    0.35
  -6  -2  -1    2.72    0.55
  -6  -2  -1    2.76    0.48
   6   2   1    3.38    0.45
   6   2   1    2.44    0.76
   6   2   1    2.28    0.40
  -7  -2  -1   13.57    0.99
  -7  -2  -1   12.66    1.51
  -7  -2  -1   14.47    1.01
  -7  -2  -1   12.69    1.50
   7   2   1   13.69    1.50
   7   2   1   13.63    0.91
   7   2   1   12.24    0.82
   7   2   1   13.86    0.94
  -8  -2  -1    1.09    0.45
  -8  -2  -1    0.12    0.96
  -8  -2  -1    0.16    0.47
   8   2   1    1.31    0.93
   8   2   1    1.24    0.45
   8  -3  -1    4.22    0.93
   8  -3  -1    4.04    0.64
   8  -3  -1    4.13    0.65
  -8   3   1    1.56    1.91
  -8   3   1    6.83    1.97
   7  -3  -1    5.57    0.83
   7  -3  -1    7.20    1.04
   7  -3  -1    5.92    0.69
   7  -3  -1    5.91    0.75
  -7   3   1    8.56    1.63
  -7   3   1    6.18    1.59
   6  -3  -1   25.77    1.23
   6  -3  -1   25.64    1.55
   6  -3  -1   25.99    1.20
   6  -3  -1   25.54    1.21
  -6   3   1   26.33    2.16
  -6   3   1   27.04    2.33
   5  -3  -1   69.18    2.52
   5  -3  -1   69.58    2.82
   5  -3  -1   65.89    2.50
   5  -3  -1   68.05    2.51
   5  -3  -1   63.77    2.51
   5  -3  -1   65.74    2.51
   5  -3  -1   68.63    2.53
  -5   3   1   63.86    3.36
  -5   3   1   68.75    2.59
  -5   3   1   59.87    2.56
  -5   3   1   75.15    3.32
   4  -3  -1   15.34    0.73
   4  -3  -1   14.65    1.10
   4  -3  -1   13.64    0.80
   4  -3  -1   14.96    0.83
   4  -3  -1   14.92    0.73
   4  -3  -1   14.96    0.75
   4  -3  -1   15.53    0.74
  -4   3   1   17.32    1.60
  -4   3   1   17.93    1.30
  -4   3   1   14.57    0.80
  -4   3   1   15.46    0.71
   3  -3  -1  283.89   10.20
   3  -3  -1  278.20    9.51
   3  -3  -1  242.06   10.16
   3  -3  -1  291.49    9.78
   3  -3  -1  267.48    9.64
   3  -3  -1  285.23    9.53
   3  -3  -1  273.17    9.53
   3  -3  -1  281.85    9.86
   3  -3  -1  271.68    9.52
  -3   3   1  282.72    9.66
  -3   3   1  282.20    9.51
  -3   3   1  275.90   10.08
  -3   3   1  290.41   10.24
  -3   3   1  287.71    9.97
   2  -3  -1   50.18    1.83
   2  -3  -1   51.75    1.81
   2  -3  -1   53.49    2.39
   2  -3  -1   46.50    1.84
   2  -3  -1   49.81    2.20
   2  -3  -1   50.49    2.31
   2  -3  -1   51.79    2.00
   2  -3  -1   52.24    1.83
   2  -3  -1   51.07    2.09
   2  -3  -1   52.40    2.27
  -2   3   1   50.15    1.81
  -2   3   1   48.94    2.34
  -2   3   1   51.66    1.79
  -2   3   1   51.53    2.44
  -2   3   1   52.87    1.98
  -2   3   1   51.88    2.20
   1  -3  -1  106.45    3.82
   1  -3  -1  113.83    3.99
   1  -3  -1  109.53    4.11
   1  -3  -1  107.55    3.78
   1  -3  -1  110.97    3.98
   1  -3  -1  107.61    4.19
   1  -3  -1  111.89    4.21
   1  -3  -1  111.92    4.23
   1  -3  -1  109.28    4.29
  -1   3   1  110.92    4.29
  -1   3   1  110.44    4.14
  -1   3   1  111.97    4.32
  -1   3   1  109.97    4.31
   0  -3  -1  176.44    6.31
   0  -3  -1  159.60    6.14
   0  -3  -1  173.53    6.29
   0  -3  -1  167.19    5.93
   0  -3  -1  174.70    6.15
   0  -3  -1  178.55    6.41
   0  -3  -1  179.65    6.30
   0  -3  -1  176.23    5.92
   0  -3  -1  171.24    5.94
   0  -3  -1  174.96    5.95
   0  -3  -1  175.32    6.39
   0   3   1  171.08    6.43
   0   3   1  175.86    6.38
   0   3   1  180.16    6.36
  -1  -3  -1   26.16    0.99
  -1  -3  -1   25.65    0.98
  -1  -3  -1   25.21    1.33
  -1  -3  -1   25.91    1.01
  -1  -3  -1   25.81    1.37
  -1  -3  -1   26.48    0.98
  -1  -3  -1   23.61    1.26
  -1  -3  -1   25.25    1.32
  -1  -3  -1   26.25    1.26
  -1  -3  -1   25.08    1.10
  -1  -3  -1   25.81    1.40
   1   3   1   25.39    1.36
   1   3   1   26.53    0.98
   1   3   1   25.50    1.46
   1   3   1   26.57    0.96
  -2  -3  -1   44.75    1.63
  -2  -3  -1   44.76    1.79
  -2  -3  -1   42.52    1.61
  -2  -3  -1   43.77    1.61
  -2  -3  -1   42.48    1.99
  -2  -3  -1   40.99    1.97
  -2  -3  -1   40.59    2.05
  -2  -3  -1   44.62    1.84
   2   3   1   42.54    2.13
   2   3   1   43.51    1.61
   2   3   1   44.70    1.95
   2   3   1   45.09    1.80
   2   3   1   43.09    1.60
  -3  -3  -1    6.87    0.61
  -3  -3  -1    6.86    0.68
  -3  -3  -1    5.73    0.43
  -3  -3  -1    5.93    0.46
  -3  -3  -1    5.75    0.44
   3   3   1    6.17    0.72
   3   3   1    5.32    0.33
   3   3   1    5.90    0.39
   3   3   1    6.21    0.97
   3   3   1    6.10    0.66
   3   3   1    5.59    0.42
  -4  -3  -1   28.47    1.55
  -4  -3  -1   26.32    1.28
  -4  -3  -1   28.65    1.30
  -4  -3  -1   29.04    1.26
  -4  -3  -1   29.90    1.30
  -4  -3  -1   28.58    1.26
   4   3   1   30.44    1.90
   4   3   1   31.62    1.51
   4   3   1   30.48    1.26
   4   3   1   31.23    1.18
   4   3   1   32.26    1.53
  -5  -3  -1    5.14    0.54
  -5  -3  -1    4.66    0.61
  -5  -3  -1    4.27    0.58
  -5  -3  -1    4.29    0.77
   5   3   1    4.57    0.43
   5   3   1    5.25    1.02
   5   3   1    5.15    0.74
   5   3   1    4.96    0.52
   5   3   1    4.15    0.52
  -6  -3  -1   24.62    1.34
  -6  -3  -1   25.46    1.33
  -6  -3  -1   26.00    1.82
   6   3   1   24.83    1.99
   6   3   1   27.18    1.28
   6   3   1   28.01    1.50
  -7  -3  -1    0.44    0.85
  -7  -3  -1    0.31    0.48
  -7  -3  -1    0.29    0.44
   7   3   1    0.88    0.62
   7   3   1   -0.39    1.03
  -8  -3  -1    5.70    0.89
   8   3   1    8.74    0.98
   8   3   1    5.43    2.10
   7  -4  -1    1.98    0.54
   7  -4  -1    2.22    0.53
   7  -4  -1    2.43    1.08
  -7   4   1    4.34    2.66
   6  -4  -1    0.57    0.65
   6  -4  -1    0.54    0.32
   6  -4  -1    0.62    0.39
  -6   4   1    0.46    1.36
  -6   4   1    2.01    1.05
   5  -4  -1    4.51    0.48
   5  -4  -1    4.77    0.66
   5  -4  -1    3.96    0.57
   5  -4  -1    3.64    0.75
  -5   4   1    5.52    1.00
  -5   4   1    4.66    1.25
   4  -4  -1    3.82    0.72
   4  -4  -1    4.27    0.60
   4  -4  -1    4.22    0.44
   4  -4  -1    4.02    0.45
   4  -4  -1    4.29    0.46
   4  -4  -1    4.14    0.39
   4  -4  -1    5.10    0.64
  -4   4   1    4.36    1.13
  -4   4   1    6.29    0.98
  -4   4   1    3.72    0.33
   3  -4  -1   26.68    1.63
   3  -4  -1   30.29    1.58
   3  -4  -1   29.66    1.13
   3  -4  -1   30.34    1.20
   3  -4  -1   31.70    1.22
   3  -4  -1   32.34    1.57
   3  -4  -1   31.05    1.43
   3  -4  -1   28.79    1.17
   3  -4  -1   30.12    1.52
  -3   4   1   33.31    1.74
  -3   4   1   30.94    1.95
  -3   4   1   31.42    2.63
   2  -4  -1   15.68    0.93
   2  -4  -1   14.21    0.66
   2  -4  -1   14.25    0.65
   2  -4  -1   13.36    1.13
   2  -4  -1   15.83    0.99
   2  -4  -1   16.26    0.96
  -2   4   1   13.42    1.51
  -2   4   1   14.08    1.36
  -2   4   1   16.15    1.14
   1  -4  -1   11.50    0.52
   1  -4  -1   11.27    0.80
   1  -4  -1   10.96    0.51
   1  -4  -1   12.11    0.80
   1  -4  -1   11.92    0.77
   1  -4  -1   10.37    1.05
   1  -4  -1   11.00    1.15
  -1   4   1   12.34    1.23
  -1   4   1   12.34    1.31
   0  -4  -1  101.97    4.34
   0  -4  -1  106.17    3.74
   0  -4  -1  111.30    3.90
   0  -4  -1  109.29    3.92
   0  -4  -1  102.77    4.18
   0  -4  -1  112.71    4.04
   0   4   1  108.15    4.32
   0   4   1  107.77    4.37
   0   4   1  107.12    4.46
  -1  -4  -1   24.98    0.92
  -1  -4  -1   23.21    1.14
  -1  -4  -1   23.08    1.34
  -1  -4  -1   25.67    1.29
  -1  -4  -1   22.56    0.93
  -1  -4  -1   22.74    0.95
  -1  -4  -1   23.87    0.97
  -1  -4  -1   23.40    1.14
  -1  -4  -1   24.56    1.04
   1   4   1   25.18    1.72
   1   4   1   24.98    1.56
  -2  -4  -1   39.05    1.78
  -2  -4  -1   34.12    1.72
  -2  -4  -1   37.94    1.67
  -2  -4  -1   40.21    1.44
  -2  -4  -1   36.48    1.45
  -2  -4  -1   36.79    1.47
  -2  -4  -1   36.86    1.45
   2   4   1   38.83    1.95
   2   4   1   37.57    2.49
   2   4   1   37.55    1.43
  -3  -4  -1   48.98    2.22
  -3  -4  -1   46.79    2.09
  -3  -4  -1   48.71    1.91
  -3  -4  -1   49.91    1.93
  -3  -4  -1   50.83    1.93
  -3  -4  -1   50.81    1.96
  -3  -4  -1   49.95    2.16
   3   4   1   53.59    2.79
   3   4   1   51.01    2.22
   3   4   1   50.79    2.34
  -4  -4  -1    8.84    0.99
  -4  -4  -1    7.83    0.64
  -4  -4  -1    8.87    0.74
  -4  -4  -1    7.93    0.60
  -4  -4  -1    7.44    0.93
   4   4   1    9.60    1.43
   4   4   1    8.49    1.00
   4   4   1    7.65    0.94
  -5  -4  -1   13.34    0.93
  -5  -4  -1   15.45    1.38
  -5  -4  -1   14.84    0.99
   5   4   1   14.81    1.25
   5   4   1   14.41    1.81
  -6  -4  -1    6.41    0.81
  -6  -4  -1    6.60    0.95
  -6  -4  -1    5.94    1.19
   6   4   1    6.79    1.53
   5  -5  -1    0.01    0.23
   5  -5  -1    0.12    0.72
  -5   5   1   -1.54    1.70
   4  -5  -1    7.27    1.14
   4  -5  -1    6.36    0.92
   4  -5  -1    5.03    1.13
  -4   5   1    5.80    1.42
  -4   5   1    6.01    1.05
   3  -5  -1    1.17    0.53
   3  -5  -1    0.66    0.58
   3  -5  -1    1.41    0.59
  -3   5   1    1.02    0.90
  -3   5   1    1.36    1.12
   2  -5  -1    2.29    0.52
   2  -5  -1    1.04    0.52
   2  -5  -1    1.93    0.92
  -2   5   1    1.52    1.08
  -2   5   1    4.29    1.06
   1  -5  -1   17.61    1.48
   1  -5  -1   18.02    1.48
   1  -5  -1   18.05    1.08
  -1   5   1   16.17    2.92
  -1   5   1   18.66    1.68
   0  -5  -1    0.68    0.38
   0  -5  -1    0.62    0.38
   0  -5  -1    0.42    0.48
   0  -5  -1    1.18    0.25
   0   5   1    0.55    0.82
   0   5   1    3.15    0.85
  -1  -5  -1   18.79    0.89
  -1  -5  -1   18.16    1.07
  -1  -5  -1   19.51    1.30
  -1  -5  -1   19.37    0.93
   1   5   1   21.16    1.65
   1   5   1   21.58    1.89
  -2  -5  -1   16.44    0.87
  -2  -5  -1   15.28    0.74
  -2  -5  -1   16.99    1.28
   2   5   1   18.58    1.86
   2   5   1   15.36    1.55
  -3  -5  -1    2.04    0.69
  -3  -5  -1    1.54    0.43
  -3  -5  -1    1.23    0.46
   3   5   1    0.92    0.86
   3   5   1    2.73    1.05
  -4  -5  -1   10.55    0.95
  -4  -5  -1    9.27    1.29
  -4  -5  -1   10.03    0.80
   4   5   1   13.66    2.08
  -5  -5  -1   -0.32    1.26
  -5  -5  -1    1.04    0.58
  -5  -5  -1    0.80    0.58
   5   5   1    0.81    2.49
   5   5  -2    4.05    1.74
  -5  -5   2    0.36    0.90
  -5  -5   2    2.50    0.50
   4   5  -2    3.11    1.33
  -4  -5   2    1.41    0.69
  -4  -5   2    2.72    0.77
  -4  -5   2    2.63    0.38
   3   5  -2   21.16    2.04
   3   5  -2   18.03    1.39
  -3  -5   2   16.08    0.94
  -3  -5   2   17.51    1.44
  -3  -5   2   15.45    1.32
   2   5  -2    2.94    0.81
   2   5  -2    4.61    1.08
  -2  -5   2    2.99    0.66
  -2  -5   2    3.30    0.80
  -2  -5   2    3.51    0.45
   1   5  -2    9.69    1.44
   1   5  -2    7.12    1.36
  -1  -5   2    7.25    0.92
  -1  -5   2    6.88    0.96
  -1  -5   2    6.84    0.64
   0   5  -2   13.25    1.56
   0  -5   2    9.98    0.81
   0  -5   2   10.46    1.06
   0  -5   2   11.40    0.99
   1  -5   2    3.70    0.58
   1  -5   2    3.46    0.58
   1  -5   2    4.38    0.74
  -2   5  -2    3.67    0.88
  -2   5  -2    3.45    1.12
   2  -5   2    3.37    0.65
   2  -5   2    2.55    0.73
   2  -5   2    4.61    0.62
  -3   5  -2    1.67    0.95
  -3   5  -2    1.55    1.24
   3  -5   2    0.53    0.69
   3  -5   2    1.91    0.61
  -4   5  -2    6.40    1.36
  -4   5  -2    4.77    1.63
   4  -5   2    5.78    1.01
   4  -5   2    3.92    1.01
   7   4  -2    4.35    1.90
  -7  -4   2    3.59    1.21
  -7  -4   2    3.37    0.79
   6   4  -2    3.12    1.32
  -6  -4   2    1.81    0.89
  -6  -4   2    0.92    0.42
  -6  -4   2    1.95    0.55
   5   4  -2   20.20    1.98
   5   4  -2   21.90    1.60
   5   4  -2   22.51    1.41
  -5  -4   2   22.74    1.73
  -5  -4   2   20.61    1.10
   4   4  -2   30.17    1.45
   4   4  -2   27.58    1.75
   4   4  -2   29.78    2.16
  -4  -4   2   30.57    1.33
  -4  -4   2   31.05    1.72
  -4  -4   2   24.75    1.65
  -4  -4   2   26.25    1.24
  -4  -4   2   27.14    1.22
  -4  -4   2   29.66    1.27
   3   4  -2    3.44    1.23
   3   4  -2    2.74    0.33
   3   4  -2    4.18    0.78
   3   4  -2    3.42    0.64
   3   4  -2    3.61    0.59
  -3  -4   2    2.93    0.41
  -3  -4   2    2.40    0.29
  -3  -4   2    2.39    0.43
  -3  -4   2    2.26    0.73
  -3  -4   2    3.24    0.60
   2   4  -2  120.67    4.81
   2   4  -2  114.17    4.39
   2   4  -2  116.59    4.97
  -2  -4   2  114.05    4.35
  -2  -4   2  101.55    4.49
  -2  -4   2  111.30    3.98
  -2  -4   2  117.06    4.02
  -2  -4   2  113.34    4.32
  -2  -4   2  120.32    3.96
  -2  -4   2  112.15    3.95
   1   4  -2   26.39    1.69
   1   4  -2   23.41    1.41
   1   4  -2   24.24    1.48
  -1  -4   2   24.08    1.29
  -1  -4   2   22.88    1.00
  -1  -4   2   23.94    1.39
  -1  -4   2   22.00    0.90
  -1  -4   2   22.03    1.53
  -1  -4   2   21.68    0.86
  -1  -4   2   22.94    1.21
   0   4  -2   22.72    1.38
   0   4  -2   22.21    1.56
   0   4  -2   19.55    1.38
   0  -4   2   19.78    1.01
   0  -4   2   20.90    1.20
   0  -4   2   21.72    1.09
  -1   4  -2   33.92    1.74
  -1   4  -2   31.19    1.88
  -1   4  -2   35.79    2.09
   1  -4   2   31.95    1.63
   1  -4   2   32.51    1.47
   1  -4   2   34.03    1.45
  -2   4  -2    2.80    0.75
  -2   4  -2    0.62    0.81
   2  -4   2    2.02    0.53
   2  -4   2    1.13    0.40
   2  -4   2    1.23    0.33
   2  -4   2    1.83    0.48
  -3   4  -2   13.00    1.63
  -3   4  -2   13.16    1.48
   3  -4   2   10.43    0.94
   3  -4   2   11.04    0.59
   3  -4   2   11.58    0.69
   3  -4   2   11.81    0.58
   3  -4   2   10.60    0.81
  -4   4  -2    3.00    1.04
  -4   4  -2    2.56    1.06
   4  -4   2    2.82    0.35
   4  -4   2    2.28    0.56
   4  -4   2    1.97    0.33
   4  -4   2    2.07    0.31
   4  -4   2    2.70    0.32
  -5   4  -2    7.71    1.49
  -5   4  -2    8.20    1.49
   5  -4   2    6.53    1.02
   5  -4   2    6.42    0.62
   5  -4   2    6.36    0.55
  -6   4  -2    4.85    1.67
  -6   4  -2    4.92    1.70
   6  -4   2    6.29    0.93
   6  -4   2    3.71    0.47
   6  -4   2    4.31    0.64
   8   3  -2    2.05    0.58
   8   3  -2    3.30    1.62
  -8  -3   2    2.07    0.63
  -8  -3   2    2.05    1.09
   7   3  -2    7.03    1.33
   7   3  -2    8.75    0.83
  -7  -3   2    6.97    0.87
  -7  -3   2    7.15    1.19
  -7  -3   2    8.70    0.96
   6   3  -2    3.61    1.01
   6   3  -2    3.31    0.55
   6   3  -2    3.56    0.44
   6   3  -2    3.93    0.77
   6   3  -2    3.51    0.40
  -6  -3   2    3.28    0.49
  -6  -3   2    3.47    0.53
  -6  -3   2    2.77    0.82
   5   3  -2    4.83    0.48
   5   3  -2    5.44    0.88
   5   3  -2    6.09    1.17
   5   3  -2    4.71    0.50
   5   3  -2    3.90    0.40
   5   3  -2    6.56    0.63
  -5  -3   2    5.59    0.55
  -5  -3   2    6.76    0.93
  -5  -3   2    4.96    0.62
  -5  -3   2    4.44    0.57
   4   3  -2    3.93    0.36
   4   3  -2    3.32    0.43
   4   3  -2    5.17    0.61
   4   3  -2    4.50    0.89
   4   3  -2    4.13    0.68
   4   3  -2    4.41    0.69
  -4  -3   2    3.79    0.62
  -4  -3   2    3.52    0.48
  -4  -3   2    3.84    0.46
  -4  -3   2    3.26    0.39
  -4  -3   2    3.31    0.42
   3   3  -2   42.32    2.06
   3   3  -2   34.79    1.77
   3   3  -2   36.51    1.69
   3   3  -2   36.22    1.37
   3   3  -2   36.98    1.60
  -3  -3   2   35.56    1.69
  -3  -3   2   31.18    1.45
  -3  -3   2   35.31    1.40
  -3  -3   2   33.19    1.76
  -3  -3   2   35.46    1.42
  -3  -3   2   35.29    1.39
   2   3  -2   45.83    1.68
   2   3  -2   47.34    2.09
   2   3  -2   45.77    1.68
   2   3  -2   49.17    2.01
   2   3  -2   45.65    1.94
   2   3  -2   47.55    2.22
  -2  -3   2   45.99    2.04
  -2  -3   2   46.78    1.70
  -2  -3   2   43.31    2.10
  -2  -3   2   45.14    1.90
  -2  -3   2   45.56    1.69
  -2  -3   2   47.30    1.72
  -2  -3   2   46.46    1.98
  -2  -3   2   50.79    2.04
   1   3  -2  241.48    8.53
   1   3  -2  231.34    8.36
   1   3  -2  241.43    8.44
  -1  -3   2  251.97    8.65
  -1  -3   2  221.19    8.49
  -1  -3   2  246.42    8.40
  -1  -3   2  235.30    8.36
  -1  -3   2  253.54    8.42
  -1  -3   2  230.79    8.32
  -1  -3   2  216.80    8.03
  -1  -3   2  226.90    8.04
   0   3  -2   22.93    1.28
   0   3  -2   22.98    1.36
   0   3  -2   26.84    1.38
   0   3  -2   24.91    1.27
   0  -3   2   22.75    1.37
   0  -3   2   23.60    1.17
   0  -3   2   24.55    1.41
   0  -3   2   23.99    1.25
   0  -3   2   23.78    1.19
   0  -3   2   23.61    1.03
   0  -3   2   23.47    1.06
   0  -3   2   23.15    1.29
  -1   3  -2  247.67    9.08
  -1   3  -2  257.33    9.15
  -1   3  -2  245.39    8.84
   1  -3   2  251.51    8.85
   1  -3   2  251.36    8.65
   1  -3   2  244.09    9.08
   1  -3   2  252.88    9.06
   1  -3   2  249.92    8.95
   1  -3   2  252.97    8.71
   1  -3   2  252.09    8.82
   1  -3   2  251.86    9.02
  -2   3  -2   93.77    3.48
  -2   3  -2   90.68    3.87
  -2   3  -2   93.12    3.85
   2  -3   2   94.02    3.29
   2  -3   2   91.95    3.73
   2  -3   2   90.83    3.80
   2  -3   2   90.70    3.42
   2  -3   2   94.42    3.43
   2  -3   2   94.17    3.19
   2  -3   2   89.06    3.64
   2  -3   2   92.37    3.18
   2  -3   2   95.16    3.20
   2  -3   2   88.18    3.74
   2  -3   2   91.05    3.19
  -3   3  -2   92.13    3.92
  -3   3  -2   89.55    3.89
  -3   3  -2   76.26    3.16
  -3   3  -2   89.92    3.11
   3  -3   2   91.27    3.14
   3  -3   2   89.32    3.12
   3  -3   2   89.20    3.12
   3  -3   2   81.22    3.60
   3  -3   2   92.32    3.37
   3  -3   2   91.48    3.28
   3  -3   2   91.84    3.14
  -4   3  -2   60.42    3.12
  -4   3  -2   58.45    2.19
  -4   3  -2   58.97    3.15
   4  -3   2   59.46    2.23
   4  -3   2   59.22    2.22
   4  -3   2   62.01    2.21
   4  -3   2   56.76    2.13
   4  -3   2   62.09    2.23
   4  -3   2   59.20    2.20
   4  -3   2   60.59    2.47
  -5   3  -2   12.82    0.70
  -5   3  -2   10.99    1.78
  -5   3  -2   13.35    1.67
   5  -3   2   13.44    0.74
   5  -3   2   13.76    0.74
   5  -3   2   12.86    0.76
   5  -3   2   15.09    1.03
   5  -3   2   13.26    0.79
  -6   3  -2    4.84    1.34
  -6   3  -2    6.82    1.42
   6  -3   2    7.82    0.95
   6  -3   2    8.05    0.65
   6  -3   2    7.20    0.73
  -7   3  -2    6.27    1.72
  -7   3  -2    3.84    1.71
   7  -3   2    7.25    0.79
   7  -3   2    6.69    1.04
   7  -3   2    6.50    0.69
   8   2  -2    2.00    1.11
   8   2  -2    1.57    0.44
  -8  -2   2    2.19    0.48
  -8  -2   2    3.14    0.98
  -8  -2   2    1.39    0.89
   7   2  -2    1.88    0.42
   7   2  -2    2.97    0.62
   7   2  -2    1.57    0.67
   7   2  -2    1.93    0.32
   7   2  -2    1.74    0.43
   7   2  -2    2.41    1.00
  -7  -2   2    1.99    0.77
  -7  -2   2    2.65    0.50
  -7  -2   2    2.22    0.50
   6   2  -2    5.14    0.74
   6   2  -2    4.58    0.61
   6   2  -2    4.77    0.56
   6   2  -2    3.89    0.71
   6   2  -2    3.81    1.16
  -6  -2   2    6.29    0.77
  -6  -2   2    4.92    0.66
  -6  -2   2    4.95    0.65
  -6  -2   2    5.16    0.64
  -6  -2   2    4.20    0.82
   5   2  -2    7.42    0.50
   5   2  -2    7.11    0.55
   5   2  -2    6.87    0.57
   5   2  -2    6.48    1.07
   5   2  -2    8.66    0.79
   5   2  -2    7.40    0.50
   5   2  -2    8.52    0.84
  -5  -2   2    7.54    0.58
  -5  -2   2    7.15    0.89
  -5  -2   2    7.24    0.63
  -5  -2   2    6.88    0.61
  -5  -2   2    7.62    0.69
  -5  -2   2    7.16    0.61
   4   2  -2  130.01    4.59
   4   2  -2  131.82    4.54
   4   2  -2  128.14    4.56
   4   2  -2  130.22    4.81
   4   2  -2  122.41    5.07
   4   2  -2  129.14    4.84
   4   2  -2  134.09    4.56
   4   2  -2  126.36    4.58
  -4  -2   2  130.30    4.62
  -4  -2   2  130.41    4.61
  -4  -2   2  129.37    4.57
  -4  -2   2  129.52    4.91
  -4  -2   2  130.77    4.78
  -4  -2   2  132.55    4.61
   3   2  -2   27.55    1.46
   3   2  -2   26.05    1.06
   3   2  -2   25.14    1.27
   3   2  -2   27.29    1.27
   3   2  -2   25.78    1.03
   3   2  -2   24.90    1.04
   3   2  -2   26.71    1.02
  -3  -2   2   26.46    1.07
  -3  -2   2   25.25    1.27
  -3  -2   2   27.38    1.04
  -3  -2   2   26.94    1.09
  -3  -2   2   26.65    1.06
  -3  -2   2   25.98    1.24
   2   2  -2  289.07   10.36
   2   2  -2  287.97   10.59
   2   2  -2  295.43   10.44
   2   2  -2  321.91   10.74
   2   2  -2  331.32   10.62
   2   2  -2  295.26   10.36
   2   2  -2  304.22   10.32
  -2  -2   2  308.00   10.74
  -2  -2   2  301.05   10.35
  -2  -2   2  320.68   10.53
  -2  -2   2  311.72   10.44
  -2  -2   2  300.47   10.57
  -2  -2   2  301.78   10.37
  -2  -2   2  303.54   10.59
  -2  -2   2  288.79   10.37
   1   2  -2  410.62   14.49
   1   2  -2  406.38   14.74
   1   2  -2  436.19   14.80
   1   2  -2  427.91   14.71
  -1  -2   2  460.61   14.75
  -1  -2   2  416.41   14.70
  -1  -2   2  461.91   14.73
  -1  -2   2  428.10   14.86
  -1  -2   2  406.37   14.49
  -1  -2   2  430.73   14.87
  -1  -2   2  432.36   14.68
  -1  -2   2  416.63   14.50
   0   2  -2  148.09    5.18
   0   2  -2  144.43    5.26
   0   2  -2  136.59    5.12
   0   2  -2  139.35    5.15
   0   2  -2  132.09    5.23
   0  -2   2  150.20    5.29
   0  -2   2  146.94    5.14
   0  -2   2  150.15    5.19
   0  -2   2  137.13    5.26
   0  -2   2  145.57    5.12
   0  -2   2  151.96    5.13
  -1   2  -2  395.02   13.97
  -1   2  -2  391.33   14.18
  -1   2  -2  411.44   14.20
   1  -2   2  404.86   13.95
   1  -2   2  414.77   14.20
   1  -2   2  392.45   13.83
   1  -2   2  412.23   14.05
   1  -2   2  430.78   14.15
   1  -2   2  422.35   14.20
   1  -2   2  393.98   13.90
  -2   2  -2  288.27   10.43
  -2   2  -2  284.44    9.91
  -2   2  -2  289.69   10.38
  -2   2  -2  290.01    9.92
  -2   2  -2  266.73   10.14
   2  -2   2  289.21    9.92
   2  -2   2  292.78    9.92
   2  -2   2  300.49   10.03
   2  -2   2  280.10    9.91
   2  -2   2  287.15   10.23
   2  -2   2  283.45    9.91
   2  -2   2  305.32   10.33
   2  -2   2  319.43   10.35
   2  -2   2  295.76    9.93
   2  -2   2  283.39   10.06
   2  -2   2  305.74   10.36
  -3   2  -2   78.57    2.73
  -3   2  -2   77.74    2.72
  -3   2  -2   70.72    3.53
  -3   2  -2   78.63    3.30
  -3   2  -2   77.11    2.79
  -3   2  -2   78.01    2.79
  -3   2  -2   81.40    2.73
   3  -2   2   80.48    3.22
   3  -2   2   84.96    3.24
   3  -2   2   80.89    2.78
   3  -2   2   74.37    2.72
   3  -2   2   79.69    2.79
   3  -2   2   78.13    2.80
   3  -2   2   78.18    2.94
  -4   2  -2   46.55    1.74
  -4   2  -2   39.23    2.51
  -4   2  -2   45.81    1.82
  -4   2  -2   47.04    1.77
  -4   2  -2   48.07    2.41
  -4   2  -2   49.46    1.78
   4  -2   2   48.57    1.82
   4  -2   2   47.73    2.25
   4  -2   2   47.52    2.26
   4  -2   2   51.27    1.83
   4  -2   2   49.32    1.81
   4  -2   2   49.51    1.82
   4  -2   2   47.65    2.27
   4  -2   2   49.52    1.99
  -5   2  -2   32.97    2.03
  -5   2  -2   31.55    1.30
  -5   2  -2   31.40    1.41
  -5   2  -2   32.25    1.31
  -5   2  -2   27.56    1.26
   5  -2   2   32.53    1.36
   5  -2   2   32.67    1.35
   5  -2   2   36.68    1.39
   5  -2   2   32.26    1.53
   5  -2   2   32.20    1.36
  -6   2  -2    3.10    1.22
  -6   2  -2    3.10    0.50
  -6   2  -2    6.02    0.58
  -6   2  -2    3.91    0.51
  -6   2  -2    4.70    1.11
  -6   2  -2    4.34    0.48
   6  -2   2    4.65    0.55
   6  -2   2    5.54    0.52
   6  -2   2    4.48    0.55
   6  -2   2    5.81    0.77
  -7   2  -2    2.14    1.36
  -7   2  -2    2.80    0.40
  -7   2  -2    2.63    1.11
   7  -2   2    2.20    0.41
   7  -2   2    3.05    0.61
   7  -2   2    2.59    0.46
  -8   2  -2    5.14    1.41
  -8   2  -2    1.31    1.72
   8  -2   2    5.63    0.65
   8  -2   2    5.40    0.79
   8  -2   2    4.24    0.61
   9   1  -2    3.17    0.57
   9   1  -2    2.43    0.57
  -9  -1   2    1.31    0.56
  -9  -1   2    2.77    0.71
  -9  -1   2    4.05    1.63
  -9  -1   2    3.11    1.26
   8   1  -2   20.30    1.12
   8   1  -2   18.63    1.06
   8   1  -2   19.91    1.17
  -8  -1   2   19.75    1.86
  -8  -1   2   19.11    1.78
  -8  -1   2   18.64    1.20
   7   1  -2    6.36    0.65
   7   1  -2    6.18    0.66
   7   1  -2    6.50    0.66
   7   1  -2    6.53    0.63
   7   1  -2    6.21    0.58
  -7  -1   2    4.20    0.86
  -7  -1   2    6.81    1.14
  -7  -1   2    6.53    0.75
  -7  -1   2    6.35    0.72
  -7  -1   2    6.05    0.72
   6   1  -2  160.10    5.70
   6   1  -2  167.86    5.69
   6   1  -2  153.61    5.73
   6   1  -2  156.09    5.62
   6   1  -2  155.99    5.73
   6   1  -2  160.00    5.68
  -6  -1   2  157.80    5.73
  -6  -1   2  150.77    6.22
  -6  -1   2  161.47    5.71
  -6  -1   2  158.07    5.73
  -6  -1   2  171.43    5.77
   5   1  -2   94.61    3.46
   5   1  -2   96.79    3.47
   5   1  -2   94.90    3.55
   5   1  -2   93.45    3.48
   5   1  -2   93.09    3.45
  -5  -1   2   95.92    3.52
  -5  -1   2   91.64    3.46
  -5  -1   2   93.26    3.49
  -5  -1   2   92.71    3.89
  -5  -1   2  100.95    3.55
  -5  -1   2  100.76    3.55
  -5  -1   2   97.17    3.50
   4   1  -2  253.65    8.64
   4   1  -2  238.31    8.62
   4   1  -2  243.98    8.74
   4   1  -2  243.02    8.64
   4   1  -2  271.21    8.89
   4   1  -2  253.83    8.64
  -4  -1   2  261.74    8.74
  -4  -1   2  239.49    8.65
  -4  -1   2  240.45    8.95
  -4  -1   2  245.10    8.67
  -4  -1   2  256.15    8.70
  -4  -1   2  248.11    8.63
  -4  -1   2  259.20    8.66
  -3  -1   2  866.78   29.96
  -3  -1   2  899.10   29.95
   2   1  -2  209.69    7.29
   2   1  -2  204.22    7.46
   2   1  -2  210.57    7.29
   2   1  -2  211.96    7.41
   2   1  -2  210.11    7.27
   2   1  -2  218.69    7.30
   2   1  -2  212.54    7.28
  -2  -1   2  216.26    7.45
  -2  -1   2  211.40    7.29
  -2  -1   2  219.32    7.30
  -2  -1   2  217.21    7.28
   0   1  -2  473.34   17.23
   0  -1   2  510.98   17.26
   0  -1   2  525.33   17.17
  -2   1  -2  127.77    4.44
  -2   1  -2  123.59    4.84
  -2   1  -2  130.64    4.73
  -2   1  -2  128.35    4.44
  -2   1  -2  131.96    4.46
  -2   1  -2  128.97    4.43
  -2   1  -2  113.86    4.52
   2  -1   2  132.61    4.46
   2  -1   2  135.61    4.71
   2  -1   2  127.78    4.45
   2  -1   2  136.83    4.46
   2  -1   2  128.16    4.52
  -3   1  -2  149.74    5.26
  -3   1  -2  151.80    5.27
  -3   1  -2  151.84    5.25
  -3   1  -2  150.60    5.27
  -3   1  -2  150.11    5.58
   3  -1   2  156.43    5.53
   3  -1   2  145.35    5.25
   3  -1   2  149.64    5.26
   3  -1   2  156.41    5.59
   3  -1   2  158.50    5.30
   3  -1   2  147.32    5.34
  -4   1  -2  112.18    4.04
  -4   1  -2  113.71    4.02
  -4   1  -2  111.43    4.02
  -4   1  -2  114.99    4.04
  -4   1  -2  109.86    4.40
   4  -1   2  117.52    4.41
   4  -1   2  108.20    4.03
   4  -1   2  121.80    4.36
   4  -1   2  113.52    4.02
   4  -1   2  112.27    4.11
   4  -1   2  110.98    4.03
   4  -1   2  116.44    4.05
  -5   1  -2   81.81    3.05
  -5   1  -2   77.31    3.08
  -5   1  -2   84.36    3.07
  -5   1  -2   80.90    3.09
  -5   1  -2   82.93    3.54
   5  -1   2   87.13    3.10
   5  -1   2   85.33    3.07
   5  -1   2   78.24    3.06
   5  -1   2   84.19    3.16
   5  -1   2   90.78    3.40
   5  -1   2   85.03    3.08
  -6   1  -2    6.61    1.15
  -6   1  -2    5.70    0.61
  -6   1  -2    5.25    0.64
  -6   1  -2    6.10    0.68
   6  -1   2    5.78    0.62
   6  -1   2    6.80    0.60
   6  -1   2    5.69    0.58
   6  -1   2    5.91    0.73
  -7   1  -2    8.05    0.95
  -7   1  -2   10.19    0.80
  -7   1  -2    8.54    0.80
  -7   1  -2    7.89    1.45
   7  -1   2    9.90    0.78
   7  -1   2    9.06    0.74
   7  -1   2    9.52    0.76
   7  -1   2    9.47    0.90
  -8   1  -2    6.81    1.41
  -8   1  -2    5.37    0.76
   8  -1   2    6.86    0.80
   8  -1   2    6.71    0.79
   8  -1   2    9.01    0.94
   9  -1   2    1.11    0.54
   9   0  -2    1.60    0.49
   9   0  -2    0.87    0.45
   9   0  -2    0.83    0.48
  -9   0   2    0.95    0.58
  -9   0   2    1.66    0.58
  -9   0   2    2.08    1.29
   8   0  -2   13.27    1.19
   8   0  -2   12.26    0.89
   8   0  -2   12.13    1.35
  -8   0   2   11.28    1.63
  -8   0   2   13.30    1.75
  -8   0   2   12.53    0.99
  -8   0   2   13.72    0.99
   7   0  -2    5.32    0.67
   7   0  -2    5.34    0.65
   7   0  -2    4.87    0.63
   7   0  -2    5.24    0.60
   7   0  -2    5.00    0.70
  -7   0   2    4.75    0.64
  -7   0   2    6.77    0.71
  -7   0   2    4.87    0.91
  -7   0   2    6.01    1.00
   6   0  -2    7.10    0.64
   6   0  -2    8.14    0.62
   6   0  -2    6.98    0.58
   6   0  -2    6.61    0.54
   6   0  -2    7.33    0.57
  -6   0   2    6.81    1.02
  -6   0   2    7.15    0.61
  -6   0   2    7.47    0.68
  -6   0   2    7.13    1.05
  -6   0   2    6.15    0.60
   5   0  -2   37.81    1.52
   5   0  -2   35.37    1.48
   5   0  -2   35.90    1.75
   5   0  -2   35.69    1.48
   5   0  -2   36.96    1.50
   5   0  -2   39.79    1.60
  -5   0   2   34.37    1.51
  -5   0   2   36.65    1.53
  -5   0   2   34.29    1.88
  -5   0   2   37.83    1.52
  -5   0   2   42.99    1.62
  -5   0   2   36.53    1.82
  -5   0   2   35.87    1.51
   4   0  -2    0.68    0.29
   4   0  -2    1.21    0.22
   4   0  -2    0.94    0.27
   4   0  -2    0.59    0.18
   4   0  -2    0.61    0.18
   4   0  -2    1.07    0.23
  -4   0   2    0.71    0.20
  -4   0   2    1.05    0.21
  -4   0   2    1.41    0.22
  -4   0   2    1.17    0.25
  -4   0   2    1.23    0.41
  -4   0   2    0.80    0.22
   3   0  -2   23.08    0.93
   3   0  -2   26.19    0.97
   3   0  -2   22.56    0.93
   3   0  -2   23.11    0.94
   3   0  -2   22.81    0.97
   3   0  -2   23.89    0.97
   3   0  -2   23.26    0.97
  -3   0   2   22.56    0.93
  -3   0   2   23.95    0.95
  -3   0   2   22.12    0.95
  -3   0   2   22.59    0.95
  -3   0   2   23.19    1.16
  -3   0   2   23.16    0.99
   2   0  -2   35.67    1.30
   2   0  -2   34.94    1.34
   2   0  -2   33.79    1.30
   2   0  -2   36.72    1.31
   2   0  -2   36.86    1.41
   2   0  -2   35.14    1.34
   2   0  -2   35.13    1.31
  -2   0   2   35.63    1.35
  -2   0   2   35.63    1.32
  -2   0   2   35.11    1.33
  -2   0   2   35.55    1.31
  -2   0   2   34.92    1.31
  -2   0   2   32.29    1.43
  -2   0   2   34.32    1.29
   1   0  -2   11.01    0.45
   1   0  -2   11.90    0.53
   1   0  -2   11.86    0.46
   1   0  -2   11.13    0.50
   1   0  -2   11.36    0.45
   1   0  -2   10.45    0.45
   1   0  -2   10.76    0.49
  -1   0   2   11.35    0.51
  -1   0   2   11.27    0.49
  -1   0   2   11.22    0.46
  -1   0   2   11.17    0.46
  -1   0   2   10.46    0.45
  -1   0   2   11.24    0.48
  -1   0   2   11.35    0.53
   0   0  -2  112.32    4.01
   0   0  -2  118.25    3.94
   0   0  -2  113.98    3.94
   0   0  -2  117.54    3.98
   0   0  -2  111.28    3.93
   0   0  -2  118.32    3.98
   0   0  -2  118.26    3.95
   0   0  -2  111.76    3.95
   0   0   2  114.06    3.98
   0   0   2  116.90    4.01
   0   0   2  115.76    3.95
   0   0   2  111.38    3.94
   0   0   2  118.06    3.95
   0   0   2  116.01    3.95
   0   0   2  114.36    3.95
   0   0   2  111.97    3.96
  -2   0  -2   67.37    2.58
  -2   0  -2   71.50    2.49
  -2   0  -2   70.27    2.49
  -2   0  -2   67.64    2.49
  -2   0  -2   70.92    2.51
   2   0   2   68.79    2.48
   2   0   2   73.20    2.74
   2   0   2   73.32    2.49
   2   0   2   73.63    2.58
   2   0   2   67.71    2.51
   2   0   2   67.37    2.48
  -3   0  -2  692.80   23.54
  -3   0  -2  680.60   23.55
  -3   0  -2  672.53   23.54
  -3   0  -2  675.69   23.69
   3   0   2  739.51   23.82
   3   0   2  684.80   23.54
   3   0   2  704.76   23.67
  -4   0  -2  106.51    3.70
  -4   0  -2  103.53    3.64
  -4   0  -2  104.51    3.73
  -4   0  -2  103.64    3.72
  -4   0  -2  100.64    3.90
  -4   0  -2  104.14    3.72
  -4   0  -2  102.40    3.70
   4   0   2  106.50    3.73
   4   0   2  102.63    3.73
   4   0   2  100.52    3.69
   4   0   2  101.66    3.71
   4   0   2  109.55    4.06
  -5   0  -2  113.92    4.56
  -5   0  -2  120.04    4.32
  -5   0  -2  112.34    4.29
  -5   0  -2  117.72    4.32
  -5   0  -2  121.16    4.19
  -5   0  -2  131.88    4.33
  -5   0  -2  117.07    4.33
   5   0   2  122.81    4.33
   5   0   2  122.64    4.73
   5   0   2  119.41    4.31
   5   0   2  117.87    4.29
   5   0   2  122.37    4.34
  -6   0  -2  127.60    5.11
  -6   0  -2  155.48    5.10
  -6   0  -2  136.05    5.04
  -6   0  -2  136.41    5.35
  -6   0  -2  138.66    5.06
   6   0   2  144.09    5.05
   6   0   2  138.05    5.02
   6   0   2  138.32    5.01
   6   0   2  140.06    5.05
  -7   0  -2   -0.33    0.35
  -7   0  -2    0.56    0.37
  -7   0  -2    0.55    0.73
   7   0   2    0.12    0.37
   7   0   2    0.12    0.33
   7   0   2    0.76    0.38
   7   0   2    0.26    0.38
  -8   0  -2   15.85    1.12
  -8   0  -2   15.82    1.79
  -8   0  -2   16.72    1.16
   8   0   2   16.67    1.15
   8   0   2   19.41    1.11
   8   0   2   18.34    1.08
  -9   0  -2    4.41    1.44
  -9   0  -2    4.10    0.75
   9   0   2    3.47    0.66
   9   0   2    3.63    0.73
   9   0   2    4.69    0.68
   9  -1  -2    2.15    0.61
   9  -1  -2    3.13    0.56
   9  -1  -2    1.91    0.57
  -9   1   2    4.25    1.58
  -9   1   2    2.47    0.58
   8  -1  -2   20.17    1.13
   8  -1  -2   19.46    1.14
   8  -1  -2   19.35    1.27
  -8   1   2   18.95    1.15
  -8   1   2   19.41    1.16
  -8   1   2   17.65    2.00
   7  -1  -2    5.94    0.95
   7  -1  -2    6.63    0.65
   7  -1  -2    5.32    0.62
   7  -1  -2    5.81    0.68
  -7   1   2    5.59    0.68
  -7   1   2    5.32    0.63
  -7   1   2    2.26    1.41
   6  -1  -2  157.80    5.78
   6  -1  -2  158.02    5.56
   6  -1  -2  155.11    5.53
   6  -1  -2  159.85    5.56
  -6   1   2  151.24    6.07
  -6   1   2  146.46    6.11
  -6   1   2  150.92    5.57
  -6   1   2  164.20    5.85
   5  -1  -2   97.04    3.44
   5  -1  -2   98.06    3.44
   5  -1  -2   90.65    3.41
   5  -1  -2   96.24    3.74
   5  -1  -2   93.88    3.42
   5  -1  -2   91.08    3.40
   5  -1  -2   97.82    3.64
  -5   1   2  100.08    3.67
  -5   1   2   91.40    3.42
  -5   1   2   92.19    3.42
  -5   1   2   91.10    3.40
  -5   1   2   95.63    3.88
  -5   1   2   89.60    3.86
   4  -1  -2  262.99    8.91
   4  -1  -2  241.84    8.66
   4  -1  -2  245.14    8.65
   4  -1  -2  239.77    8.63
   4  -1  -2  253.23    8.65
   4  -1  -2  245.58    8.64
   4  -1  -2  267.24    8.86
  -4   1   2  254.10    9.01
  -4   1   2  242.98    8.63
  -4   1   2  259.35    8.86
  -4   1   2  250.80    8.65
  -4   1   2  245.26    8.66
  -4   1   2  246.40    8.64
  -4   1   2  254.12    9.01
   3  -1  -2  944.48   30.57
   3  -1  -2  945.64   30.55
  -3   1   2  890.02   30.58
  -3   1   2  866.02   30.65
  -3   1   2  864.75   30.61
  -3   1   2  863.83   30.51
   2  -1  -2  245.39    7.70
   2  -1  -2  229.77    7.56
   2  -1  -2  190.07    8.01
   2  -1  -2  229.19    7.57
   2  -1  -2  217.37    7.56
   2  -1  -2  206.00    7.57
  -2   1   2  220.04    7.68
  -2   1   2  224.08    7.56
  -2   1   2  222.91    7.57
  -2   1   2  218.58    7.57
  -2   1   2  223.33    7.79
  -2   1   2  233.35    7.76
  -2   1   2  228.22    7.61
  -2   1   2  212.39    7.67
  -2   1   2  213.32    7.71
   0   1   2  522.67   17.86
  -2  -1  -2  142.94    5.01
  -2  -1  -2  147.34    4.97
  -2  -1  -2  141.47    5.12
  -2  -1  -2  148.40    5.00
  -2  -1  -2  141.55    5.00
  -2  -1  -2  140.73    5.00
   2   1   2  141.87    4.99
   2   1   2  153.52    5.13
   2   1   2  141.04    4.99
   2   1   2  148.88    5.01
   2   1   2  140.19    5.15
   2   1   2  143.14    5.00
   2   1   2  146.77    5.00
  -3  -1  -2  144.40    5.02
  -3  -1  -2  141.00    5.22
  -3  -1  -2  152.78    5.08
  -3  -1  -2  141.35    4.98
  -3  -1  -2  142.08    5.03
  -3  -1  -2  140.96    5.02
  -3  -1  -2  140.41    5.00
  -3  -1  -2  147.28    5.10
   3   1   2  144.96    5.02
   3   1   2  140.23    5.01
   3   1   2  144.19    5.01
   3   1   2  140.71    4.98
   3   1   2  144.01    5.21
   3   1   2  143.25    5.21
   3   1   2  145.46    5.01
  -4  -1  -2  108.34    3.92
  -4  -1  -2  108.65    3.91
  -4  -1  -2  105.20    3.96
  -4  -1  -2  105.76    3.93
  -4  -1  -2  110.69    3.96
  -4  -1  -2  109.10    4.21
  -4  -1  -2  113.84    3.90
   4   1   2  108.97    3.90
   4   1   2  107.45    3.89
   4   1   2  109.56    3.89
   4   1   2  108.81    4.15
   4   1   2  108.67    4.15
   4   1   2  111.94    3.91
   4   1   2  107.33    3.86
  -5  -1  -2   83.39    3.10
  -5  -1  -2   81.61    3.47
  -5  -1  -2   85.09    3.10
  -5  -1  -2   79.48    3.07
  -5  -1  -2   80.95    3.17
  -5  -1  -2   85.70    3.10
   5   1   2   82.70    3.05
   5   1   2   76.87    3.05
   5   1   2   82.06    3.06
   5   1   2   81.70    3.36
   5   1   2   84.88    3.02
   5   1   2   83.93    3.06
  -6  -1  -2    5.71    0.63
  -6  -1  -2    5.39    0.56
  -6  -1  -2    5.33    0.82
  -6  -1  -2    5.66    0.55
  -6  -1  -2    5.38    0.65
   6   1   2    5.21    0.56
   6   1   2    5.05    0.59
   6   1   2    5.50    0.59
  -7  -1  -2    8.96    0.83
  -7  -1  -2    9.53    1.10
  -7  -1  -2    9.26    0.90
   7   1   2    9.73    0.76
   7   1   2    8.95    0.73
   7   1   2    8.06    0.76
  -8  -1  -2    6.77    1.12
  -8  -1  -2    7.01    0.89
  -8  -1  -2    6.57    0.90
   8   1   2    7.90    0.88
   8   1   2    7.13    0.80
   8   1   2    7.31    1.19
   8   1   2    6.64    0.79
   9   1   2    0.68    0.57
   8  -2  -2    2.84    0.48
   8  -2  -2    2.03    0.49
   8  -2  -2    2.60    0.66
  -8   2   2   -0.70    1.53
  -8   2   2    2.96    0.79
  -8   2   2    4.54    1.52
   7  -2  -2    2.57    0.44
   7  -2  -2    2.71    0.62
   7  -2  -2    2.96    0.43
  -7   2   2    2.66    0.46
  -7   2   2    2.22    1.03
   6  -2  -2    5.05    0.52
   6  -2  -2    4.88    0.52
   6  -2  -2    6.40    0.80
   6  -2  -2    5.34    0.56
  -6   2   2    4.28    0.51
  -6   2   2    5.72    0.54
  -6   2   2    5.30    0.53
   5  -2  -2    7.83    0.88
   5  -2  -2    6.13    0.88
   5  -2  -2    6.68    0.54
   5  -2  -2    7.48    0.55
   5  -2  -2    7.49    0.53
   5  -2  -2    6.98    0.54
   5  -2  -2    7.82    0.56
  -5   2   2    7.15    0.51
  -5   2   2    5.50    0.97
  -5   2   2    7.74    1.13
  -5   2   2    6.05    0.50
  -5   2   2    7.81    0.52
   4  -2  -2  130.65    4.48
   4  -2  -2  128.23    4.46
   4  -2  -2  136.51    4.79
   4  -2  -2  129.25    4.80
   4  -2  -2  129.07    4.47
   4  -2  -2  131.65    4.49
   4  -2  -2  121.62    4.51
   4  -2  -2  125.58    4.47
  -4   2   2  131.39    4.95
  -4   2   2  123.91    4.87
  -4   2   2  130.69    4.47
  -4   2   2  122.80    4.50
  -4   2   2  118.74    4.97
  -4   2   2  129.36    4.43
  -4   2   2  111.24    4.63
   3  -2  -2   24.65    1.01
   3  -2  -2   26.58    1.14
   3  -2  -2   26.28    1.03
   3  -2  -2   25.73    1.03
   3  -2  -2   26.26    1.32
   3  -2  -2   28.11    1.27
   3  -2  -2   25.56    1.04
  -3   2   2   24.28    0.97
  -3   2   2   24.71    1.37
  -3   2   2   24.84    1.02
  -3   2   2   27.27    1.01
  -3   2   2   24.11    1.45
  -3   2   2   26.38    1.17
  -3   2   2   24.02    1.02
  -3   2   2   27.69    1.32
   2  -2  -2  269.29    9.81
   2  -2  -2  274.50    9.56
   2  -2  -2  276.03    9.40
   2  -2  -2  292.41    9.70
   2  -2  -2  270.09    9.41
   2  -2  -2  269.95    9.42
   2  -2  -2  273.67    9.52
   2  -2  -2  288.75    9.57
   2  -2  -2  279.94    9.56
   2  -2  -2  249.41    9.52
   2  -2  -2  290.07    9.73
  -2   2   2  272.89    9.75
  -2   2   2  266.51    9.41
  -2   2   2  276.65    9.57
  -2   2   2  288.48    9.55
  -2   2   2  271.09    9.41
  -2   2   2  277.42    9.80
   1  -2  -2  387.84   13.32
   1  -2  -2  390.15   13.34
   1  -2  -2  396.94   13.72
   1  -2  -2  397.59   13.41
   1  -2  -2  395.31   13.53
   1  -2  -2  370.89   13.33
   1  -2  -2  380.25   13.66
   1  -2  -2  390.99   13.55
   1  -2  -2  386.97   13.44
   1  -2  -2  419.74   13.61
  -1   2   2  376.36   13.33
  -1   2   2  404.97   13.46
  -1   2   2  405.83   13.64
  -1   2   2  399.30   13.65
  -1   2   2  385.10   13.33
   0  -2  -2  123.02    4.41
   0  -2  -2  123.64    4.33
   0  -2  -2  122.19    4.18
   0  -2  -2  119.30    4.47
   0  -2  -2  124.66    4.40
   0  -2  -2  122.29    4.40
   0  -2  -2  118.11    4.17
   0  -2  -2  121.14    4.19
   0  -2  -2  120.31    4.30
   0  -2  -2  127.09    4.33
   0  -2  -2  121.75    4.19
   0  -2  -2  119.10    4.19
   0   2   2  122.00    4.18
   0   2   2  119.26    4.46
   0   2   2  118.51    4.48
   0   2   2  119.28    4.19
   0   2   2  124.40    4.39
  -1  -2  -2  388.85   13.21
  -1  -2  -2  398.53   13.44
  -1  -2  -2  394.25   13.20
  -1  -2  -2  386.79   13.23
  -1  -2  -2  400.03   13.24
  -1  -2  -2  385.83   13.20
  -1  -2  -2  384.89   13.46
  -1  -2  -2  377.54   13.24
  -1  -2  -2  381.79   13.21
  -1  -2  -2  376.11   13.31
   1   2   2  401.25   13.47
   1   2   2  383.20   13.22
   1   2   2  392.67   13.27
   1   2   2  367.37   13.48
   1   2   2  399.47   13.16
   1   2   2  389.63   13.17
   1   2   2  383.77   13.20
   1   2   2  394.15   13.20
  -2  -2  -2  307.81   10.42
  -2  -2  -2  285.56   10.19
  -2  -2  -2  308.24   10.44
  -2  -2  -2  305.18   10.19
  -2  -2  -2  299.14   10.20
  -2  -2  -2  295.86   10.19
  -2  -2  -2  305.42   10.13
  -2  -2  -2  305.37   10.31
   2   2   2  287.34   10.42
   2   2   2  290.48   10.49
   2   2   2  297.54   10.19
   2   2   2  284.71   10.28
  -3  -2  -2   75.40    2.74
  -3  -2  -2   75.21    2.75
  -3  -2  -2   75.34    3.11
  -3  -2  -2   76.48    2.76
  -3  -2  -2   71.86    2.63
  -3  -2  -2   76.32    2.94
  -3  -2  -2   74.87    2.75
   3   2   2   73.72    2.74
   3   2   2   73.76    3.08
   3   2   2   74.98    2.74
   3   2   2   83.75    2.75
   3   2   2   77.77    2.91
   3   2   2   75.68    2.74
   3   2   2   73.46    2.72
  -4  -2  -2   49.30    2.06
  -4  -2  -2   47.39    1.89
  -4  -2  -2   45.53    2.12
  -4  -2  -2   49.76    1.89
  -4  -2  -2   49.98    1.91
  -4  -2  -2   48.90    1.88
   4   2   2   48.60    1.87
   4   2   2   46.84    2.25
   4   2   2   48.03    1.88
   4   2   2   48.03    1.85
   4   2   2   46.77    1.88
   4   2   2   50.62    2.08
  -5  -2  -2   33.21    1.54
  -5  -2  -2   32.89    1.44
  -5  -2  -2   30.43    1.74
  -5  -2  -2   33.30    1.44
  -5  -2  -2   33.23    1.42
   5   2   2   33.50    1.65
   5   2   2   31.31    1.38
   5   2   2   27.72    1.40
   5   2   2   32.25    1.42
   5   2   2   32.04    1.42
   5   2   2   33.48    1.84
  -6  -2  -2    5.11    0.66
  -6  -2  -2    5.85    0.76
  -6  -2  -2    6.12    1.08
  -6  -2  -2    5.70    0.62
  -6  -2  -2    5.43    0.79
  -6  -2  -2    5.29    0.68
   6   2   2    6.27    0.65
   6   2   2    5.73    1.02
   6   2   2    3.88    0.60
   6   2   2    6.56    0.63
  -7  -2  -2    2.82    0.53
  -7  -2  -2    1.99    0.51
  -7  -2  -2    2.54    0.64
  -7  -2  -2    3.49    0.96
   7   2   2    2.24    0.46
   7   2   2    3.56    0.91
   7   2   2    3.22    0.52
   7   2   2    1.45    0.42
  -8  -2  -2    5.55    0.77
  -8  -2  -2    5.05    0.69
   8   2   2    5.30    0.64
   8   2   2    4.73    1.23
   8  -3  -2    2.02    0.84
   8  -3  -2    2.19    0.55
   8  -3  -2    1.84    0.54
  -8   3   2    5.37    2.02
  -8   3   2    1.44    1.78
   7  -3  -2    6.72    1.15
   7  -3  -2    7.79    0.73
   7  -3  -2    8.55    0.74
   7  -3  -2    9.17    0.82
  -7   3   2   12.60    2.04
  -7   3   2    7.32    1.64
   6  -3  -2    2.84    0.41
   6  -3  -2    4.09    0.56
   6  -3  -2    3.32    0.68
   6  -3  -2    3.84    0.49
  -6   3   2    5.00    1.01
  -6   3   2    4.15    1.16
  -6   3   2    4.13    0.62
   5  -3  -2    6.13    0.53
   5  -3  -2    5.56    0.54
   5  -3  -2    6.01    0.54
   5  -3  -2    6.62    0.60
   5  -3  -2    5.43    0.62
   5  -3  -2    4.90    0.52
  -5   3   2    5.38    0.63
  -5   3   2    6.32    1.17
  -5   3   2    6.57    0.50
   4  -3  -2    2.06    0.48
   4  -3  -2    2.82    0.46
   4  -3  -2    2.95    0.37
   4  -3  -2    3.35    0.38
   4  -3  -2    3.42    0.38
   4  -3  -2    3.51    0.51
   4  -3  -2    2.91    0.38
  -4   3   2    4.07    0.73
  -4   3   2    3.17    0.44
  -4   3   2    4.40    0.83
  -4   3   2    3.51    0.34
  -4   3   2    3.19    0.88
   3  -3  -2   36.40    1.40
   3  -3  -2   37.54    1.39
   3  -3  -2   34.94    1.81
   3  -3  -2   35.58    1.39
   3  -3  -2   37.08    1.68
   3  -3  -2   35.76    1.41
   3  -3  -2   35.10    1.58
  -3   3   2   34.81    2.04
  -3   3   2   36.05    1.37
  -3   3   2   38.91    1.73
  -3   3   2   37.23    1.55
  -3   3   2   36.35    1.94
  -3   3   2   36.85    1.54
   2  -3  -2   39.68    1.48
   2  -3  -2   39.96    1.68
   2  -3  -2   39.11    1.73
   2  -3  -2   40.02    1.47
   2  -3  -2   37.25    1.89
   2  -3  -2   40.50    1.86
   2  -3  -2   40.35    1.45
   2  -3  -2   42.38    1.65
   2  -3  -2   40.29    1.77
   2  -3  -2   37.21    1.55
   2  -3  -2   35.05    1.96
  -2   3   2   44.49    1.65
  -2   3   2   40.94    2.08
  -2   3   2   38.63    1.45
  -2   3   2   38.36    1.97
  -2   3   2   41.14    1.76
   1  -3  -2  207.71    7.61
   1  -3  -2  209.27    7.30
   1  -3  -2  214.24    7.30
   1  -3  -2  221.35    7.30
   1  -3  -2  218.80    7.66
   1  -3  -2  208.79    7.81
   1  -3  -2  215.49    7.49
   1  -3  -2  209.35    7.40
   1  -3  -2  221.16    7.72
   1  -3  -2  204.28    7.29
   1  -3  -2  221.73    7.66
  -1   3   2  218.68    7.79
  -1   3   2  206.93    7.28
  -1   3   2  212.46    7.28
  -1   3   2  214.50    7.80
  -1   3   2  212.94    7.82
   0  -3  -2   21.52    1.17
   0  -3  -2   22.05    0.86
   0  -3  -2   21.40    1.09
   0  -3  -2   21.32    1.17
   0  -3  -2   22.07    0.89
   0  -3  -2   21.52    1.05
   0  -3  -2   21.02    0.89
   0  -3  -2   21.83    1.30
   0  -3  -2   21.95    1.13
   0  -3  -2   21.19    0.85
   0  -3  -2   20.62    1.20
   0  -3  -2   21.43    0.86
   0   3   2   21.68    0.89
   0   3   2   20.62    1.28
   0   3   2   21.70    1.32
   0   3   2   21.92    0.81
   0   3   2   23.95    1.26
  -1  -3  -2  246.94    8.57
  -1  -3  -2  250.17    8.93
  -1  -3  -2  244.77    8.98
  -1  -3  -2  261.01    8.66
  -1  -3  -2  251.65    8.58
  -1  -3  -2  252.85    8.63
  -1  -3  -2  259.77    8.79
  -1  -3  -2  248.82    8.74
  -1  -3  -2  248.43    9.00
  -1  -3  -2  248.90    8.57
  -1  -3  -2  248.32    8.59
   1   3   2  247.69    8.56
   1   3   2  250.75    8.58
   1   3   2  242.42    9.04
   1   3   2  253.03    8.99
  -2  -3  -2  100.05    3.47
  -2  -3  -2   94.42    3.85
  -2  -3  -2  100.12    3.47
  -2  -3  -2   99.88    3.48
  -2  -3  -2   98.30    3.48
  -2  -3  -2  101.05    3.59
  -2  -3  -2   98.16    3.67
  -2  -3  -2   94.13    3.81
  -2  -3  -2   95.38    3.53
   2   3   2   97.78    3.83
   2   3   2   98.33    3.48
   2   3   2   95.66    3.46
   2   3   2   97.72    3.97
  -3  -3  -2   93.71    3.55
  -3  -3  -2   92.41    3.36
  -3  -3  -2   91.98    3.34
  -3  -3  -2   93.03    3.35
  -3  -3  -2   93.86    3.37
  -3  -3  -2   94.53    3.54
   3   3   2   94.01    3.89
   3   3   2   94.07    3.35
   3   3   2   89.77    3.53
   3   3   2   91.49    3.67
   3   3   2   91.70    3.32
  -4  -3  -2   62.51    2.46
  -4  -3  -2   63.59    2.47
  -4  -3  -2   62.42    2.69
  -4  -3  -2   63.93    2.45
   4   3   2   69.68    2.79
   4   3   2   69.52    2.71
   4   3   2   60.76    3.00
   4   3   2   60.72    2.42
   4   3   2   65.78    2.36
   4   3   2   64.56    2.43
  -5  -3  -2   14.93    1.25
  -5  -3  -2   13.05    1.16
  -5  -3  -2   15.44    0.86
  -5  -3  -2   12.36    0.86
   5   3   2   15.22    1.15
   5   3   2   13.40    0.81
   5   3   2   12.81    0.73
   5   3   2   14.29    1.44
   5   3   2   14.19    1.19
   5   3   2   14.90    0.84
  -6  -3  -2    7.03    1.27
  -6  -3  -2    6.68    0.78
  -6  -3  -2    9.10    0.84
   6   3   2    9.13    1.40
   6   3   2   10.95    1.07
   6   3   2    8.42    0.76
  -7  -3  -2    5.92    0.77
  -7  -3  -2    5.60    1.28
  -7  -3  -2    6.90    0.89
   7   3   2    8.80    1.31
   7   3   2    5.75    0.70
   7   3   2    6.27    1.29
   7  -4  -2    3.18    0.57
   7  -4  -2    4.13    0.60
   7  -4  -2    3.43    1.09
  -7   4   2    4.76    2.44
   6  -4  -2    2.77    0.54
   6  -4  -2    1.54    0.38
   6  -4  -2    2.04    0.46
   6  -4  -2    1.89    0.75
  -6   4   2    2.07    1.42
  -6   4   2    2.48    0.96
   5  -4  -2   21.52    1.06
   5  -4  -2   22.46    1.19
   5  -4  -2   22.20    1.48
   5  -4  -2   20.63    0.99
  -5   4   2   19.79    2.10
  -5   4   2   22.84    1.59
   4  -4  -2   29.01    1.69
   4  -4  -2   23.40    1.33
   4  -4  -2   26.62    1.54
   4  -4  -2   26.48    1.14
   4  -4  -2   26.82    1.35
   4  -4  -2   28.20    1.13
   4  -4  -2   27.18    1.14
   4  -4  -2   24.77    1.15
  -4   4   2   24.81    1.92
  -4   4   2   26.29    1.08
  -4   4   2   27.23    1.41
  -4   4   2   28.26    1.61
  -4   4   2   25.97    2.14
   3  -4  -2    2.15    0.23
   3  -4  -2    2.01    0.26
   3  -4  -2    1.45    0.50
   3  -4  -2    2.19    0.49
   3  -4  -2    1.58    0.27
   3  -4  -2    2.27    0.55
   3  -4  -2    2.28    0.48
   3  -4  -2    2.04    0.28
  -3   4   2    2.28    0.54
  -3   4   2    1.59    0.21
  -3   4   2    3.32    0.99
  -3   4   2    2.04    0.76
   2  -4  -2   99.24    4.28
   2  -4  -2  104.82    3.92
   2  -4  -2  105.65    3.92
   2  -4  -2  105.12    3.68
   2  -4  -2  102.88    3.88
   2  -4  -2  104.16    3.68
  -2   4   2  109.06    4.51
  -2   4   2  106.74    4.45
   1  -4  -2   19.71    1.34
   1  -4  -2   21.28    1.15
   1  -4  -2   20.90    1.01
   1  -4  -2   21.55    1.36
   1  -4  -2   21.86    0.88
   1  -4  -2   20.28    0.86
  -1   4   2   20.64    1.55
  -1   4   2   20.65    1.56
   0  -4  -2   20.99    0.76
   0  -4  -2   21.10    1.13
   0  -4  -2   19.82    0.83
   0  -4  -2   17.66    1.15
   0  -4  -2   19.66    1.10
   0  -4  -2   17.96    0.90
   0  -4  -2   19.68    1.37
   0   4   2   20.86    1.56
   0   4   2   20.12    1.40
   0   4   2   19.89    1.47
  -1  -4  -2   31.54    1.56
  -1  -4  -2   34.32    1.26
  -1  -4  -2   32.84    1.29
  -1  -4  -2   31.52    1.29
  -1  -4  -2   30.99    1.91
  -1  -4  -2   34.59    1.62
  -1  -4  -2   33.69    1.45
  -1  -4  -2   32.79    1.28
   1   4   2   32.62    1.99
   1   4   2   34.72    1.89
   1   4   2   33.06    1.24
  -2  -4  -2    0.91    0.26
  -2  -4  -2    1.21    0.27
  -2  -4  -2    1.02    0.71
  -2  -4  -2    0.85    0.25
  -2  -4  -2    0.80    0.24
  -2  -4  -2    0.78    0.41
  -2  -4  -2    0.72    0.35
   2   4   2    0.76    0.21
   2   4   2    2.19    0.61
   2   4   2    1.18    0.69
  -3  -4  -2   11.25    0.68
  -3  -4  -2   11.19    0.70
  -3  -4  -2   12.01    1.00
  -3  -4  -2    9.68    0.88
  -3  -4  -2   11.83    0.73
  -3  -4  -2   11.50    0.67
   3   4   2   13.21    1.19
   3   4   2   10.84    0.81
   3   4   2   10.36    0.65
   3   4   2   11.89    1.44
  -4  -4  -2    1.52    0.54
  -4  -4  -2    1.43    0.41
  -4  -4  -2    2.42    0.63
  -4  -4  -2    2.05    0.37
   4   4   2    1.64    0.66
   4   4   2    3.97    1.08
  -5  -4  -2    5.71    0.71
  -5  -4  -2    6.12    0.90
  -5  -4  -2    5.38    0.89
  -5  -4  -2    7.00    0.95
   5   4   2    5.20    1.22
  -6  -4  -2    4.42    0.61
  -6  -4  -2    4.26    0.82
  -6  -4  -2    3.80    0.66
   6   4   2    3.97    1.40
   5  -5  -2    1.87    0.29
   5  -5  -2    2.23    0.82
  -5   5   2    4.00    1.82
   4  -5  -2    3.59    0.83
   4  -5  -2    2.83    0.78
  -4   5   2    2.89    1.33
   3  -5  -2   18.05    1.33
   3  -5  -2   15.80    1.26
  -3   5   2   20.07    1.92
  -3   5   2   16.14    2.02
   2  -5  -2    3.06    0.62
   2  -5  -2    2.99    0.53
  -2   5   2    3.02    0.98
  -2   5   2    2.50    1.10
   1  -5  -2    5.76    0.96
   1  -5  -2    7.48    0.94
   1  -5  -2    6.60    0.50
  -1   5   2    7.49    1.30
  -1   5   2    7.99    1.26
   0  -5  -2   10.11    0.81
   0  -5  -2    9.46    0.60
   0  -5  -2    8.68    0.98
   0   5   2   11.08    1.55
   0   5   2   10.34    1.41
  -1  -5  -2    4.04    0.69
  -1  -5  -2    3.59    0.56
  -1  -5  -2    3.76    0.50
   1   5   2    5.52    1.18
   1   5   2    3.42    0.95
  -2  -5  -2    3.59    0.45
  -2  -5  -2    3.88    0.42
  -2  -5  -2    4.09    0.75
  -2  -5  -2    2.71    0.35
   2   5   2    5.17    1.17
   2   5   2    4.00    0.97
  -3  -5  -2    2.00    0.71
  -3  -5  -2    1.21    0.36
  -3  -5  -2    1.98    0.48
   3   5   2    1.69    1.19
   3   5   2    1.19    0.84
  -4  -5  -2    5.46    0.94
  -4  -5  -2    4.57    0.90
  -4  -5  -2    4.75    0.57
   4   5   2    5.77    1.43
   4   5   2    4.63    1.04
   5   5  -3    3.18    1.56
  -5  -5   3    2.05    0.61
  -5  -5   3    2.31    0.51
  -5  -5   3    2.72    1.06
   4   5  -3    4.99    1.39
   4   5  -3    4.91    1.09
  -4  -5   3    4.53    0.66
  -4  -5   3    3.30    0.91
  -4  -5   3    3.85    0.55
   3   5  -3   20.38    2.00
   3   5  -3   20.20    1.68
  -3  -5   3   17.17    1.00
  -3  -5   3   18.91    1.55
  -3  -5   3   17.57    1.38
   2   5  -3    2.70    0.86
   2   5  -3    3.45    1.05
  -2  -5   3    3.05    0.66
  -2  -5   3    3.63    0.74
   1   5  -3   27.16    2.01
   1   5  -3   24.63    1.74
  -1  -5   3   23.11    1.58
  -1  -5   3   22.86    1.45
  -1  -5   3   23.48    1.13
   0   5  -3   12.05    1.56
   0   5  -3   12.84    1.33
   0  -5   3   11.43    1.20
   0  -5   3   11.29    0.98
   0  -5   3   12.02    0.87
   1  -5   3    7.37    0.88
   1  -5   3    8.49    1.12
   1  -5   3    8.69    0.82
  -2   5  -3    7.33    1.22
   2  -5   3    6.52    0.91
   2  -5   3    6.53    0.98
   2  -5   3    6.60    0.71
  -3   5  -3    3.91    1.09
  -3   5  -3    2.11    1.24
   3  -5   3    1.96    0.63
   3  -5   3    1.10    0.77
  -4   5  -3    3.14    1.41
  -4   5  -3    3.72    1.65
   4  -5   3    2.42    0.92
   4  -5   3    1.83    0.70
   7   4  -3    1.09    1.81
  -7  -4   3    0.76    1.05
  -7  -4   3    2.07    0.67
  -7  -4   3    2.28    0.74
   6   4  -3    7.32    1.59
   6   4  -3    8.19    1.32
  -6  -4   3    8.70    0.96
  -6  -4   3    9.40    0.84
  -6  -4   3    8.47    1.48
   5   4  -3    1.91    0.92
   5   4  -3    0.50    0.65
  -5  -4   3    0.53    0.64
  -5  -4   3   -0.01    0.31
   4   4  -3   31.13    1.88
   4   4  -3   30.84    1.43
   4   4  -3   30.69    2.20
  -4  -4   3   30.30    1.38
  -4  -4   3   26.26    1.82
  -4  -4   3   31.76    1.39
  -4  -4   3   31.29    1.82
  -4  -4   3   29.09    1.29
  -4  -4   3   30.30    1.29
   3   4  -3    6.69    1.00
   3   4  -3    5.20    0.38
   3   4  -3    7.06    1.46
   3   4  -3    5.39    0.70
  -3  -4   3    5.37    1.04
  -3  -4   3    5.72    0.48
  -3  -4   3    5.03    0.69
  -3  -4   3    6.12    0.44
  -3  -4   3    6.33    0.90
  -3  -4   3    5.67    0.53
   2   4  -3   59.20    3.66
   2   4  -3   66.01    2.75
   2   4  -3   73.39    3.23
  -2  -4   3   67.59    2.39
  -2  -4   3   66.10    2.73
  -2  -4   3   61.64    3.29
  -2  -4   3   68.35    2.83
  -2  -4   3   69.84    2.44
  -2  -4   3   66.59    2.35
   1   4  -3   27.95    1.60
   1   4  -3   28.72    1.74
  -1  -4   3   26.72    1.44
  -1  -4   3   24.60    1.00
  -1  -4   3   27.74    1.14
  -1  -4   3   25.48    0.96
  -1  -4   3   22.39    1.47
  -1  -4   3   25.17    1.28
   0   4  -3   37.36    2.03
   0   4  -3   35.41    2.05
   0   4  -3   36.35    1.87
   0  -4   3   35.46    1.54
   0  -4   3   36.91    1.88
   0  -4   3   35.25    1.56
  -1   4  -3   44.07    2.36
  -1   4  -3   43.27    2.08
   1  -4   3   42.16    2.03
   1  -4   3   44.82    1.84
   1  -4   3   44.06    1.77
  -2   4  -3   10.66    1.73
  -2   4  -3   12.93    1.01
   2  -4   3   12.84    0.90
   2  -4   3   12.43    0.56
   2  -4   3   11.17    1.02
   2  -4   3   13.36    1.10
   2  -4   3   12.69    0.72
   2  -4   3   12.56    0.56
  -3   4  -3   30.17    2.22
  -3   4  -3   33.54    2.33
   3  -4   3   31.77    1.25
   3  -4   3   32.08    1.72
   3  -4   3   27.88    1.61
   3  -4   3   29.14    1.29
   3  -4   3   30.89    1.22
  -4   4  -3    1.88    1.03
  -4   4  -3    3.96    1.05
   4  -4   3    1.42    0.28
   4  -4   3    1.70    0.25
   4  -4   3    1.36    0.52
   4  -4   3    1.39    0.29
  -5   4  -3   11.89    1.85
  -5   4  -3   11.46    2.11
   5  -4   3    9.88    0.66
   5  -4   3   10.09    1.13
   5  -4   3    9.96    0.75
  -6   4  -3    7.20    1.85
  -6   4  -3    5.92    1.86
   6  -4   3    5.43    0.64
   6  -4   3    5.06    0.89
   6  -4   3    6.02    0.67
   8   3  -3    0.85    0.54
   8   3  -3   -0.53    1.45
  -8  -3   3   -0.70    0.54
  -8  -3   3   -0.44    1.07
  -8  -3   3    1.40    0.67
   7   3  -3   12.75    0.92
   7   3  -3    9.98    1.73
   7   3  -3   13.01    1.29
  -7  -3   3   11.90    1.66
  -7  -3   3   13.03    1.01
  -7  -3   3   14.12    1.10
   6   3  -3    7.67    1.48
   6   3  -3    9.84    0.72
   6   3  -3    9.17    1.09
   6   3  -3    8.97    0.63
  -6  -3   3    9.41    0.79
  -6  -3   3    9.85    0.86
  -6  -3   3   11.17    1.35
   5   3  -3    8.61    1.03
   5   3  -3    8.75    0.60
   5   3  -3    7.50    0.50
   5   3  -3   10.95    1.93
   5   3  -3    7.79    0.57
  -5  -3   3    8.32    0.69
  -5  -3   3    8.69    0.63
  -5  -3   3    9.83    0.75
  -5  -3   3    8.94    1.08
   4   3  -3   20.46    1.34
   4   3  -3   21.95    0.90
   4   3  -3   19.01    0.85
   4   3  -3   21.45    1.65
   4   3  -3   21.66    1.35
   4   3  -3   21.09    0.98
   4   3  -3   20.75    0.94
  -4  -3   3   23.76    1.04
  -4  -3   3   20.82    0.94
  -4  -3   3   20.82    0.99
  -4  -3   3   21.57    1.34
  -4  -3   3   21.74    0.97
   3   3  -3  168.90    6.00
   3   3  -3  163.68    6.26
   3   3  -3  158.94    5.60
   3   3  -3  161.50    6.02
   3   3  -3  162.51    5.72
  -3  -3   3  167.50    5.65
  -3  -3   3  162.02    5.62
  -3  -3   3  161.25    5.60
  -3  -3   3  144.17    6.41
  -3  -3   3  160.73    5.63
  -3  -3   3  162.04    5.96
   2   3  -3   14.72    0.87
   2   3  -3   16.09    1.15
   2   3  -3   13.49    1.03
   2   3  -3   13.96    0.60
   2   3  -3   15.60    0.93
   2   3  -3   13.95    0.60
  -2  -3   3   15.64    0.97
  -2  -3   3   12.51    1.15
  -2  -3   3   12.29    1.09
  -2  -3   3   15.10    0.91
  -2  -3   3   13.73    0.62
  -2  -3   3   14.08    0.95
  -2  -3   3   14.05    0.85
  -2  -3   3   14.97    0.67
  -2  -3   3   14.71    0.69
  -2  -3   3   11.78    0.69
  -2  -3   3   14.16    0.62
   1   3  -3  139.48    5.28
   1   3  -3  148.38    5.45
   1   3  -3  149.65    5.40
  -1  -3   3  146.83    5.05
  -1  -3   3  142.91    5.32
  -1  -3   3  142.88    5.31
  -1  -3   3  139.32    4.98
  -1  -3   3  152.37    5.39
  -1  -3   3  143.42    4.96
  -1  -3   3  152.29    5.77
  -1  -3   3  137.89    4.96
  -1  -3   3  137.87    5.50
  -1  -3   3  151.40    5.31
  -1  -3   3  147.93    4.97
   0   3  -3  226.45    7.77
   0   3  -3  210.21    7.67
   0   3  -3  210.73    7.85
   0  -3   3  217.82    7.65
   0  -3   3  213.98    7.88
   0  -3   3  215.57    7.62
   0  -3   3  217.16    7.74
   0  -3   3  215.37    7.65
   0  -3   3  209.99    7.43
   0  -3   3  217.58    7.46
   0  -3   3  203.05    7.86
  -1   3  -3   15.89    1.19
  -1   3  -3   14.81    1.23
  -1   3  -3   15.77    0.96
   1  -3   3   15.08    1.23
   1  -3   3   15.80    0.84
   1  -3   3   16.80    0.75
   1  -3   3   15.15    0.97
   1  -3   3   15.10    0.87
   1  -3   3   17.19    1.00
   1  -3   3   14.75    1.12
   1  -3   3   15.10    1.12
  -2   3  -3   39.71    2.17
  -2   3  -3   41.99    1.80
  -2   3  -3   39.80    2.23
   2  -3   3   40.39    1.55
   2  -3   3   42.25    1.52
   2  -3   3   40.44    2.07
   2  -3   3   42.90    1.75
   2  -3   3   43.15    1.79
   2  -3   3   38.72    2.07
   2  -3   3   44.18    1.50
   2  -3   3   40.84    1.89
   2  -3   3   42.39    1.52
   2  -3   3   40.58    2.36
   2  -3   3   42.84    1.50
  -3   3  -3   48.36    1.83
  -3   3  -3   49.36    2.63
  -3   3  -3   51.68    2.72
  -3   3  -3   52.79    2.04
   3  -3   3   51.41    1.85
   3  -3   3   49.33    1.97
   3  -3   3   50.79    1.85
   3  -3   3   47.98    1.89
   3  -3   3   51.72    2.09
   3  -3   3   51.90    1.87
   3  -3   3   47.59    2.27
  -4   3  -3    6.63    1.58
  -4   3  -3    5.24    1.13
  -4   3  -3    4.04    0.38
   4  -3   3    4.99    0.72
   4  -3   3    3.79    0.43
   4  -3   3    4.02    0.95
   4  -3   3    4.66    0.44
   4  -3   3    3.94    0.53
   4  -3   3    4.35    0.41
  -5   3  -3   -0.12    0.29
  -5   3  -3    0.52    0.90
  -5   3  -3    0.81    1.63
   5  -3   3    0.05    0.24
   5  -3   3   -0.05    0.27
   5  -3   3   -0.10    0.38
   5  -3   3   -0.04    0.23
  -6   3  -3    8.85    1.52
  -6   3  -3    3.84    1.46
   6  -3   3    6.16    0.62
   6  -3   3    8.14    0.99
   6  -3   3    6.07    0.68
  -7   3  -3    1.32    1.46
  -7   3  -3    0.92    1.61
   7  -3   3    1.31    0.46
   7  -3   3    0.95    0.40
   7  -3   3    1.18    0.66
   9   2  -3    3.18    0.59
  -9  -2   3    4.06    1.57
  -9  -2   3    3.25    0.71
   8   2  -3   14.25    1.95
   8   2  -3   16.39    1.01
   8   2  -3   15.98    1.26
  -8  -2   3   14.86    1.88
  -8  -2   3   13.95    1.74
  -8  -2   3   14.97    1.21
  -8  -2   3   16.57    1.14
   7   2  -3   10.27    0.63
   7   2  -3   11.39    0.85
   7   2  -3   10.04    1.47
   7   2  -3   11.05    1.01
   7   2  -3   10.33    0.80
  -7  -2   3   10.81    1.59
  -7  -2   3   10.70    0.91
  -7  -2   3   10.37    0.91
   6   2  -3  104.87    3.82
   6   2  -3  115.16    3.95
   6   2  -3  109.15    3.97
   6   2  -3  106.81    4.18
   6   2  -3  110.41    4.01
  -6  -2   3  105.51    4.54
  -6  -2   3  106.18    4.04
  -6  -2   3  106.35    4.04
  -6  -2   3  110.77    4.01
   5   2  -3   34.30    1.34
   5   2  -3   37.11    1.74
   5   2  -3   29.31    2.03
   5   2  -3   36.85    1.49
   5   2  -3   37.12    1.46
   5   2  -3   35.10    1.51
  -5  -2   3   41.59    1.67
  -5  -2   3   37.78    1.57
  -5  -2   3   36.18    1.68
  -5  -2   3   37.58    1.54
  -5  -2   3   36.91    1.92
  -5  -2   3   37.18    1.56
   4   2  -3  195.89    7.86
   4   2  -3  204.62    7.58
   4   2  -3  210.43    7.62
   4   2  -3  212.09    7.35
   4   2  -3  209.88    7.33
   4   2  -3  212.95    7.36
   4   2  -3  212.44    7.32
  -4  -2   3  218.44    7.39
  -4  -2   3  208.47    7.44
  -4  -2   3  231.26    7.61
  -4  -2   3  208.21    7.34
  -4  -2   3  213.46    7.39
  -4  -2   3  213.90    7.72
  -4  -2   3  212.48    7.39
   3   2  -3  104.94    3.80
   3   2  -3  108.14    3.78
   3   2  -3  107.23    3.78
   3   2  -3  104.57    4.05
   3   2  -3  109.74    4.26
   3   2  -3  111.68    4.07
  -3  -2   3  107.77    4.18
  -3  -2   3  107.74    3.80
  -3  -2   3  106.39    3.83
  -3  -2   3  114.89    4.04
  -3  -2   3  105.52    4.07
  -3  -2   3  109.80    3.84
  -3  -2   3  106.94    3.81
   2   2  -3  530.39   18.43
   2   2  -3  518.95   18.68
   2   2  -3  526.59   18.43
   2   2  -3  572.33   18.80
   2   2  -3  578.99   18.70
  -2  -2   3  535.88   18.43
  -2  -2   3  537.93   18.48
  -2  -2   3  524.53   18.43
  -2  -2   3  543.06   18.44
  -2  -2   3  537.25   18.66
  -2  -2   3  538.95   18.44
  -2  -2   3  555.54   18.57
  -2  -2   3  557.54   18.83
  -2  -2   3  542.23   18.65
   1   2  -3  122.32    4.44
   1   2  -3  118.32    4.56
   1   2  -3  116.76    4.42
   1   2  -3  118.57    4.21
   1   2  -3  115.07    4.16
   1   2  -3  117.06    4.16
   1   2  -3  122.06    4.40
  -1  -2   3  123.03    4.56
  -1  -2   3  120.56    4.56
  -1  -2   3  120.34    4.35
  -1  -2   3  132.51    4.37
  -1  -2   3  123.40    4.41
  -1  -2   3  119.40    4.15
  -1  -2   3  117.81    4.17
  -1  -2   3  120.26    4.17
  -1  -2   3  129.00    4.40
  -1  -2   3  123.83    4.21
   0   2  -3  390.07   13.16
   0   2  -3  378.40   13.45
   0   2  -3  375.94   13.28
   0   2  -3  376.38   13.30
   0   2  -3  369.52   13.03
   0   2  -3  379.07   13.04
   0  -2   3  390.39   13.46
   0  -2   3  370.02   13.05
   0  -2   3  389.21   13.14
   0  -2   3  390.58   13.47
   0  -2   3  407.78   13.28
   0  -2   3  388.77   13.29
   0  -2   3  400.02   13.35
   0  -2   3  384.39   13.24
  -1   2  -3  420.19   14.42
  -1   2  -3  412.40   14.22
  -1   2  -3  409.85   14.36
  -1   2  -3  423.36   14.66
  -1   2  -3  415.91   14.69
  -1   2  -3  408.88   14.20
   1  -2   3  436.60   14.59
   1  -2   3  432.24   14.22
   1  -2   3  412.00   14.22
   1  -2   3  432.15   14.63
   1  -2   3  414.77   14.23
   1  -2   3  403.83   14.33
   1  -2   3  403.57   14.41
   1  -2   3  436.76   14.67
   1  -2   3  429.55   14.39
   1  -2   3  415.63   14.20
  -2   2  -3  347.81   12.63
  -2   2  -3  347.99   12.17
  -2   2  -3  351.89   12.04
  -2   2  -3  345.69   12.04
  -2   2  -3  362.34   12.53
   2  -2   3  372.38   12.48
   2  -2   3  361.74   12.48
   2  -2   3  352.90   12.03
   2  -2   3  359.97   12.05
   2  -2   3  354.17   12.05
   2  -2   3  353.85   12.18
   2  -2   3  346.14   12.04
   2  -2   3  368.97   12.51
   2  -2   3  356.37   12.31
   2  -2   3  325.04   12.25
  -3   2  -3  218.68    7.84
  -3   2  -3  213.46    8.61
  -3   2  -3  231.51    7.94
  -3   2  -3  226.52    7.86
  -3   2  -3  233.46    7.92
  -3   2  -3  226.35    7.91
  -3   2  -3  233.33    8.45
   3  -2   3  243.74    8.41
   3  -2   3  232.11    7.90
   3  -2   3  235.15    7.93
   3  -2   3  229.89    8.06
   3  -2   3  230.63    8.36
   3  -2   3  234.76    7.92
   3  -2   3  229.17    7.91
  -4   2  -3   45.48    2.33
  -4   2  -3   36.50    2.46
  -4   2  -3   42.24    1.67
  -4   2  -3   43.28    1.69
   4  -2   3   54.32    2.81
   4  -2   3   44.69    1.74
   4  -2   3   45.65    1.73
   4  -2   3   48.27    2.44
   4  -2   3   44.12    1.88
   4  -2   3   44.13    1.72
   4  -2   3   46.87    1.72
  -5   2  -3  101.21    4.31
  -5   2  -3   95.58    3.56
  -5   2  -3   95.41    3.96
  -5   2  -3   96.88    3.58
   5  -2   3  100.69    3.64
   5  -2   3   99.97    3.62
   5  -2   3  101.28    3.61
   5  -2   3  104.66    3.86
  -6   2  -3    5.35    0.56
  -6   2  -3    3.75    0.49
  -6   2  -3    2.66    1.10
  -6   2  -3    3.81    1.04
  -6   2  -3    4.06    0.52
   6  -2   3    3.75    0.53
   6  -2   3    3.43    0.71
   6  -2   3    5.13    0.78
   6  -2   3    5.24    0.56
  -7   2  -3    8.66    1.76
  -7   2  -3    8.57    0.74
  -7   2  -3    8.32    1.43
   7  -2   3   10.68    0.96
   7  -2   3    9.78    0.82
   7  -2   3    9.65    0.99
  -8   2  -3    2.09    1.31
  -8   2  -3   -0.69    1.58
   8  -2   3    1.52    0.53
   8  -2   3    1.47    0.51
   8  -2   3    2.46    0.71
   9   1  -3    3.23    0.57
   9   1  -3    3.97    0.65
  -9  -1   3    5.00    1.36
  -9  -1   3    2.87    1.28
  -9  -1   3    4.28    0.62
   8   1  -3    2.18    0.49
   8   1  -3    2.60    0.46
   8   1  -3    2.83    0.50
   8   1  -3    2.68    0.55
  -8  -1   3    1.88    0.51
  -8  -1   3    2.65    0.53
  -8  -1   3    1.04    0.78
   7   1  -3   13.27    0.84
   7   1  -3   14.40    0.89
   7   1  -3   14.54    0.82
   7   1  -3   14.58    0.94
   7   1  -3   14.38    0.89
  -7  -1   3   16.59    1.57
  -7  -1   3   14.51    0.93
  -7  -1   3   14.67    1.00
  -7  -1   3   14.86    0.99
   6   1  -3   12.39    0.76
   6   1  -3   13.77    0.85
   6   1  -3   12.88    0.80
   6   1  -3   10.44    0.82
   6   1  -3   13.24    0.69
  -6  -1   3   12.12    0.85
  -6  -1   3   12.94    0.81
  -6  -1   3   12.74    0.86
  -6  -1   3   11.80    1.26
   5   1  -3   11.86    0.70
   5   1  -3   12.85    0.93
   5   1  -3   12.93    0.82
   5   1  -3   11.93    0.70
   5   1  -3   12.24    0.74
   5   1  -3   13.14    0.69
   5   1  -3   13.93    0.83
   5   1  -3   12.64    0.61
  -5  -1   3   14.71    0.81
  -5  -1   3   12.83    0.75
  -5  -1   3   14.33    0.80
  -5  -1   3   11.87    0.70
  -5  -1   3   12.91    1.06
  -5  -1   3   12.03    0.76
  -5  -1   3   11.68    0.75
   4   1  -3   29.62    1.25
   4   1  -3   31.84    1.24
   4   1  -3   30.76    1.23
   4   1  -3   28.98    1.22
   4   1  -3   30.27    1.35
  -4  -1   3   28.94    1.26
  -4  -1   3   30.77    1.25
  -4  -1   3   29.61    1.22
  -4  -1   3   28.09    1.51
  -4  -1   3   32.55    1.31
  -4  -1   3   34.14    1.37
  -4  -1   3   28.89    1.27
   3   1  -3   21.74    0.90
   3   1  -3   23.56    1.05
   3   1  -3   22.41    0.96
   3   1  -3   22.06    0.90
   3   1  -3   21.64    0.91
   3   1  -3   22.36    1.06
   3   1  -3   21.51    0.91
  -3  -1   3   20.89    0.89
  -3  -1   3   20.84    1.11
  -3  -1   3   23.68    0.96
  -3  -1   3   20.93    0.93
  -3  -1   3   22.40    0.94
  -3  -1   3   21.27    0.91
  -3  -1   3   23.40    1.02
   2   1  -3   42.59    1.71
   2   1  -3   43.41    1.71
   2   1  -3   42.42    1.57
   2   1  -3   43.08    1.56
   2   1  -3   42.04    1.55
   2   1  -3   42.21    1.57
   2   1  -3   44.11    1.62
  -2  -1   3   42.39    1.58
  -2  -1   3   42.43    1.62
  -2  -1   3   41.43    1.73
  -2  -1   3   42.86    1.56
  -2  -1   3   43.76    1.77
  -2  -1   3   44.74    1.62
  -2  -1   3   42.56    1.57
  -2  -1   3   42.45    1.58
   1   1  -3  128.58    4.39
   1   1  -3  139.25    4.45
   1   1  -3  130.55    4.55
   1   1  -3  134.27    4.52
   1   1  -3  130.99    4.54
   1   1  -3  120.33    4.40
   1   1  -3  124.42    4.38
   1   1  -3  121.84    4.62
  -1  -1   3  131.43    4.41
  -1  -1   3  123.28    4.54
  -1  -1   3  132.92    4.43
  -1  -1   3  120.43    4.40
  -1  -1   3  121.80    4.43
  -1  -1   3  126.19    4.38
  -1  -1   3  127.11    4.40
  -1  -1   3  129.57    4.61
  -1  -1   3  127.74    4.54
   0   1  -3   96.64    3.22
   0   1  -3   88.21    3.13
   0   1  -3   89.17    3.16
   0   1  -3   86.35    3.20
   0   1  -3   88.69    3.16
   0   1  -3   92.51    3.13
   0   1  -3   82.72    3.54
   0   1  -3   96.82    3.31
   0  -1   3   90.33    3.14
   0  -1   3  102.18    3.29
   0  -1   3   91.95    3.21
   0  -1   3   90.75    3.15
   0  -1   3   85.05    3.41
   0  -1   3   94.25    3.39
   0  -1   3   88.01    3.19
   0  -1   3   98.16    3.16
   0  -1   3   83.94    3.21
   0  -1   3   95.56    3.42
   0  -1   3   93.23    3.16
  -1   1  -3  135.38    4.71
  -1   1  -3  135.44    4.69
  -1   1  -3  134.45    4.61
  -1   1  -3  133.90    4.59
  -1   1  -3  139.61    4.89
  -1   1  -3  131.91    4.60
  -1   1  -3  127.31    4.93
   1  -1   3  132.97    4.60
   1  -1   3  136.99    4.88
   1  -1   3  133.21    4.61
   1  -1   3  137.07    4.89
   1  -1   3  130.74    4.67
   1  -1   3  132.35    4.61
   1  -1   3  134.98    4.61
  -2   1  -3  314.57   10.85
  -2   1  -3  304.86   10.54
  -2   1  -3  321.53   10.59
  -2   1  -3  306.56   10.64
  -2   1  -3  304.45   10.56
  -2   1  -3  307.80   10.53
  -2   1  -3  302.81   11.00
  -2   1  -3  307.06   10.55
   2  -1   3  310.68   10.56
   2  -1   3  315.85   10.83
   2  -1   3  306.76   10.62
   2  -1   3  305.26   10.54
   2  -1   3  316.72   10.56
   2  -1   3  303.37   10.55
  -3   1  -3   44.70    1.66
  -3   1  -3   43.87    1.64
  -3   1  -3   44.16    1.98
  -3   1  -3   44.11    1.66
  -3   1  -3   44.70    1.59
  -3   1  -3   37.76    2.08
  -3   1  -3   38.83    1.74
  -3   1  -3   43.83    1.65
   3  -1   3   44.85    1.64
   3  -1   3   45.42    1.75
   3  -1   3   46.63    1.67
   3  -1   3   45.93    1.67
   3  -1   3   43.72    1.65
   3  -1   3   47.56    1.96
  -4   1  -3   86.20    3.07
  -4   1  -3   83.29    3.48
  -4   1  -3   83.94    3.09
  -4   1  -3   85.42    3.10
  -4   1  -3   83.68    3.10
   4  -1   3   84.26    3.48
   4  -1   3   86.21    3.09
   4  -1   3   83.98    3.07
   4  -1   3   86.22    3.38
   4  -1   3   85.42    3.09
   4  -1   3   89.76    3.12
   4  -1   3   84.76    3.18
  -5   1  -3   57.91    2.79
  -5   1  -3   60.26    2.33
  -5   1  -3   62.02    2.36
   5  -1   3   62.79    2.35
   5  -1   3   61.59    2.64
   5  -1   3   64.46    2.39
   5  -1   3   62.49    2.36
   5  -1   3   62.39    2.46
  -6   1  -3    6.46    1.02
  -6   1  -3    4.52    0.60
  -6   1  -3    6.06    0.65
  -6   1  -3    5.63    0.66
   6  -1   3    5.96    0.63
   6  -1   3    5.72    0.74
   6  -1   3    6.55    0.64
   6  -1   3    7.01    0.62
  -7   1  -3   10.70    0.86
  -7   1  -3    9.19    1.30
   7  -1   3   10.63    0.96
   7  -1   3   10.44    0.84
   7  -1   3   10.62    0.82
  -8   1  -3    7.08    0.84
  -8   1  -3    4.75    1.29
   8  -1   3    5.51    0.78
   8  -1   3    8.69    0.91
   8  -1   3    5.92    0.78
   9   0  -3   -0.01    0.41
   9   0  -3   -0.03    0.44
   9   0  -3    0.36    0.48
  -9   0   3    0.20    1.04
  -9   0   3    0.38    0.44
  -9   0   3   -0.40    0.50
  -9   0   3    1.97    1.31
   8   0  -3    1.21    0.39
   8   0  -3    1.77    0.61
  -8   0   3    2.18    0.50
  -8   0   3    0.87    0.94
  -8   0   3    1.50    0.46
  -8   0   3    0.68    0.87
   7   0  -3    7.68    0.71
   7   0  -3    8.41    0.61
   7   0  -3    8.28    0.72
   7   0  -3    8.41    0.73
  -7   0   3    8.50    0.76
  -7   0   3    7.92    1.21
  -7   0   3    8.73    1.37
  -7   0   3    7.80    0.73
   6   0  -3   76.51    2.83
   6   0  -3   79.92    2.88
   6   0  -3   75.88    2.81
   6   0  -3   74.16    2.77
   6   0  -3   72.29    2.79
  -6   0   3   76.00    2.83
  -6   0   3   70.67    3.01
  -6   0   3   70.85    3.22
  -6   0   3   76.55    2.85
  -6   0   3   67.45    3.32
  -6   0   3   75.19    2.86
   5   0  -3  135.08    4.70
   5   0  -3  126.92    4.67
   5   0  -3  133.72    4.70
   5   0  -3  139.10    4.75
   5   0  -3  127.43    4.68
   5   0  -3  128.89    4.68
  -5   0   3  132.96    4.71
  -5   0   3  130.44    4.72
  -5   0   3  137.73    4.74
  -5   0   3  123.61    5.11
  -5   0   3  127.68    4.68
  -5   0   3  137.15    4.82
   4   0  -3  790.95   26.83
   4   0  -3  822.78   26.86
   4   0  -3  754.42   26.87
   4   0  -3  779.41   26.84
   4   0  -3  827.73   27.05
   4   0  -3  816.49   26.84
  -4   0   3  777.85   26.92
  -4   0   3  774.94   26.82
  -4   0   3  792.58   26.86
  -4   0   3  795.54   26.84
  -4   0   3  784.96   26.85
  -4   0   3  756.01   27.17
   3   0  -3    1.77    0.28
   3   0  -3    1.40    0.23
   3   0  -3    1.03    0.20
   3   0  -3    1.02    0.21
   3   0  -3    1.85    0.26
   3   0  -3    1.11    0.25
   3   0  -3    1.33    0.29
  -3   0   3    1.51    0.27
  -3   0   3    1.07    0.19
  -3   0   3    1.56    0.29
  -3   0   3    1.16    0.31
  -2   0  -3   28.90    1.15
  -2   0  -3   33.97    1.29
  -2   0  -3   26.76    1.20
  -2   0  -3   30.30    1.15
  -2   0  -3   28.62    1.17
  -2   0  -3   29.19    1.21
   2   0   3   30.59    1.18
   2   0   3   29.81    1.15
   2   0   3   30.35    1.24
   2   0   3   30.06    1.14
   2   0   3   29.14    1.15
   2   0   3   30.97    1.15
  -3   0  -3  288.24   10.04
  -3   0  -3  297.14   10.04
  -3   0  -3  289.64   10.19
  -3   0  -3  280.80   10.04
  -3   0  -3  291.72   10.08
   3   0   3  321.35   10.35
   3   0   3  277.11   10.02
   3   0   3  287.54   10.06
   3   0   3  301.61   10.06
   3   0   3  289.42   10.03
  -4   0  -3    3.90    0.42
  -4   0  -3    3.92    0.43
  -4   0  -3    4.02    0.33
  -4   0  -3    3.61    0.66
  -4   0  -3    3.81    0.39
   4   0   3    3.87    0.45
   4   0   3    5.34    0.69
   4   0   3    4.41    0.43
   4   0   3    4.16    0.39
   4   0   3    3.60    0.40
   4   0   3    5.15    0.55
   4   0   3    4.45    0.38
  -5   0  -3   45.75    1.72
  -5   0  -3   43.62    1.85
  -5   0  -3   42.30    1.83
  -5   0  -3   47.00    1.86
  -5   0  -3   45.46    2.10
  -5   0  -3   51.31    1.84
  -5   0  -3   45.03    1.85
   5   0   3   45.65    1.91
   5   0   3   45.94    1.87
   5   0   3   45.23    1.82
   5   0   3   45.25    1.83
   5   0   3   47.69    2.32
  -6   0  -3   16.32    0.96
  -6   0  -3   18.46    0.91
  -6   0  -3   15.40    0.93
  -6   0  -3   14.91    1.26
   6   0   3   17.35    0.94
   6   0   3   15.02    0.90
   6   0   3   16.07    0.93
   6   0   3   14.86    0.97
  -7   0  -3    8.50    0.76
  -7   0  -3    8.12    0.78
  -7   0  -3    7.48    1.27
  -7   0  -3    8.52    0.91
   7   0   3    8.71    0.83
   7   0   3    7.65    0.75
   7   0   3    7.70    0.80
   7   0   3    6.24    0.72
  -8   0  -3   -0.51    0.48
  -8   0  -3    1.23    0.98
  -8   0  -3   -0.06    0.45
   8   0   3    0.54    0.41
   8   0   3    0.20    0.44
   8   0   3    0.45    0.40
   9  -1  -3    3.05    0.63
   9  -1  -3    3.03    0.66
   9  -1  -3    2.53    0.52
  -9   1   3    3.65    0.63
  -9   1   3    4.11    1.61
   8  -1  -3    2.81    0.63
   8  -1  -3    2.64    0.49
   8  -1  -3    2.12    0.45
  -8   1   3    3.42    1.14
  -8   1   3    2.45    0.49
  -8   1   3    2.43    0.46
   7  -1  -3   12.46    0.86
   7  -1  -3   16.84    1.60
   7  -1  -3   14.28    0.86
   7  -1  -3   14.29    0.92
  -7   1   3   14.01    0.90
  -7   1   3   13.48    1.59
  -7   1   3   13.69    0.91
  -7   1   3   14.68    1.48
   6  -1  -3   13.22    0.80
   6  -1  -3   13.03    0.83
   6  -1  -3   12.56    1.09
   6  -1  -3   15.53    0.86
  -6   1   3   13.92    0.85
  -6   1   3   13.42    0.84
  -6   1   3   14.99    1.37
  -6   1   3   11.95    1.29
   5  -1  -3   13.45    0.75
   5  -1  -3   13.28    0.84
   5  -1  -3   12.21    0.72
   5  -1  -3   12.46    0.70
   5  -1  -3   12.70    0.63
   5  -1  -3   13.03    0.93
  -5   1   3   14.46    0.93
  -5   1   3   12.22    0.73
  -5   1   3   12.33    1.18
  -5   1   3   12.45    0.76
  -5   1   3   13.51    0.69
  -5   1   3   11.94    0.70
  -5   1   3   13.39    1.13
   4  -1  -3   28.35    1.43
   4  -1  -3   29.13    1.20
   4  -1  -3   27.52    1.13
   4  -1  -3   25.67    1.12
   4  -1  -3   28.31    1.33
   4  -1  -3   26.53    1.14
   4  -1  -3   26.08    1.14
  -4   1   3   26.00    1.36
  -4   1   3   27.61    1.50
  -4   1   3   32.73    1.39
  -4   1   3   26.37    1.14
  -4   1   3   27.33    1.16
  -4   1   3   26.87    1.13
  -4   1   3   27.59    1.45
  -4   1   3   27.55    1.15
   3  -1  -3   24.58    1.00
   3  -1  -3   24.03    1.06
   3  -1  -3   24.26    0.99
   3  -1  -3   25.35    1.14
   3  -1  -3   25.08    1.13
   3  -1  -3   24.21    0.98
   3  -1  -3   23.19    0.98
  -3   1   3   25.18    1.28
  -3   1   3   24.55    1.15
  -3   1   3   24.95    1.01
  -3   1   3   24.74    1.23
  -3   1   3   23.86    0.99
  -3   1   3   24.04    0.99
  -3   1   3   24.88    1.19
  -3   1   3   23.20    0.99
   2  -1  -3   49.36    1.81
   2  -1  -3   51.27    1.95
   2  -1  -3   52.00    1.82
   2  -1  -3   54.10    1.91
   2  -1  -3   48.99    1.81
   2  -1  -3   47.29    1.89
  -2   1   3   44.14    1.85
  -2   1   3   48.82    1.81
  -2   1   3   49.03    1.81
  -2   1   3   51.17    2.00
  -2   1   3   48.94    1.94
  -2   1   3   51.15    1.84
  -2   1   3   52.70    1.97
   1  -1  -3  116.01    4.10
   1  -1  -3  119.63    4.09
   1  -1  -3  119.94    4.28
   1  -1  -3  116.85    4.16
   1  -1  -3  121.15    4.21
   1  -1  -3  122.47    4.21
   1  -1  -3  116.98    4.08
   1  -1  -3  120.62    4.10
  -1   1   3  122.09    4.09
  -1   1   3  109.84    4.28
  -1   1   3  116.37    4.10
  -1   1   3  117.35    4.08
  -1   1   3  116.90    4.11
  -1   1   3  115.43    4.10
  -1   1   3  119.04    4.17
   0  -1  -3   98.10    3.39
   0  -1  -3   94.17    3.37
   0  -1  -3   93.39    3.45
   0  -1  -3   96.27    3.39
   0  -1  -3   98.30    3.52
   0  -1  -3  104.10    3.47
   0   1   3  104.10    3.38
   0   1   3   93.44    3.51
   0   1   3   98.43    3.52
   0   1   3   95.42    3.38
   0   1   3   96.30    3.43
   0   1   3   95.61    3.39
   0   1   3   97.96    3.60
   0   1   3   95.37    3.38
  -1  -1  -3  143.63    4.89
  -1  -1  -3  146.31    4.87
  -1  -1  -3  137.27    4.91
  -1  -1  -3  139.14    4.88
  -1  -1  -3  143.88    4.88
  -1  -1  -3  142.25    4.87
  -1  -1  -3  146.31    4.99
   1   1   3  128.03    4.91
   1   1   3  145.18    4.87
   1   1   3  138.73    4.87
   1   1   3  141.16    4.97
   1   1   3  132.70    5.12
   1   1   3  142.05    4.87
   1   1   3  144.94    4.91
  -2  -1  -3  298.79   10.30
  -2  -1  -3  303.12   10.28
  -2  -1  -3  298.77   10.27
  -2  -1  -3  302.33   10.26
  -2  -1  -3  297.36   10.26
  -2  -1  -3  307.09   10.25
   2   1   3  294.15   10.41
   2   1   3  288.16   10.26
   2   1   3  300.37   10.27
   2   1   3  297.51   10.26
   2   1   3  307.13   10.40
   2   1   3  302.45   10.29
  -3  -1  -3   47.42    1.77
  -3  -1  -3   47.49    1.79
  -3  -1  -3   47.02    1.77
  -3  -1  -3   44.86    1.79
  -3  -1  -3   45.97    1.80
  -3  -1  -3   50.22    1.81
  -3  -1  -3   48.37    1.89
   3   1   3   48.43    1.80
   3   1   3   49.41    2.02
   3   1   3   46.88    1.96
   3   1   3   47.55    1.78
   3   1   3   47.97    1.81
   3   1   3   45.80    1.78
  -4  -1  -3   85.35    3.13
  -4  -1  -3   83.31    3.08
  -4  -1  -3   84.20    3.06
  -4  -1  -3   80.62    3.08
  -4  -1  -3   80.75    3.06
  -4  -1  -3   85.80    3.08
  -4  -1  -3   82.09    3.03
   4   1   3   86.12    3.07
   4   1   3   83.96    3.06
   4   1   3   83.71    3.06
   4   1   3   82.25    3.05
   4   1   3   83.57    3.33
   4   1   3   83.47    3.28
   4   1   3   85.12    3.05
  -5  -1  -3   58.14    2.29
  -5  -1  -3   60.39    2.32
  -5  -1  -3   56.73    2.37
  -5  -1  -3   58.54    2.30
  -5  -1  -3   61.28    2.32
   5   1   3   58.59    2.28
   5   1   3   57.30    2.27
   5   1   3   59.08    2.56
   5   1   3   60.42    2.30
   5   1   3   58.46    2.63
   5   1   3   58.79    2.26
  -6  -1  -3    5.75    0.70
  -6  -1  -3    5.57    0.56
  -6  -1  -3    6.68    0.86
  -6  -1  -3    6.12    0.68
  -6  -1  -3    5.13    0.60
   6   1   3    5.59    0.93
   6   1   3    5.95    0.63
   6   1   3    5.12    0.61
   6   1   3    6.08    0.62
  -7  -1  -3    8.72    0.84
  -7  -1  -3    9.18    0.88
  -7  -1  -3    8.02    1.27
   7   1   3   10.04    1.19
   7   1   3   10.02    0.84
   7   1   3    9.77    0.79
   7   1   3    9.61    0.77
  -8  -1  -3    6.70    0.76
  -8  -1  -3    5.72    0.74
   8   1   3    6.84    1.16
   8   1   3    7.38    0.91
   8   1   3    6.37    0.85
   8   1   3    5.75    0.84
   9  -2  -3    2.61    0.65
   9  -2  -3    2.95    0.72
  -9   2   3    4.26    2.03
   8  -2  -3   16.47    1.35
   8  -2  -3   17.01    1.11
   8  -2  -3   17.75    1.07
  -8   2   3   17.12    2.32
  -8   2   3   13.65    1.47
   7  -2  -3    9.25    0.82
   7  -2  -3    8.29    0.73
   7  -2  -3    8.38    0.72
  -7   2   3   11.81    1.69
  -7   2   3    8.20    0.82
  -7   2   3    9.11    0.73
   6  -2  -3  106.19    3.81
   6  -2  -3  106.56    3.78
   6  -2  -3  105.25    3.80
   6  -2  -3   99.80    4.22
  -6   2   3  100.12    3.80
  -6   2   3  112.43    3.78
  -6   2   3  102.60    3.79
  -6   2   3   87.46    5.03
   5  -2  -3   32.89    1.44
   5  -2  -3   33.98    1.70
   5  -2  -3   34.05    1.41
   5  -2  -3   33.46    1.41
   5  -2  -3   32.69    1.40
   5  -2  -3   34.02    1.40
  -5   2   3   31.18    1.40
  -5   2   3   36.69    2.08
  -5   2   3   32.76    1.94
  -5   2   3   36.55    1.44
   4  -2  -3  195.22    7.12
   4  -2  -3  204.80    7.14
   4  -2  -3  203.84    7.15
   4  -2  -3  212.58    7.46
   4  -2  -3  220.16    7.40
   4  -2  -3  201.33    7.13
   4  -2  -3  201.76    7.22
  -4   2   3  200.81    7.66
  -4   2   3  199.56    7.14
  -4   2   3  220.93    7.48
  -4   2   3  191.86    7.14
  -4   2   3  199.22    7.53
  -4   2   3  213.62    7.14
  -4   2   3  212.16    7.10
   3  -2  -3  111.40    3.88
   3  -2  -3  108.23    3.69
   3  -2  -3  105.42    3.71
   3  -2  -3  105.36    3.70
   3  -2  -3  102.99    3.81
   3  -2  -3  100.78    3.68
   3  -2  -3  107.43    3.99
  -3   2   3   96.37    4.10
  -3   2   3  105.07    4.06
  -3   2   3  100.99    3.86
  -3   2   3  109.68    3.83
  -3   2   3  105.09    3.70
  -3   2   3  104.25    3.67
  -3   2   3  101.67    3.70
   2  -2  -3  502.07   17.51
   2  -2  -3  557.22   17.62
   2  -2  -3  500.58   17.51
   2  -2  -3  505.51   17.91
   2  -2  -3  542.77   17.80
   2  -2  -3  506.68   17.51
   2  -2  -3  504.21   17.57
   2  -2  -3  496.70   17.63
   2  -2  -3  514.64   17.53
  -2   2   3  519.26   17.46
  -2   2   3  506.66   17.87
  -2   2   3  527.55   17.47
  -2   2   3  513.28   17.56
  -2   2   3  497.46   17.52
  -2   2   3  505.19   17.51
  -2   2   3  523.80   17.86
  -2   2   3  535.92   17.67
   1  -2  -3  118.35    4.20
   1  -2  -3  114.71    4.21
   1  -2  -3  113.95    4.10
   1  -2  -3  119.68    4.10
   1  -2  -3  120.18    4.45
   1  -2  -3  121.13    4.09
  -1   2   3  113.39    4.10
  -1   2   3  120.40    4.38
  -1   2   3  120.06    4.43
  -1   2   3  121.85    4.23
  -1   2   3  117.10    4.11
   0  -2  -3  383.08   12.74
   0  -2  -3  362.07   12.75
   0  -2  -3  385.60   12.74
   0  -2  -3  363.00   12.84
   0  -2  -3  364.79   12.97
   0  -2  -3  390.67   12.95
   0  -2  -3  378.14   13.03
   0  -2  -3  368.15   12.75
   0   2   3  367.06   12.68
   0   2   3  381.33   13.05
   0   2   3  386.59   12.90
   0   2   3  364.98   12.74
   0   2   3  381.92   12.85
   0   2   3  370.01   13.02
   0   2   3  373.42   12.73
   0   2   3  364.96   12.68
  -1  -2  -3  466.62   15.08
  -1  -2  -3  448.31   15.28
  -1  -2  -3  428.52   15.04
  -1  -2  -3  447.69   15.04
  -1  -2  -3  438.13   15.04
  -1  -2  -3  440.40   15.03
  -1  -2  -3  443.60   15.30
  -1  -2  -3  433.46   15.01
   1   2   3  417.83   15.33
   1   2   3  442.38   15.03
   1   2   3  448.98   15.00
   1   2   3  452.90   15.35
   1   2   3  431.22   15.04
   1   2   3  443.85   15.02
  -2  -2  -3  355.26   12.35
  -2  -2  -3  356.31   12.46
  -2  -2  -3  351.81   12.41
  -2  -2  -3  366.54   12.60
  -2  -2  -3  374.94   12.36
  -2  -2  -3  372.50   12.33
  -2  -2  -3  367.12   12.59
  -2  -2  -3  364.38   12.35
  -2  -2  -3  360.35   12.36
   2   2   3  341.14   12.64
   2   2   3  356.43   12.65
   2   2   3  364.68   12.42
   2   2   3  365.60   12.42
   2   2   3  359.74   12.35
   2   2   3  359.88   12.35
   2   2   3  362.21   12.33
   2   2   3  359.61   12.35
  -3  -2  -3  254.53    8.60
  -3  -2  -3  246.63    8.38
  -3  -2  -3  238.73    8.36
  -3  -2  -3  236.77    8.36
  -3  -2  -3  240.37    8.35
  -3  -2  -3  238.72    8.27
  -3  -2  -3  239.08    8.52
   3   2   3  237.92    8.68
   3   2   3  211.39    8.40
   3   2   3  257.93    8.52
   3   2   3  247.61    8.36
   3   2   3  240.73    8.36
   3   2   3  248.06    8.34
   3   2   3  243.76    8.37
  -4  -2  -3   48.17    2.19
  -4  -2  -3   47.37    1.94
  -4  -2  -3   49.70    1.95
  -4  -2  -3   47.01    1.92
  -4  -2  -3   49.58    1.94
  -4  -2  -3   49.86    2.11
   4   2   3   49.60    1.90
   4   2   3   54.79    2.16
   4   2   3   49.80    2.29
   4   2   3   48.73    1.92
   4   2   3   48.80    1.93
   4   2   3   47.94    1.93
  -5  -2  -3  102.04    3.75
  -5  -2  -3  102.06    3.90
  -5  -2  -3  104.04    3.77
  -5  -2  -3   97.88    4.06
  -5  -2  -3  103.77    3.76
   5   2   3   99.86    4.14
   5   2   3   85.19    3.71
   5   2   3  104.36    3.72
   5   2   3  105.63    3.74
   5   2   3  107.04    4.04
  -6  -2  -3    5.71    0.69
  -6  -2  -3    5.45    0.71
  -6  -2  -3    4.37    0.57
   6   2   3    4.88    0.90
   6   2   3    4.41    0.60
   6   2   3    4.37    0.67
   6   2   3    4.22    0.61
  -7  -2  -3   10.48    0.92
  -7  -2  -3   11.02    0.94
   7   2   3    8.07    0.83
   7   2   3    9.59    1.35
   7   2   3   10.75    0.88
   7   2   3    9.04    0.82
  -8  -2  -3    1.16    0.66
  -8  -2  -3    0.79    0.50
   8   2   3    0.79    0.47
   8   2   3    3.14    1.08
   8  -3  -3    0.55    0.49
   8  -3  -3    0.16    0.48
   8  -3  -3   -0.41    0.74
  -8   3   3    1.49    1.72
   7  -3  -3   12.52    0.93
   7  -3  -3   14.80    0.97
   7  -3  -3   13.36    0.91
   7  -3  -3   12.45    1.30
  -7   3   3   17.52    2.27
  -7   3   3   16.86    1.89
   6  -3  -3   11.04    0.82
   6  -3  -3   10.25    0.73
  -6   3   3   12.49    1.36
  -6   3   3   11.78    1.76
  -6   3   3   10.71    0.64
   5  -3  -3    8.54    0.65
   5  -3  -3    8.72    0.60
   5  -3  -3    9.40    0.73
   5  -3  -3    9.59    0.64
   5  -3  -3    9.66    0.67
   5  -3  -3    9.63    0.63
  -5   3   3   11.27    1.04
  -5   3   3    8.23    0.55
  -5   3   3    7.92    1.42
   4  -3  -3   22.85    1.00
   4  -3  -3   21.46    1.12
   4  -3  -3   23.73    1.27
   4  -3  -3   23.60    1.02
   4  -3  -3   24.27    1.02
   4  -3  -3   22.59    1.01
   4  -3  -3   22.23    1.15
  -4   3   3   23.07    1.59
  -4   3   3   22.63    1.19
  -4   3   3   22.27    1.00
  -4   3   3   20.76    1.69
  -4   3   3   26.08    1.32
   3  -3  -3  167.79    5.72
   3  -3  -3  160.18    5.50
   3  -3  -3  156.53    5.49
   3  -3  -3  159.19    5.49
   3  -3  -3  152.36    5.65
   3  -3  -3  153.62    5.70
   3  -3  -3  155.81    5.51
  -3   3   3  158.41    5.69
  -3   3   3  154.60    6.04
  -3   3   3  165.20    5.71
  -3   3   3  153.10    6.12
  -3   3   3  155.82    5.48
   2  -3  -3   11.95    0.77
   2  -3  -3   12.15    0.58
   2  -3  -3   12.18    1.02
   2  -3  -3   12.40    0.57
   2  -3  -3   10.32    0.83
   2  -3  -3   11.58    0.60
   2  -3  -3   11.74    0.81
   2  -3  -3   12.35    0.82
   2  -3  -3   12.85    0.60
   2  -3  -3   12.03    1.12
  -2   3   3   13.07    0.74
  -2   3   3   11.55    1.05
  -2   3   3   12.19    0.56
  -2   3   3   11.53    0.56
  -2   3   3   13.12    1.14
   1  -3  -3  124.29    5.13
   1  -3  -3  139.88    5.12
   1  -3  -3  134.09    4.65
   1  -3  -3  135.62    5.03
   1  -3  -3  135.26    4.84
   1  -3  -3  132.80    4.68
   1  -3  -3  129.34    4.95
   1  -3  -3  135.92    4.66
   1  -3  -3  137.62    4.93
   1  -3  -3  129.69    4.64
  -1   3   3  136.66    4.84
  -1   3   3  133.65    4.64
  -1   3   3  136.16    5.15
  -1   3   3  134.25    4.63
  -1   3   3  135.26    5.09
   0  -3  -3  196.02    6.96
   0  -3  -3  196.14    7.41
   0  -3  -3  203.36    7.14
   0  -3  -3  201.88    6.95
   0  -3  -3  207.70    7.30
   0  -3  -3  203.44    6.97
   0  -3  -3  203.73    6.95
   0  -3  -3  207.12    7.29
   0  -3  -3  195.30    7.29
   0  -3  -3  211.98    7.14
   0  -3  -3  198.80    7.13
   0   3   3  201.14    6.95
   0   3   3  204.25    6.94
   0   3   3  201.41    7.42
   0   3   3  204.07    7.26
   0   3   3  197.96    7.43
  -1  -3  -3   15.43    0.92
  -1  -3  -3   16.39    0.73
  -1  -3  -3   16.47    0.81
  -1  -3  -3   15.49    0.71
  -1  -3  -3   14.90    1.03
  -1  -3  -3   16.10    0.70
  -1  -3  -3   14.38    1.04
  -1  -3  -3   16.87    0.83
  -1  -3  -3   15.04    0.71
  -1  -3  -3   14.79    1.10
   1   3   3   16.60    1.10
   1   3   3   14.99    1.15
   1   3   3   15.10    0.69
   1   3   3   14.24    0.66
   1   3   3   13.73    1.08
  -2  -3  -3   40.75    1.55
  -2  -3  -3   38.35    1.53
  -2  -3  -3   38.80    1.72
  -2  -3  -3   38.36    1.58
  -2  -3  -3   38.48    1.47
  -2  -3  -3   40.15    1.54
  -2  -3  -3   39.59    1.53
   2   3   3   39.41    1.52
   2   3   3   42.86    1.73
   2   3   3   39.25    1.57
   2   3   3   37.96    2.01
   2   3   3   37.94    1.43
   2   3   3   39.17    1.40
   2   3   3   37.60    1.92
  -3  -3  -3   50.27    1.97
  -3  -3  -3   49.08    1.93
  -3  -3  -3   49.03    2.14
  -3  -3  -3   49.80    1.95
  -3  -3  -3   54.37    2.21
  -3  -3  -3   50.43    1.94
   3   3   3   44.77    2.07
   3   3   3   51.84    2.35
   3   3   3   50.43    1.94
   3   3   3   53.00    1.86
   3   3   3   49.97    2.45
  -4  -3  -3    4.25    0.54
  -4  -3  -3    4.04    0.56
  -4  -3  -3    4.32    0.73
  -4  -3  -3    5.20    0.50
  -4  -3  -3    4.25    0.69
   4   3   3    3.92    0.48
   4   3   3    4.66    0.89
   4   3   3    3.66    0.40
   4   3   3    4.77    0.53
   4   3   3    6.34    1.00
  -5  -3  -3    0.52    0.52
  -5  -3  -3    0.72    0.32
  -5  -3  -3   -0.12    0.35
  -5  -3  -3    0.16    0.38
  -5  -3  -3    0.26    0.32
   5   3   3   -0.08    0.53
   5   3   3   -0.76    0.53
   5   3   3   -0.04    0.32
   5   3   3    0.64    0.58
   5   3   3   -0.14    0.60
   5   3   3   -0.24    0.27
  -6  -3  -3    7.65    0.78
  -6  -3  -3    7.64    0.84
   6   3   3    7.05    1.35
   6   3   3    7.52    0.76
   6   3   3    7.93    1.10
  -7  -3  -3    0.87    0.55
  -7  -3  -3    1.10    0.49
   7   3   3    1.30    0.95
   7   3   3    0.46    0.49
   7   3   3    1.36    1.07
   7  -4  -3    2.18    0.53
   7  -4  -3    2.49    0.54
   7  -4  -3    2.19    1.09
  -7   4   3    1.14    2.28
   6  -4  -3    9.18    0.72
   6  -4  -3   10.15    0.97
   6  -4  -3    8.58    1.31
   6  -4  -3    8.75    0.81
  -6   4   3    9.74    1.82
   5  -4  -3    0.73    0.33
   5  -4  -3    0.68    0.28
   5  -4  -3    1.22    0.48
  -5   4   3    0.43    0.58
  -5   4   3    0.90    1.02
   4  -4  -3   30.97    1.29
   4  -4  -3   31.00    1.25
   4  -4  -3   30.29    1.58
   4  -4  -3   31.36    1.69
   4  -4  -3   28.41    1.31
   4  -4  -3   27.90    1.50
   4  -4  -3   31.14    1.30
  -4   4   3   32.17    1.61
  -4   4   3   31.46    2.25
  -4   4   3   32.10    2.09
   3  -4  -3    6.94    0.51
   3  -4  -3    6.92    0.71
   3  -4  -3    6.57    0.49
   3  -4  -3    5.70    0.50
   3  -4  -3    6.85    0.76
   3  -4  -3    6.42    0.47
  -3   4   3    5.83    0.99
  -3   4   3    8.53    1.46
  -3   4   3    7.20    0.38
   2  -4  -3   62.96    2.34
   2  -4  -3   62.42    2.45
   2  -4  -3   61.86    2.69
   2  -4  -3   62.47    2.34
   2  -4  -3   63.76    2.49
   2  -4  -3   64.00    2.58
   2  -4  -3   66.78    2.31
   2  -4  -3   63.10    2.28
  -2   4   3   66.81    2.25
  -2   4   3   66.02    3.12
   1  -4  -3   27.90    1.04
   1  -4  -3   26.68    1.53
   1  -4  -3   26.32    1.46
   1  -4  -3   25.89    1.09
   1  -4  -3   26.72    1.03
   1  -4  -3   28.96    1.38
   1  -4  -3   24.77    1.44
   1  -4  -3   26.63    1.10
  -1   4   3   27.28    1.80
  -1   4   3   26.58    1.73
   0  -4  -3   29.80    1.71
   0  -4  -3   30.93    1.17
   0  -4  -3   29.81    1.47
   0  -4  -3   30.60    1.21
   0  -4  -3   30.57    1.51
   0  -4  -3   29.73    1.44
   0  -4  -3   30.34    1.23
   0   4   3   30.78    1.72
   0   4   3   31.23    1.93
   0   4   3   29.30    1.13
   0   4   3   30.63    1.88
  -1  -4  -3   43.42    1.60
  -1  -4  -3   42.17    1.63
  -1  -4  -3   40.96    2.19
  -1  -4  -3   43.69    1.63
  -1  -4  -3   43.65    1.93
  -1  -4  -3   43.75    1.75
  -1  -4  -3   39.26    1.79
  -1  -4  -3   43.06    1.64
   1   4   3   42.50    1.60
   1   4   3   34.52    3.03
   1   4   3   44.14    2.26
  -2  -4  -3   10.81    0.70
  -2  -4  -3   12.46    0.63
  -2  -4  -3    9.48    0.63
  -2  -4  -3   11.49    0.65
  -2  -4  -3   11.76    0.95
  -2  -4  -3   11.41    0.68
   2   4   3   11.12    1.23
   2   4   3    9.86    1.36
  -3  -4  -3   29.65    1.36
  -3  -4  -3   31.44    1.33
  -3  -4  -3   31.18    1.39
  -3  -4  -3   28.99    1.46
  -3  -4  -3   31.43    1.65
   3   4   3   31.71    1.41
   3   4   3   31.00    1.41
   3   4   3   33.32    2.14
   3   4   3   33.87    1.90
  -4  -4  -3    1.46    0.57
  -4  -4  -3    1.64    0.37
  -4  -4  -3    0.93    0.55
   4   4   3    1.60    0.72
   4   4   3    2.94    0.95
  -5  -4  -3   10.22    1.10
  -5  -4  -3    9.33    0.86
  -5  -4  -3   10.66    1.22
  -5  -4  -3    9.40    0.91
   5   4   3   10.09    1.68
  -6  -4  -3    5.18    0.68
  -6  -4  -3    5.71    0.95
  -6  -4  -3    5.18    0.73
   6   4   3    4.64    1.40
   6   4   3    7.13    1.31
   5  -5  -3    1.91    0.37
   5  -5  -3    1.96    0.85
  -5   5   3   -1.27    1.65
   4  -5  -3    4.83    0.87
   4  -5  -3    4.86    0.77
   4  -5  -3    3.54    0.36
  -4   5   3    2.27    1.30
  -4   5   3    2.41    1.17
   3  -5  -3   16.55    1.27
   3  -5  -3   17.22    1.36
  -3   5   3   17.96    1.94
  -3   5   3   17.51    2.09
   2  -5  -3    2.68    0.36
   2  -5  -3    2.18    0.69
   2  -5  -3    3.18    0.66
  -2   5   3    3.78    1.03
  -2   5   3    3.89    1.17
   1  -5  -3   21.79    1.02
   1  -5  -3   22.45    1.32
   1  -5  -3   22.84    1.43
  -1   5   3   24.60    1.96
  -1   5   3   22.13    1.94
   0  -5  -3   11.47    1.06
   0  -5  -3   11.42    0.72
   0  -5  -3   10.95    1.05
   0   5   3   11.96    1.58
   0   5   3   11.46    1.53
  -1  -5  -3    7.74    0.57
  -1  -5  -3    8.62    0.66
  -1  -5  -3    8.88    1.03
  -1  -5  -3    7.68    0.86
   1   5   3    8.76    1.55
   1   5   3   10.21    1.50
  -2  -5  -3    6.86    0.63
  -2  -5  -3    6.89    0.77
  -2  -5  -3    7.72    1.07
   2   5   3   10.24    1.66
   2   5   3    7.40    1.15
  -3  -5  -3    1.56    0.41
  -3  -5  -3    2.66    0.72
   3   5   3    2.87    0.90
   3   5   3    2.78    1.15
  -4  -5  -3    2.17    0.51
  -4  -5  -3    1.99    0.62
  -4  -5  -3    2.15    0.81
   4   5   3    2.89    1.42
   4   5   3    2.94    0.99
   5   5  -4    4.39    1.60
   5   5  -4    3.03    1.25
  -5  -5   4    2.67    0.65
  -5  -5   4    2.48    0.51
  -5  -5   4    4.82    1.09
   4   5  -4    1.81    0.93
   4   5  -4    2.55    1.26
  -4  -5   4    1.86    0.34
  -4  -5   4    2.72    0.56
  -4  -5   4    2.07    0.89
   3   5  -4    9.18    1.69
   3   5  -4    6.06    1.10
  -3  -5   4    5.48    0.74
  -3  -5   4    8.02    1.29
   2   5  -4   11.58    1.41
   2   5  -4   11.32    1.55
  -2  -5   4    7.51    1.61
  -2  -5   4    9.94    1.06
   1   5  -4   22.75    1.85
   1   5  -4   22.03    1.64
  -1  -5   4   19.92    1.09
  -1  -5   4   21.86    2.00
  -1  -5   4   19.24    1.62
   0   5  -4   18.31    1.49
   0  -5   4   16.82    2.12
   0  -5   4   17.12    1.12
   0  -5   4   16.53    1.05
  -1   5  -4    0.85    0.65
  -1   5  -4    0.37    0.78
   1  -5   4    0.73    0.62
   1  -5   4    0.32    0.46
   1  -5   4    0.73    0.44
  -2   5  -4   15.64    1.85
   2  -5   4   17.09    1.54
   2  -5   4   17.31    1.22
  -3   5  -4    5.42    1.29
  -3   5  -4    3.97    1.32
   3  -5   4    4.06    0.96
   3  -5   4    4.15    0.72
  -4   5  -4    0.85    1.41
  -4   5  -4    0.03    1.66
   4  -5   4    0.57    0.85
   4  -5   4    1.03    0.87
   7   4  -4   -0.78    1.71
   7   4  -4    1.20    0.96
  -7  -4   4    0.63    0.64
  -7  -4   4    0.17    1.05
  -7  -4   4   -0.19    0.90
   6   4  -4    2.24    0.90
   6   4  -4    1.48    1.32
  -6  -4   4    0.22    0.42
  -6  -4   4    1.39    0.84
  -6  -4   4    1.68    0.55
   5   4  -4    2.56    0.80
   5   4  -4    4.52    1.15
  -5  -4   4    2.82    0.80
  -5  -4   4    3.21    0.45
   4   4  -4    9.66    1.25
   4   4  -4   13.07    1.58
  -4  -4   4   11.44    0.82
  -4  -4   4   11.58    0.89
  -4  -4   4    9.44    0.67
  -4  -4   4   10.57    1.22
   3   4  -4    1.57    0.84
   3   4  -4    0.90    0.18
   3   4  -4    0.64    0.61
  -3  -4   4    0.70    0.23
  -3  -4   4    1.18    0.28
  -3  -4   4    0.59    0.23
  -3  -4   4    0.46    0.49
  -3  -4   4    0.87    0.31
   2   4  -4   65.53    3.02
   2   4  -4   73.03    3.23
  -2  -4   4   66.18    2.76
  -2  -4   4   66.38    2.43
  -2  -4   4   66.70    2.50
  -2  -4   4   70.99    2.41
  -2  -4   4   64.93    2.39
  -2  -4   4   67.67    2.48
  -2  -4   4   69.31    3.22
   1   4  -4   39.51    2.04
   1   4  -4   44.65    2.21
  -1  -4   4   39.90    1.59
  -1  -4   4   37.86    1.93
  -1  -4   4   38.06    1.42
  -1  -4   4   39.44    1.92
  -1  -4   4   36.48    1.46
   0   4  -4   15.49    1.23
   0   4  -4   15.71    1.30
   0   4  -4   15.32    1.36
   0  -4   4   15.22    1.11
   0  -4   4   14.29    1.36
   0  -4   4   14.89    0.86
   0  -4   4   14.32    0.86
  -1   4  -4   86.30    3.90
  -1   4  -4   89.04    3.57
   1  -4   4   83.41    3.63
   1  -4   4   86.02    3.55
   1  -4   4   87.63    3.29
   1  -4   4   88.85    3.20
  -2   4  -4    7.67    1.39
  -2   4  -4    9.19    0.90
   2  -4   4    8.29    1.00
   2  -4   4    8.27    0.79
   2  -4   4    8.40    0.57
   2  -4   4    8.77    0.47
  -3   4  -4    9.60    1.59
  -3   4  -4    9.03    1.62
   3  -4   4    7.51    0.50
   3  -4   4    6.92    0.72
   3  -4   4    7.24    0.88
   3  -4   4    8.37    0.63
  -4   4  -4   14.01    2.59
  -4   4  -4   15.53    2.03
   4  -4   4   13.52    0.73
   4  -4   4   12.88    0.75
   4  -4   4   15.12    1.14
   4  -4   4   12.82    0.69
  -5   4  -4    1.44    1.26
  -5   4  -4    1.41    1.25
   5  -4   4    0.17    0.59
   5  -4   4    0.47    0.29
   5  -4   4    0.85    0.41
  -6   4  -4   -0.83    1.70
  -6   4  -4   -1.46    1.82
   6  -4   4    0.67    0.41
   6  -4   4    0.98    0.78
   6  -4   4    0.23    0.46
   8   3  -4    7.74    1.27
   8   3  -4    5.68    1.81
   8   3  -4    7.63    1.24
  -8  -3   4    6.16    1.35
  -8  -3   4    5.77    0.90
  -8  -3   4    5.91    0.80
   7   3  -4   11.24    1.91
   7   3  -4   14.24    1.36
   7   3  -4   13.03    0.98
  -7  -3   4   14.87    1.05
  -7  -3   4   14.44    1.27
  -7  -3   4   14.41    1.77
   6   3  -4    6.55    0.63
   6   3  -4    4.87    1.12
   6   3  -4    7.64    1.05
   6   3  -4    6.24    0.58
  -6  -3   4    7.61    0.82
  -6  -3   4    6.79    1.20
  -6  -3   4    6.42    0.70
   5   3  -4   69.61    3.59
   5   3  -4   74.53    2.79
   5   3  -4   66.80    2.62
   5   3  -4   72.02    2.68
  -5  -3   4   74.90    2.82
  -5  -3   4   73.36    2.75
  -5  -3   4   75.27    3.27
  -5  -3   4   72.81    2.78
   4   3  -4   59.05    2.26
   4   3  -4   61.68    2.17
   4   3  -4   61.34    3.04
   4   3  -4   56.54    2.16
   4   3  -4   58.89    2.67
  -4  -3   4   61.84    2.29
  -4  -3   4   60.89    2.68
  -4  -3   4   59.51    2.26
  -4  -3   4   60.65    2.31
  -4  -3   4   63.73    2.34
   3   3  -4   26.74    1.66
   3   3  -4   24.03    1.34
   3   3  -4   22.46    0.96
   3   3  -4   23.22    1.37
  -3  -3   4   22.75    1.34
  -3  -3   4   21.32    1.51
  -3  -3   4   22.49    0.99
  -3  -3   4   21.66    0.96
  -3  -3   4   23.03    0.99
  -3  -3   4   23.34    1.03
   2   3  -4  174.77    6.26
   2   3  -4  163.57    5.85
   2   3  -4  164.31    6.28
   2   3  -4  176.56    6.40
   2   3  -4  170.49    5.85
  -2  -3   4  177.79    6.26
  -2  -3   4  165.85    6.45
  -2  -3   4  171.41    6.57
  -2  -3   4  173.44    6.29
  -2  -3   4  167.96    5.87
  -2  -3   4  165.08    6.06
  -2  -3   4  170.03    5.86
  -2  -3   4  168.26    5.89
  -2  -3   4  172.07    5.88
   1   3  -4   24.88    1.53
   1   3  -4   27.14    1.44
   1   3  -4   26.60    0.96
  -1  -3   4   25.79    1.61
  -1  -3   4   27.81    1.01
  -1  -3   4   26.56    0.99
  -1  -3   4   24.09    1.55
  -1  -3   4   26.68    1.37
  -1  -3   4   27.78    1.36
  -1  -3   4   26.39    1.35
  -1  -3   4   25.66    1.02
  -1  -3   4   26.62    0.99
  -1  -3   4   27.21    1.12
  -1  -3   4   27.74    1.29
   0   3  -4   58.70    2.49
   0   3  -4   59.39    2.69
   0   3  -4   59.91    2.49
   0  -3   4   62.66    2.44
   0  -3   4   60.63    2.39
   0  -3   4   56.81    2.51
   0  -3   4   60.22    2.74
   0  -3   4   61.85    2.49
   0  -3   4   60.33    2.24
   0  -3   4   58.50    2.69
   0  -3   4   56.82    2.07
   0  -3   4   57.68    2.07
  -1   3  -4    2.39    0.63
  -1   3  -4    2.89    0.53
  -1   3  -4    3.77    0.81
   1  -3   4    3.24    0.51
   1  -3   4    3.05    0.24
   1  -3   4    4.52    0.82
   1  -3   4    3.58    0.49
   1  -3   4    3.14    0.26
   1  -3   4    3.52    0.47
   1  -3   4    3.16    0.58
   1  -3   4    3.07    0.36
   1  -3   4    2.83    0.62
  -2   3  -4   83.39    3.67
  -2   3  -4   86.27    2.93
  -2   3  -4   80.90    3.71
  -2   3  -4   84.50    3.23
  -2   3  -4   79.19    2.90
   2  -3   4   83.48    2.93
   2  -3   4   83.54    2.93
   2  -3   4   84.24    3.17
   2  -3   4   84.74    2.93
   2  -3   4   80.02    3.27
   2  -3   4   86.74    3.76
   2  -3   4   81.85    2.98
   2  -3   4   85.85    3.17
   2  -3   4   84.89    2.94
  -3   3  -4   16.08    0.91
  -3   3  -4   14.79    0.77
  -3   3  -4   15.70    1.58
  -3   3  -4   16.08    1.57
   3  -3   4   16.43    0.73
   3  -3   4   16.92    0.75
   3  -3   4   16.22    0.73
   3  -3   4   16.92    0.99
   3  -3   4   14.35    1.08
  -4   3  -4   36.84    2.36
  -4   3  -4   37.34    1.46
  -4   3  -4   35.22    2.57
   4  -3   4   33.69    1.58
   4  -3   4   38.08    1.48
   4  -3   4   38.74    2.18
   4  -3   4   39.18    1.47
   4  -3   4   33.36    1.91
  -5   3  -4    8.11    1.42
   5  -3   4    7.04    0.55
   5  -3   4    7.59    0.60
   5  -3   4    7.72    0.64
   5  -3   4    7.80    0.87
  -6   3  -4   16.00    2.08
   6  -3   4   14.72    0.92
   6  -3   4   15.54    1.22
   6  -3   4   15.58    0.97
  -7   3  -4    8.62    1.81
  -7   3  -4    3.27    1.91
   7  -3   4    6.72    0.82
   7  -3   4    7.17    0.89
   7  -3   4    7.16    1.21
   8   2  -4    2.56    1.21
   8   2  -4    4.43    0.55
   8   2  -4    2.63    1.05
  -8  -2   4    3.90    0.68
  -8  -2   4    5.55    1.23
  -8  -2   4    3.08    0.65
   7   2  -4   10.98    0.87
   7   2  -4   11.66    0.84
   7   2  -4   12.16    1.09
   7   2  -4   11.22    0.66
  -7  -2   4   12.47    0.97
  -7  -2   4   11.84    0.92
  -7  -2   4   11.44    1.46
   6   2  -4   30.32    1.29
   6   2  -4   36.08    1.42
   6   2  -4   31.88    1.48
   6   2  -4   31.98    1.66
   6   2  -4   32.02    1.44
  -6  -2   4   31.28    1.60
  -6  -2   4   33.75    1.48
  -6  -2   4   33.53    1.53
  -6  -2   4   30.87    2.05
   5   2  -4   80.75    2.82
   5   2  -4   75.84    2.80
   5   2  -4   75.28    3.09
   5   2  -4   74.11    2.84
   5   2  -4   78.05    2.83
  -5  -2   4   76.44    2.90
  -5  -2   4   75.15    3.04
  -5  -2   4   76.33    2.90
  -5  -2   4   74.41    2.85
  -5  -2   4   75.47    3.27
   4   2  -4   67.58    2.63
   4   2  -4   74.40    2.93
   4   2  -4   74.21    2.63
   4   2  -4   70.98    2.61
   4   2  -4   70.28    2.91
   4   2  -4   62.33    3.13
   4   2  -4   72.15    2.65
  -4  -2   4   69.03    2.62
  -4  -2   4   74.10    2.75
  -4  -2   4   72.37    3.07
  -4  -2   4   69.77    2.98
  -4  -2   4   75.76    2.86
  -4  -2   4   73.42    2.66
  -4  -2   4   75.20    2.70
  -4  -2   4   76.28    2.71
   3   2  -4   74.70    2.68
   3   2  -4   75.19    2.66
   3   2  -4   76.59    2.96
   3   2  -4   73.52    2.69
   3   2  -4   74.19    2.66
   3   2  -4   70.86    2.94
   3   2  -4   74.59    3.14
  -3  -2   4   72.34    2.97
  -3  -2   4   73.47    2.71
  -3  -2   4   77.87    2.91
  -3  -2   4   76.83    2.73
  -3  -2   4   76.04    2.72
  -3  -2   4   74.67    2.70
  -3  -2   4   74.20    3.08
  -3  -2   4   76.07    2.78
  -3  -2   4   73.32    2.67
   2   2  -4  341.43   11.44
   2   2  -4  307.56   11.42
   2   2  -4  318.36   11.09
   2   2  -4  344.16   11.51
   2   2  -4  321.41   11.15
   2   2  -4  331.71   11.11
   2   2  -4  336.23   11.17
   2   2  -4  313.12   11.15
  -2  -2   4  338.84   11.39
  -2  -2   4  320.42   11.20
  -2  -2   4  333.99   11.44
  -2  -2   4  317.13   11.14
  -2  -2   4  320.71   11.17
  -2  -2   4  315.31   11.16
  -2  -2   4  318.62   11.19
  -2  -2   4  328.01   11.17
  -2  -2   4  334.06   11.23
  -2  -2   4  342.59   11.58
   1   2  -4  126.75    4.40
   1   2  -4  124.58    4.79
   1   2  -4  125.75    4.65
   1   2  -4  124.50    4.67
   1   2  -4  123.23    4.63
   1   2  -4  122.43    4.39
  -1  -2   4  132.00    4.81
  -1  -2   4  128.08    4.41
  -1  -2   4  134.09    4.63
  -1  -2   4  124.75    4.38
  -1  -2   4  122.63    4.41
  -1  -2   4  128.50    4.59
  -1  -2   4  128.49    4.84
  -1  -2   4  133.42    4.46
  -1  -2   4  126.84    4.46
  -1  -2   4  128.34    4.66
  -1  -2   4  134.04    4.54
  -1  -2   4  126.48    4.41
   0   2  -4  189.99    6.44
   0   2  -4  180.40    6.32
   0   2  -4  186.84    6.52
   0   2  -4  182.54    6.58
   0   2  -4  184.83    6.31
   0   2  -4  179.31    6.75
   0  -2   4  188.33    6.41
   0  -2   4  184.20    6.34
   0  -2   4  188.95    6.58
   0  -2   4  181.95    6.33
   0  -2   4  187.13    6.78
   0  -2   4  180.70    6.45
   0  -2   4  187.68    6.62
   0  -2   4  188.90    6.52
   0  -2   4  180.24    6.30
   0  -2   4  183.96    6.32
   0  -2   4  192.28    6.76
   0  -2   4  176.62    6.30
  -1   2  -4  206.28    7.31
  -1   2  -4  213.19    7.52
  -1   2  -4  223.71    7.47
  -1   2  -4  211.15    7.75
  -1   2  -4  211.43    7.29
  -1   2  -4  207.47    7.81
   1  -2   4  213.15    7.31
   1  -2   4  213.94    7.42
   1  -2   4  209.76    7.29
   1  -2   4  210.46    7.46
   1  -2   4  206.01    7.28
   1  -2   4  220.62    7.87
   1  -2   4  214.97    7.68
   1  -2   4  223.45    7.48
   1  -2   4  213.19    7.27
   1  -2   4  216.97    7.31
   1  -2   4  214.67    7.31
  -2   2  -4   10.99    0.51
  -2   2  -4   11.79    0.70
  -2   2  -4   11.01    0.52
  -2   2  -4   10.89    1.04
  -2   2  -4   10.45    1.04
  -2   2  -4   11.15    0.68
   2  -2   4   10.57    0.52
   2  -2   4   11.27    0.53
   2  -2   4   10.52    0.87
   2  -2   4    9.19    0.89
   2  -2   4   11.11    0.75
   2  -2   4   11.64    0.55
   2  -2   4   11.79    0.90
   2  -2   4   11.00    0.68
   2  -2   4   11.82    0.53
  -3   2  -4   72.92    2.58
  -3   2  -4   73.31    3.16
  -3   2  -4   69.31    3.33
  -3   2  -4   64.95    2.91
  -3   2  -4   70.16    2.51
  -3   2  -4   71.84    2.54
  -3   2  -4   69.78    2.58
   3  -2   4   75.14    2.60
   3  -2   4   72.30    2.58
   3  -2   4   66.90    3.03
   3  -2   4   71.16    3.05
   3  -2   4   73.17    2.57
   3  -2   4   69.03    2.67
   3  -2   4   76.37    2.75
  -4   2  -4    3.37    0.43
  -4   2  -4    5.32    0.88
  -4   2  -4    4.90    1.11
  -4   2  -4    2.73    0.35
   4  -2   4    3.13    0.35
   4  -2   4    3.11    0.48
   4  -2   4    3.29    0.40
   4  -2   4    3.06    0.41
   4  -2   4    2.94    0.39
  -5   2  -4   13.64    0.71
  -5   2  -4   13.55    0.77
  -5   2  -4   12.91    0.73
  -5   2  -4   15.70    1.58
  -5   2  -4   10.14    1.72
   5  -2   4   13.66    0.79
   5  -2   4   14.96    1.31
   5  -2   4   13.89    1.00
   5  -2   4   13.77    0.78
  -6   2  -4   11.34    1.92
  -6   2  -4   12.58    0.80
  -6   2  -4   10.84    0.75
  -6   2  -4   12.26    1.64
  -6   2  -4   11.63    0.80
   6  -2   4   13.12    0.83
   6  -2   4   12.93    1.02
   6  -2   4   13.27    0.82
  -7   2  -4    3.78    1.48
  -7   2  -4    2.90    1.18
  -7   2  -4    3.50    0.50
   7  -2   4    3.67    0.51
   7  -2   4    3.49    0.66
   7  -2   4    3.45    0.68
  -8   2  -4    8.15    2.11
  -8   2  -4    4.34    1.64
   8  -2   4    6.15    0.74
   8  -2   4    4.52    0.69
   8  -2   4    3.51    1.09
   9   1  -4    4.11    0.62
   9   1  -4    3.72    0.60
  -9  -1   4    3.64    1.32
  -9  -1   4    4.08    0.77
  -9  -1   4    4.45    0.65
  -9  -1   4    5.64    1.49
   8   1  -4    5.61    0.68
   8   1  -4    4.06    0.68
   8   1  -4    4.37    0.61
   8   1  -4    4.62    0.79
  -8  -1   4    4.71    0.67
  -8  -1   4    5.35    1.18
  -8  -1   4    4.98    1.15
  -8  -1   4    3.12    0.55
   7   1  -4   27.16    1.33
   7   1  -4   28.95    1.39
   7   1  -4   27.10    1.41
   7   1  -4   33.18    1.41
  -7  -1   4   27.81    1.36
  -7  -1   4   26.98    1.99
  -7  -1   4   28.10    1.43
  -7  -1   4   26.87    1.43
   6   1  -4   15.56    0.90
   6   1  -4   18.88    0.98
   6   1  -4   16.14    0.99
   6   1  -4   15.67    0.90
  -6  -1   4   16.88    0.98
  -6  -1   4   17.06    1.43
  -6  -1   4   16.68    0.99
  -6  -1   4   16.40    0.89
   5   1  -4  116.06    4.16
   5   1  -4  113.16    4.28
   5   1  -4  120.29    4.43
   5   1  -4  115.25    4.15
   5   1  -4  117.27    4.18
   5   1  -4  130.65    4.25
   5   1  -4  115.89    4.14
  -5  -1   4  110.79    4.58
  -5  -1   4  115.22    4.18
  -5  -1   4  108.16    4.14
  -5  -1   4  115.24    4.20
  -5  -1   4  110.48    4.24
  -5  -1   4  115.06    4.22
   4   1  -4  145.59    5.21
   4   1  -4  150.74    5.43
   4   1  -4  156.03    5.27
   4   1  -4  145.40    5.36
   4   1  -4  146.82    5.20
   4   1  -4  147.10    5.22
   4   1  -4  148.20    5.20
  -4  -1   4  151.65    5.29
  -4  -1   4  145.60    5.20
  -4  -1   4  145.97    5.29
  -4  -1   4  146.02    5.22
  -4  -1   4  154.44    5.26
  -4  -1   4  145.12    5.55
   3   1  -4  615.41   20.96
   3   1  -4  618.85   20.97
   3   1  -4  633.76   21.17
   3   1  -4  623.71   21.03
   3   1  -4  594.08   20.97
   3   1  -4  591.81   21.12
  -3  -1   4  619.88   20.98
  -3  -1   4  638.76   21.04
  -3  -1   4  613.09   21.22
  -3  -1   4  618.47   20.96
  -3  -1   4  621.04   21.00
  -3  -1   4  611.03   20.99
   2   1  -4  458.97   16.11
   2   1  -4  478.43   16.01
   2   1  -4  489.63   16.10
   2   1  -4  455.04   15.91
   2   1  -4  455.18   15.98
   2   1  -4  462.89   15.92
  -2  -1   4  468.54   15.95
  -2  -1   4  465.77   16.11
  -2  -1   4  454.50   15.93
  -2  -1   4  456.33   15.93
  -2  -1   4  468.23   16.00
  -2  -1   4  474.09   15.92
  -2  -1   4  496.12   15.98
  -2  -1   4  470.33   16.14
   1   1  -4  486.93   16.96
   1   1  -4  482.43   16.93
   1   1  -4  503.36   16.74
   1   1  -4  492.28   16.75
   1   1  -4  504.18   16.82
  -1  -1   4  489.63   16.90
  -1  -1   4  487.60   16.75
  -1  -1   4  507.71   16.97
  -1  -1   4  485.39   16.80
  -1  -1   4  491.02   16.76
  -1   1  -4    7.83    0.64
  -1   1  -4    8.81    0.40
  -1   1  -4    8.37    0.42
  -1   1  -4    7.81    0.75
  -1   1  -4    9.10    0.42
   1  -1   4    9.68    0.70
   1  -1   4    8.83    0.42
   1  -1   4    9.35    0.70
   1  -1   4    8.62    0.51
   1  -1   4    8.32    0.42
   1  -1   4    8.27    0.42
   1  -1   4    8.44    0.43
  -2   1  -4  654.77   23.60
  -2   1  -4  696.55   23.36
  -2   1  -4  684.66   23.10
  -2   1  -4  657.77   23.19
  -2   1  -4  694.15   23.42
   2  -1   4  694.08   23.42
  -3   1  -4  193.21    7.05
  -3   1  -4  196.36    6.73
  -3   1  -4  193.37    6.84
  -3   1  -4  193.04    6.73
  -3   1  -4  201.10    6.72
  -3   1  -4  173.91    7.23
  -3   1  -4  192.84    6.73
  -3   1  -4  193.39    6.71
   3  -1   4  191.72    6.79
   3  -1   4  203.70    6.75
   3  -1   4  197.07    6.73
   3  -1   4  205.33    7.05
   3  -1   4  191.07    6.72
   3  -1   4  187.79    6.70
  -4   1  -4  103.21    3.66
  -4   1  -4  102.68    3.67
  -4   1  -4   83.58    4.16
  -4   1  -4  100.65    4.06
  -4   1  -4  103.74    3.64
  -4   1  -4   99.72    3.66
   4  -1   4  101.72    3.74
   4  -1   4  102.74    4.12
   4  -1   4  102.39    3.66
   4  -1   4  106.03    3.97
   4  -1   4  102.51    3.64
   4  -1   4  108.61    3.69
  -5   1  -4   77.32    2.94
  -5   1  -4   77.64    3.36
  -5   1  -4   77.05    2.90
  -5   1  -4   75.15    2.88
   5  -1   4   78.41    2.91
   5  -1   4   79.28    3.01
   5  -1   4   82.38    3.26
   5  -1   4   75.15    3.06
   5  -1   4   75.72    2.88
  -6   1  -4    6.93    1.21
  -6   1  -4    7.44    0.67
  -6   1  -4    6.54    0.70
   6  -1   4    5.95    0.68
   6  -1   4    7.64    0.66
   6  -1   4    7.16    0.95
  -7   1  -4   18.14    1.78
  -7   1  -4   17.86    1.09
  -7   1  -4   17.86    1.12
   7  -1   4   17.22    1.06
   7  -1   4   17.87    1.16
   7  -1   4   16.54    1.05
  -8   1  -4    1.11    0.47
  -8   1  -4    2.20    1.23
   8  -1   4    1.43    0.53
   8  -1   4   -0.09    0.44
   9   0  -4   19.77    1.17
   9   0  -4   17.28    1.23
   9   0  -4   18.15    1.20
  -9   0   4   16.27    1.28
  -9   0   4   17.84    2.24
  -9   0   4   16.18    2.19
   8   0  -4   -0.22    0.33
   8   0  -4   -0.31    0.31
   8   0  -4   -0.40    0.39
  -8   0   4   -0.07    0.41
  -8   0   4    0.67    0.93
  -8   0   4   -0.54    0.36
  -8   0   4   -0.07    0.72
   7   0  -4   65.34    2.49
   7   0  -4   65.90    2.56
   7   0  -4   58.79    2.58
   7   0  -4   64.46    2.53
   7   0  -4   67.52    2.53
  -7   0   4   64.29    3.12
  -7   0   4   57.89    3.13
  -7   0   4   65.78    2.60
  -7   0   4   63.40    2.58
   6   0  -4   65.22    2.44
   6   0  -4   63.14    2.44
   6   0  -4   63.74    2.44
   6   0  -4   64.21    2.46
  -6   0   4   60.02    3.00
  -6   0   4   63.00    2.49
  -6   0   4   62.27    2.48
  -6   0   4   62.60    2.46
   5   0  -4   21.05    0.96
   5   0  -4   19.81    0.95
   5   0  -4   20.55    0.99
   5   0  -4   20.32    0.97
   5   0  -4   20.36    0.98
   5   0  -4   19.62    1.01
   5   0  -4   21.42    1.20
   5   0  -4   21.46    0.96
  -5   0   4   19.79    1.00
  -5   0   4   19.31    1.35
  -5   0   4   23.75    1.12
  -5   0   4   19.33    0.99
  -5   0   4   20.46    0.97
  -5   0   4   19.06    0.95
   4   0  -4  230.48    8.13
   4   0  -4  222.07    8.12
   4   0  -4  248.67    8.23
   4   0  -4  236.15    8.07
   4   0  -4  228.40    8.07
   4   0  -4  216.77    8.05
   4   0  -4  228.21    8.05
   4   0  -4  242.85    8.07
  -4   0   4  233.30    8.09
  -4   0   4  228.77    8.41
  -4   0   4  225.07    8.08
  -4   0   4  239.22    8.08
  -4   0   4  244.85    8.20
  -4   0   4  237.87    8.10
   3   0  -4    3.33    0.31
   3   0  -4    2.92    0.35
   3   0  -4    3.21    0.29
   3   0  -4    3.35    0.39
   3   0  -4    2.90    0.31
   3   0  -4    3.20    0.38
  -3   0   4    3.13    0.33
  -3   0   4    2.72    0.37
  -3   0   4    3.40    0.34
  -3   0   4    3.10    0.28
  -3   0   4    2.57    0.43
  -3   0   4    3.11    0.32
   2   0  -4  161.15    5.42
   2   0  -4  151.73    5.41
   2   0  -4  150.52    5.42
   2   0  -4  159.62    5.43
   2   0  -4  153.08    5.50
   2   0  -4  140.63    5.61
  -2   0   4  165.99    5.59
  -2   0   4  161.04    5.58
  -2   0   4  159.54    5.67
  -2   0   4  155.01    5.42
  -2   0   4  157.11    5.42
  -2   0   4  151.83    5.44
  -2   0   4  156.68    5.43
  -2   0   4  157.87    5.44
  -2   0   4  168.34    5.52
   1   0  -4    0.50    0.14
   1   0  -4    0.90    0.13
   1   0  -4    1.43    0.19
   1   0  -4    0.73    0.22
   1   0  -4    0.68    0.18
   1   0  -4    0.91    0.28
  -1   0   4    0.94    0.20
  -1   0   4    1.99    0.43
  -1   0   4    0.89    0.20
  -1   0   4    0.75    0.15
  -1   0   4    0.98    0.17
  -1   0   4    0.53    0.16
   0   0  -4  126.48    4.49
   0   0  -4  126.96    4.60
   0   0  -4  131.84    4.47
   0   0  -4  132.59    4.54
   0   0  -4  124.99    4.43
   0   0  -4  126.04    4.47
   0   0  -4  127.07    4.47
   0   0   4  127.60    4.51
   0   0   4  133.54    4.48
   0   0   4  132.62    4.47
   0   0   4  115.31    4.50
   0   0   4  128.31    4.47
   0   0   4  131.58    4.47
  -1   0  -4    3.01    0.30
  -1   0  -4    3.10    0.36
  -1   0  -4    3.71    0.26
  -1   0  -4    2.85    0.27
  -1   0  -4    3.25    0.28
  -1   0  -4    3.26    0.27
   1   0   4    2.96    0.30
   1   0   4    3.15    0.28
   1   0   4    2.88    0.37
   1   0   4    2.82    0.42
   1   0   4    3.00    0.24
   1   0   4    3.05    0.28
   1   0   4    2.68    0.25
   1   0   4    2.70    0.25
  -2   0  -4  163.49    5.59
  -2   0  -4  155.65    5.55
  -2   0  -4  159.87    5.60
  -2   0  -4  161.86    5.60
  -2   0  -4  161.02    5.60
  -2   0  -4  156.55    5.63
  -2   0  -4  167.96    5.74
   2   0   4  163.68    5.71
   2   0   4  166.42    5.61
   2   0   4  157.09    5.59
   2   0   4  164.29    5.60
   2   0   4  154.94    5.58
   2   0   4  162.07    5.63
  -3   0  -4   52.53    1.95
  -3   0  -4   51.87    1.91
  -3   0  -4   51.30    2.09
  -3   0  -4   48.72    1.90
  -3   0  -4   51.46    1.90
  -3   0  -4   49.71    1.91
  -3   0  -4   50.03    1.85
   3   0   4   52.01    2.20
   3   0   4   50.08    2.03
   3   0   4   46.33    2.00
   3   0   4   49.88    1.90
   3   0   4   49.16    1.93
   3   0   4   51.31    1.90
   3   0   4   49.99    1.89
  -4   0  -4   35.44    1.51
  -4   0  -4   36.75    1.47
  -4   0  -4   34.33    1.46
  -4   0  -4   33.51    1.67
  -4   0  -4   35.63    1.47
  -4   0  -4   35.02    1.44
  -4   0  -4   36.43    1.42
   4   0   4   36.99    1.62
   4   0   4   35.09    1.45
   4   0   4   35.32    1.44
   4   0   4   34.36    1.45
   4   0   4   35.15    1.49
   4   0   4   36.54    1.47
   4   0   4   39.94    1.83
  -5   0  -4   35.89    1.45
  -5   0  -4   36.61    1.58
  -5   0  -4   39.80    1.52
  -5   0  -4   36.81    1.84
  -5   0  -4   36.67    1.58
  -5   0  -4   36.46    1.57
   5   0   4   35.67    1.54
   5   0   4   39.01    1.58
   5   0   4   36.97    1.57
   5   0   4   36.36    1.60
  -6   0  -4   -0.36    0.32
  -6   0  -4   -0.10    0.30
  -6   0  -4   -0.22    0.26
  -6   0  -4   -0.14    0.54
   6   0   4    0.19    0.36
   6   0   4    0.00    0.31
   6   0   4    0.06    0.31
   6   0   4   -0.43    0.29
  -7   0  -4    2.36    0.55
  -7   0  -4    0.73    0.82
  -7   0  -4    0.44    0.40
  -7   0  -4    1.23    0.42
   7   0   4    1.41    0.54
   7   0   4    1.43    0.41
   7   0   4    0.75    0.51
   7   0   4    0.97    0.41
  -8   0  -4    1.39    1.07
  -8   0  -4   -0.18    0.44
  -8   0  -4    0.08    0.49
   8   0   4    0.20    0.48
   8   0   4    0.11    0.40
   8   0   4    0.70    0.44
   9  -1  -4    3.32    0.63
   9  -1  -4    4.66    0.76
   9  -1  -4    4.38    0.58
  -9   1   4    6.33    1.65
  -9   1   4    4.32    0.66
   8  -1  -4    4.14    0.55
   8  -1  -4    3.63    0.51
  -8   1   4    5.22    1.09
  -8   1   4    5.11    1.32
  -8   1   4    3.53    0.53
   7  -1  -4   29.27    1.39
   7  -1  -4   28.79    1.34
   7  -1  -4   28.64    1.33
   7  -1  -4   27.13    1.57
  -7   1   4   29.84    1.40
  -7   1   4   22.83    1.92
  -7   1   4   29.69    1.40
  -7   1   4   27.36    2.05
   6  -1  -4   16.71    0.83
   6  -1  -4   15.92    0.92
   6  -1  -4   17.49    1.02
   6  -1  -4   16.97    0.94
   6  -1  -4   17.56    0.91
   6  -1  -4   16.12    0.90
  -6   1   4   15.34    1.38
  -6   1   4   16.01    0.95
  -6   1   4   16.20    1.47
  -6   1   4   16.38    0.94
  -6   1   4   21.11    1.54
   5  -1  -4  105.41    3.97
   5  -1  -4  112.39    3.99
   5  -1  -4  110.57    3.97
   5  -1  -4  114.35    4.24
   5  -1  -4  112.16    4.05
   5  -1  -4  110.69    4.12
   5  -1  -4  111.46    3.97
   5  -1  -4  109.95    3.99
  -5   1   4  112.45    4.00
  -5   1   4  124.21    4.32
  -5   1   4  104.99    3.96
  -5   1   4  109.20    4.02
  -5   1   4  103.10    4.41
  -5   1   4  110.02    4.00
  -5   1   4  105.50    4.43
   4  -1  -4  145.76    5.19
   4  -1  -4  142.51    5.20
   4  -1  -4  138.67    5.18
   4  -1  -4  155.35    5.40
   4  -1  -4  154.66    5.35
   4  -1  -4  138.78    5.26
   4  -1  -4  153.90    5.22
  -4   1   4  162.67    5.46
  -4   1   4  146.31    5.23
  -4   1   4  149.92    5.58
  -4   1   4  149.01    5.22
  -4   1   4  142.15    5.21
  -4   1   4  146.66    5.20
  -4   1   4  146.93    5.43
   3  -1  -4  559.68   20.00
   3  -1  -4  599.31   20.01
   3  -1  -4  585.05   20.02
   3  -1  -4  609.20   20.15
   3  -1  -4  574.53   20.11
   3  -1  -4  604.31   20.15
   3  -1  -4  550.66   20.01
  -3   1   4  654.90   20.24
  -3   1   4  562.87   20.01
  -3   1   4  593.63   20.06
  -3   1   4  584.02   20.02
  -3   1   4  598.21   20.27
  -3   1   4  583.40   20.03
  -3   1   4  574.55   20.20
   2  -1  -4  439.51   15.23
   2  -1  -4  471.16   15.40
   2  -1  -4  444.01   15.24
   2  -1  -4  459.00   15.25
   2  -1  -4  417.74   15.32
   2  -1  -4  460.55   15.36
   2  -1  -4  446.54   15.23
   2  -1  -4  459.98   15.28
  -2   1   4  457.18   15.38
  -2   1   4  441.56   15.25
  -2   1   4  428.15   15.35
  -2   1   4  443.11   15.41
  -2   1   4  459.95   15.24
  -2   1   4  444.67   15.23
  -2   1   4  435.84   15.24
   1  -1  -4  482.12   16.19
   1  -1  -4  474.30   16.19
   1  -1  -4  513.54   16.31
   1  -1  -4  463.00   16.17
   1  -1  -4  455.89   16.24
  -1   1   4  463.37   16.18
  -1   1   4  470.74   16.35
  -1   1   4  486.88   16.17
  -1   1   4  492.29   16.40
  -1   1   4  467.18   16.18
  -1   1   4  460.86   16.25
  -1  -1  -4    9.65    0.55
  -1  -1  -4    9.93    0.49
  -1  -1  -4    9.15    0.48
  -1  -1  -4    9.42    0.51
  -1  -1  -4    9.41    0.48
   1   1   4    8.71    0.70
   1   1   4    9.83    0.48
   1   1   4    9.95    0.50
   1   1   4    9.28    0.61
   1   1   4    9.87    0.48
   1   1   4    9.96    0.51
   1   1   4   10.43    0.49
   1   1   4    9.85    0.55
  -2  -1  -4  690.90   24.07
   2   1   4  715.53   24.29
   2   1   4  699.71   24.13
   2   1   4  721.70   24.08
   2   1   4  713.85   24.07
  -3  -1  -4  198.37    7.10
  -3  -1  -4  196.28    7.08
  -3  -1  -4  201.67    7.09
  -3  -1  -4  206.01    7.08
  -3  -1  -4  204.81    7.10
  -3  -1  -4  203.24    7.07
   3   1   4  198.85    7.07
   3   1   4  222.54    7.36
   3   1   4  211.80    7.10
   3   1   4  194.16    7.23
   3   1   4  204.86    7.08
   3   1   4  207.72    7.09
   3   1   4  197.92    7.09
  -4  -1  -4  101.18    3.88
  -4  -1  -4  108.42    3.93
  -4  -1  -4  106.53    3.90
  -4  -1  -4  102.85    3.89
  -4  -1  -4  105.07    3.89
  -4  -1  -4  106.79    3.90
  -4  -1  -4  113.58    3.98
   4   1   4  105.16    4.08
   4   1   4  106.60    3.89
   4   1   4  119.31    4.25
   4   1   4  108.63    3.89
   4   1   4  105.46    3.87
   4   1   4  106.97    3.89
   4   1   4  109.94    3.90
  -5  -1  -4   82.45    3.13
  -5  -1  -4   82.83    3.12
  -5  -1  -4   82.02    3.13
  -5  -1  -4   83.05    3.15
  -5  -1  -4   80.21    3.17
   5   1   4   80.94    3.08
   5   1   4   84.66    3.13
   5   1   4   84.40    3.11
   5   1   4   82.69    3.10
   5   1   4   82.51    3.35
   5   1   4   86.04    3.53
  -6  -1  -4    8.01    0.89
  -6  -1  -4    6.09    0.72
  -6  -1  -4    6.68    0.85
  -6  -1  -4    6.23    0.70
  -6  -1  -4    5.78    0.70
   6   1   4    7.15    0.68
   6   1   4    6.92    0.68
   6   1   4    6.84    0.93
   6   1   4    6.02    0.64
  -7  -1  -4   17.63    1.39
  -7  -1  -4   17.73    1.12
  -7  -1  -4   18.23    1.17
   7   1   4   17.43    1.08
   7   1   4   18.80    1.46
   7   1   4   18.05    1.08
   7   1   4   16.85    1.05
  -8  -1  -4    1.49    0.53
  -8  -1  -4    1.06    0.55
   8   1   4    0.31    0.50
   8   1   4    0.52    0.50
   8   1   4    1.89    0.82
   8   1   4    1.69    0.53
   9  -2  -4    1.31    0.65
   8  -2  -4    1.77    0.62
   8  -2  -4    3.11    0.56
   8  -2  -4    3.28    0.52
  -8   2   4    2.59    0.53
  -8   2   4    3.25    1.39
  -8   2   4   -0.20    1.54
   7  -2  -4   11.26    1.07
   7  -2  -4   12.08    0.82
   7  -2  -4   11.35    0.84
  -7   2   4   11.37    1.71
  -7   2   4   12.35    0.95
  -7   2   4   11.41    0.83
   6  -2  -4   34.13    1.50
   6  -2  -4   32.96    1.59
   6  -2  -4   34.25    1.51
  -6   2   4   35.68    1.47
  -6   2   4   36.84    1.53
  -6   2   4   31.74    1.50
  -6   2   4   35.04    2.24
   5  -2  -4   81.06    3.14
   5  -2  -4   79.20    3.35
   5  -2  -4   76.35    2.90
   5  -2  -4   76.74    2.88
   5  -2  -4   73.31    2.95
   5  -2  -4   77.02    2.98
   5  -2  -4   78.09    2.90
  -5   2   4   76.92    3.32
  -5   2   4   78.90    2.90
  -5   2   4   78.15    3.53
  -5   2   4   74.14    2.90
  -5   2   4   78.40    2.87
  -5   2   4   83.39    3.35
   4  -2  -4   83.17    3.09
   4  -2  -4   77.03    2.89
   4  -2  -4   81.00    2.92
   4  -2  -4   79.41    3.02
   4  -2  -4   80.46    2.90
   4  -2  -4   80.10    2.90
   4  -2  -4   83.31    3.19
  -4   2   4   70.46    2.90
  -4   2   4   83.45    2.91
  -4   2   4   79.41    3.09
  -4   2   4   68.96    3.11
  -4   2   4   81.77    2.87
  -4   2   4   79.08    3.29
  -4   2   4   84.62    3.01
  -4   2   4   78.12    3.42
   3  -2  -4   76.18    2.65
   3  -2  -4   73.83    2.62
   3  -2  -4   70.63    2.62
   3  -2  -4   71.45    2.62
   3  -2  -4   73.38    2.88
   3  -2  -4   76.70    2.75
   3  -2  -4   70.12    2.75
  -3   2   4   70.34    2.63
  -3   2   4   73.49    2.86
  -3   2   4   73.92    2.63
  -3   2   4   73.49    2.60
  -3   2   4   74.51    2.63
  -3   2   4   69.64    2.81
  -3   2   4   70.69    2.98
  -3   2   4   66.58    3.01
   2  -2  -4  318.30   11.00
   2  -2  -4  335.50   11.25
   2  -2  -4  324.35   10.99
   2  -2  -4  324.49   11.01
   2  -2  -4  319.47   11.39
   2  -2  -4  328.43   11.05
   2  -2  -4  316.06   10.99
   2  -2  -4  311.38   11.12
  -2   2   4  321.00   10.95
  -2   2   4  306.85   11.00
  -2   2   4  328.66   11.35
  -2   2   4  323.69   10.97
  -2   2   4  305.04   11.31
  -2   2   4  335.69   11.18
   1  -2  -4  131.84    4.61
   1  -2  -4  132.59    4.57
   1  -2  -4  138.08    4.80
   1  -2  -4  131.42    4.57
   1  -2  -4  131.02    4.68
   1  -2  -4  142.59    4.77
   1  -2  -4  133.10    4.59
   1  -2  -4  129.62    4.90
   1  -2  -4  131.43    4.58
  -1   2   4  131.12    4.90
  -1   2   4  126.57    4.57
  -1   2   4  132.19    4.70
  -1   2   4  127.91    4.52
  -1   2   4  117.13    4.56
  -1   2   4  128.09    4.81
  -1   2   4  134.80    4.53
   0  -2  -4  184.89    6.39
   0  -2  -4  184.85    6.39
   0  -2  -4  184.41    6.40
   0  -2  -4  184.91    6.66
   0  -2  -4  181.44    6.37
   0  -2  -4  195.34    6.51
   0  -2  -4  178.14    6.48
   0   2   4  185.91    6.35
   0   2   4  186.43    6.72
   0   2   4  181.34    6.38
   0   2   4  182.01    6.66
   0   2   4  185.87    6.50
   0   2   4  183.54    6.36
   0   2   4  190.84    6.53
  -1  -2  -4  212.42    7.38
  -1  -2  -4  217.01    7.40
  -1  -2  -4  205.24    7.48
  -1  -2  -4  216.31    7.40
  -1  -2  -4  221.72    7.44
  -1  -2  -4  217.62    7.65
  -1  -2  -4  219.03    7.40
   1   2   4  215.21    7.39
   1   2   4  212.99    7.39
   1   2   4  213.94    7.56
   1   2   4  209.59    7.73
   1   2   4  217.00    7.39
   1   2   4  206.43    7.64
  -2  -2  -4   10.57    0.77
  -2  -2  -4   11.17    0.77
  -2  -2  -4   10.35    0.68
  -2  -2  -4   11.47    0.59
  -2  -2  -4   10.62    0.59
  -2  -2  -4   10.98    0.58
  -2  -2  -4   12.23    0.62
   2   2   4   11.08    0.63
   2   2   4   10.54    0.94
   2   2   4   10.96    0.61
   2   2   4   10.52    0.84
   2   2   4   10.71    0.56
   2   2   4   10.94    0.90
   2   2   4   11.09    0.59
   2   2   4   11.13    0.55
  -3  -2  -4   72.81    2.71
  -3  -2  -4   71.72    2.70
  -3  -2  -4   74.22    2.63
  -3  -2  -4   73.00    2.70
  -3  -2  -4   73.86    2.80
  -3  -2  -4   71.09    2.69
  -3  -2  -4   73.27    2.91
   3   2   4   77.83    2.86
   3   2   4   69.04    2.69
   3   2   4   72.41    2.67
   3   2   4   72.91    2.70
   3   2   4   73.68    2.70
   3   2   4   72.14    3.00
  -4  -2  -4    4.01    0.41
  -4  -2  -4    2.63    0.39
  -4  -2  -4    3.89    0.51
  -4  -2  -4    3.20    0.56
  -4  -2  -4    3.53    0.43
  -4  -2  -4    3.34    0.48
   4   2   4    3.42    0.42
   4   2   4    3.58    0.67
   4   2   4    2.92    0.41
   4   2   4    2.98    0.77
   4   2   4    4.21    0.68
   4   2   4    3.42    0.44
  -5  -2  -4   14.38    0.91
  -5  -2  -4   13.80    0.86
  -5  -2  -4   13.44    0.89
  -5  -2  -4   14.60    1.01
   5   2   4   14.91    0.86
   5   2   4   11.25    0.97
   5   2   4   13.93    0.85
   5   2   4   15.80    1.15
   5   2   4   13.94    1.23
  -6  -2  -4   13.51    0.87
  -6  -2  -4   12.11    0.92
  -6  -2  -4   13.25    0.93
   6   2   4   10.42    0.91
   6   2   4   12.00    0.84
   6   2   4   13.11    1.56
   6   2   4   11.02    0.86
  -7  -2  -4    3.87    0.62
  -7  -2  -4    2.03    0.48
   7   2   4    4.30    1.15
   7   2   4    4.07    0.56
   7   2   4    0.85    0.67
   7   2   4    2.20    0.45
  -8  -2  -4    5.41    0.90
  -8  -2  -4    5.43    0.76
   8   2   4    6.21    0.73
   8   2   4    7.92    1.36
   8  -3  -4    5.37    0.71
   8  -3  -4    6.12    1.07
   8  -3  -4    6.57    0.91
   8  -3  -4    6.30    0.91
  -8   3   4    6.98    2.28
   7  -3  -4   12.56    0.88
   7  -3  -4   12.34    1.51
   7  -3  -4   13.39    0.96
  -7   3   4   16.50    2.19
   6  -3  -4    6.30    0.62
   6  -3  -4    6.94    0.75
   6  -3  -4    6.12    0.69
  -6   3   4    6.13    1.25
  -6   3   4    7.18    1.46
  -6   3   4    7.25    0.52
   5  -3  -4   67.24    2.63
   5  -3  -4   69.49    2.88
   5  -3  -4   70.05    2.62
   5  -3  -4   67.09    2.69
   5  -3  -4   70.69    2.77
   5  -3  -4   69.82    2.63
  -5   3   4   74.81    2.88
  -5   3   4   66.42    3.42
  -5   3   4   69.92    2.63
   4  -3  -4   56.19    2.35
   4  -3  -4   59.36    2.22
   4  -3  -4   60.42    2.22
   4  -3  -4   59.29    2.22
   4  -3  -4   62.70    2.42
   4  -3  -4   57.52    2.38
   4  -3  -4   57.74    2.30
  -4   3   4   58.76    2.21
  -4   3   4   62.62    2.42
  -4   3   4   59.75    2.81
  -4   3   4   54.93    2.92
  -4   3   4   54.97    2.46
   3  -3  -4   19.42    0.92
   3  -3  -4   20.73    1.11
   3  -3  -4   21.06    0.91
   3  -3  -4   21.06    0.91
   3  -3  -4   20.69    0.93
   3  -3  -4   19.26    1.08
   3  -3  -4   21.18    1.04
  -3   3   4   21.79    1.12
  -3   3   4   21.28    1.46
  -3   3   4   20.11    0.89
  -3   3   4   18.82    1.54
  -3   3   4   22.42    1.20
   2  -3  -4  162.47    5.90
   2  -3  -4  167.46    5.95
   2  -3  -4  169.03    5.78
   2  -3  -4  169.29    5.77
   2  -3  -4  161.56    6.21
   2  -3  -4  167.87    5.76
   2  -3  -4  162.90    5.78
   2  -3  -4  157.25    6.01
   2  -3  -4  159.41    6.40
   2  -3  -4  166.98    5.75
  -2   3   4  169.70    6.30
  -2   3   4  171.17    5.76
  -2   3   4  172.55    5.98
  -2   3   4  158.26    5.76
  -2   3   4  167.91    6.28
   1  -3  -4   22.93    1.11
   1  -3  -4   20.63    1.40
   1  -3  -4   23.32    0.94
   1  -3  -4   22.76    1.19
   1  -3  -4   20.63    1.18
   1  -3  -4   21.15    0.93
   1  -3  -4   21.43    0.92
   1  -3  -4   21.98    1.25
   1  -3  -4   24.08    1.17
   1  -3  -4   22.25    0.94
  -1   3   4   21.43    0.91
  -1   3   4   22.67    1.34
  -1   3   4   21.41    1.40
  -1   3   4   22.53    1.09
  -1   3   4   21.11    0.89
   0  -3  -4   61.57    2.21
   0  -3  -4   58.99    2.47
   0  -3  -4   62.12    2.21
   0  -3  -4   55.57    2.62
   0  -3  -4   63.07    2.38
   0  -3  -4   59.54    2.19
   0  -3  -4   56.33    2.50
   0  -3  -4   60.23    2.37
   0  -3  -4   59.64    2.19
   0   3   4   63.91    2.50
   0   3   4   57.62    2.17
   0   3   4   60.84    2.68
   0   3   4   59.31    2.19
   0   3   4   59.43    2.65
  -1  -3  -4    2.10    0.29
  -1  -3  -4    1.55    0.27
  -1  -3  -4    2.38    0.60
  -1  -3  -4    2.24    0.27
  -1  -3  -4    1.83    0.28
  -1  -3  -4    3.38    0.71
  -1  -3  -4    1.96    0.39
  -1  -3  -4    3.02    0.43
   1   3   4    3.26    0.72
   1   3   4    2.64    0.65
   1   3   4    1.97    0.25
   1   3   4    2.56    0.44
   1   3   4    1.36    0.24
  -2  -3  -4   81.88    3.17
  -2  -3  -4   87.86    3.00
  -2  -3  -4   82.56    2.98
  -2  -3  -4   80.46    3.03
  -2  -3  -4   81.94    2.99
  -2  -3  -4   81.69    2.98
   2   3   4   80.71    2.97
   2   3   4   79.77    3.65
   2   3   4   80.07    2.91
   2   3   4   83.27    2.99
   2   3   4   80.39    3.45
  -3  -3  -4   14.02    0.80
  -3  -3  -4   15.90    0.84
  -3  -3  -4   13.90    0.76
  -3  -3  -4   14.21    0.80
  -3  -3  -4   15.31    0.67
  -3  -3  -4   14.47    0.98
   3   3   4   13.31    0.68
   3   3   4   17.66    1.34
   3   3   4   14.90    0.80
   3   3   4   14.32    0.76
   3   3   4   15.00    1.28
   3   3   4   12.64    0.89
  -4  -3  -4   37.85    1.63
  -4  -3  -4   37.48    1.62
  -4  -3  -4   36.66    1.82
  -4  -3  -4   37.78    1.60
   4   3   4   38.51    1.75
   4   3   4   36.75    1.57
   4   3   4   35.18    1.49
   4   3   4   38.11    1.60
   4   3   4   38.90    2.11
  -5  -3  -4    7.27    0.72
  -5  -3  -4    6.66    0.81
  -5  -3  -4    6.51    0.85
   5   3   4    5.93    1.14
   5   3   4    6.30    0.99
   5   3   4    7.72    0.69
   5   3   4    8.52    1.01
   5   3   4    6.86    0.68
  -6  -3  -4   14.09    1.01
  -6  -3  -4   13.08    1.06
  -6  -3  -4   16.15    1.15
   6   3   4   14.30    1.63
   6   3   4   12.11    1.60
   6   3   4   14.72    0.99
  -7  -3  -4    7.62    1.04
  -7  -3  -4    8.82    1.09
  -7  -3  -4    7.48    0.99
   7   3   4    9.32    1.36
   7   3   4    6.77    1.31
   7   3   4    7.40    0.91
   7  -4  -4    0.78    0.55
   7  -4  -4    0.34    1.08
   7  -4  -4    0.30    0.51
  -7   4   4   -0.26    2.23
   6  -4  -4    1.54    0.44
   6  -4  -4    1.16    0.56
   6  -4  -4    1.08    0.37
  -6   4   4    1.29    1.31
   5  -4  -4    3.34    0.48
   5  -4  -4    3.94    0.64
   5  -4  -4    3.03    0.45
  -5   4   4    4.42    1.09
  -5   4   4    4.17    0.74
  -5   4   4    3.17    1.15
   4  -4  -4   10.67    0.80
   4  -4  -4   10.61    0.69
   4  -4  -4   10.50    0.95
   4  -4  -4    9.32    0.75
   4  -4  -4    9.22    0.67
   4  -4  -4    9.77    0.63
  -4   4   4    9.16    1.60
  -4   4   4   10.22    1.48
   3  -4  -4    1.13    0.34
   3  -4  -4    0.62    0.24
   3  -4  -4    0.54    0.27
   3  -4  -4    1.01    0.26
   3  -4  -4    0.46    0.41
   3  -4  -4    0.95    0.28
  -3   4   4    0.47    0.18
  -3   4   4    0.42    0.84
  -3   4   4    1.06    0.80
   2  -4  -4   63.54    2.61
   2  -4  -4   59.39    2.65
   2  -4  -4   61.93    2.34
   2  -4  -4   66.32    2.37
   2  -4  -4   63.62    2.36
   2  -4  -4   63.36    2.34
   2  -4  -4   62.56    2.30
  -2   4   4   62.91    2.28
  -2   4   4   63.88    3.09
  -2   4   4   66.74    3.13
   1  -4  -4   37.04    1.76
   1  -4  -4   36.39    1.38
   1  -4  -4   35.14    1.42
   1  -4  -4   35.34    1.42
   1  -4  -4   36.95    1.39
   1  -4  -4   32.88    1.76
   1  -4  -4   35.57    1.69
  -1   4   4   34.20    1.34
  -1   4   4   36.77    2.18
  -1   4   4   36.56    2.00
   0  -4  -4   15.70    0.78
   0  -4  -4   13.58    1.18
   0  -4  -4   16.64    1.02
   0  -4  -4   16.25    0.78
   0  -4  -4   16.30    1.07
   0  -4  -4   16.43    0.76
   0  -4  -4   14.76    0.78
   0   4   4   17.85    1.47
   0   4   4   17.20    1.23
   0   4   4   15.20    0.71
  -1  -4  -4   89.45    3.19
  -1  -4  -4   79.97    3.67
  -1  -4  -4   92.41    3.30
  -1  -4  -4   86.35    3.18
  -1  -4  -4   87.51    3.29
   1   4   4   84.83    3.16
   1   4   4   90.96    3.88
   1   4   4   89.07    3.87
  -2  -4  -4    8.65    0.57
  -2  -4  -4    7.25    0.62
  -2  -4  -4    9.50    0.61
  -2  -4  -4    8.19    0.64
  -2  -4  -4    7.52    0.87
  -2  -4  -4    8.54    0.63
   2   4   4    7.94    0.56
   2   4   4    9.07    1.24
   2   4   4    9.77    1.30
  -3  -4  -4    7.05    0.65
  -3  -4  -4    9.46    0.95
  -3  -4  -4    9.02    0.90
  -3  -4  -4    8.14    0.59
   3   4   4    9.68    1.30
   3   4   4    9.02    1.36
  -4  -4  -4   14.66    0.92
  -4  -4  -4   13.70    0.94
  -4  -4  -4   13.25    1.16
   4   4   4   14.67    1.65
   4   4   4   15.86    2.38
  -5  -4  -4    0.09    0.41
  -5  -4  -4    0.27    0.55
  -5  -4  -4   -0.13    0.46
   5   4   4    1.66    1.06
   5   4   4    0.59    0.85
  -6  -4  -4   -0.17    0.56
  -6  -4  -4    1.21    0.60
  -6  -4  -4    1.17    0.77
   6   4   4    1.73    1.32
   6   4   4    0.33    1.02
   5  -5  -4    1.94    0.71
   5  -5  -4    2.60    0.39
   5  -5  -4    2.65    0.87
  -5   5   4   -0.06    1.60
   4  -5  -4    3.02    0.73
   4  -5  -4    1.85    0.29
  -4   5   4    2.72    1.26
  -4   5   4    0.80    1.24
   3  -5  -4    4.76    0.60
   3  -5  -4    3.83    0.73
   3  -5  -4    4.80    0.47
  -3   5   4    5.31    1.31
  -3   5   4    5.57    1.24
   2  -5  -4   10.08    1.08
   2  -5  -4    8.18    0.67
  -2   5   4    8.23    1.33
  -2   5   4   11.65    1.72
   1  -5  -4   16.97    0.95
   1  -5  -4   19.41    1.34
  -1   5   4   20.30    1.88
  -1   5   4   19.18    1.83
   0  -5  -4   14.81    1.25
   0  -5  -4   15.64    0.74
   0  -5  -4   15.45    0.73
   0  -5  -4   15.30    0.88
   0   5   4   17.71    1.83
   0   5   4   18.88    1.78
   0   5   4   15.65    1.49
  -1  -5  -4    1.01    0.31
  -1  -5  -4    0.54    0.36
  -1  -5  -4    0.45    0.54
  -1  -5  -4    0.75    0.26
   1   5   4    0.22    0.92
   1   5   4    1.05    0.85
  -2  -5  -4   15.15    1.35
  -2  -5  -4   14.75    1.03
  -2  -5  -4   15.33    0.92
   2   5   4   16.66    1.96
   2   5   4   17.35    1.72
  -3  -5  -4    3.54    0.74
  -3  -5  -4    4.09    0.59
  -3  -5  -4    3.91    0.55
   3   5   4    5.49    1.32
   3   5   4    4.18    1.12
  -4  -5  -4    0.34    0.52
  -4  -5  -4    1.95    0.89
  -4  -5  -4    0.67    0.52
   4   5   4   -0.71    1.41
   4   5   4    1.27    1.03
   4   5  -5    4.44    1.34
   4   5  -5    5.44    1.24
  -4  -5   5    5.71    1.10
  -4  -5   5    4.71    0.57
  -4  -5   5    6.21    0.84
   3   5  -5    3.49    1.00
   3   5  -5    2.91    1.08
  -3  -5   5    4.31    1.03
   2   5  -5    7.14    1.32
   2   5  -5    5.89    1.14
  -2  -5   5    4.67    0.76
  -2  -5   5    5.00    0.94
   1   5  -5    2.61    0.91
   1   5  -5    1.65    0.75
  -1  -5   5    0.92    0.71
  -1  -5   5    1.45    0.43
  -1  -5   5    1.64    0.56
   0   5  -5    6.32    1.22
   0  -5   5    4.77    0.78
   0  -5   5    5.07    0.88
   0  -5   5    4.66    0.77
  -1   5  -5    3.04    1.00
   1  -5   5    2.08    0.76
   1  -5   5    4.23    1.01
   1  -5   5    3.16    0.72
  -2   5  -5    3.21    1.21
  -2   5  -5    4.04    0.85
   2  -5   5    3.71    0.87
   2  -5   5    3.06    0.66
  -3   5  -5    6.00    1.46
   3  -5   5    6.56    1.07
   3  -5   5    4.01    0.76
   6   4  -5   12.40    2.21
   6   4  -5   16.72    1.65
  -6  -4   5   15.01    1.21
  -6  -4   5   15.31    1.06
  -6  -4   5   15.49    1.81
   5   4  -5    4.29    1.08
   5   4  -5    3.85    0.83
  -5  -4   5    3.35    0.59
  -5  -4   5    2.27    0.83
  -5  -4   5    3.49    0.47
   4   4  -5   27.01    1.79
   4   4  -5   28.49    2.13
  -4  -4   5   27.47    1.38
  -4  -4   5   26.56    1.23
  -4  -4   5   28.34    1.80
  -4  -4   5   29.39    1.35
   3   4  -5   30.54    2.06
   3   4  -5   29.27    1.88
   3   4  -5   29.03    1.15
  -3  -4   5   30.63    1.31
  -3  -4   5   29.62    1.23
  -3  -4   5   29.50    1.21
  -3  -4   5   26.97    1.36
  -3  -4   5   30.47    1.24
  -3  -4   5   30.33    1.75
   2   4  -5    3.23    0.73
   2   4  -5    5.42    0.93
  -2  -4   5    3.27    0.45
  -2  -4   5    2.74    0.34
  -2  -4   5    3.26    0.69
  -2  -4   5    3.17    0.34
  -2  -4   5    3.19    0.43
  -2  -4   5    2.47    0.36
  -2  -4   5    2.85    0.56
   1   4  -5   48.22    2.35
   1   4  -5   44.76    2.83
  -1  -4   5   44.64    2.21
  -1  -4   5   46.66    1.85
  -1  -4   5   48.83    2.24
  -1  -4   5   45.60    1.73
   0   4  -5    2.23    0.68
   0   4  -5    1.84    0.61
   0   4  -5    1.23    0.82
   0  -4   5    1.90    0.55
   0  -4   5    1.66    0.36
   0  -4   5    1.83    0.26
   0  -4   5    1.55    0.55
   0  -4   5    1.66    0.20
   0  -4   5    2.90    0.44
  -1   4  -5   14.24    1.16
  -1   4  -5   13.11    1.50
   1  -4   5   14.27    0.63
   1  -4   5   12.86    1.32
   1  -4   5   13.74    0.92
   1  -4   5   14.11    0.76
   1  -4   5   13.37    1.19
   1  -4   5   14.02    0.63
  -2   4  -5    5.49    0.80
  -2   4  -5    6.07    1.20
   2  -4   5    4.97    0.97
   2  -4   5    4.88    0.40
   2  -4   5    4.30    0.40
   2  -4   5    4.24    0.72
   2  -4   5    4.87    0.37
   2  -4   5    4.09    0.52
   2  -4   5    3.98    0.90
  -3   4  -5    1.42    0.91
  -3   4  -5    3.28    0.58
  -3   4  -5    1.58    1.03
   3  -4   5    2.26    0.66
   3  -4   5    2.41    0.34
   3  -4   5    2.42    0.56
   3  -4   5    2.64    0.34
   3  -4   5    2.54    0.37
  -4   4  -5   15.07    2.08
  -4   4  -5   16.03    2.13
   4  -4   5   15.96    1.20
   4  -4   5   15.12    0.79
   4  -4   5   15.76    0.85
   4  -4   5   15.30    0.80
  -5   4  -5    3.67    1.60
  -5   4  -5    0.68    1.37
   5  -4   5    1.46    0.34
   5  -4   5    0.39    0.60
   5  -4   5    0.96    0.46
   8   3  -5    0.50    0.82
   8   3  -5    2.42    1.70
  -8  -3   5    0.18    0.60
  -8  -3   5   -1.44    1.16
  -8  -3   5   -0.33    0.72
   7   3  -5    4.18    1.34
   7   3  -5    7.02    1.20
   7   3  -5    6.00    0.76
  -7  -3   5    6.55    0.73
  -7  -3   5    9.31    1.59
  -7  -3   5    7.49    0.84
   6   3  -5    2.83    1.07
   6   3  -5    5.76    1.00
   6   3  -5    5.85    0.62
  -6  -3   5    6.54    0.81
  -6  -3   5    4.87    0.90
  -6  -3   5    4.97    0.65
   5   3  -5   10.98    1.11
   5   3  -5   12.73    2.62
   5   3  -5    9.61    0.59
   5   3  -5   11.43    0.68
  -5  -3   5   12.43    1.81
  -5  -3   5   11.57    0.73
  -5  -3   5   11.90    0.84
  -5  -3   5    9.75    0.75
   4   3  -5    5.93    1.11
   4   3  -5    5.79    0.86
   4   3  -5    5.53    0.43
   4   3  -5    4.81    0.38
  -4  -3   5    4.22    0.46
  -4  -3   5    4.71    0.51
  -4  -3   5    4.83    0.47
  -4  -3   5    5.16    0.56
  -4  -3   5    4.78    0.85
   3   3  -5  117.16    4.19
   3   3  -5  123.28    4.90
   3   3  -5  114.92    4.69
   3   3  -5  117.35    4.24
  -3  -3   5  122.98    4.68
  -3  -3   5  120.73    4.24
  -3  -3   5  121.59    4.29
  -3  -3   5  118.17    4.28
  -3  -3   5  124.21    4.28
  -3  -3   5  124.19    4.30
  -3  -3   5  120.53    4.27
   2   3  -5   16.84    0.73
   2   3  -5   17.51    1.18
   2   3  -5   17.34    0.79
   2   3  -5   18.11    1.21
   2   3  -5   15.56    0.73
   2   3  -5   16.62    1.08
  -2  -3   5   17.27    0.76
  -2  -3   5   17.86    0.78
  -2  -3   5   17.59    0.86
  -2  -3   5   17.91    0.81
  -2  -3   5   17.18    0.89
  -2  -3   5   17.55    1.17
  -2  -3   5   16.03    1.41
  -2  -3   5   16.85    0.98
  -2  -3   5   17.37    0.75
   1   3  -5  201.03    7.48
   1   3  -5  208.43    7.17
   1   3  -5  205.14    7.44
   1   3  -5  197.01    7.62
   1   3  -5  198.85    7.02
   1   3  -5  202.52    7.01
  -1  -3   5  203.69    7.38
  -1  -3   5  187.11    7.66
  -1  -3   5  216.27    7.18
  -1  -3   5  206.50    7.06
  -1  -3   5  200.10    7.03
  -1  -3   5  200.26    7.37
  -1  -3   5  210.58    7.05
  -1  -3   5  208.68    7.45
  -1  -3   5  197.56    7.04
  -1  -3   5  206.32    7.13
  -1  -3   5  214.62    7.47
  -1  -3   5  230.30    8.16
   0   3  -5  215.66    7.41
   0   3  -5  208.33    7.18
   0   3  -5  215.35    7.58
   0   3  -5  210.76    7.89
   0   3  -5  217.82    7.66
   0  -3   5  198.00    7.30
   0  -3   5  201.26    7.21
   0  -3   5  212.20    7.28
   0  -3   5  213.82    7.46
   0  -3   5  200.61    7.67
   0  -3   5  205.09    7.92
   0  -3   5  213.60    7.37
   0  -3   5  214.34    7.53
   0  -3   5  207.37    7.22
   0  -3   5  221.36    7.21
   0  -3   5  219.20    7.65
  -1   3  -5   24.51    0.94
  -1   3  -5   23.71    0.94
  -1   3  -5   26.50    1.70
  -1   3  -5   26.29    1.36
   1  -3   5   23.70    1.25
   1  -3   5   26.91    1.25
   1  -3   5   22.80    1.50
   1  -3   5   25.67    0.97
   1  -3   5   25.01    0.98
   1  -3   5   24.09    0.97
   1  -3   5   25.33    1.38
   1  -3   5   25.86    0.97
   1  -3   5   25.38    0.99
   1  -3   5   25.30    1.18
  -2   3  -5  194.08    6.59
  -2   3  -5  183.41    7.27
  -2   3  -5  188.31    7.46
  -2   3  -5  191.12    6.88
   2  -3   5  195.97    6.79
   2  -3   5  194.10    6.58
   2  -3   5  186.32    6.59
   2  -3   5  188.12    6.86
   2  -3   5  193.23    6.58
   2  -3   5  193.61    6.59
  -3   3  -5   42.08    2.02
  -3   3  -5   45.96    2.83
  -3   3  -5   51.94    2.70
  -3   3  -5   48.59    2.02
   3  -3   5   47.73    2.15
   3  -3   5   48.95    1.83
   3  -3   5   48.52    1.83
   3  -3   5   50.16    1.86
   3  -3   5   50.97    2.07
   3  -3   5   50.79    1.85
  -4   3  -5   15.60    0.86
  -4   3  -5   13.70    1.91
  -4   3  -5   16.88    1.77
  -4   3  -5   14.72    0.77
   4  -3   5   16.06    0.79
   4  -3   5   15.79    0.80
   4  -3   5   17.54    0.82
   4  -3   5   16.67    1.07
   4  -3   5   13.20    1.16
   4  -3   5   14.39    0.82
  -5   3  -5    9.30    1.81
  -5   3  -5   14.58    1.78
   5  -3   5   13.74    1.09
   5  -3   5   13.43    0.88
   5  -3   5   13.30    0.80
  -6   3  -5   -0.76    1.38
  -6   3  -5    1.95    1.28
   6  -3   5    1.22    0.58
   6  -3   5    1.34    0.43
   6  -3   5    1.30    0.40
  -7   3  -5    0.83    1.57
  -7   3  -5    1.09    2.02
   7  -3   5    2.83    0.58
   7  -3   5    1.23    0.52
   7  -3   5    2.55    0.85
   8   2  -5    1.54    0.68
   8   2  -5    0.80    0.39
   8   2  -5    0.27    1.13
  -8  -2   5    0.95    0.59
  -8  -2   5    0.15    1.01
  -8  -2   5    1.47    0.50
   7   2  -5    1.17    0.29
   7   2  -5    0.97    0.58
   7   2  -5   -0.78    0.81
   7   2  -5    1.14    0.48
   7   2  -5    0.82    0.35
  -7  -2   5    1.09    0.39
  -7  -2   5    0.00    0.66
  -7  -2   5    0.41    0.45
   6   2  -5   14.15    0.82
   6   2  -5   12.38    0.87
   6   2  -5   13.14    1.03
  -6  -2   5   12.85    0.85
  -6  -2   5   12.88    1.34
   5   2  -5   32.77    1.39
   5   2  -5   34.57    1.43
   5   2  -5   33.06    1.45
   5   2  -5   38.02    1.52
   5   2  -5   34.94    1.72
  -5  -2   5   34.25    1.51
  -5  -2   5   32.66    1.46
  -5  -2   5   34.40    1.51
  -5  -2   5   32.69    1.86
   4   2  -5   59.99    2.61
   4   2  -5   63.14    2.30
   4   2  -5   62.06    2.35
   4   2  -5   55.97    2.36
   4   2  -5   59.99    2.61
   4   2  -5   62.85    2.35
  -4  -2   5   64.50    2.40
  -4  -2   5   65.34    2.58
  -4  -2   5   64.92    2.47
  -4  -2   5   62.47    2.70
  -4  -2   5   63.48    2.36
  -4  -2   5   61.62    2.33
  -4  -2   5   66.27    2.41
   3   2  -5  171.03    5.83
   3   2  -5  160.67    6.29
   3   2  -5  179.31    6.17
   3   2  -5  162.04    5.90
   3   2  -5  164.38    5.85
   3   2  -5  168.78    5.82
   3   2  -5  163.63    6.15
  -3  -2   5  170.94    6.28
  -3  -2   5  167.33    5.84
  -3  -2   5  165.97    5.88
  -3  -2   5  167.59    5.93
  -3  -2   5  165.93    6.16
  -3  -2   5  176.65    5.95
  -3  -2   5  164.56    5.86
  -3  -2   5  167.81    5.89
  -3  -2   5  173.42    6.09
   2   2  -5  152.30    5.96
   2   2  -5  165.20    5.99
   2   2  -5  173.46    5.80
   2   2  -5  168.76    5.63
   2   2  -5  157.77    5.61
   2   2  -5  169.17    5.96
   2   2  -5  162.00    5.67
   2   2  -5  159.21    5.67
  -2  -2   5  164.34    5.96
  -2  -2   5  157.63    5.74
  -2  -2   5  163.18    5.66
  -2  -2   5  162.36    5.69
  -2  -2   5  158.29    5.73
  -2  -2   5  163.30    5.69
  -2  -2   5  167.25    5.90
  -2  -2   5  170.86    5.74
  -2  -2   5  168.34    6.10
   1   2  -5  308.42   11.14
   1   2  -5  316.76   10.96
   1   2  -5  321.53   11.05
   1   2  -5  320.98   11.23
   1   2  -5  320.24   11.28
   1   2  -5  312.24   11.37
   1   2  -5  306.11   10.95
  -1  -2   5  334.43   11.48
  -1  -2   5  345.36   11.01
  -1  -2   5  317.84   11.34
  -1  -2   5  319.14   10.97
  -1  -2   5  347.61   11.21
  -1  -2   5  321.60   11.02
  -1  -2   5  321.79   11.23
  -1  -2   5  328.77   11.43
  -1  -2   5  326.03   10.97
  -1  -2   5  320.61   10.97
  -1  -2   5  289.76   10.97
   0   2  -5  155.39    5.41
   0   2  -5  150.60    5.26
   0   2  -5  146.10    5.41
   0   2  -5  143.77    5.72
   0   2  -5  151.59    5.56
   0  -2   5  148.25    5.28
   0  -2   5  156.47    5.79
   0  -2   5  152.45    5.69
   0  -2   5  156.01    5.55
   0  -2   5  155.03    5.37
   0  -2   5  147.97    5.57
   0  -2   5  161.24    5.28
   0  -2   5  154.64    5.26
   0  -2   5  152.10    5.27
   0  -2   5  160.62    5.49
   0  -2   5  152.78    5.35
   0  -2   5  150.49    5.26
  -1   2  -5  140.64    4.83
  -1   2  -5  132.19    5.38
  -1   2  -5  142.73    5.09
  -1   2  -5  140.98    4.85
  -1   2  -5  141.28    5.00
   1  -2   5  137.45    4.92
   1  -2   5  126.71    4.88
   1  -2   5  140.94    5.30
   1  -2   5  142.76    4.85
   1  -2   5  139.64    4.95
   1  -2   5  136.49    4.78
   1  -2   5  147.17    4.85
   1  -2   5  141.82    4.82
   1  -2   5  140.14    5.34
   1  -2   5  142.91    5.11
  -2   2  -5   86.74    3.67
  -2   2  -5   87.03    3.18
  -2   2  -5   92.39    3.37
  -2   2  -5   88.78    3.17
  -2   2  -5   92.09    3.35
  -2   2  -5   83.27    3.81
   2  -2   5   89.07    3.17
   2  -2   5   89.15    3.18
   2  -2   5   90.34    3.64
   2  -2   5   89.85    3.31
   2  -2   5   89.40    3.32
   2  -2   5   92.74    3.23
   2  -2   5   89.39    3.68
   2  -2   5   91.00    3.16
  -3   2  -5   16.45    1.48
  -3   2  -5   11.96    0.73
  -3   2  -5   13.69    0.78
  -3   2  -5   12.66    0.68
  -3   2  -5   12.77    0.65
  -3   2  -5   12.83    1.26
   3  -2   5   12.90    0.83
   3  -2   5   13.23    0.66
   3  -2   5   13.41    0.67
   3  -2   5   13.66    0.67
   3  -2   5   12.25    1.12
   3  -2   5   13.93    0.67
  -4   2  -5   25.05    2.08
  -4   2  -5   31.38    1.24
  -4   2  -5   29.39    1.26
  -4   2  -5   30.51    1.94
  -4   2  -5   31.79    1.23
   4  -2   5   29.74    1.27
   4  -2   5   31.54    1.31
   4  -2   5   31.05    1.46
   4  -2   5   31.55    1.29
   4  -2   5   30.34    1.31
  -5   2  -5    3.68    0.48
  -5   2  -5    5.48    1.55
  -5   2  -5    4.16    0.45
  -5   2  -5    3.92    0.48
  -5   2  -5    4.05    1.01
   5  -2   5    3.81    0.54
   5  -2   5    4.22    0.51
   5  -2   5    4.28    0.70
   5  -2   5    5.07    0.53
  -6   2  -5   12.17    1.69
  -6   2  -5   10.33    0.86
  -6   2  -5    8.91    1.64
  -6   2  -5    9.77    0.72
   6  -2   5    9.62    0.78
   6  -2   5   11.01    0.78
   6  -2   5   10.87    0.98
  -7   2  -5   -0.65    1.33
  -7   2  -5    1.81    1.22
  -7   2  -5    1.98    0.42
   7  -2   5    0.93    0.54
   7  -2   5    0.91    0.42
   7  -2   5    1.10    0.41
   9   1  -5    2.83    0.55
   9   1  -5    4.86    0.74
  -9  -1   5    4.34    0.78
  -9  -1   5    3.77    1.35
  -9  -1   5    2.28    1.36
  -9  -1   5    4.43    0.76
   8   1  -5   27.42    1.43
   8   1  -5   27.78    1.48
   8   1  -5   27.68    1.39
  -8  -1   5   28.87    1.54
  -8  -1   5   28.19    1.52
  -8  -1   5   25.58    2.18
   7   1  -5   29.35    1.41
   7   1  -5   28.55    1.34
   7   1  -5   28.65    1.35
   7   1  -5   27.83    1.44
  -7  -1   5   25.45    1.99
  -7  -1   5   27.20    1.43
  -7  -1   5   27.82    1.53
  -7  -1   5   25.70    1.43
   6   1  -5    6.46    0.70
   6   1  -5    7.50    0.61
   6   1  -5    6.39    0.60
  -6  -1   5    6.07    0.67
  -6  -1   5    7.21    1.08
  -6  -1   5    6.77    0.68
  -6  -1   5    6.93    0.59
   5   1  -5  411.24   14.12
   5   1  -5  360.12   13.05
   5   1  -5  376.25   13.05
   5   1  -5  380.20   13.08
   5   1  -5  375.60   13.26
   5   1  -5  413.25   13.16
   5   1  -5  367.26   13.06
  -5  -1   5  376.94   13.11
  -5  -1   5  375.98   13.53
  -5  -1   5  374.10   13.08
  -5  -1   5  382.43   13.13
  -5  -1   5  361.97   13.08
   4   1  -5   55.53    2.11
   4   1  -5   54.50    2.28
   4   1  -5   54.07    2.24
   4   1  -5   53.66    2.07
   4   1  -5   54.05    2.09
   4   1  -5   55.13    2.08
   4   1  -5   56.34    2.15
  -4  -1   5   53.88    2.08
  -4  -1   5   54.26    2.11
  -4  -1   5   54.07    2.06
  -4  -1   5   55.18    2.12
  -4  -1   5   51.71    2.37
  -4  -1   5   58.52    2.17
   3   1  -5  406.61   14.15
   3   1  -5  413.60   14.18
   3   1  -5  401.76   14.15
   3   1  -5  412.51   14.38
   3   1  -5  438.83   14.38
   3   1  -5  414.42   14.16
   3   1  -5  432.42   14.26
  -3  -1   5  397.12   14.18
  -3  -1   5  411.48   14.15
  -3  -1   5  419.72   14.24
  -3  -1   5  417.47   14.20
  -3  -1   5  434.88   14.43
  -3  -1   5  412.14   14.29
  -3  -1   5  402.58   14.42
  -3  -1   5  402.64   14.17
   2   1  -5  439.70   15.75
   2   1  -5  470.60   15.86
   2   1  -5  441.57   15.84
   2   1  -5  452.20   15.74
   2   1  -5  460.38   15.99
   2   1  -5  465.65   15.76
   2   1  -5  466.75   15.75
  -2  -1   5  467.55   15.98
  -2  -1   5  461.27   15.77
  -2  -1   5  461.72   15.75
  -2  -1   5  491.14   16.01
  -2  -1   5  471.67   15.81
  -2  -1   5  464.25   15.87
  -2  -1   5  459.55   15.77
  -2  -1   5  465.07   15.78
   1   1  -5  421.21   14.79
   1   1  -5  401.73   14.77
   1   1  -5  438.25   14.80
   1   1  -5  430.26   14.88
   1   1  -5  419.39   14.85
   1   1  -5  453.51   14.79
   1   1  -5  438.69   14.84
   1   1  -5  442.65   15.05
   1   1  -5  420.43   15.03
   1   1  -5  440.80   14.96
  -1  -1   5  423.65   14.78
  -1  -1   5  445.85   14.87
  -1  -1   5  435.49   14.80
  -1  -1   5  462.68   15.06
  -1  -1   5  440.11   14.80
  -1  -1   5  440.62   14.81
  -1  -1   5  427.90   14.95
   0   1  -5  279.04   10.31
   0   1  -5  287.77   10.38
   0   1  -5  304.61   10.17
   0   1  -5  297.18   10.07
   0   1  -5  281.72   10.08
   0   1  -5  299.23   10.05
   0   1  -5  288.01   10.08
   0   1  -5  289.01   10.06
   0  -1   5  302.17   10.06
   0  -1   5  297.21   10.08
   0  -1   5  297.14   10.08
   0  -1   5  306.50   10.35
   0  -1   5  292.78   10.13
   0  -1   5  294.27   10.23
   0  -1   5  301.82   10.06
  -1   1  -5   82.77    3.31
  -1   1  -5   97.24    3.41
  -1   1  -5   96.65    3.38
  -1   1  -5   95.94    3.78
  -1   1  -5   86.31    3.60
  -1   1  -5   95.60    3.37
   1  -1   5   98.93    3.45
   1  -1   5   98.07    3.38
   1  -1   5  104.33    3.72
   1  -1   5  100.25    3.70
   1  -1   5   97.55    3.37
   1  -1   5   96.80    3.36
   1  -1   5   94.55    3.33
   1  -1   5   94.66    3.37
  -2   1  -5  173.25    6.91
  -2   1  -5  185.67    6.74
  -2   1  -5  181.02    6.42
  -2   1  -5  190.87    6.41
  -2   1  -5  189.71    6.43
  -2   1  -5  185.57    6.42
  -2   1  -5  189.16    6.54
   2  -1   5  190.36    6.43
   2  -1   5  181.88    6.40
   2  -1   5  180.31    6.49
   2  -1   5  191.48    6.75
   2  -1   5  180.32    6.41
   2  -1   5  190.24    6.44
  -3   1  -5   19.86    0.92
  -3   1  -5   20.83    0.91
  -3   1  -5   20.04    0.92
  -3   1  -5   18.39    1.43
  -3   1  -5   20.88    0.89
  -3   1  -5   19.59    1.31
  -3   1  -5   20.44    1.03
   3  -1   5   20.92    0.92
   3  -1   5   22.39    0.93
   3  -1   5   21.47    0.92
   3  -1   5   22.03    1.29
   3  -1   5   19.38    1.00
   3  -1   5   21.71    0.94
  -4   1  -5   56.60    2.06
  -4   1  -5   51.27    2.11
  -4   1  -5   45.31    2.63
  -4   1  -5   54.72    2.08
  -4   1  -5   52.07    2.25
  -4   1  -5   54.11    2.05
  -4   1  -5   51.56    2.09
  -4   1  -5   56.48    2.52
   4  -1   5   54.68    2.18
   4  -1   5   60.44    3.07
   4  -1   5   54.92    2.39
   4  -1   5   52.69    2.09
   4  -1   5   56.04    2.09
   4  -1   5   56.11    2.11
   4  -1   5   53.00    2.06
  -5   1  -5    5.59    0.56
  -5   1  -5    5.83    1.04
  -5   1  -5    5.66    1.07
  -5   1  -5    5.91    0.65
  -5   1  -5    6.02    0.59
  -5   1  -5    4.90    0.37
   5  -1   5    5.13    0.59
   5  -1   5    5.13    0.57
   5  -1   5    5.87    0.72
   5  -1   5    5.02    0.89
   5  -1   5    4.62    0.54
  -6   1  -5   17.38    1.03
  -6   1  -5   18.44    1.84
  -6   1  -5   16.81    1.01
  -6   1  -5   16.76    0.80
  -6   1  -5   16.70    1.61
   6  -1   5   16.96    0.99
   6  -1   5   17.62    1.13
   6  -1   5   15.94    0.97
   6  -1   5   18.42    1.03
  -7   1  -5    5.46    0.87
  -7   1  -5    7.30    1.41
  -7   1  -5    6.31    1.23
  -7   1  -5    7.12    0.77
   7  -1   5    6.00    0.77
   7  -1   5    6.89    0.74
   7  -1   5    6.10    0.86
  -8   1  -5    2.88    1.50
  -8   1  -5    1.46    0.51
  -8   1  -5    1.66    1.25
   8  -1   5    2.15    0.60
   8  -1   5    2.13    0.61
   8  -1   5    1.68    0.50
   9   0  -5    3.74    0.63
   9   0  -5    3.35    0.63
   9   0  -5    2.61    0.55
  -9   0   5    3.03    0.71
  -9   0   5    3.06    0.67
  -9   0   5    4.38    1.43
  -9   0   5    4.28    1.31
   8   0  -5   -0.42    0.36
   8   0  -5   -0.22    0.31
   8   0  -5   -0.01    0.51
  -8   0   5   -0.46    0.37
  -8   0   5    0.19    0.39
  -8   0   5   -0.46    0.72
  -8   0   5    0.10    0.99
   7   0  -5   16.07    0.87
   7   0  -5   16.59    1.03
   7   0  -5   13.90    0.92
   7   0  -5   15.57    0.91
   7   0  -5   16.00    0.97
  -7   0   5   14.87    1.55
  -7   0   5   15.99    1.01
  -7   0   5   16.11    1.01
   6   0  -5    0.19    0.29
   6   0  -5    0.36    0.31
   6   0  -5   -0.07    0.42
   6   0  -5    0.45    0.27
   6   0  -5    0.36    0.27
   6   0  -5   -0.30    0.22
  -6   0   5    0.73    0.31
  -6   0   5    1.34    0.64
  -6   0   5    0.85    0.35
  -6   0   5    0.36    0.32
   5   0  -5    3.62    0.54
   5   0  -5    3.83    0.44
   5   0  -5    4.94    0.54
   5   0  -5    3.74    0.51
   5   0  -5    4.02    0.47
   5   0  -5    3.45    0.46
   5   0  -5    3.78    0.43
   5   0  -5    4.64    0.59
   5   0  -5    3.16    0.45
  -5   0   5    3.19    0.46
  -5   0   5    3.11    0.46
  -5   0   5    4.88    0.60
  -5   0   5    4.33    0.50
  -5   0   5    3.33    0.42
  -5   0   5    4.15    0.75
   4   0  -5   20.29    1.01
   4   0  -5   22.16    1.08
   4   0  -5   19.39    0.93
   4   0  -5   20.56    1.03
   4   0  -5   20.80    0.90
   4   0  -5   19.89    0.90
   4   0  -5   20.68    0.92
   4   0  -5   21.87    1.07
   4   0  -5   18.98    0.89
  -4   0   5   20.79    1.04
  -4   0   5   20.65    0.96
  -4   0   5   18.63    0.91
  -4   0   5   20.35    0.95
  -4   0   5   19.79    0.98
  -4   0   5   19.36    0.90
  -4   0   5   20.62    1.21
   3   0  -5   58.20    2.21
   3   0  -5   59.88    2.32
   3   0  -5   58.63    2.19
   3   0  -5   59.54    2.30
   3   0  -5   59.34    2.21
   3   0  -5   58.67    2.19
   3   0  -5   61.45    2.34
  -3   0   5   58.39    2.23
  -3   0   5   57.78    2.43
  -3   0   5   57.51    2.20
  -3   0   5   62.44    2.28
  -3   0   5   57.20    2.21
  -3   0   5   62.08    2.24
  -3   0   5   61.66    2.22
  -3   0   5   63.47    2.33
   2   0  -5  248.86    8.75
   2   0  -5  244.51    8.73
   2   0  -5  258.41    8.84
   2   0  -5  254.64    8.74
   2   0  -5  245.12    8.83
   2   0  -5  259.16    8.86
  -2   0   5  267.77    8.82
  -2   0   5  272.85    8.85
  -2   0   5  253.52    8.79
  -2   0   5  252.84    8.89
  -2   0   5  258.62    8.93
  -2   0   5  250.61    8.74
  -2   0   5  246.76    8.75
  -2   0   5  253.22    8.75
  -2   0   5  251.43    8.76
   1   0  -5  542.01   18.93
   1   0  -5  566.77   18.86
   1   0  -5  547.04   18.86
   1   0  -5  539.97   18.84
   1   0  -5  540.07   18.84
   1   0  -5  540.27   18.92
   1   0  -5  588.34   18.95
  -1   0   5  542.29   18.84
  -1   0   5  554.60   18.99
  -1   0   5  550.73   18.94
  -1   0   5  568.69   18.93
  -1   0   5  566.76   18.93
  -1   0   5  558.37   18.85
   0   0  -5   26.49    1.13
   0   0  -5   25.63    1.19
   0   0  -5   24.57    1.06
   0   0  -5   25.58    1.04
   0   0  -5   27.00    1.04
   0   0  -5   25.03    0.97
   0   0   5   26.31    1.03
   0   0   5   24.39    1.16
   0   0   5   28.03    1.04
   0   0   5   25.07    1.15
   0   0   5   27.24    1.03
   0   0   5   25.08    1.06
  -1   0  -5  674.22   23.80
  -1   0  -5  665.43   23.56
  -1   0  -5  678.66   23.57
  -1   0  -5  696.95   23.56
  -1   0  -5  707.60   23.63
  -1   0  -5  685.71   23.56
   1   0   5  728.03   23.73
   1   0   5  691.82   23.57
   1   0   5  715.40   23.57
  -2   0  -5  514.18   17.54
  -2   0  -5  527.91   17.58
  -2   0  -5  520.47   17.54
  -2   0  -5  527.03   17.60
  -2   0  -5  482.82   17.56
   2   0   5  530.16   17.55
   2   0   5  524.90   17.55
   2   0   5  497.20   17.52
   2   0   5  509.20   17.58
   2   0   5  510.69   17.53
  -3   0  -5  222.68    7.77
  -3   0  -5  214.96    7.76
  -3   0  -5  225.03    7.77
  -3   0  -5  227.10    7.76
  -3   0  -5  226.52    7.95
  -3   0  -5  226.22    7.83
  -3   0  -5  216.78    7.70
   3   0   5  237.78    8.12
   3   0   5  221.92    7.76
   3   0   5  218.44    7.75
   3   0   5  230.38    7.92
   3   0   5  215.82    7.74
   3   0   5  230.22    7.78
   3   0   5  217.95    7.79
  -4   0  -5  261.63    9.42
  -4   0  -5  257.27    9.21
  -4   0  -5  257.60    9.14
  -4   0  -5  257.92    9.22
  -4   0  -5  263.52    9.23
  -4   0  -5  267.01    9.28
  -4   0  -5  269.91    9.24
   4   0   5  282.45    9.65
   4   0   5  258.71    9.24
   4   0   5  259.29    9.21
   4   0   5  278.46    9.25
   4   0   5  280.48    9.39
   4   0   5  257.67    9.19
  -5   0  -5   26.17    1.14
  -5   0  -5   26.19    1.16
  -5   0  -5   26.66    1.26
  -5   0  -5   26.04    1.25
  -5   0  -5   26.55    1.26
  -5   0  -5   26.42    1.53
   5   0   5   28.05    1.25
   5   0   5   27.40    1.25
   5   0   5   24.77    1.28
   5   0   5   26.43    1.24
   5   0   5   29.14    1.38
  -6   0  -5   74.00    2.86
  -6   0  -5   72.04    3.04
  -6   0  -5   72.54    3.27
  -6   0  -5   80.02    3.03
  -6   0  -5   88.69    2.99
   6   0   5   76.67    3.00
   6   0   5   77.06    2.98
   6   0   5   77.66    3.04
   6   0   5   78.84    3.02
  -7   0  -5    3.75    0.57
  -7   0  -5    4.91    1.02
  -7   0  -5    4.27    0.59
   7   0   5    4.18    0.56
   7   0   5    3.10    0.50
   7   0   5    3.35    0.58
  -8   0  -5   -0.18    1.09
  -8   0  -5   -0.02    0.81
  -8   0  -5   -0.74    0.48
   8   0   5   -0.07    0.47
   8   0   5    0.55    0.43
   8   0   5    0.15    0.47
   9  -1  -5    2.57    0.60
   9  -1  -5    2.65    0.53
   9  -1  -5    1.70    0.58
  -9   1   5    1.35    1.34
  -9   1   5    5.93    1.72
   8  -1  -5   25.63    1.32
   8  -1  -5   27.30    1.33
  -8   1   5   20.28    2.05
  -8   1   5   26.57    1.39
  -8   1   5   24.70    1.38
  -8   1   5   24.27    2.27
   7  -1  -5   26.77    1.19
   7  -1  -5   26.63    1.27
   7  -1  -5   26.10    1.40
   7  -1  -5   23.97    1.37
   7  -1  -5   26.04    1.35
   7  -1  -5   25.65    1.33
  -7   1   5   27.96    1.34
  -7   1   5   25.34    1.54
  -7   1   5   25.39    1.93
  -7   1   5   23.55    1.99
   6  -1  -5    6.77    0.64
   6  -1  -5    6.19    0.58
   6  -1  -5    7.60    0.65
   6  -1  -5    7.59    0.59
   6  -1  -5    7.43    0.66
   6  -1  -5    6.97    0.60
  -6   1   5    6.17    0.62
  -6   1   5    7.13    1.09
  -6   1   5    7.61    1.19
  -6   1   5    7.80    0.68
   5  -1  -5  405.81   13.12
   5  -1  -5  380.69   13.10
   5  -1  -5  396.26   13.23
   5  -1  -5  364.61   13.07
   5  -1  -5  358.45   13.07
   5  -1  -5  386.94   13.30
   5  -1  -5  378.05   13.17
  -5   1   5  353.40   13.57
  -5   1   5  374.85   13.10
  -5   1   5  382.83   13.12
  -5   1   5  378.83   13.13
  -5   1   5  374.41   13.34
  -5   1   5  414.09   13.42
  -5   1   5  373.91   13.11
   4  -1  -5   61.07    2.37
   4  -1  -5   60.49    2.26
   4  -1  -5   61.98    2.46
   4  -1  -5   57.65    2.23
   4  -1  -5   61.62    2.40
   4  -1  -5   58.20    2.34
   4  -1  -5   57.25    2.23
   4  -1  -5   60.53    2.26
  -4   1   5   54.62    2.56
  -4   1   5   55.55    2.25
  -4   1   5   57.94    2.45
  -4   1   5   65.99    2.51
  -4   1   5   65.56    2.28
   3  -1  -5  422.17   14.79
   3  -1  -5  409.59   14.79
   3  -1  -5  429.63   14.80
   3  -1  -5  440.23   14.79
   3  -1  -5  452.57   14.99
   3  -1  -5  447.18   14.92
   3  -1  -5  443.51   14.89
   3  -1  -5  419.30   14.91
  -3   1   5  439.31   14.81
  -3   1   5  425.81   14.99
  -3   1   5  421.33   14.82
  -3   1   5  396.14   15.01
  -3   1   5  420.17   14.80
  -3   1   5  447.80   14.81
  -3   1   5  480.17   15.04
   2  -1  -5  481.41   16.48
   2  -1  -5  467.99   16.49
   2  -1  -5  447.31   16.59
   2  -1  -5  498.39   16.51
   2  -1  -5  519.02   16.67
   2  -1  -5  513.28   16.61
   2  -1  -5  496.46   16.53
   2  -1  -5  473.10   16.50
  -2   1   5  476.99   16.68
  -2   1   5  494.45   16.51
  -2   1   5  498.06   16.65
  -2   1   5  466.28   16.49
  -2   1   5  463.58   16.50
  -2   1   5  479.75   16.50
   1  -1  -5  429.41   14.94
   1  -1  -5  468.38   15.06
   1  -1  -5  443.86   15.10
   1  -1  -5  426.20   14.93
   1  -1  -5  428.67   14.92
   1  -1  -5  417.06   15.00
   1  -1  -5  442.52   14.94
  -1   1   5  430.48   14.94
  -1   1   5  440.13   14.93
  -1   1   5  437.96   14.94
  -1   1   5  449.41   15.14
  -1   1   5  430.92   14.95
  -1   1   5  445.28   15.16
  -1   1   5  440.09   15.02
  -1   1   5  435.40   14.93
   0  -1  -5  291.94   10.84
   0  -1  -5  313.86   10.64
   0  -1  -5  310.52   10.64
   0  -1  -5  308.81   10.63
   0  -1  -5  330.38   10.73
   0  -1  -5  303.70   10.68
   0  -1  -5  307.52   10.63
   0   1   5  312.41   10.69
   0   1   5  305.51   10.63
   0   1   5  320.99   10.85
   0   1   5  295.21   10.59
   0   1   5  313.43   10.64
   0   1   5  309.51   10.64
   0   1   5  310.56   10.74
   0   1   5  321.31   10.63
  -1  -1  -5   89.43    3.25
  -1  -1  -5   89.64    3.23
  -1  -1  -5   91.44    3.22
  -1  -1  -5   91.51    3.32
  -1  -1  -5   91.55    3.23
  -1  -1  -5   91.24    3.22
  -1  -1  -5   89.59    3.26
   1   1   5   93.16    3.22
   1   1   5   88.00    3.22
   1   1   5   93.41    3.22
   1   1   5   88.61    3.22
   1   1   5   86.98    3.38
   1   1   5   91.19    3.25
   1   1   5   87.67    3.32
  -2  -1  -5  175.40    6.31
  -2  -1  -5  180.52    6.31
  -2  -1  -5  182.90    6.30
  -2  -1  -5  175.30    6.29
  -2  -1  -5  182.42    6.31
  -2  -1  -5  186.40    6.31
   2   1   5  176.74    6.40
   2   1   5  177.00    6.29
   2   1   5  174.28    6.40
   2   1   5  181.22    6.29
   2   1   5  184.68    6.40
   2   1   5  179.15    6.30
   2   1   5  193.87    6.49
  -3  -1  -5   19.91    0.95
  -3  -1  -5   19.43    0.93
  -3  -1  -5   20.87    0.95
  -3  -1  -5   20.29    0.94
  -3  -1  -5   23.65    0.98
  -3  -1  -5   19.84    0.93
   3   1   5   19.17    0.92
   3   1   5   21.60    1.19
   3   1   5   20.03    0.93
   3   1   5   19.92    1.08
   3   1   5   18.54    1.00
   3   1   5   20.89    0.93
   3   1   5   19.44    0.92
  -4  -1  -5   53.45    2.09
  -4  -1  -5   52.11    2.11
  -4  -1  -5   55.27    2.19
  -4  -1  -5   52.05    2.10
  -4  -1  -5   52.68    2.11
  -4  -1  -5   53.23    2.12
   4   1   5   53.13    2.12
   4   1   5   52.48    2.27
   4   1   5   54.36    2.10
   4   1   5   53.21    2.09
   4   1   5   59.96    2.46
   4   1   5   53.35    2.11
  -5  -1  -5    4.86    0.62
  -5  -1  -5    5.03    0.77
  -5  -1  -5    6.55    0.58
  -5  -1  -5    5.17    0.56
  -5  -1  -5    5.99    0.57
  -5  -1  -5    5.79    0.56
  -5  -1  -5    5.23    0.63
   5   1   5    5.51    0.60
   5   1   5    6.48    0.77
   5   1   5    5.90    0.63
   5   1   5    5.68    0.58
   5   1   5    4.95    0.57
  -6  -1  -5   18.18    1.07
  -6  -1  -5   18.29    1.08
  -6  -1  -5   17.07    1.00
  -6  -1  -5   18.75    0.99
  -6  -1  -5   16.71    1.20
   6   1   5   16.82    1.01
   6   1   5   17.46    1.28
   6   1   5   16.61    1.00
   6   1   5   18.47    1.02
  -7  -1  -5    7.10    0.93
  -7  -1  -5    7.06    0.98
  -7  -1  -5    6.69    0.78
  -7  -1  -5    7.52    0.83
   7   1   5    5.96    0.71
   7   1   5    5.76    1.08
   7   1   5    7.29    0.90
   7   1   5    7.12    0.83
  -8  -1  -5    0.94    0.55
  -8  -1  -5    1.11    0.53
  -8  -1  -5    2.25    0.68
   8   1   5    2.11    0.82
   8   1   5    0.78    0.54
   8   1   5    2.77    0.59
   8   1   5    2.21    0.51
   8  -2  -5    0.91    0.44
   8  -2  -5    1.72    0.73
   8  -2  -5    0.47    0.35
  -8   2   5    1.60    1.23
  -8   2   5    0.73    0.46
  -8   2   5   -0.45    1.42
   7  -2  -5    1.21    0.34
   7  -2  -5    1.35    0.36
   7  -2  -5    1.52    0.41
  -7   2   5    1.44    0.94
  -7   2   5   -0.29    0.95
  -7   2   5    1.12    0.46
  -7   2   5    2.11    0.40
   6  -2  -5   15.15    0.91
   6  -2  -5   14.86    0.93
   6  -2  -5   15.10    0.89
   6  -2  -5   13.98    0.87
  -6   2   5   13.79    0.84
  -6   2   5   14.62    1.62
  -6   2   5   14.32    1.39
  -6   2   5   14.33    1.45
  -6   2   5   13.60    0.89
  -6   2   5   17.07    1.16
   5  -2  -5   32.11    1.74
   5  -2  -5   33.60    1.61
   5  -2  -5   33.59    1.43
   5  -2  -5   33.04    1.52
   5  -2  -5   33.81    1.42
   5  -2  -5   32.37    1.42
  -5   2   5   33.72    2.05
  -5   2   5   33.12    1.82
  -5   2   5   32.91    1.40
  -5   2   5   31.61    1.87
  -5   2   5   32.20    1.43
  -5   2   5   38.22    1.77
  -5   2   5   31.50    1.97
  -5   2   5   33.31    1.41
   4  -2  -5   55.52    2.13
   4  -2  -5   59.45    2.31
   4  -2  -5   55.22    2.15
   4  -2  -5   56.27    2.29
   4  -2  -5   56.53    2.38
   4  -2  -5   56.34    2.15
   4  -2  -5   56.90    2.14
  -4   2   5   54.66    2.65
  -4   2   5   60.65    2.16
  -4   2   5   55.17    2.41
  -4   2   5   51.24    2.20
  -4   2   5   54.75    2.51
  -4   2   5   56.16    2.12
  -4   2   5   55.15    2.49
  -4   2   5   59.12    2.17
   3  -2  -5  160.47    5.69
   3  -2  -5  164.39    5.75
   3  -2  -5  155.67    5.82
   3  -2  -5  167.85    5.96
   3  -2  -5  164.64    5.92
   3  -2  -5  162.46    5.70
   3  -2  -5  158.41    5.68
   3  -2  -5  165.46    5.68
  -3   2   5  164.38    5.93
  -3   2   5  154.86    5.73
  -3   2   5  160.28    5.91
  -3   2   5  168.79    6.16
  -3   2   5  162.28    5.66
  -3   2   5  170.99    5.70
  -3   2   5  159.11    5.70
  -3   2   5  160.91    6.04
   2  -2  -5  146.59    5.61
   2  -2  -5  153.43    5.23
   2  -2  -5  146.50    5.37
   2  -2  -5  158.48    5.46
   2  -2  -5  158.00    5.47
   2  -2  -5  151.78    5.26
   2  -2  -5  151.47    5.21
   2  -2  -5  149.89    5.24
   2  -2  -5  147.54    5.24
  -2   2   5  133.01    5.30
  -2   2   5  153.91    5.42
  -2   2   5  149.78    5.25
  -2   2   5  144.25    5.24
  -2   2   5  147.77    5.59
  -2   2   5  151.92    5.21
  -2   2   5  155.44    5.23
  -2   2   5  148.22    5.57
   1  -2  -5  293.08   10.45
   1  -2  -5  331.47   10.66
   1  -2  -5  304.14   10.43
   1  -2  -5  296.69   10.44
   1  -2  -5  315.92   10.79
   1  -2  -5  294.44   10.55
   1  -2  -5  299.34   10.44
   1  -2  -5  305.37   10.47
  -1   2   5  310.06   10.81
  -1   2   5  301.75   10.45
  -1   2   5  301.49   10.42
  -1   2   5  288.23   10.66
  -1   2   5  307.64   10.59
  -1   2   5  312.13   10.42
  -1   2   5  305.11   10.48
   0  -2  -5  148.18    5.41
   0  -2  -5  150.92    5.58
   0  -2  -5  160.28    5.44
   0  -2  -5  152.00    5.33
   0  -2  -5  153.69    5.34
   0  -2  -5  150.45    5.31
   0  -2  -5  156.80    5.33
   0   2   5  151.33    5.58
   0   2   5  150.61    5.69
   0   2   5  155.56    5.32
   0   2   5  153.13    5.43
   0   2   5  149.64    5.32
   0   2   5  151.32    5.32
   0   2   5  152.60    5.28
   0   2   5  148.67    5.43
  -1  -2  -5  136.69    4.73
  -1  -2  -5  137.80    4.73
  -1  -2  -5  138.82    4.77
  -1  -2  -5  134.31    4.72
  -1  -2  -5  132.57    4.81
  -1  -2  -5  134.79    4.96
  -1  -2  -5  134.36    4.71
   1   2   5  127.31    4.94
   1   2   5  139.24    4.69
   1   2   5  135.83    4.72
   1   2   5  128.46    4.95
   1   2   5  134.51    4.72
   1   2   5  125.17    5.10
   1   2   5  135.64    4.71
  -2  -2  -5   88.11    3.19
  -2  -2  -5   89.92    3.22
  -2  -2  -5   85.85    3.28
  -2  -2  -5   89.32    3.20
  -2  -2  -5   89.67    3.20
  -2  -2  -5   88.24    3.42
  -2  -2  -5   89.94    3.19
   2   2   5   91.82    3.18
   2   2   5   91.14    3.24
   2   2   5   90.61    3.20
   2   2   5   90.51    3.31
   2   2   5   86.48    3.19
   2   2   5   88.00    3.47
   2   2   5   73.42    3.39
  -3  -2  -5   14.29    0.76
  -3  -2  -5   13.60    0.72
  -3  -2  -5   13.87    0.83
  -3  -2  -5   14.66    0.77
  -3  -2  -5   12.77    0.76
  -3  -2  -5   13.98    0.78
  -3  -2  -5   13.34    0.92
   3   2   5   13.80    0.71
   3   2   5   12.89    0.74
   3   2   5   15.35    0.92
   3   2   5   13.31    1.02
   3   2   5   12.94    0.75
   3   2   5   14.45    0.77
  -4  -2  -5   33.03    1.39
  -4  -2  -5   32.69    1.43
  -4  -2  -5   31.06    1.44
  -4  -2  -5   31.03    1.50
  -4  -2  -5   31.02    1.42
  -4  -2  -5   31.45    1.61
   4   2   5   31.43    1.72
   4   2   5   37.30    1.64
   4   2   5   32.10    1.44
   4   2   5   36.11    1.56
   4   2   5   31.72    1.41
  -5  -2  -5    3.17    0.45
  -5  -2  -5    4.82    0.51
  -5  -2  -5    2.83    0.47
  -5  -2  -5    3.76    0.52
  -5  -2  -5    4.53    0.66
   5   2   5    5.56    0.93
   5   2   5    4.32    0.63
   5   2   5    4.72    0.53
   5   2   5    4.99    0.58
   5   2   5    5.14    0.87
  -6  -2  -5   10.36    0.87
  -6  -2  -5   11.46    0.90
  -6  -2  -5   10.24    0.88
   6   2   5   10.21    0.81
   6   2   5    8.75    1.18
   6   2   5    7.85    0.96
   6   2   5    9.60    0.80
  -7  -2  -5    0.72    0.44
  -7  -2  -5    1.13    0.47
   7   2   5    0.75    0.75
   7   2   5    0.97    0.46
   7   2   5    0.82    0.42
   8  -3  -5    0.45    0.52
   8  -3  -5    0.25    0.49
   8  -3  -5   -0.20    0.54
  -8   3   5    1.88    2.03
   7  -3  -5    8.85    0.78
   7  -3  -5    7.80    0.81
   7  -3  -5    8.25    0.92
  -7   3   5   11.64    2.04
   6  -3  -5    3.98    0.50
   6  -3  -5    4.45    0.57
   6  -3  -5    4.98    0.78
  -6   3   5    6.06    0.85
  -6   3   5    4.63    0.50
  -6   3   5    5.61    1.23
   5  -3  -5   10.42    0.72
   5  -3  -5   11.98    0.91
   5  -3  -5   12.80    0.76
   5  -3  -5   11.94    0.74
   5  -3  -5    9.73    0.78
   5  -3  -5   12.00    0.92
  -5   3   5   11.85    0.64
  -5   3   5   13.89    1.59
  -5   3   5   12.04    0.90
  -5   3   5   10.88    1.33
  -5   3   5   10.75    0.67
   4  -3  -5    3.81    0.54
   4  -3  -5    4.10    0.47
   4  -3  -5    4.00    0.46
   4  -3  -5    6.06    0.70
   4  -3  -5    3.47    0.43
   4  -3  -5    4.17    0.47
  -4   3   5    5.11    0.92
  -4   3   5    4.20    0.95
  -4   3   5    3.70    0.35
  -4   3   5    4.50    0.41
   3  -3  -5  109.05    4.22
   3  -3  -5  112.92    4.27
   3  -3  -5  116.40    4.09
   3  -3  -5  118.42    4.11
   3  -3  -5  118.56    4.10
   3  -3  -5  119.83    4.15
  -3   3   5  116.01    4.67
  -3   3   5  113.24    4.38
  -3   3   5  116.43    4.09
  -3   3   5  105.33    4.67
   2  -3  -5   19.62    0.84
   2  -3  -5   18.07    0.83
   2  -3  -5   18.04    1.03
   2  -3  -5   18.03    1.17
   2  -3  -5   18.32    0.85
   2  -3  -5   17.96    0.85
   2  -3  -5   17.41    0.88
  -2   3   5   16.85    1.30
  -2   3   5   16.82    1.30
  -2   3   5   19.15    0.83
  -2   3   5   17.66    1.03
   1  -3  -5  202.42    7.01
   1  -3  -5  198.77    6.79
   1  -3  -5  195.35    6.80
   1  -3  -5  201.26    6.96
   1  -3  -5  197.78    6.79
   1  -3  -5  183.15    7.27
  -1   3   5  190.82    6.97
  -1   3   5  178.14    6.85
  -1   3   5  203.66    7.35
  -1   3   5  194.22    6.78
  -1   3   5  202.09    7.17
   0  -3  -5  231.39    7.70
   0  -3  -5  220.53    7.56
   0  -3  -5  211.65    7.99
   0  -3  -5  212.38    7.67
   0  -3  -5  217.26    7.71
   0  -3  -5  200.52    7.94
   0  -3  -5  223.80    7.54
   0  -3  -5  217.74    7.78
   0  -3  -5  216.32    7.56
   0   3   5  228.13    7.78
   0   3   5  207.19    7.52
   0   3   5  223.06    8.11
   0   3   5  217.06    7.98
   0   3   5  217.64    7.55
  -1  -3  -5   28.38    1.21
  -1  -3  -5   26.13    1.13
  -1  -3  -5   25.62    1.29
  -1  -3  -5   25.30    1.14
  -1  -3  -5   25.91    1.11
  -1  -3  -5   29.95    1.15
   1   3   5   26.25    1.55
   1   3   5   25.63    1.06
   1   3   5   23.10    1.08
   1   3   5   26.54    1.64
   1   3   5   25.49    1.11
  -2  -3  -5  200.39    6.85
  -2  -3  -5  200.55    6.89
  -2  -3  -5  198.63    7.05
  -2  -3  -5  196.36    6.90
  -2  -3  -5  195.53    6.87
  -2  -3  -5  198.35    6.88
   2   3   5  185.52    6.78
   2   3   5  187.03    7.41
   2   3   5  202.48    6.87
   2   3   5  199.65    7.33
  -3  -3  -5   51.60    2.03
  -3  -3  -5   51.55    2.19
  -3  -3  -5   49.88    2.04
  -3  -3  -5   51.97    1.92
  -3  -3  -5   50.40    2.03
   3   3   5   55.34    2.66
   3   3   5   51.74    2.01
   3   3   5   49.92    2.48
   3   3   5   48.54    1.99
   3   3   5   47.82    1.91
   3   3   5   50.92    2.10
  -4  -3  -5   15.80    0.93
  -4  -3  -5   14.95    1.27
  -4  -3  -5   17.12    0.80
  -4  -3  -5   17.28    1.11
  -4  -3  -5   17.56    0.99
   4   3   5   17.66    1.45
   4   3   5   17.14    1.08
   4   3   5   19.72    1.15
   4   3   5   16.07    0.93
   4   3   5   17.54    0.97
   4   3   5   16.21    1.61
   4   3   5   14.55    0.86
  -5  -3  -5   12.14    0.91
  -5  -3  -5   14.17    1.04
  -5  -3  -5   12.37    0.92
   5   3   5   13.18    0.99
   5   3   5   12.31    1.11
   5   3   5    9.42    1.53
   5   3   5   11.96    1.40
   5   3   5   13.29    0.90
  -6  -3  -5    0.59    0.42
  -6  -3  -5    1.02    0.49
  -6  -3  -5    0.68    0.49
   6   3   5   -0.94    0.95
   6   3   5    2.50    0.93
   6   3   5    1.21    0.46
  -7  -3  -5    2.80    0.75
  -7  -3  -5    2.78    0.77
  -7  -3  -5    2.23    0.63
   7   3   5    2.84    0.59
   7   3   5    2.18    1.18
   7   3   5    1.31    1.19
   6  -4  -5   14.63    1.05
   6  -4  -5   13.54    1.19
   6  -4  -5   15.18    0.92
  -6   4   5   19.61    2.44
   5  -4  -5    3.03    0.65
   5  -4  -5    2.53    0.38
  -5   4   5    2.54    1.19
  -5   4   5    1.17    0.92
   4  -4  -5   26.48    1.15
   4  -4  -5   26.58    1.20
  -4   4   5   25.99    2.03
  -4   4   5   22.89    2.14
   3  -4  -5   29.41    1.24
   3  -4  -5   29.47    1.25
   3  -4  -5   27.31    1.28
   3  -4  -5   27.94    1.19
   3  -4  -5   27.65    1.49
   3  -4  -5   26.55    1.21
  -3   4   5   28.91    2.01
  -3   4   5   27.77    1.16
  -3   4   5   28.40    2.11
   2  -4  -5    3.26    0.38
   2  -4  -5    2.31    0.33
   2  -4  -5    2.79    0.37
   2  -4  -5    2.18    0.50
   2  -4  -5    2.94    0.54
   2  -4  -5    2.45    0.32
  -2   4   5    3.07    0.35
  -2   4   5    3.78    0.91
  -2   4   5    4.77    1.39
   1  -4  -5   43.21    1.78
   1  -4  -5   45.67    1.77
   1  -4  -5   41.18    1.83
   1  -4  -5   41.33    2.32
   1  -4  -5   47.09    2.50
   1  -4  -5   44.64    2.02
   1  -4  -5   46.58    1.76
  -1   4   5   47.04    2.32
  -1   4   5   46.45    2.51
  -1   4   5   45.60    1.71
   0  -4  -5    2.27    0.47
   0  -4  -5    1.74    0.32
   0  -4  -5    1.20    0.63
   0  -4  -5    2.08    0.58
   0  -4  -5    2.33    0.34
   0   4   5    2.49    0.80
   0   4   5    2.00    0.65
   0   4   5    1.43    0.26
  -1  -4  -5   12.93    0.71
  -1  -4  -5   12.78    1.23
  -1  -4  -5   11.06    0.73
  -1  -4  -5   12.96    0.84
  -1  -4  -5   12.74    0.84
  -1  -4  -5   12.67    1.00
  -1  -4  -5   13.27    0.76
   1   4   5   12.58    1.37
   1   4   5   14.26    2.18
   1   4   5   12.45    0.71
  -2  -4  -5    5.18    0.54
  -2  -4  -5    4.93    0.49
  -2  -4  -5    4.21    0.59
  -2  -4  -5    4.23    0.65
  -2  -4  -5    5.39    0.62
   2   4   5    6.91    1.12
   2   4   5    5.56    1.56
   2   4   5    4.84    0.58
  -3  -4  -5    2.91    0.65
  -3  -4  -5    1.66    0.44
  -3  -4  -5    1.55    0.38
   3   4   5    1.80    0.78
   3   4   5    3.31    0.85
  -4  -4  -5   16.50    1.24
  -4  -4  -5   15.16    0.99
  -4  -4  -5   15.66    1.05
   4   4   5   14.83    1.63
   4   4   5   16.32    1.72
  -5  -4  -5    2.07    0.66
  -5  -4  -5    0.67    0.49
  -5  -4  -5    1.01    0.48
   5   4   5   -0.04    0.99
   5   4   5    1.50    1.06
   4  -5  -5    6.49    0.77
   4  -5  -5    5.27    0.80
   4  -5  -5    5.32    0.53
  -4   5   5    4.71    1.44
  -4   5   5    4.67    1.46
   3  -5  -5    3.97    0.51
   3  -5  -5    4.02    0.44
   3  -5  -5    3.91    0.74
  -3   5   5    4.59    1.23
  -3   5   5    4.08    1.30
   2  -5  -5    4.87    0.44
   2  -5  -5    4.81    0.65
   2  -5  -5    4.11    0.78
   2  -5  -5    5.02    0.51
  -2   5   5    5.52    1.23
  -2   5   5    5.53    1.18
   1  -5  -5    1.53    0.42
   1  -5  -5    1.49    0.63
   1  -5  -5    1.07    0.26
   1  -5  -5    1.46    0.26
  -1   5   5    1.64    0.97
  -1   5   5    3.02    1.04
   0  -5  -5    4.13    0.51
   0  -5  -5    5.60    0.81
   0  -5  -5    5.13    0.50
   0  -5  -5    5.28    0.67
   0   5   5    5.56    0.93
   0   5   5    2.86    1.05
   0   5   5    4.76    1.21
  -1  -5  -5    3.03    0.50
  -1  -5  -5    2.32    0.41
  -1  -5  -5    3.76    0.78
   1   5   5    3.02    1.06
   1   5   5    2.06    1.04
  -2  -5  -5    4.26    0.56
  -2  -5  -5    3.10    0.70
  -2  -5  -5    3.34    0.78
   2   5   5    6.42    1.39
   2   5   5    5.98    1.13
  -3  -5  -5    4.11    0.61
  -3  -5  -5    5.68    0.88
  -3  -5  -5    5.72    0.95
   3   5   5    6.97    1.36
   3   5   5    4.57    1.38
   4   5  -6    2.53    1.17
   4   5  -6    3.21    1.21
  -4  -5   6    2.32    0.39
  -4  -5   6    1.75    0.97
   3   5  -6   15.84    1.83
   3   5  -6   11.43    1.69
  -3  -5   6   12.27    1.53
   2   5  -6    5.85    1.07
   2   5  -6    4.65    1.06
  -2  -5   6    4.33    0.82
  -2  -5   6    6.54    1.04
   1   5  -6    2.99    1.00
   1   5  -6    3.17    0.89
  -1  -5   6    3.73    0.83
  -1  -5   6    2.96    0.56
  -1  -5   6    2.46    0.64
   0   5  -6   11.18    1.35
   0  -5   6    8.35    1.06
   0  -5   6    9.67    0.90
   0  -5   6    9.34    1.35
  -1   5  -6    0.19    0.98
  -1   5  -6    0.03    0.63
   1  -5   6    0.66    0.70
   1  -5   6    1.10    0.57
  -2   5  -6    6.08    1.42
  -2   5  -6    6.18    0.99
   2  -5   6    5.96    1.02
   2  -5   6    5.34    1.03
  -3   5  -6    0.55    1.47
   3  -5   6   -0.35    0.81
   3  -5   6    0.97    0.62
   6   4  -6    8.87    1.51
   6   4  -6    6.00    1.61
  -6  -4   6   11.41    1.79
  -6  -4   6   10.41    1.09
  -6  -4   6    8.18    0.95
   5   4  -6    3.95    1.21
   5   4  -6    3.35    0.90
  -5  -4   6    4.81    0.96
  -5  -4   6    3.06    0.58
  -5  -4   6    3.15    0.46
   4   4  -6   12.89    1.37
   4   4  -6   15.39    1.66
  -4  -4   6   12.98    1.36
  -4  -4   6   14.32    0.95
  -4  -4   6   12.57    0.79
   3   4  -6   29.76    1.97
   3   4  -6   26.07    1.78
  -3  -4   6   26.78    1.14
  -3  -4   6   28.01    1.20
  -3  -4   6   27.07    1.76
  -3  -4   6   26.90    1.66
  -3  -4   6   26.36    1.14
  -3  -4   6   27.07    1.24
   2   4  -6    5.93    1.00
   2   4  -6    5.13    0.31
  -2  -4   6    5.14    0.45
  -2  -4   6    5.09    0.43
  -2  -4   6    5.12    0.85
  -2  -4   6    4.75    0.44
  -2  -4   6    5.36    0.66
  -2  -4   6    4.72    0.51
  -2  -4   6    5.82    0.85
   1   4  -6   42.42    2.13
   1   4  -6   40.57    2.17
  -1  -4   6   42.70    2.16
  -1  -4   6   40.88    1.56
  -1  -4   6   42.00    1.74
  -1  -4   6   41.63    2.01
  -1  -4   6   42.34    1.70
  -1  -4   6   41.62    1.61
  -1  -4   6   40.02    2.10
   0   4  -6    8.06    1.26
   0   4  -6    8.07    1.08
   0  -4   6    6.91    0.79
   0  -4   6    7.14    0.73
   0  -4   6    7.04    0.50
   0  -4   6    6.50    0.46
   0  -4   6    7.07    0.99
   0  -4   6    6.94    0.50
   0  -4   6    6.61    0.61
  -1   4  -6   29.33    1.69
  -1   4  -6   27.43    2.08
   1  -4   6   28.33    1.21
   1  -4   6   30.23    1.44
   1  -4   6   28.32    1.14
   1  -4   6   26.53    1.46
   1  -4   6   28.10    1.13
   1  -4   6   28.34    1.15
  -2   4  -6   12.19    1.67
  -2   4  -6   12.29    1.06
   2  -4   6   11.21    0.63
   2  -4   6   10.47    0.98
   2  -4   6   12.23    0.97
   2  -4   6   10.70    1.19
  -3   4  -6   21.62    2.29
  -3   4  -6   25.27    1.42
   3  -4   6   23.78    1.07
   3  -4   6   23.34    1.01
   3  -4   6   25.12    1.41
   3  -4   6   24.22    1.69
   3  -4   6   23.99    1.13
  -4   4  -6   10.03    1.88
  -4   4  -6   13.68    2.11
   4  -4   6   11.92    1.13
   4  -4   6   12.83    0.82
   4  -4   6   11.61    0.83
  -5   4  -6    1.56    1.63
  -5   4  -6    3.08    1.56
   5  -4   6    1.30    0.70
   5  -4   6    1.97    0.47
   5  -4   6    0.83    0.36
   8   3  -6    2.30    0.94
   8   3  -6    2.75    1.78
  -8  -3   6    2.09    0.82
  -8  -3   6    2.06    0.78
  -8  -3   6    2.93    1.34
   7   3  -6    1.14    1.09
   7   3  -6    4.35    0.56
   7   3  -6    4.58    0.97
  -7  -3   6    6.12    1.17
  -7  -3   6    3.48    0.60
  -7  -3   6    3.70    0.69
   6   3  -6    1.20    0.64
   6   3  -6    1.88    0.44
   6   3  -6    2.05    1.01
  -6  -3   6    1.31    0.71
  -6  -3   6    1.25    0.50
  -6  -3   6    1.95    0.44
   5   3  -6   58.21    2.74
   5   3  -6   55.43    2.18
   5   3  -6   58.22    2.23
  -5  -3   6   58.47    2.35
  -5  -3   6   59.09    2.85
  -5  -3   6   58.86    2.30
  -5  -3   6   62.63    2.41
   4   3  -6   25.79    1.84
   4   3  -6   26.06    1.73
   4   3  -6   25.30    1.02
   4   3  -6   24.64    1.03
   4   3  -6   24.30    1.10
   4   3  -6   24.90    1.01
  -4  -3   6   26.09    1.21
  -4  -3   6   27.23    1.17
  -4  -3   6   25.61    1.61
  -4  -3   6   25.98    1.14
   3   3  -6   30.08    1.79
   3   3  -6   29.81    1.67
   3   3  -6   27.28    1.18
   3   3  -6   27.71    1.17
  -3  -3   6   29.15    1.34
  -3  -3   6   29.60    1.25
  -3  -3   6   28.43    1.21
  -3  -3   6   28.69    1.23
  -3  -3   6   28.55    1.60
  -3  -3   6   27.27    1.17
   2   3  -6  157.47    6.21
   2   3  -6  162.10    5.81
   2   3  -6  160.18    5.73
   2   3  -6  175.75    6.23
  -2  -3   6  164.57    5.83
  -2  -3   6  171.94    5.85
  -2  -3   6  160.86    5.73
  -2  -3   6  161.71    5.99
  -2  -3   6  167.52    5.78
  -2  -3   6  163.07    5.75
  -2  -3   6  165.25    5.76
  -2  -3   6  171.81    6.19
   1   3  -6   51.23    2.33
   1   3  -6   50.65    2.00
   1   3  -6   48.72    1.86
   1   3  -6   50.34    2.48
   1   3  -6   49.84    1.84
   1   3  -6   50.95    2.22
  -1  -3   6   49.21    1.86
  -1  -3   6   52.05    1.90
  -1  -3   6   51.04    1.93
  -1  -3   6   52.85    1.99
  -1  -3   6   49.88    1.87
  -1  -3   6   52.27    2.30
  -1  -3   6   51.89    1.99
  -1  -3   6   49.17    2.20
   0   3  -6   70.98    2.79
   0   3  -6   66.76    2.45
   0   3  -6   68.90    2.68
   0   3  -6   68.62    3.20
   0   3  -6   67.81    2.92
   0   3  -6   68.50    2.46
   0  -3   6   72.98    2.66
   0  -3   6   73.15    2.53
   0  -3   6   69.26    2.91
   0  -3   6   72.42    2.48
   0  -3   6   66.75    2.93
   0  -3   6   69.41    2.49
   0  -3   6   69.66    2.80
   0  -3   6   71.09    2.49
   0  -3   6   68.46    2.66
   0  -3   6   66.32    2.48
  -1   3  -6   54.93    2.26
  -1   3  -6   52.05    2.78
  -1   3  -6   58.57    2.44
  -1   3  -6   56.90    2.04
   1  -3   6   52.48    2.19
   1  -3   6   55.80    2.44
   1  -3   6   56.15    2.01
   1  -3   6   54.47    2.00
   1  -3   6   55.80    2.03
   1  -3   6   52.19    2.60
   1  -3   6   53.55    2.02
   1  -3   6   59.06    2.02
   1  -3   6   55.76    2.21
   1  -3   6   53.58    1.98
  -2   3  -6   11.52    0.87
  -2   3  -6   10.57    0.57
  -2   3  -6   10.63    1.44
   2  -3   6    8.67    0.85
   2  -3   6   11.59    0.60
   2  -3   6   10.53    0.58
   2  -3   6   10.42    0.77
   2  -3   6   11.38    1.00
   2  -3   6   11.05    0.58
   2  -3   6   10.96    0.82
  -3   3  -6   10.74    0.78
  -3   3  -6    9.57    0.58
  -3   3  -6    9.13    1.45
   3  -3   6    9.08    0.82
   3  -3   6   10.20    0.61
   3  -3   6    8.84    0.84
   3  -3   6    9.39    0.81
   3  -3   6    8.95    0.59
   3  -3   6    9.80    0.60
  -4   3  -6    1.48    0.40
  -4   3  -6    0.06    0.94
  -4   3  -6    0.88    0.89
   4  -3   6    0.83    0.32
   4  -3   6    1.35    0.30
   4  -3   6    1.20    0.45
   4  -3   6    1.37    0.30
   4  -3   6    0.34    0.52
  -5   3  -6    2.25    1.32
  -5   3  -6    2.21    1.14
   5  -3   6    1.36    0.50
   5  -3   6    1.79    0.42
   5  -3   6    1.93    0.35
  -6   3  -6    0.63    1.36
  -6   3  -6   -0.72    1.53
   6  -3   6    0.32    0.41
   6  -3   6    0.25    0.52
   6  -3   6    0.36    0.36
   8   2  -6   19.91    1.48
   8   2  -6   19.60    1.18
  -8  -2   6   18.94    2.18
  -8  -2   6   19.52    1.29
  -8  -2   6   19.03    1.37
   7   2  -6   29.16    1.40
   7   2  -6   25.44    1.88
  -7  -2   6   29.08    1.50
  -7  -2   6   27.84    2.05
  -7  -2   6   27.98    1.46
   6   2  -6   40.56    1.86
   6   2  -6   42.65    1.82
   6   2  -6   41.81    2.16
  -6  -2   6   42.53    1.88
  -6  -2   6   41.30    2.32
  -6  -2   6   42.39    1.86
  -6  -2   6   41.81    1.80
   5   2  -6   34.75    1.49
   5   2  -6   34.73    1.46
   5   2  -6   32.91    1.74
   5   2  -6   36.80    1.54
   5   2  -6   32.63    1.40
  -5  -2   6   35.88    1.50
  -5  -2   6   32.86    1.93
  -5  -2   6   35.12    1.55
  -5  -2   6   35.45    1.54
   4   2  -6  116.57    4.68
   4   2  -6  127.89    4.96
   4   2  -6  129.83    4.64
   4   2  -6  140.91    4.62
   4   2  -6  131.40    4.60
  -4  -2   6  126.87    5.10
  -4  -2   6  127.77    4.61
  -4  -2   6  130.08    4.65
  -4  -2   6  133.85    4.69
  -4  -2   6  131.84    5.05
  -4  -2   6  133.95    4.69
   3   2  -6  120.71    4.33
   3   2  -6  121.68    4.68
   3   2  -6  114.53    4.74
   3   2  -6  110.60    4.42
   3   2  -6  121.01    4.34
   3   2  -6  121.29    4.63
   3   2  -6  126.31    4.31
   3   2  -6  123.51    4.30
  -3  -2   6  122.03    4.37
  -3  -2   6  128.02    4.61
  -3  -2   6  126.03    4.46
  -3  -2   6  122.40    4.67
  -3  -2   6  122.78    4.35
  -3  -2   6  124.23    4.37
  -3  -2   6  127.28    4.42
  -3  -2   6  122.26    4.32
  -3  -2   6  126.13    4.78
   2   2  -6  149.17    5.38
   2   2  -6  144.23    5.51
   2   2  -6  155.26    5.06
   2   2  -6  148.15    5.21
   2   2  -6  138.10    5.08
   2   2  -6  141.79    5.03
   2   2  -6  148.00    5.38
   2   2  -6  144.56    5.09
   2   2  -6  143.38    5.46
  -2  -2   6  138.97    5.18
  -2  -2   6  145.07    5.10
  -2  -2   6  143.68    5.08
  -2  -2   6  153.76    5.16
  -2  -2   6  141.88    5.11
  -2  -2   6  147.83    5.41
  -2  -2   6  149.17    5.12
  -2  -2   6  151.34    5.53
  -2  -2   6  141.77    5.17
   1   2  -6  340.62   12.02
   1   2  -6  342.96   11.72
   1   2  -6  334.26   11.92
   1   2  -6  349.31   11.49
   1   2  -6  324.82   11.48
   1   2  -6  332.39   11.57
   1   2  -6  337.20   11.85
   1   2  -6  354.39   11.70
   1   2  -6  324.73   11.56
  -1  -2   6  366.58   12.05
  -1  -2   6  320.32   11.55
  -1  -2   6  324.73   11.78
  -1  -2   6  340.18   11.65
  -1  -2   6  328.54   11.58
  -1  -2   6  336.68   11.86
  -1  -2   6  351.06   11.60
  -1  -2   6  343.75   11.58
   0   2  -6   63.18    2.88
   0   2  -6   64.94    2.48
   0   2  -6   68.17    2.55
   0   2  -6   67.42    2.72
   0   2  -6   65.78    2.39
   0   2  -6   66.07    2.40
   0  -2   6   67.71    2.50
   0  -2   6   64.59    2.41
   0  -2   6   66.47    2.38
   0  -2   6   64.95    2.91
   0  -2   6   66.05    2.67
   0  -2   6   68.81    2.85
   0  -2   6   66.51    2.39
   0  -2   6   67.04    2.40
   0  -2   6   67.48    2.41
   0  -2   6   68.15    2.40
  -1   2  -6  379.75   14.25
  -1   2  -6  401.79   13.65
  -1   2  -6  403.82   13.95
  -1   2  -6  411.81   13.84
  -1   2  -6  392.86   13.67
   1  -2   6  420.62   14.24
   1  -2   6  406.05   13.94
   1  -2   6  403.81   13.67
   1  -2   6  425.12   14.18
   1  -2   6  399.99   13.67
   1  -2   6  381.48   13.66
   1  -2   6  393.51   13.63
   1  -2   6  390.96   13.76
   1  -2   6  389.36   13.69
  -2   2  -6   18.19    0.83
  -2   2  -6   18.27    0.83
  -2   2  -6   18.02    1.51
  -2   2  -6   18.63    0.75
  -2   2  -6   17.95    1.01
  -2   2  -6   19.02    0.79
  -2   2  -6   21.03    1.07
   2  -2   6   19.19    0.83
   2  -2   6   19.38    1.00
   2  -2   6   18.67    0.84
   2  -2   6   18.81    0.84
   2  -2   6   18.73    0.84
   2  -2   6   18.74    0.92
   2  -2   6   16.88    1.30
  -3   2  -6  156.07    5.58
  -3   2  -6  166.61    5.78
  -3   2  -6  163.20    5.62
  -3   2  -6  159.51    6.21
  -3   2  -6  152.19    6.50
   3  -2   6  162.79    5.63
   3  -2   6  158.62    5.78
   3  -2   6  167.22    5.67
   3  -2   6  155.24    5.86
   3  -2   6  164.92    5.66
   3  -2   6  160.96    5.64
  -4   2  -6   35.69    1.50
  -4   2  -6   30.96    2.38
  -4   2  -6   38.28    1.52
  -4   2  -6   37.35    2.19
  -4   2  -6   36.38    1.48
  -4   2  -6   35.93    1.44
   4  -2   6   36.56    1.75
   4  -2   6   36.54    1.68
   4  -2   6   36.80    1.51
   4  -2   6   35.58    1.49
   4  -2   6   37.26    1.51
  -5   2  -6    6.95    1.43
  -5   2  -6    8.43    1.77
  -5   2  -6    9.32    0.65
  -5   2  -6    8.84    0.62
  -5   2  -6    6.86    0.61
   5  -2   6    9.06    0.69
   5  -2   6    8.73    0.73
   5  -2   6   10.02    0.74
   5  -2   6    8.90    0.86
  -6   2  -6    8.53    1.49
  -6   2  -6    9.89    0.75
  -6   2  -6   11.90    2.07
   6  -2   6   10.18    0.78
   6  -2   6    9.40    0.81
   6  -2   6    9.82    0.98
  -7   2  -6    1.14    1.22
  -7   2  -6    1.30    1.58
   7  -2   6    0.13    0.51
   7  -2   6    1.26    0.43
   7  -2   6    0.49    0.47
   9   1  -6    3.87    0.62
  -9  -1   6    4.39    1.45
  -9  -1   6    3.70    1.48
  -9  -1   6    3.82    0.82
  -9  -1   6    3.20    0.71
   8   1  -6    2.56    0.48
   8   1  -6    2.77    0.60
  -8  -1   6    2.49    1.07
  -8  -1   6    2.54    0.58
  -8  -1   6    1.96    0.48
   7   1  -6    0.99    0.47
   7   1  -6    0.47    0.33
   7   1  -6    0.81    0.48
   7   1  -6    0.25    0.31
  -7  -1   6    0.85    0.37
  -7  -1   6    0.61    0.42
  -7  -1   6    0.49    0.80
  -7  -1   6    0.07    0.33
   6   1  -6   31.46    1.39
   6   1  -6   33.28    1.46
   6   1  -6   32.01    1.37
   6   1  -6   29.04    1.50
  -6  -1   6   29.13    1.37
  -6  -1   6   26.95    1.86
  -6  -1   6   30.64    1.46
  -6  -1   6   28.81    1.43
   5   1  -6    0.71    0.30
   5   1  -6    0.68    0.28
   5   1  -6    1.45    0.41
   5   1  -6    0.51    0.26
   5   1  -6    0.47    0.26
  -5  -1   6    0.87    0.32
  -5  -1   6    0.77    0.43
  -5  -1   6    0.39    0.45
  -5  -1   6    0.30    0.26
  -5  -1   6    0.35    0.29
   4   1  -6   12.07    0.84
   4   1  -6   13.25    0.89
   4   1  -6   12.84    0.67
   4   1  -6   12.66    0.79
   4   1  -6   12.82    0.67
   4   1  -6   12.53    0.81
   4   1  -6   12.28    0.65
  -4  -1   6   12.89    0.74
  -4  -1   6   13.87    0.93
  -4  -1   6   11.98    0.67
  -4  -1   6   12.58    0.77
  -4  -1   6   10.93    0.71
  -4  -1   6   11.86    0.94
   3   1  -6   31.92    1.28
   3   1  -6   31.93    1.29
   3   1  -6   31.94    1.27
   3   1  -6   33.00    1.55
   3   1  -6   34.79    1.42
   3   1  -6   30.48    1.40
   3   1  -6   32.49    1.47
   3   1  -6   31.20    1.28
  -3  -1   6   33.37    1.37
  -3  -1   6   30.97    1.51
  -3  -1   6   31.83    1.54
  -3  -1   6   31.88    1.33
  -3  -1   6   31.66    1.32
  -3  -1   6   32.07    1.28
  -3  -1   6   32.41    1.31
  -3  -1   6   30.76    1.45
   2   1  -6   46.03    1.69
   2   1  -6   46.90    1.88
   2   1  -6   46.43    1.84
   2   1  -6   42.69    1.95
   2   1  -6   43.24    1.80
   2   1  -6   45.94    1.69
   2   1  -6   43.07    1.91
   2   1  -6   45.38    1.70
   2   1  -6   43.86    1.70
  -2  -1   6   45.40    1.69
  -2  -1   6   43.28    1.90
  -2  -1   6   43.78    1.72
  -2  -1   6   43.90    1.84
  -2  -1   6   44.04    1.70
  -2  -1   6   47.56    1.76
  -2  -1   6   46.15    1.72
  -2  -1   6   45.68    1.94
   1   1  -6  127.69    4.53
   1   1  -6  123.77    4.86
   1   1  -6  125.08    4.81
   1   1  -6  118.88    4.62
   1   1  -6  132.51    4.68
   1   1  -6  134.60    4.55
   1   1  -6  126.97    4.55
   1   1  -6  132.42    4.56
   1   1  -6  131.44    4.79
   1   1  -6  131.30    4.56
  -1  -1   6  127.41    4.55
  -1  -1   6  128.71    4.55
  -1  -1   6  134.65    4.57
  -1  -1   6  129.81    4.54
  -1  -1   6  129.05    4.65
  -1  -1   6  135.35    4.58
  -1  -1   6  139.62    4.83
  -1  -1   6  127.60    4.72
   0   1  -6  203.04    6.91
   0   1  -6  197.88    6.79
   0   1  -6  190.62    6.77
   0   1  -6  183.44    7.11
   0   1  -6  196.79    6.77
   0  -1   6  193.79    6.79
   0  -1   6  194.91    6.79
   0  -1   6  194.59    6.85
   0  -1   6  203.91    6.79
   0  -1   6  191.01    6.77
   0  -1   6  206.37    7.11
   0  -1   6  198.49    6.95
   0  -1   6  194.97    6.76
  -1   1  -6   52.65    1.95
  -1   1  -6   52.01    2.37
  -1   1  -6   55.11    1.93
  -1   1  -6   50.36    1.95
  -1   1  -6   53.05    1.96
  -1   1  -6   52.77    2.06
   1  -1   6   51.88    1.95
   1  -1   6   51.94    2.28
   1  -1   6   53.16    1.95
   1  -1   6   53.18    2.27
   1  -1   6   51.28    2.02
   1  -1   6   52.70    1.86
   1  -1   6   52.47    1.95
   1  -1   6   51.41    1.93
  -2   1  -6   99.00    3.70
  -2   1  -6  100.26    4.24
  -2   1  -6  100.86    3.69
  -2   1  -6  100.51    3.70
  -2   1  -6  108.26    3.69
  -2   1  -6  104.64    3.83
   2  -1   6  104.74    3.69
   2  -1   6  104.59    3.70
   2  -1   6  103.47    3.78
   2  -1   6  103.79    3.68
   2  -1   6  105.99    4.04
   2  -1   6  107.66    3.71
  -3   1  -6   96.46    3.68
  -3   1  -6   93.17    4.21
  -3   1  -6   94.68    3.64
  -3   1  -6  101.27    3.55
  -3   1  -6   98.86    3.55
  -3   1  -6   88.94    4.14
  -3   1  -6  104.98    3.54
   3  -1   6   98.77    3.52
   3  -1   6  100.84    3.89
   3  -1   6  103.03    3.62
   3  -1   6   97.24    3.53
   3  -1   6   99.63    3.55
   3  -1   6   96.36    3.63
  -4   1  -6    7.05    0.50
  -4   1  -6    6.44    0.58
  -4   1  -6    7.28    0.57
  -4   1  -6    5.93    1.04
  -4   1  -6    6.43    0.74
  -4   1  -6    5.79    1.01
   4  -1   6    7.92    0.59
   4  -1   6    8.28    0.58
   4  -1   6    7.83    0.87
   4  -1   6    7.36    0.58
   4  -1   6    7.59    0.70
  -5   1  -6   22.64    1.15
  -5   1  -6   22.69    1.63
  -5   1  -6   23.02    1.19
   5  -1   6   23.40    1.15
   5  -1   6   24.40    1.26
   5  -1   6   23.28    1.15
   5  -1   6   25.69    1.21
  -6   1  -6   20.32    1.12
  -6   1  -6   23.34    2.08
  -6   1  -6   20.15    1.76
  -6   1  -6   21.32    1.16
   6  -1   6   20.40    1.12
   6  -1   6   19.41    1.12
   6  -1   6   21.07    1.23
  -7   1  -6    1.32    1.13
  -7   1  -6    1.01    0.41
  -7   1  -6    1.57    0.99
   7  -1   6    1.20    0.45
   7  -1   6    1.07    0.48
   7  -1   6    0.43    0.37
  -8   1  -6   -0.12    1.96
  -8   1  -6    1.59    0.56
  -8   1  -6    3.00    1.43
   8  -1   6    1.94    0.71
   8  -1   6    1.46    0.68
   8  -1   6    0.52    0.51
   9   0  -6    1.10    0.51
   9   0  -6    0.43    0.44
  -9   0   6    0.63    0.58
  -9   0   6   -0.25    1.14
  -9   0   6    0.37    0.52
  -9   0   6    0.78    1.38
   8   0  -6   17.82    1.17
   8   0  -6   17.78    1.10
  -8   0   6   18.85    1.38
  -8   0   6   20.31    1.21
  -8   0   6   18.76    2.04
  -8   0   6   19.12    1.94
   7   0  -6    1.71    0.39
   7   0  -6    2.45    0.41
   7   0  -6    3.02    0.50
   7   0  -6    2.12    0.38
  -7   0   6    1.56    0.78
  -7   0   6    3.29    0.49
  -7   0   6    2.14    0.48
   6   0  -6  185.08    6.66
   6   0  -6  191.26    6.70
   6   0  -6  183.09    6.76
   6   0  -6  183.43    6.74
   6   0  -6  188.21    6.68
   6   0  -6  190.77    6.62
  -6   0   6  190.16    6.74
  -6   0   6  199.55    6.77
  -6   0   6  182.81    7.31
   5   0  -6  112.32    4.31
   5   0  -6  114.19    4.34
   5   0  -6  127.93    4.74
   5   0  -6  116.66    4.24
   5   0  -6  118.58    4.46
   5   0  -6  117.95    4.24
   5   0  -6  117.81    4.37
   5   0  -6  115.01    4.36
   5   0  -6  120.29    4.27
  -5   0   6  116.31    4.73
  -5   0   6  119.46    4.31
  -5   0   6  115.41    4.36
  -5   0   6  115.21    4.28
  -5   0   6  118.38    4.27
  -5   0   6  120.08    4.52
   4   0  -6  660.91   21.53
   4   0  -6  583.03   21.33
   4   0  -6  623.87   21.52
   4   0  -6  633.58   21.55
   4   0  -6  611.94   21.37
   4   0  -6  610.92   21.34
   4   0  -6  609.68   21.47
   4   0  -6  629.86   21.36
  -4   0   6  608.73   21.73
  -4   0   6  606.63   21.39
  -4   0   6  658.43   21.39
  -4   0   6  615.65   21.39
  -4   0   6  614.25   21.35
  -4   0   6  650.17   21.48
  -4   0   6  673.76   21.55
   3   0  -6  966.94   32.14
   3   0  -6  968.42   32.27
   3   0  -6  907.54   32.24
   3   0  -6  976.30   32.27
  -3   0   6  945.11   32.14
  -3   0   6  922.92   32.17
  -3   0   6  929.65   32.13
  -3   0   6 1000.00   32.28
  -3   0   6  927.83   32.16
  -3   0   6  918.67   32.37
   2   0  -6  163.58    5.64
   2   0  -6  163.36    5.74
   2   0  -6  172.60    5.79
   2   0  -6  157.61    5.64
   2   0  -6  158.48    5.76
   2   0  -6  163.07    5.66
   2   0  -6  158.40    5.66
  -2   0   6  161.37    5.81
  -2   0   6  160.28    5.67
  -2   0   6  162.33    5.86
  -2   0   6  168.35    5.74
  -2   0   6  176.25    5.77
  -2   0   6  155.81    5.66
  -2   0   6  150.82    5.67
  -2   0   6  157.08    5.65
   0   0  -6   47.04    1.72
   0   0  -6   48.53    1.80
   0   0  -6   48.58    1.98
   0   0  -6   46.46    1.83
   0   0  -6   46.52    1.80
   0   0  -6   49.16    1.89
   0   0  -6   47.54    1.80
   0   0  -6   47.69    1.79
   0   0   6   46.45    1.91
   0   0   6   48.05    1.80
   0   0   6   48.63    1.80
   0   0   6   48.00    1.79
   0   0   6   48.35    1.86
   0   0   6   46.60    1.79
   0   0   6   47.72    1.79
  -1   0  -6  455.15   15.61
  -1   0  -6  467.71   15.62
  -1   0  -6  461.39   15.92
  -1   0  -6  463.46   15.63
  -1   0  -6  444.11   15.62
  -1   0  -6  453.56   15.62
  -1   0  -6  470.93   15.70
   1   0   6  478.99   15.81
   1   0   6  445.41   15.58
   1   0   6  459.43   15.66
   1   0   6  438.67   15.60
   1   0   6  453.41   15.61
   1   0   6  464.33   15.62
   1   0   6  446.16   15.68
  -2   0  -6   34.86    1.41
  -2   0  -6   37.35    1.49
  -2   0  -6   35.67    1.37
  -2   0  -6   35.73    1.40
  -2   0  -6   35.48    1.43
  -2   0  -6   35.43    1.41
   2   0   6   34.40    1.38
   2   0   6   34.99    1.40
   2   0   6   35.48    1.40
   2   0   6   34.17    1.55
   2   0   6   34.47    1.47
   2   0   6   34.75    1.57
  -3   0  -6   14.10    0.84
  -3   0  -6   13.86    0.81
  -3   0  -6   15.45    0.77
  -3   0  -6   14.38    0.70
  -3   0  -6   14.21    0.78
  -3   0  -6   14.04    0.77
   3   0   6   14.98    0.84
   3   0   6   15.25    0.79
   3   0   6   13.52    0.74
   3   0   6   13.68    0.75
   3   0   6   13.87    0.75
   3   0   6   16.10    1.00
  -4   0  -6   11.26    0.74
  -4   0  -6   11.64    0.72
  -4   0  -6   12.56    1.04
  -4   0  -6   11.39    0.64
  -4   0  -6   11.33    0.80
  -4   0  -6   11.84    0.74
  -4   0  -6   11.59    0.76
   4   0   6   11.92    0.85
   4   0   6   11.81    1.12
   4   0   6   12.00    0.74
   4   0   6   12.29    0.83
   4   0   6   12.13    0.78
   4   0   6   12.10    0.71
   4   0   6   12.53    0.73
  -5   0  -6   37.03    2.01
  -5   0  -6   36.68    1.50
  -5   0  -6   36.76    1.55
  -5   0  -6   37.01    1.62
  -5   0  -6   37.95    1.63
   5   0   6   39.00    1.76
   5   0   6   35.62    1.60
   5   0   6   36.07    1.60
   5   0   6   37.89    1.68
   5   0   6   37.96    1.61
  -6   0  -6    0.40    0.31
  -6   0  -6    0.38    0.38
  -6   0  -6    0.17    0.29
  -6   0  -6    0.34    0.34
  -6   0  -6    1.57    0.74
   6   0   6    0.15    0.43
   6   0   6    0.24    0.33
   6   0   6    0.42    0.43
   6   0   6    0.65    0.39
  -7   0  -6    4.13    0.60
  -7   0  -6    5.29    0.60
  -7   0  -6    5.07    0.63
  -7   0  -6    6.31    1.16
   7   0   6    5.68    0.97
   7   0   6    5.52    0.84
   7   0   6    4.84    0.63
   7   0   6    4.75    0.61
  -8   0  -6    7.95    1.05
   8   0   6    8.38    0.90
   8   0   6    5.50    0.80
   8   0   6    7.26    1.03
   8   0   6    6.50    1.22
   9  -1  -6    4.81    0.66
   9  -1  -6    3.31    0.68
  -9   1   6    2.64    1.35
  -9   1   6    4.33    1.73
  -9   1   6    3.53    0.68
   8  -1  -6    2.93    0.51
   8  -1  -6    2.23    0.50
  -8   1   6    3.07    1.29
  -8   1   6    2.61    0.50
  -8   1   6    2.28    0.99
  -8   1   6    3.72    0.58
   7  -1  -6    1.01    0.45
   7  -1  -6    2.66    0.45
   7  -1  -6    0.42    0.57
   7  -1  -6    1.20    0.45
   7  -1  -6    1.70    0.40
   7  -1  -6    1.30    0.38
  -7   1   6    0.48    0.36
  -7   1   6    0.53    0.93
  -7   1   6    0.44    0.41
  -7   1   6    0.95    0.71
   6  -1  -6   28.15    1.28
   6  -1  -6   26.73    1.31
   6  -1  -6   28.74    1.31
   6  -1  -6   26.40    1.25
   6  -1  -6   26.60    1.25
   6  -1  -6   27.98    1.36
  -6   1   6   27.15    1.31
  -6   1   6   23.37    1.92
  -6   1   6   24.50    1.82
  -6   1   6   27.35    1.32
   5  -1  -6    1.00    0.31
   5  -1  -6    0.86    0.30
   5  -1  -6    1.25    0.39
   5  -1  -6    0.95    0.36
   5  -1  -6    0.67    0.30
   5  -1  -6    0.75    0.28
  -5   1   6    0.79    0.30
  -5   1   6    1.02    0.31
  -5   1   6    1.06    0.35
  -5   1   6    1.03    0.32
  -5   1   6    1.14    0.56
  -5   1   6    1.52    0.55
  -5   1   6    1.02    0.45
   4  -1  -6   15.19    0.78
   4  -1  -6   15.57    0.91
   4  -1  -6   14.51    0.76
   4  -1  -6   16.38    0.90
   4  -1  -6   14.90    0.77
   4  -1  -6   15.97    0.99
   4  -1  -6   15.63    0.80
   4  -1  -6   14.37    0.85
  -4   1   6   15.04    0.78
  -4   1   6   14.55    1.07
  -4   1   6   16.97    1.01
  -4   1   6   15.19    0.85
  -4   1   6   15.40    0.81
  -4   1   6   14.85    0.77
  -4   1   6   15.76    1.02
   3  -1  -6   28.79    1.39
   3  -1  -6   29.86    1.25
   3  -1  -6   27.98    1.36
   3  -1  -6   31.44    1.22
   3  -1  -6   29.19    1.18
   3  -1  -6   29.49    1.19
   3  -1  -6   27.09    1.19
   3  -1  -6   29.22    1.32
  -3   1   6   27.10    1.39
  -3   1   6   26.17    1.39
  -3   1   6   28.56    1.20
  -3   1   6   28.62    1.20
  -3   1   6   27.27    1.21
  -3   1   6   29.59    1.19
   2  -1  -6   41.20    1.61
   2  -1  -6   43.82    1.84
   2  -1  -6   42.49    1.64
   2  -1  -6   41.50    1.64
   2  -1  -6   41.01    1.74
   2  -1  -6   41.97    1.63
  -2   1   6   44.26    1.64
  -2   1   6   40.72    1.76
  -2   1   6   45.80    1.78
  -2   1   6   41.18    1.63
  -2   1   6   42.37    1.83
  -2   1   6   42.27    1.65
  -2   1   6   41.33    1.63
   1  -1  -6  146.28    4.92
   1  -1  -6  138.23    4.94
   1  -1  -6  134.34    4.78
   1  -1  -6  138.88    4.80
   1  -1  -6  133.11    4.76
   1  -1  -6  134.99    4.77
   1  -1  -6  128.73    4.73
   1  -1  -6  132.63    4.86
   1  -1  -6  136.22    4.80
  -1   1   6  133.22    4.86
  -1   1   6  132.54    4.79
  -1   1   6  138.07    5.07
  -1   1   6  138.81    5.03
  -1   1   6  141.78    4.78
  -1   1   6  136.71    4.78
  -1   1   6  129.62    4.80
  -1   1   6  137.58    4.79
   0  -1  -6  181.98    6.58
   0  -1  -6  196.11    6.55
   0  -1  -6  185.50    6.64
   0  -1  -6  184.00    6.53
   0  -1  -6  188.03    6.55
   0  -1  -6  198.05    6.56
   0  -1  -6  197.71    6.64
   0   1   6  192.95    6.55
   0   1   6  174.27    6.50
   0   1   6  180.74    6.54
   0   1   6  196.89    6.54
   0   1   6  186.84    6.79
   0   1   6  184.99    6.63
   0   1   6  183.71    6.54
   0   1   6  189.13    6.59
  -1  -1  -6   51.29    1.96
  -1  -1  -6   51.38    1.96
  -1  -1  -6   51.99    2.05
  -1  -1  -6   52.46    1.98
  -1  -1  -6   53.26    1.98
  -1  -1  -6   52.50    2.02
  -1  -1  -6   51.80    1.99
   1   1   6   54.73    1.97
   1   1   6   50.14    2.03
   1   1   6   50.71    1.96
   1   1   6   54.59    1.97
   1   1   6   49.79    2.17
   1   1   6   51.67    1.98
  -2  -1  -6  104.70    3.72
  -2  -1  -6  103.98    3.71
  -2  -1  -6  101.75    3.69
  -2  -1  -6  102.15    3.71
  -2  -1  -6  103.25    3.69
  -2  -1  -6  103.25    3.73
   2   1   6  103.19    3.80
   2   1   6  102.63    3.66
   2   1   6  100.48    3.82
   2   1   6  100.97    3.69
   2   1   6  101.56    3.69
   2   1   6  101.65    3.69
   2   1   6  100.35    3.69
   2   1   6  107.77    3.91
  -3  -1  -6   94.98    3.47
  -3  -1  -6   94.41    3.46
  -3  -1  -6   90.36    3.45
  -3  -1  -6   95.23    3.47
  -3  -1  -6   96.11    3.47
  -3  -1  -6   89.76    3.45
   3   1   6  102.67    3.76
   3   1   6   95.36    3.46
   3   1   6   99.18    3.41
   3   1   6   93.39    3.53
   3   1   6   96.69    3.45
   3   1   6   92.63    3.44
   3   1   6   94.34    3.46
   3   1   6   89.44    3.57
  -4  -1  -6    7.09    0.59
  -4  -1  -6    6.15    0.57
  -4  -1  -6    7.93    0.59
  -4  -1  -6    7.65    0.62
  -4  -1  -6    7.35    0.62
   4   1   6    6.91    0.60
   4   1   6    6.82    0.59
   4   1   6    6.46    0.55
   4   1   6    6.07    0.68
   4   1   6    5.99    0.73
   4   1   6    7.79    0.89
  -5  -1  -6   25.13    1.20
  -5  -1  -6   22.36    1.12
  -5  -1  -6   23.56    1.19
  -5  -1  -6   21.62    1.14
  -5  -1  -6   22.73    1.19
   5   1   6   21.59    1.20
   5   1   6   23.47    1.15
   5   1   6   20.93    1.13
   5   1   6   22.14    1.32
  -6  -1  -6   19.24    1.07
  -6  -1  -6   20.01    1.08
  -6  -1  -6   19.78    1.16
  -6  -1  -6   18.55    1.13
   6   1   6   19.31    1.11
   6   1   6   19.88    1.38
   6   1   6   19.90    1.11
   6   1   6   18.53    1.12
  -7  -1  -6    0.12    0.41
  -7  -1  -6    1.33    0.80
  -7  -1  -6    0.91    0.49
   7   1   6    0.56    0.69
   7   1   6    0.05    0.51
   7   1   6    1.37    0.69
   7   1   6    1.20    0.44
  -8  -1  -6    2.25    0.63
  -8  -1  -6    1.49    0.55
  -8  -1  -6    0.75    0.71
   8   1   6    2.12    0.58
   8   1   6    1.30    0.67
   8   1   6    1.71    0.85
   8   1   6    1.93    0.58
   8  -2  -6   18.19    1.15
   8  -2  -6   17.89    1.22
   8  -2  -6   19.51    1.20
  -8   2   6   18.76    2.40
   7  -2  -6   27.29    1.29
   7  -2  -6   28.77    1.37
   7  -2  -6   27.66    1.36
   7  -2  -6   29.09    1.48
  -7   2   6   23.67    2.23
  -7   2   6   25.19    1.42
  -7   2   6   27.84    2.10
  -7   2   6   31.10    2.04
  -7   2   6   28.03    1.37
   6  -2  -6   38.87    1.69
   6  -2  -6   39.09    1.68
   6  -2  -6   38.33    1.80
   6  -2  -6   40.38    1.69
  -6   2   6   37.74    2.09
  -6   2   6   37.34    1.74
  -6   2   6   45.16    2.06
  -6   2   6   35.78    2.26
  -6   2   6   38.10    1.66
  -6   2   6   34.92    2.37
   5  -2  -6   33.90    1.45
   5  -2  -6   33.94    1.59
   5  -2  -6   33.87    1.47
   5  -2  -6   32.03    1.45
   5  -2  -6   33.90    1.60
  -5   2   6   34.41    1.50
  -5   2   6   33.96    1.46
  -5   2   6   34.92    1.87
  -5   2   6   34.29    2.15
  -5   2   6   32.48    1.89
  -5   2   6   36.87    1.48
   4  -2  -6  132.38    4.60
   4  -2  -6  128.21    4.57
   4  -2  -6  127.87    4.72
   4  -2  -6  134.41    4.70
   4  -2  -6  126.88    4.78
   4  -2  -6  127.18    4.56
   4  -2  -6  124.49    4.55
  -4   2   6  129.52    4.56
  -4   2   6  124.81    4.59
  -4   2   6  121.51    4.89
  -4   2   6  123.86    4.96
  -4   2   6  139.98    4.60
  -4   2   6  123.73    4.87
  -4   2   6  121.58    5.11
   3  -2  -6  126.14    4.39
   3  -2  -6  122.65    4.39
   3  -2  -6  125.09    4.38
   3  -2  -6  119.53    4.83
   3  -2  -6  123.21    4.64
   3  -2  -6  127.25    4.41
   3  -2  -6  125.53    4.41
   3  -2  -6  116.23    4.52
   3  -2  -6  127.17    4.60
  -3   2   6  115.68    4.39
  -3   2   6  124.45    4.41
  -3   2   6  125.28    4.37
  -3   2   6  117.61    4.58
  -3   2   6  130.94    4.40
  -3   2   6  119.20    4.74
  -3   2   6  124.49    4.63
  -3   2   6  122.67    4.83
   2  -2  -6  143.04    5.06
   2  -2  -6  144.48    5.06
   2  -2  -6  141.66    5.04
   2  -2  -6  150.95    5.26
   2  -2  -6  140.68    5.40
   2  -2  -6  141.01    5.03
   2  -2  -6  141.31    4.98
   2  -2  -6  148.84    5.24
   2  -2  -6  139.73    5.17
  -2   2   6  144.31    5.23
  -2   2   6  143.93    5.03
  -2   2   6  138.01    5.09
  -2   2   6  146.87    5.39
  -2   2   6  141.26    5.41
  -2   2   6  145.79    5.03
  -2   2   6  140.52    5.05
  -2   2   6  141.27    5.05
   1  -2  -6  387.08   12.43
   1  -2  -6  344.08   12.26
   1  -2  -6  360.87   12.69
   1  -2  -6  358.76   12.27
   1  -2  -6  343.68   12.24
   1  -2  -6  343.48   12.35
   1  -2  -6  351.98   12.19
   1  -2  -6  356.69   12.25
  -1   2   6  357.12   12.26
  -1   2   6  370.76   12.23
  -1   2   6  357.45   12.40
  -1   2   6  352.72   12.24
  -1   2   6  365.71   12.67
  -1   2   6  344.18   12.25
  -1   2   6  361.29   12.48
   0  -2  -6   65.80    2.46
   0  -2  -6   65.43    2.45
   0  -2  -6   66.55    2.44
   0  -2  -6   72.07    2.59
   0  -2  -6   65.79    2.68
   0  -2  -6   65.71    2.45
   0   2   6   60.12    2.56
   0   2   6   65.24    2.43
   0   2   6   71.08    2.43
   0   2   6   62.58    2.76
   0   2   6   65.91    2.44
   0   2   6   63.90    2.44
   0   2   6   67.29    2.55
   0   2   6   65.79    2.69
   0   2   6   66.75    2.87
  -1  -2  -6  407.76   13.90
  -1  -2  -6  410.79   13.89
  -1  -2  -6  403.49   13.89
  -1  -2  -6  405.19   13.88
  -1  -2  -6  398.64   13.97
  -1  -2  -6  418.59   13.94
  -1  -2  -6  416.33   14.14
   1   2   6  402.32   14.13
   1   2   6  404.99   13.91
   1   2   6  380.96   14.20
   1   2   6  412.47   13.86
   1   2   6  382.80   14.34
   1   2   6  419.18   13.89
   1   2   6  404.31   13.89
  -2  -2  -6   23.23    1.17
  -2  -2  -6   22.99    1.10
  -2  -2  -6   23.98    1.09
  -2  -2  -6   23.56    1.07
  -2  -2  -6   24.00    1.26
  -2  -2  -6   22.44    1.08
  -2  -2  -6   24.39    1.11
   2   2   6   24.30    1.07
   2   2   6   24.04    1.04
   2   2   6   22.97    1.33
   2   2   6   25.08    1.10
   2   2   6   27.24    1.16
   2   2   6   22.57    1.07
  -3  -2  -6  167.59    5.84
  -3  -2  -6  159.11    5.88
  -3  -2  -6  159.31    6.07
  -3  -2  -6  161.60    5.83
  -3  -2  -6  162.87    5.78
  -3  -2  -6  156.41    5.80
   3   2   6  161.72    5.79
   3   2   6  164.45    5.81
   3   2   6  165.36    5.81
   3   2   6  157.12    6.06
   3   2   6  185.94    6.03
  -4  -2  -6   38.45    1.69
  -4  -2  -6   37.95    1.58
  -4  -2  -6   38.47    1.73
  -4  -2  -6   40.36    1.69
  -4  -2  -6   37.51    1.66
   4   2   6   38.50    1.65
   4   2   6   41.94    1.88
   4   2   6   38.07    1.65
   4   2   6   36.38    1.92
  -5  -2  -6    8.94    0.70
  -5  -2  -6    8.25    0.80
  -5  -2  -6   10.32    0.76
  -5  -2  -6    8.60    0.79
   5   2   6    7.50    0.97
   5   2   6    9.33    1.09
   5   2   6    8.67    0.75
   5   2   6    8.59    0.74
  -6  -2  -6   10.65    0.90
  -6  -2  -6    8.70    0.88
  -6  -2  -6   11.08    0.92
   6   2   6   10.82    0.85
   6   2   6    8.08    1.19
   6   2   6    7.90    1.06
   6   2   6    9.42    0.86
  -7  -2  -6    0.42    0.45
  -7  -2  -6    0.83    0.50
  -7  -2  -6    0.69    0.56
   7   2   6    0.69    0.43
   7   2   6    2.01    0.89
   8  -3  -6    2.32    0.63
   8  -3  -6    4.10    0.65
   8  -3  -6    4.73    0.74
  -8   3   6    4.80    2.47
   7  -3  -6    4.30    0.67
   7  -3  -6    3.99    0.67
   7  -3  -6    4.77    0.68
  -7   3   6    7.03    1.60
   6  -3  -6    1.61    0.41
   6  -3  -6    2.43    0.59
   6  -3  -6    1.77    0.38
  -6   3   6    3.21    1.10
  -6   3   6    2.52    0.94
  -6   3   6    1.55    0.34
   5  -3  -6   59.80    2.50
   5  -3  -6   61.03    2.32
   5  -3  -6   58.90    2.32
   5  -3  -6   58.37    2.43
   5  -3  -6   55.46    2.30
  -5   3   6   57.91    3.15
  -5   3   6   60.63    2.20
  -5   3   6   59.58    2.95
  -5   3   6   57.15    2.25
   4  -3  -6   25.80    1.19
   4  -3  -6   25.73    1.14
   4  -3  -6   23.34    1.36
   4  -3  -6   24.17    1.34
   4  -3  -6   24.55    1.13
  -4   3   6   22.38    1.04
  -4   3   6   22.86    1.66
  -4   3   6   26.75    1.90
  -4   3   6   25.84    1.04
   3  -3  -6   27.04    1.19
   3  -3  -6   25.34    1.36
   3  -3  -6   28.21    1.21
   3  -3  -6   28.47    1.17
   3  -3  -6   28.30    1.18
   3  -3  -6   25.16    1.19
  -3   3   6   26.38    1.79
  -3   3   6   26.57    1.17
  -3   3   6   27.64    1.75
  -3   3   6   27.34    1.14
   2  -3  -6  155.76    5.41
   2  -3  -6  152.70    5.43
   2  -3  -6  156.16    5.60
   2  -3  -6  152.57    5.41
   2  -3  -6  156.20    5.40
  -2   3   6  149.68    5.28
  -2   3   6  154.29    5.99
  -2   3   6  153.32    5.41
  -2   3   6  155.06    5.28
  -2   3   6  146.64    5.88
   1  -3  -6   48.43    1.87
   1  -3  -6   49.36    1.90
   1  -3  -6   48.95    2.09
   1  -3  -6   48.22    1.95
   1  -3  -6   47.50    1.86
   1  -3  -6   49.76    1.89
   1  -3  -6   47.71    2.03
  -1   3   6   44.10    1.72
  -1   3   6   51.44    2.25
  -1   3   6   48.39    1.86
  -1   3   6   43.63    1.73
  -1   3   6   48.42    2.42
   0  -3  -6   64.17    2.67
   0  -3  -6   69.56    2.53
   0  -3  -6   75.52    2.76
   0  -3  -6   66.77    2.52
   0  -3  -6   66.35    2.71
   0  -3  -6   66.79    2.52
   0  -3  -6   66.55    2.54
   0   3   6   70.82    2.75
   0   3   6   63.59    2.50
   0   3   6   65.22    2.55
   0   3   6   67.88    3.09
   0   3   6   65.67    2.94
  -1  -3  -6   56.18    2.09
  -1  -3  -6   53.17    2.24
  -1  -3  -6   53.50    2.11
  -1  -3  -6   55.36    2.14
  -1  -3  -6   54.19    2.08
  -1  -3  -6   53.22    2.08
   1   3   6   51.55    1.98
   1   3   6   53.33    2.50
   1   3   6   51.13    2.65
   1   3   6   56.32    2.06
  -2  -3  -6   11.28    0.86
  -2  -3  -6   10.96    0.95
  -2  -3  -6   11.77    0.70
  -2  -3  -6   10.58    0.71
  -2  -3  -6   11.71    0.82
  -2  -3  -6   11.05    0.69
   2   3   6   10.30    1.27
   2   3   6   11.80    0.72
   2   3   6   11.20    1.10
   2   3   6   10.47    0.59
  -3  -3  -6    8.97    0.67
  -3  -3  -6    8.75    0.79
  -3  -3  -6    7.65    1.23
  -3  -3  -6    9.31    0.74
  -3  -3  -6   10.02    0.62
   3   3   6    8.83    0.69
   3   3   6    9.64    0.66
   3   3   6    9.26    0.75
   3   3   6    9.83    0.60
   3   3   6   10.51    1.46
   3   3   6    8.87    1.15
  -4  -3  -6    1.76    0.49
  -4  -3  -6    1.68    0.41
  -4  -3  -6    0.81    0.35
  -4  -3  -6    1.34    0.30
  -4  -3  -6    1.09    0.37
   4   3   6    1.58    0.40
   4   3   6    1.41    0.72
   4   3   6    1.64    0.40
   4   3   6    1.50    0.97
   4   3   6    2.02    0.50
  -5  -3  -6    1.23    0.53
  -5  -3  -6    1.33    0.47
  -5  -3  -6    1.63    0.46
   5   3   6    1.71    0.76
   5   3   6   -0.39    0.96
   5   3   6    2.12    0.48
  -6  -3  -6    0.77    0.50
  -6  -3  -6    0.50    0.53
  -6  -3  -6    0.69    0.46
   6   3   6   -1.85    1.10
   6   3   6   -0.04    0.44
   6  -4  -6    8.80    0.80
   6  -4  -6    9.48    0.90
   6  -4  -6   10.38    1.12
  -6   4   6    9.45    1.64
  -6   4   6   11.59    1.98
   5  -4  -6    4.29    0.55
   5  -4  -6    3.87    0.47
   5  -4  -6    3.59    0.73
  -5   4   6    5.30    1.34
  -5   4   6    5.74    1.25
   4  -4  -6   12.50    0.85
   4  -4  -6   12.21    0.76
   4  -4  -6   12.64    1.08
  -4   4   6   14.16    1.66
  -4   4   6   10.48    1.63
   3  -4  -6   27.55    1.23
   3  -4  -6   25.06    1.24
   3  -4  -6   26.78    1.21
   3  -4  -6   24.98    1.15
   3  -4  -6   27.57    1.48
  -3   4   6   23.34    1.98
  -3   4   6   26.72    2.00
   2  -4  -6    4.33    0.59
   2  -4  -6    4.35    0.54
   2  -4  -6    4.01    0.53
   2  -4  -6    4.51    0.48
   2  -4  -6    5.15    0.66
   2  -4  -6    3.92    0.63
  -2   4   6    5.34    1.01
  -2   4   6    6.61    1.10
   1  -4  -6   37.25    1.86
   1  -4  -6   38.10    1.65
   1  -4  -6   41.77    1.67
   1  -4  -6   40.32    1.66
   1  -4  -6   42.07    1.92
   1  -4  -6   40.20    1.63
  -1   4   6   40.69    1.67
  -1   4   6   41.27    2.42
  -1   4   6   44.32    2.19
   0  -4  -6    5.54    0.57
   0  -4  -6    6.19    0.80
   0  -4  -6    7.28    0.82
   0  -4  -6    5.87    0.53
   0  -4  -6    5.37    0.88
   0  -4  -6    5.93    0.59
   0  -4  -6    6.75    0.60
   0   4   6    7.12    1.11
   0   4   6    5.64    0.51
   0   4   6    6.77    0.91
   0   4   6    6.80    1.08
  -1  -4  -6   27.80    1.30
  -1  -4  -6   28.74    1.33
  -1  -4  -6   24.32    1.68
  -1  -4  -6   27.01    1.22
  -1  -4  -6   28.63    1.53
  -1  -4  -6   27.42    1.27
   1   4   6   27.48    1.24
   1   4   6   28.77    1.90
   1   4   6   28.43    1.99
  -2  -4  -6   12.08    0.86
  -2  -4  -6   12.92    0.84
  -2  -4  -6   12.71    1.06
   2   4   6   13.87    1.59
   2   4   6   10.59    1.39
  -3  -4  -6   24.93    1.49
  -3  -4  -6   26.13    1.33
  -3  -4  -6   24.28    1.29
   3   4   6   27.33    2.00
   3   4   6   29.07    2.09
  -4  -4  -6   12.16    1.01
  -4  -4  -6   11.43    1.18
  -4  -4  -6   10.53    0.90
   4   4   6   16.91    1.84
   4   4   6   13.37    1.74
  -5  -4  -6    0.95    0.56
  -5  -4  -6    1.38    0.70
  -5  -4  -6    1.19    0.54
   5   4   6   -0.71    0.98
   5   4   6    1.66    1.06
   4  -5  -6    1.77    0.69
   4  -5  -6    1.67    0.37
   4  -5  -6    2.16    0.52
  -4   5   6    1.80    1.44
  -4   5   6    3.85    1.58
   3  -5  -6   10.54    0.93
   3  -5  -6    9.71    0.66
   3  -5  -6   10.77    1.22
  -3   5   6   12.90    2.04
  -3   5   6   11.07    1.71
   2  -5  -6    5.03    0.85
   2  -5  -6    4.67    0.58
   2  -5  -6    3.97    0.50
  -2   5   6    6.37    1.36
  -2   5   6    4.21    1.22
   1  -5  -6    2.53    0.38
   1  -5  -6    2.71    0.49
   1  -5  -6    3.03    0.75
  -1   5   6    2.65    1.08
  -1   5   6    2.61    1.04
   0  -5  -6   11.41    1.20
   0  -5  -6    8.93    0.70
   0  -5  -6    9.20    0.88
   0   5   6    8.98    1.40
  -1  -5  -6    0.39    0.39
  -1  -5  -6    0.73    0.67
   1   5   6    0.41    0.99
   1   5   6    1.28    1.13
  -2  -5  -6    6.28    0.86
  -2  -5  -6    5.47    0.65
  -2  -5  -6    4.22    0.83
   2   5   6    5.16    1.34
   2   5   6    6.54    1.30
  -3  -5  -6    1.11    0.78
  -3  -5  -6   -0.35    0.52
  -3  -5  -6   -0.07    0.49
   3   5   6    1.27    1.29
   3   5   6    1.86    1.19
   4   5  -7    4.06    1.45
   4   5  -7    4.47    1.34
  -4  -5   7    4.77    1.17
  -4  -5   7    3.26    0.45
   3   5  -7    2.20    1.10
   3   5  -7    2.26    1.09
  -3  -5   7    2.12    0.90
   2   5  -7   23.93    1.96
   2   5  -7   20.37    1.92
  -2  -5   7   22.06    1.90
   1   5  -7    2.95    0.93
   1   5  -7    3.24    1.02
  -1  -5   7    3.65    0.90
  -1  -5   7    3.65    0.68
  -1  -5   7    2.29    0.72
   0   5  -7    8.27    1.44
   0   5  -7   10.81    1.39
   0  -5   7    8.75    1.21
   0  -5   7    9.70    1.43
  -1   5  -7    7.84    1.35
  -1   5  -7    6.45    1.43
   1  -5   7    7.65    1.40
   1  -5   7    6.96    1.07
  -2   5  -7    1.17    0.79
  -2   5  -7   -2.12    1.30
   2  -5   7    1.16    0.89
   2  -5   7    0.55    0.57
   6   4  -7    4.57    1.17
   6   4  -7    3.05    1.46
  -6  -4   7    4.32    1.10
  -6  -4   7    6.54    0.91
   5   4  -7    0.00    0.98
   5   4  -7    0.90    0.79
  -5  -4   7    0.00    0.71
  -5  -4   7    0.12    0.34
  -5  -4   7   -0.04    0.51
   4   4  -7   20.79    1.67
   4   4  -7   19.48    1.85
  -4  -4   7   18.82    1.00
  -4  -4   7   19.54    1.17
  -4  -4   7   21.17    1.65
   3   4  -7   38.01    2.19
   3   4  -7   33.97    2.04
  -3  -4   7   34.79    1.43
  -3  -4   7   33.00    2.00
  -3  -4   7   31.01    1.38
  -3  -4   7   31.63    1.39
  -3  -4   7   33.20    1.57
  -3  -4   7   33.42    1.48
   2   4  -7    9.33    0.47
   2   4  -7   10.54    1.17
   2   4  -7   10.59    1.22
  -2  -4   7    9.36    1.01
  -2  -4   7    9.04    1.20
  -2  -4   7    9.39    0.78
  -2  -4   7    8.51    0.57
  -2  -4   7    8.48    0.54
  -2  -4   7    8.92    0.66
  -2  -4   7    9.13    0.58
   1   4  -7   32.58    1.78
   1   4  -7   30.95    2.09
   1   4  -7   35.20    1.96
  -1  -4   7   31.83    1.33
  -1  -4   7   31.64    1.28
  -1  -4   7   29.82    1.22
  -1  -4   7   29.38    1.87
  -1  -4   7   33.09    1.89
  -1  -4   7   32.74    1.22
  -1  -4   7   32.25    1.39
  -1  -4   7   32.40    1.48
   0   4  -7   35.87    2.09
   0   4  -7   36.10    2.30
   0  -4   7   34.10    1.37
   0  -4   7   33.64    1.93
   0  -4   7   33.32    1.61
   0  -4   7   35.85    1.42
   0  -4   7   34.85    1.40
   0  -4   7   36.28    1.50
   0  -4   7   34.91    1.62
  -1   4  -7   15.18    1.24
  -1   4  -7   11.41    1.69
   1  -4   7   13.57    1.02
   1  -4   7   13.26    0.71
   1  -4   7   12.48    1.30
   1  -4   7   12.88    0.90
   1  -4   7   13.26    0.71
  -2   4  -7   17.20    1.26
  -2   4  -7   13.35    1.87
   2  -4   7   16.27    1.13
   2  -4   7   13.69    0.73
   2  -4   7   15.98    1.38
   2  -4   7   15.23    0.70
   2  -4   7   15.30    0.79
  -3   4  -7    6.12    1.53
  -3   4  -7    6.25    0.92
   3  -4   7    5.88    0.51
   3  -4   7    6.41    0.98
   3  -4   7    5.88    0.60
   3  -4   7    6.22    0.56
   3  -4   7    6.54    1.00
  -4   4  -7    1.60    1.49
   4  -4   7    2.61    0.40
   4  -4   7    2.66    0.65
   4  -4   7    3.03    0.48
  -5   4  -7    2.10    1.70
  -5   4  -7    0.16    1.91
   5  -4   7    0.12    0.45
   5  -4   7    0.99    0.72
   5  -4   7    0.52    0.42
   7   3  -7   11.15    1.37
   7   3  -7   10.80    0.99
  -7  -3   7   10.15    1.12
  -7  -3   7   10.63    0.99
  -7  -3   7   10.97    1.74
   6   3  -7   31.52    1.40
   6   3  -7   29.18    1.87
  -6  -3   7   30.95    2.12
  -6  -3   7   29.34    1.63
  -6  -3   7   29.80    1.55
   5   3  -7    0.82    0.27
   5   3  -7    0.65    0.30
   5   3  -7    0.55    0.57
   5   3  -7    1.14    0.95
   5   3  -7    0.54    0.35
  -5  -3   7    0.92    0.57
  -5  -3   7    1.73    0.46
  -5  -3   7    1.41    0.39
  -5  -3   7    1.71    0.47
   4   3  -7   68.80    3.11
   4   3  -7   66.62    2.57
   4   3  -7   66.10    2.47
   4   3  -7   70.75    2.59
   4   3  -7   64.82    3.27
  -4  -3   7   69.71    2.71
  -4  -3   7   70.81    2.70
  -4  -3   7   72.07    2.62
   3   3  -7    7.76    0.59
   3   3  -7    6.37    0.47
   3   3  -7    7.83    0.98
   3   3  -7    9.68    1.04
  -3  -3   7    8.14    0.55
  -3  -3   7    6.56    0.51
  -3  -3   7    5.96    0.54
  -3  -3   7    7.55    0.62
  -3  -3   7    6.27    0.57
  -3  -3   7    6.37    0.95
   2   3  -7   21.32    0.92
   2   3  -7   22.80    1.35
   2   3  -7   21.38    1.43
   2   3  -7   20.77    1.03
  -2  -3   7   22.77    1.39
  -2  -3   7   21.33    1.02
  -2  -3   7   20.55    0.96
  -2  -3   7   21.78    0.95
  -2  -3   7   20.61    0.93
  -2  -3   7   20.37    1.09
  -2  -3   7   19.25    1.15
  -2  -3   7   22.76    1.01
   1   3  -7    9.96    0.84
   1   3  -7    8.22    0.65
   1   3  -7    9.90    1.16
   1   3  -7    9.60    0.52
   1   3  -7   10.34    0.98
  -1  -3   7    9.42    0.93
  -1  -3   7    8.42    0.52
  -1  -3   7    9.04    0.58
  -1  -3   7    8.12    0.54
  -1  -3   7    9.33    0.57
  -1  -3   7    9.87    0.58
  -1  -3   7    9.05    0.72
  -1  -3   7    8.55    0.88
   0   3  -7   54.99    2.27
   0   3  -7   53.73    2.79
   0   3  -7   55.46    2.04
   0   3  -7   56.39    2.54
   0  -3   7   58.56    2.07
   0  -3   7   55.60    2.06
   0  -3   7   49.94    2.51
   0  -3   7   57.42    2.22
   0  -3   7   56.11    2.06
   0  -3   7   58.44    2.17
   0  -3   7   56.68    2.06
   0  -3   7   56.33    2.49
   0  -3   7   51.27    2.18
  -1   3  -7    5.61    0.77
  -1   3  -7    5.27    1.12
   1  -3   7    4.81    0.82
   1  -3   7    5.61    0.68
   1  -3   7    5.13    0.35
   1  -3   7    4.44    0.42
   1  -3   7    4.57    0.34
   1  -3   7    3.66    0.51
   1  -3   7    4.30    0.41
   1  -3   7    4.83    0.42
  -2   3  -7   36.83    2.61
  -2   3  -7   40.59    1.88
  -2   3  -7   34.63    1.63
   2  -3   7   38.39    1.52
   2  -3   7   36.19    1.65
   2  -3   7   41.05    1.55
   2  -3   7   38.22    1.53
   2  -3   7   40.31    2.00
   2  -3   7   39.32    1.55
   2  -3   7   40.84    1.77
  -3   3  -7   33.42    2.50
  -3   3  -7   33.38    1.38
  -3   3  -7   32.99    1.60
   3  -3   7   30.05    1.51
   3  -3   7   33.72    1.61
   3  -3   7   33.25    1.37
   3  -3   7   33.86    1.39
   3  -3   7   32.71    1.40
   3  -3   7   34.12    1.38
  -4   3  -7    8.56    0.73
  -4   3  -7   10.85    1.56
  -4   3  -7    8.19    1.61
   4  -3   7    8.84    0.70
   4  -3   7    8.92    0.90
   4  -3   7    7.37    0.63
  -5   3  -7   22.15    2.21
  -5   3  -7   15.07    2.52
   5  -3   7   22.05    1.14
   5  -3   7   22.54    1.39
   5  -3   7   21.36    1.14
  -6   3  -7    0.60    1.78
  -6   3  -7    0.21    1.34
   6  -3   7    0.28    0.45
   6  -3   7    1.45    0.69
   6  -3   7    0.37    0.44
   8   2  -7    0.46    0.63
   8   2  -7    1.87    0.50
  -8  -2   7    1.64    1.02
  -8  -2   7    1.34    0.62
  -8  -2   7    1.94    0.50
   7   2  -7   14.40    0.99
   7   2  -7   13.62    1.24
   7   2  -7   14.55    0.93
  -7  -2   7   14.25    1.09
  -7  -2   7   12.12    1.56
  -7  -2   7   12.84    1.00
   6   2  -7   37.82    1.72
   6   2  -7   40.80    1.71
   6   2  -7   36.74    2.01
   6   2  -7   39.25    1.67
  -6  -2   7   39.68    1.72
  -6  -2   7   36.78    2.25
  -6  -2   7   40.31    1.80
  -6  -2   7   36.56    1.75
   5   2  -7    6.45    0.88
   5   2  -7    5.42    0.50
   5   2  -7    6.59    0.56
   5   2  -7    6.10    0.60
  -5  -2   7    6.23    0.98
  -5  -2   7    7.13    0.72
  -5  -2   7    7.60    0.62
  -5  -2   7    6.35    0.65
   4   2  -7  116.48    4.44
   4   2  -7  121.87    4.35
   4   2  -7  118.64    4.71
   4   2  -7  123.72    4.32
   4   2  -7  123.68    4.33
  -4  -2   7  124.34    4.37
  -4  -2   7  121.61    4.40
  -4  -2   7  122.40    4.40
  -4  -2   7  119.66    4.76
  -4  -2   7  117.46    4.33
   3   2  -7  101.64    4.11
   3   2  -7  106.49    3.67
   3   2  -7  108.24    3.68
   3   2  -7  101.42    4.11
   3   2  -7  100.01    4.10
   3   2  -7   97.39    3.70
   3   2  -7  100.59    3.70
   3   2  -7   87.40    3.81
  -3  -2   7  108.14    3.79
  -3  -2   7  106.74    3.75
  -3  -2   7  104.41    3.75
  -3  -2   7  107.02    3.73
  -3  -2   7  102.48    3.85
  -3  -2   7  104.28    3.69
  -3  -2   7  104.94    4.07
  -3  -2   7  107.85    4.19
   2   2  -7   33.32    1.52
   2   2  -7   30.54    1.55
   2   2  -7   31.13    1.69
   2   2  -7   30.84    1.43
   2   2  -7   32.36    1.24
   2   2  -7   30.81    1.64
   2   2  -7   32.82    1.23
   2   2  -7   30.84    1.27
  -2  -2   7   31.58    1.27
  -2  -2   7   32.30    1.69
  -2  -2   7   31.48    1.59
  -2  -2   7   28.82    1.39
  -2  -2   7   31.87    1.31
  -2  -2   7   30.70    1.27
  -2  -2   7   33.41    1.34
  -2  -2   7   30.35    1.30
  -2  -2   7   31.95    1.44
   1   2  -7  226.89    7.69
   1   2  -7  217.46    8.00
   1   2  -7  212.56    7.43
   1   2  -7  216.32    7.52
   1   2  -7  216.99    7.94
   1   2  -7  206.22    7.50
   1   2  -7  224.27    7.45
  -1  -2   7  219.26    7.54
  -1  -2   7  213.23    7.51
  -1  -2   7  200.10    7.64
  -1  -2   7  220.34    7.53
  -1  -2   7  220.40    7.52
  -1  -2   7  212.49    7.80
  -1  -2   7  220.71    7.50
  -1  -2   7  229.65    8.00
   0   2  -7   19.65    0.80
   0   2  -7   19.64    0.88
   0   2  -7   18.77    1.36
   0   2  -7   21.09    1.05
   0   2  -7   19.97    1.23
   0   2  -7   19.25    0.88
   0   2  -7   20.91    0.79
   0  -2   7   20.00    1.02
   0  -2   7   18.99    1.07
   0  -2   7   20.05    0.90
   0  -2   7   20.46    1.38
   0  -2   7   20.34    1.45
   0  -2   7   20.84    0.89
   0  -2   7   20.61    0.89
   0  -2   7   20.74    0.89
   0  -2   7   22.07    1.21
  -1   2  -7   64.98    2.38
  -1   2  -7   69.31    2.66
  -1   2  -7   64.75    2.45
  -1   2  -7   66.68    2.37
  -1   2  -7   68.16    2.83
  -1   2  -7   63.28    3.06
  -1   2  -7   65.77    2.47
   1  -2   7   68.79    2.46
   1  -2   7   66.67    2.44
   1  -2   7   65.12    3.02
   1  -2   7   66.81    2.98
   1  -2   7   66.07    2.74
   1  -2   7   70.52    2.48
   1  -2   7   68.73    2.59
   1  -2   7   67.80    2.46
  -2   2  -7   21.00    1.69
  -2   2  -7   24.09    1.29
  -2   2  -7   23.66    1.02
  -2   2  -7   22.88    0.94
   2  -2   7   22.61    1.18
   2  -2   7   22.54    1.00
   2  -2   7   23.34    1.03
   2  -2   7   24.32    1.02
   2  -2   7   24.43    1.02
   2  -2   7   22.68    1.01
  -3   2  -7   15.99    0.76
  -3   2  -7   17.11    1.69
  -3   2  -7   16.91    0.84
  -3   2  -7   18.24    1.02
   3  -2   7   16.60    0.83
   3  -2   7   17.31    0.87
   3  -2   7   16.56    0.93
   3  -2   7   16.37    0.85
   3  -2   7   16.24    1.01
   3  -2   7   15.58    0.91
  -4   2  -7   21.77    2.06
  -4   2  -7   22.72    1.75
  -4   2  -7   22.55    1.07
  -4   2  -7   22.46    1.31
  -4   2  -7   25.41    1.17
  -4   2  -7   22.04    1.02
   4  -2   7   22.82    1.27
   4  -2   7   23.70    1.11
   4  -2   7   23.29    1.09
   4  -2   7   24.11    1.11
  -5   2  -7    1.69    0.34
  -5   2  -7    1.82    0.86
  -5   2  -7    1.21    0.34
  -5   2  -7    1.05    1.04
   5  -2   7    1.20    0.37
   5  -2   7    1.10    0.34
   5  -2   7    0.98    0.45
  -6   2  -7    7.52    0.75
  -6   2  -7    7.58    1.61
  -6   2  -7    8.78    1.45
   6  -2   7    9.55    0.95
   6  -2   7    9.73    0.85
   6  -2   7    9.31    0.79
  -7   2  -7    1.80    1.86
  -7   2  -7    3.36    1.50
   7  -2   7    3.90    0.64
   7  -2   7    2.09    0.70
   7  -2   7    3.20    0.59
   9   1  -7    3.00    0.58
  -9  -1   7    4.54    0.75
  -9  -1   7    2.18    0.87
  -9  -1   7    1.90    1.64
   8   1  -7    4.06    0.58
   8   1  -7    4.91    0.91
   8   1  -7    4.19    0.56
  -8  -1   7    4.50    0.68
  -8  -1   7    3.41    1.12
  -8  -1   7    3.55    0.65
   7   1  -7   17.78    1.04
   7   1  -7   16.82    1.00
   7   1  -7   16.94    1.19
  -7  -1   7   17.02    1.68
  -7  -1   7   17.35    1.15
  -7  -1   7   14.26    1.60
  -7  -1   7   15.60    1.01
   6   1  -7   56.55    2.22
   6   1  -7   52.81    2.14
   6   1  -7   52.03    2.16
   6   1  -7   51.51    2.34
  -6  -1   7   49.08    3.05
  -6  -1   7   52.56    2.16
  -6  -1   7   56.29    2.27
   5   1  -7   77.23    2.85
   5   1  -7   71.46    2.74
   5   1  -7   69.31    2.96
   5   1  -7   72.95    2.77
   5   1  -7   68.98    2.78
  -5  -1   7   72.66    2.77
  -5  -1   7   72.81    3.24
  -5  -1   7   74.61    2.83
  -5  -1   7   73.02    2.81
  -5  -1   7   73.92    3.05
   4   1  -7  290.75    9.80
   4   1  -7  278.30    9.78
   4   1  -7  264.43    9.94
   4   1  -7  301.52    9.92
   4   1  -7  290.38    9.83
   4   1  -7  281.55    9.80
   4   1  -7  275.27   10.02
   4   1  -7  282.47   10.11
  -4  -1   7  278.88   10.17
  -4  -1   7  282.06    9.86
  -4  -1   7  277.70    9.90
  -4  -1   7  295.71   10.10
  -4  -1   7  298.03    9.85
  -4  -1   7  278.24    9.84
  -4  -1   7  269.61    9.79
   3   1  -7   97.29    3.51
   3   1  -7  101.45    3.73
   3   1  -7  103.23    3.66
   3   1  -7   95.12    3.82
   3   1  -7   97.18    3.50
   3   1  -7   92.58    3.66
   3   1  -7   95.57    3.51
   3   1  -7   93.32    3.52
  -3  -1   7  102.79    3.80
  -3  -1   7   98.68    3.54
  -3  -1   7   97.03    3.55
  -3  -1   7  100.77    3.61
  -3  -1   7   97.62    3.72
  -3  -1   7   99.01    3.81
  -3  -1   7   94.07    3.44
  -3  -1   7   95.37    3.51
  -3  -1   7   98.44    3.56
   2   1  -7  715.94   26.55
   2   1  -7  788.62   26.21
   2   1  -7  783.66   26.36
   2   1  -7  783.38   26.41
   2   1  -7  759.85   26.22
   2   1  -7  774.98   26.22
   2   1  -7  775.39   26.48
   2   1  -7  704.52   26.33
  -2  -1   7  774.21   26.24
  -2  -1   7  770.11   26.24
  -2  -1   7  799.60   26.29
  -2  -1   7  777.83   26.45
  -2  -1   7  844.57   26.52
  -2  -1   7  773.18   26.23
  -2  -1   7  757.60   26.37
  -2  -1   7  751.25   26.20
   1   1  -7   99.94    3.55
   1   1  -7   98.56    3.84
   1   1  -7  104.50    3.54
   1   1  -7  105.01    3.54
   1   1  -7   86.96    3.62
   1   1  -7   85.69    3.89
   1   1  -7  100.81    3.51
   1   1  -7  103.28    3.71
   1   1  -7   97.90    3.72
  -1  -1   7  101.78    3.57
  -1  -1   7   99.83    3.66
  -1  -1   7  104.89    3.83
  -1  -1   7   93.45    3.72
  -1  -1   7  102.50    3.56
  -1  -1   7  101.56    3.63
  -1  -1   7   99.59    3.55
   0   1  -7  572.12   19.19
   0   1  -7  584.95   19.13
   0   1  -7  524.47   19.50
   0   1  -7  560.87   19.16
   0   1  -7  558.70   19.13
   0   1  -7  578.50   19.30
   0  -1   7  564.62   19.32
   0  -1   7  479.65   19.19
   0  -1   7  605.33   19.50
   0  -1   7  571.45   19.15
   0  -1   7  553.40   19.13
   0  -1   7  560.32   19.23
   0  -1   7  589.00   19.15
   0  -1   7  559.92   19.15
  -1   1  -7  325.93   11.09
  -1   1  -7  326.29   11.07
  -1   1  -7  313.36   11.55
  -1   1  -7  329.59   11.23
  -1   1  -7  311.32   11.09
  -1   1  -7  323.55   11.10
   1  -1   7  320.39   11.07
   1  -1   7  346.51   11.53
   1  -1   7  331.39   11.09
   1  -1   7  313.04   11.15
   1  -1   7  319.46   11.09
   1  -1   7  319.36   11.00
   1  -1   7  313.89   11.08
  -2   1  -7   74.78    2.86
  -2   1  -7   72.07    2.99
  -2   1  -7   81.68    2.85
  -2   1  -7   77.53    2.87
  -2   1  -7   77.70    2.86
  -2   1  -7   75.95    3.41
   2  -1   7   79.58    2.87
   2  -1   7   79.61    3.24
   2  -1   7   77.17    2.95
   2  -1   7   79.55    2.86
   2  -1   7   76.56    2.84
   2  -1   7   81.61    2.86
  -3   1  -7  144.81    5.15
  -3   1  -7  137.22    5.79
  -3   1  -7  147.59    5.13
  -3   1  -7  139.31    5.15
  -3   1  -7  146.33    5.14
   3  -1   7  146.73    5.52
   3  -1   7  142.46    5.22
   3  -1   7  146.25    5.13
   3  -1   7  145.41    5.12
   3  -1   7  149.12    5.16
   3  -1   7  145.39    5.15
  -4   1  -7   25.26    1.19
  -4   1  -7   26.12    1.63
  -4   1  -7   23.85    1.94
  -4   1  -7   23.76    1.31
  -4   1  -7   23.89    1.14
   4  -1   7   26.31    1.16
   4  -1   7   24.95    1.29
   4  -1   7   24.43    1.51
   4  -1   7   27.78    1.18
  -5   1  -7   31.24    1.46
  -5   1  -7   27.98    2.26
  -5   1  -7   30.54    1.93
  -5   1  -7   31.26    1.43
  -5   1  -7   33.23    1.47
   5  -1   7   31.00    1.44
   5  -1   7   32.89    1.47
   5  -1   7   30.94    1.54
   5  -1   7   31.23    1.42
  -6   1  -7   -0.30    0.43
  -6   1  -7    1.60    1.08
  -6   1  -7    0.15    0.84
  -6   1  -7    0.66    0.40
   6  -1   7    0.17    0.44
   6  -1   7    0.72    0.39
   6  -1   7    0.40    0.35
  -7   1  -7    9.29    1.55
  -7   1  -7   10.02    0.91
  -7   1  -7   10.54    1.92
   7  -1   7   10.03    0.95
   7  -1   7    8.88    1.02
   7  -1   7   10.76    0.93
   9   0  -7    4.96    0.72
   9   0  -7    3.59    0.57
  -9   0   7    4.85    0.85
  -9   0   7    6.66    1.65
  -9   0   7    4.64    0.70
  -9   0   7    4.41    1.36
   8   0  -7   17.16    1.24
   8   0  -7   17.23    1.07
   8   0  -7   17.42    1.14
  -8   0   7   17.24    1.20
  -8   0   7   16.88    1.96
  -8   0   7   16.25    1.16
   7   0  -7    2.98    0.41
   7   0  -7    2.99    0.56
   7   0  -7    2.75    0.45
   7   0  -7    2.72    0.48
  -7   0   7    1.68    0.81
  -7   0   7    2.53    0.52
  -7   0   7    2.22    0.43
   6   0  -7   10.37    0.75
   6   0  -7   10.01    0.75
   6   0  -7   10.82    0.65
   6   0  -7   11.46    0.89
   6   0  -7   10.70    0.78
   6   0  -7   11.19    0.88
  -6   0   7   11.27    0.85
  -6   0   7   10.22    1.32
  -6   0   7   10.62    0.77
  -6   0   7   10.70    0.83
   5   0  -7   36.87    1.72
   5   0  -7   37.16    1.58
   5   0  -7   36.21    1.54
   5   0  -7   37.66    1.70
  -5   0   7   35.78    1.60
  -5   0   7   36.75    1.62
  -5   0   7   37.38    1.60
  -5   0   7   39.31    1.68
  -5   0   7   36.31    2.01
  -5   0   7   36.61    1.62
   4   0  -7   30.43    1.34
   4   0  -7   32.77    1.38
   4   0  -7   32.08    1.35
   4   0  -7   31.25    1.35
   4   0  -7   33.53    1.51
   4   0  -7   32.79    1.51
   4   0  -7   33.01    1.51
  -4   0   7   32.70    1.52
  -4   0   7   30.38    1.38
  -4   0   7   30.09    1.35
  -4   0   7   36.14    1.48
  -4   0   7   32.22    1.42
  -4   0   7   31.78    1.70
  -4   0   7   31.96    1.38
  -4   0   7   32.29    1.43
   3   0  -7   14.42    0.89
   3   0  -7   17.75    0.80
   3   0  -7   15.43    0.76
   3   0  -7   15.83    0.78
   3   0  -7   15.80    0.80
   3   0  -7   16.84    0.93
   3   0  -7   18.16    0.91
  -3   0   7   14.45    1.05
  -3   0   7   17.14    0.91
  -3   0   7   15.78    1.01
  -3   0   7   16.15    0.82
  -3   0   7   15.40    1.02
  -3   0   7   17.48    0.78
  -3   0   7   16.44    0.84
  -3   0   7   15.96    0.88
  -3   0   7   15.41    0.79
   2   0  -7    0.58    0.27
   2   0  -7    1.19    0.27
   2   0  -7    0.44    0.21
   2   0  -7    1.16    0.42
   2   0  -7    1.56    0.37
   2   0  -7    1.19    0.23
   2   0  -7    0.61    0.25
   2   0  -7    1.74    0.25
  -2   0   7    0.70    0.23
  -2   0   7    1.17    0.31
  -2   0   7    0.74    0.28
  -2   0   7    0.75    0.21
  -2   0   7    1.37    0.29
  -2   0   7    0.93    0.32
  -2   0   7    0.83    0.23
  -2   0   7    1.04    0.40
  -2   0   7    1.25    0.28
   1   0  -7  146.51    5.36
   1   0  -7  149.02    5.35
   1   0  -7  154.74    5.28
   1   0  -7  144.95    5.39
   1   0  -7  154.02    5.39
   1   0  -7  143.08    5.25
   1   0  -7  148.63    5.25
   1   0  -7  153.39    5.29
  -1   0   7  160.62    5.33
  -1   0   7  154.24    5.27
  -1   0   7  145.19    5.36
  -1   0   7  143.43    5.45
  -1   0   7  149.67    5.27
  -1   0   7  151.19    5.28
  -1   0   7  147.72    5.39
   0   0  -7   72.45    2.68
   0   0  -7   75.72    2.76
   0   0  -7   78.89    2.91
   0   0  -7   79.43    2.79
   0   0  -7   75.42    2.78
   0   0  -7   75.58    2.79
   0   0  -7   74.49    2.99
   0   0  -7   73.00    2.81
   0   0   7   78.28    2.78
   0   0   7   75.91    2.85
   0   0   7   75.35    2.76
   0   0   7   77.21    2.92
   0   0   7   74.38    2.76
   0   0   7   75.65    2.77
   0   0   7   76.69    2.78
  -1   0  -7  116.58    4.14
  -1   0  -7  116.57    4.15
  -1   0  -7  114.52    4.13
  -1   0  -7  115.99    4.46
  -1   0  -7  119.61    4.43
  -1   0  -7  116.99    4.13
  -1   0  -7  120.04    4.15
   1   0   7  111.88    4.27
   1   0   7  116.27    4.13
   1   0   7  115.34    4.23
   1   0   7  116.36    4.13
   1   0   7  112.11    4.04
   1   0   7  112.38    4.11
   1   0   7  118.25    4.35
   1   0   7  116.23    4.09
  -2   0  -7    3.77    0.48
  -2   0  -7    4.18    0.52
  -2   0  -7    5.04    0.74
  -2   0  -7    4.53    0.39
  -2   0  -7    4.36    0.41
  -2   0  -7    4.31    0.41
  -2   0  -7    3.35    0.43
   2   0   7    3.92    0.43
   2   0   7    4.47    0.43
   2   0   7    3.87    0.41
   2   0   7    3.98    0.54
   2   0   7    3.57    0.42
   2   0   7    4.46    0.42
   2   0   7    3.83    0.58
  -3   0  -7   56.72    2.20
  -3   0  -7   57.60    2.22
  -3   0  -7   56.59    2.19
  -3   0  -7   58.11    2.20
  -3   0  -7   56.90    2.12
  -3   0  -7   50.23    2.25
   3   0   7   58.84    2.21
   3   0   7   57.91    2.19
   3   0   7   57.63    2.37
   3   0   7   56.67    2.18
   3   0   7   54.76    2.19
   3   0   7   57.75    2.19
   3   0   7   56.78    2.25
  -4   0  -7    4.85    0.56
  -4   0  -7    5.47    0.58
  -4   0  -7    4.82    0.46
  -4   0  -7    5.48    0.58
   4   0   7    6.04    0.59
   4   0   7    5.95    0.58
   4   0   7    4.75    0.65
   4   0   7    5.56    0.57
   4   0   7    5.26    0.52
   4   0   7    5.51    0.68
  -5   0  -7    0.76    0.28
  -5   0  -7    0.20    0.29
  -5   0  -7    0.05    0.33
   5   0   7    0.25    0.27
   5   0   7    0.01    0.32
   5   0   7    0.37    0.34
   5   0   7   -0.09    0.38
   5   0   7    0.13    0.44
   5   0   7    0.13    0.41
  -6   0  -7    0.12    0.40
  -6   0  -7    0.14    0.37
  -6   0  -7   -0.20    0.29
  -6   0  -7    0.16    0.67
   6   0   7    0.91    0.51
   6   0   7   -0.07    0.36
   6   0   7    0.02    0.32
   6   0   7   -0.08    0.44
   6   0   7    0.36    0.44
  -7   0  -7    3.30    0.60
  -7   0  -7    4.51    1.09
  -7   0  -7    3.52    0.59
   7   0   7    3.08    0.58
   7   0   7    3.77    0.59
   7   0   7    5.35    1.02
   7   0   7    3.87    0.56
   9  -1  -7    2.96    0.69
   9  -1  -7    3.41    0.59
  -9   1   7    1.71    1.75
  -9   1   7    1.54    1.36
  -9   1   7    3.76    0.71
   8  -1  -7    4.11    0.67
   8  -1  -7    4.12    0.53
   8  -1  -7    5.17    0.74
  -8   1   7    4.86    0.65
  -8   1   7    4.04    1.14
  -8   1   7    3.99    1.34
  -8   1   7    5.94    0.72
   7  -1  -7   14.34    0.95
   7  -1  -7   17.94    1.03
   7  -1  -7   15.37    1.01
   7  -1  -7   16.61    1.02
   7  -1  -7   16.56    1.11
   7  -1  -7   16.65    0.97
  -7   1   7   13.69    1.64
  -7   1   7   16.26    1.06
  -7   1   7   15.58    1.03
  -7   1   7   16.79    1.88
   6  -1  -7   52.30    2.14
   6  -1  -7   52.26    2.10
   6  -1  -7   52.68    2.13
   6  -1  -7   53.67    2.24
   6  -1  -7   53.45    2.19
  -6   1   7   51.75    2.16
  -6   1   7   46.31    2.71
  -6   1   7   51.43    2.16
  -6   1   7   49.01    2.35
   5  -1  -7   66.28    2.54
   5  -1  -7   66.78    2.56
   5  -1  -7   67.17    2.71
   5  -1  -7   66.73    2.57
   5  -1  -7   69.77    2.70
   5  -1  -7   69.43    2.65
  -5   1   7   60.63    3.02
  -5   1   7   68.24    2.62
  -5   1   7   63.92    2.58
  -5   1   7   68.52    2.80
  -5   1   7   64.70    2.78
   4  -1  -7  283.26    9.57
   4  -1  -7  276.48    9.70
   4  -1  -7  265.81    9.47
   4  -1  -7  271.11    9.58
   4  -1  -7  277.26    9.50
   4  -1  -7  253.33    9.46
   4  -1  -7  266.11    9.62
   4  -1  -7  279.35    9.51
  -4   1   7  286.36    9.41
  -4   1   7  264.27    9.50
  -4   1   7  277.93    9.54
  -4   1   7  277.11    9.50
  -4   1   7  264.71    9.70
  -4   1   7  251.64    9.84
  -4   1   7  305.23    9.80
   3  -1  -7   94.00    3.52
   3  -1  -7   94.14    3.57
   3  -1  -7   94.22    3.45
   3  -1  -7   95.25    3.41
   3  -1  -7   93.53    3.40
   3  -1  -7   90.02    3.53
   3  -1  -7   89.74    3.37
  -3   1   7   87.48    3.63
  -3   1   7   88.54    3.59
  -3   1   7   93.44    3.41
  -3   1   7   93.93    3.40
  -3   1   7   95.77    3.47
  -3   1   7  105.47    3.64
  -3   1   7   93.57    3.44
   2  -1  -7  808.43   26.05
   2  -1  -7  794.68   26.18
   2  -1  -7  752.70   26.00
   2  -1  -7  751.50   26.03
   2  -1  -7  733.41   26.13
   2  -1  -7  732.58   26.01
  -2   1   7  749.40   26.16
  -2   1   7  676.44   26.34
  -2   1   7  771.89   26.04
  -2   1   7  777.42   26.39
  -2   1   7  764.87   26.26
  -2   1   7  805.89   26.18
  -2   1   7  797.26   26.03
  -2   1   7  786.48   26.04
   1  -1  -7   98.93    3.77
   1  -1  -7   94.81    3.65
   1  -1  -7  103.29    3.68
   1  -1  -7  103.01    3.71
   1  -1  -7  106.85    3.82
   1  -1  -7  100.37    3.69
   1  -1  -7  103.91    3.83
   1  -1  -7  102.30    3.68
   1  -1  -7  103.11    3.71
  -1   1   7  104.58    3.69
  -1   1   7  109.08    3.88
  -1   1   7  107.29    3.98
  -1   1   7  104.14    3.78
  -1   1   7   98.15    3.69
  -1   1   7  101.36    4.00
  -1   1   7  103.73    3.71
   0  -1  -7  574.68   19.61
   0  -1  -7  593.12   19.70
   0  -1  -7  606.48   19.70
   0  -1  -7  567.30   19.66
   0  -1  -7  583.52   19.69
   0  -1  -7  571.17   19.68
   0  -1  -7  548.74   19.59
   0  -1  -7  541.40   19.73
   0   1   7  562.58   19.60
   0   1   7  580.57   19.69
   0   1   7  573.68   19.88
   0   1   7  571.46   19.65
   0   1   7  578.23   19.60
   0   1   7  570.50   19.59
   0   1   7  590.55   19.61
  -1  -1  -7  335.86   11.40
  -1  -1  -7  327.61   11.37
  -1  -1  -7  323.06   11.39
  -1  -1  -7  329.52   11.43
  -1  -1  -7  322.29   11.36
  -1  -1  -7  339.79   11.45
  -1  -1  -7  330.15   11.39
   1   1   7  343.43   11.38
   1   1   7  322.79   11.44
   1   1   7  325.66   11.37
   1   1   7  335.56   11.38
   1   1   7  335.70   11.60
   1   1   7  318.02   11.36
   1   1   7  332.34   11.40
  -2  -1  -7   79.07    2.96
  -2  -1  -7   77.71    2.94
  -2  -1  -7   77.83    2.95
  -2  -1  -7   80.35    3.00
  -2  -1  -7   80.64    2.96
  -2  -1  -7   79.70    2.97
   2   1   7   82.44    2.95
   2   1   7   78.36    3.03
   2   1   7   80.27    2.95
   2   1   7   79.29    2.95
   2   1   7   82.20    2.98
   2   1   7   78.81    3.12
   2   1   7   78.86    2.94
  -3  -1  -7  158.76    5.52
  -3  -1  -7  147.92    5.47
  -3  -1  -7  152.25    5.50
  -3  -1  -7  151.59    5.47
  -3  -1  -7  152.30    5.49
   3   1   7  146.43    5.49
   3   1   7  157.87    5.44
   3   1   7  151.26    5.46
   3   1   7  152.72    5.58
   3   1   7  170.09    5.82
   3   1   7  149.30    5.57
   3   1   7  152.90    5.48
   3   1   7  154.07    5.46
  -4  -1  -7   29.01    1.26
  -4  -1  -7   25.81    1.26
  -4  -1  -7   26.34    1.28
  -4  -1  -7   25.44    1.27
  -4  -1  -7   26.60    1.23
   4   1   7   26.08    1.22
   4   1   7   23.60    1.21
   4   1   7   25.11    1.23
   4   1   7   25.79    1.37
   4   1   7   28.81    1.62
   4   1   7   25.13    1.34
  -5  -1  -7   30.85    1.43
  -5  -1  -7   32.43    1.67
  -5  -1  -7   31.47    1.52
  -5  -1  -7   31.98    1.55
  -5  -1  -7   29.53    1.47
   5   1   7   30.93    1.45
   5   1   7   31.37    1.65
   5   1   7   33.39    1.68
   5   1   7   31.68    1.46
  -6  -1  -7    1.43    0.42
  -6  -1  -7    0.71    0.51
  -6  -1  -7    0.57    0.38
   6   1   7    0.61    0.73
   6   1   7    0.44    0.38
   6   1   7    1.08    0.44
   6   1   7    0.69    0.48
  -7  -1  -7   10.21    0.88
  -7  -1  -7    8.48    0.98
  -7  -1  -7    8.74    0.96
   7   1   7    8.95    0.90
   7   1   7    8.24    1.30
   7   1   7    9.16    0.97
   7   1   7    8.55    0.97
   8  -2  -7    0.70    0.44
   8  -2  -7    1.01    0.54
   8  -2  -7    1.98    0.53
  -8   2   7    2.48    0.53
  -8   2   7    3.38    1.46
   7  -2  -7   14.12    0.95
   7  -2  -7   15.06    1.10
   7  -2  -7   14.25    0.96
  -7   2   7   12.24    1.01
  -7   2   7   12.95    1.89
  -7   2   7   14.37    1.68
   6  -2  -7   40.11    1.77
   6  -2  -7   39.96    1.75
   6  -2  -7   42.59    1.78
   6  -2  -7   36.71    2.03
  -6   2   7   43.09    2.27
  -6   2   7   42.09    1.78
  -6   2   7   42.63    2.62
  -6   2   7   39.08    1.82
  -6   2   7   40.49    2.41
   5  -2  -7    7.23    0.63
   5  -2  -7    7.82    0.64
   5  -2  -7    7.41    0.79
   5  -2  -7    6.88    0.71
   5  -2  -7    7.69    0.64
  -5   2   7    6.75    0.63
  -5   2   7    6.73    1.02
  -5   2   7    7.07    0.66
  -5   2   7    6.54    0.65
  -5   2   7    5.20    1.08
  -5   2   7    7.52    0.97
   4  -2  -7  118.47    4.52
   4  -2  -7  122.08    4.36
   4  -2  -7  126.18    4.37
   4  -2  -7  125.71    4.42
   4  -2  -7  118.48    4.55
   4  -2  -7  126.23    4.39
   4  -2  -7  116.83    4.39
  -4   2   7  117.02    4.74
  -4   2   7  115.03    4.92
  -4   2   7  121.50    4.35
  -4   2   7  111.57    4.66
  -4   2   7  117.74    4.38
  -4   2   7  130.19    4.38
   3  -2  -7  108.98    4.08
   3  -2  -7  108.63    4.07
   3  -2  -7  105.33    4.32
   3  -2  -7  111.13    3.91
   3  -2  -7  111.95    4.19
   3  -2  -7  103.14    3.90
   3  -2  -7  112.76    3.91
   3  -2  -7  109.64    3.92
   3  -2  -7  107.09    3.88
  -3   2   7  102.78    3.94
  -3   2   7  106.15    3.92
  -3   2   7  103.67    4.11
  -3   2   7  111.24    3.90
  -3   2   7  104.89    4.38
  -3   2   7  113.55    3.92
  -3   2   7  104.03    4.14
  -3   2   7  109.15    4.31
   2  -2  -7   31.46    1.31
   2  -2  -7   28.73    1.42
   2  -2  -7   29.35    1.57
   2  -2  -7   31.23    1.22
   2  -2  -7   29.50    1.30
   2  -2  -7   30.81    1.49
   2  -2  -7   29.53    1.29
   2  -2  -7   30.81    1.31
  -2   2   7   28.90    1.36
  -2   2   7   31.94    1.30
  -2   2   7   30.71    1.30
  -2   2   7   30.15    1.66
  -2   2   7   34.54    1.29
  -2   2   7   32.95    1.31
  -2   2   7   29.74    1.46
   1  -2  -7  221.39    7.67
   1  -2  -7  226.54    7.70
   1  -2  -7  215.74    7.94
   1  -2  -7  216.91    7.78
   1  -2  -7  218.19    7.68
   1  -2  -7  214.81    7.66
   1  -2  -7  225.15    7.81
  -1   2   7  213.36    7.67
  -1   2   7  215.44    7.66
  -1   2   7  227.57    7.65
  -1   2   7  215.68    7.83
  -1   2   7  223.73    8.12
  -1   2   7  226.67    7.67
   0  -2  -7   21.33    1.08
   0  -2  -7   18.34    0.94
   0  -2  -7   20.25    0.96
   0  -2  -7   20.59    0.97
   0  -2  -7   21.20    1.00
   0  -2  -7   20.62    1.06
   0  -2  -7   21.32    1.18
   0   2   7   21.02    0.97
   0   2   7   20.86    1.22
   0   2   7   20.42    0.97
   0   2   7   19.49    1.36
   0   2   7   20.14    1.05
   0   2   7   22.13    0.94
   0   2   7   20.11    0.93
   0   2   7   19.68    1.37
  -1  -2  -7   67.80    2.67
  -1  -2  -7   65.64    2.48
  -1  -2  -7   68.08    2.47
  -1  -2  -7   64.05    2.52
  -1  -2  -7   66.35    2.46
  -1  -2  -7   66.97    2.52
  -1  -2  -7   65.36    2.45
   1   2   7   67.17    2.47
   1   2   7   54.05    2.79
   1   2   7   64.98    2.32
   1   2   7   64.93    2.42
   1   2   7   64.55    2.67
   1   2   7   55.14    2.89
   1   2   7   67.47    2.43
   1   2   7   69.12    2.43
   1   2   7   64.85    2.45
   1   2   7   63.28    2.45
   1   2   7   63.41    2.52
  -2  -2  -7   21.77    1.19
  -2  -2  -7   22.03    1.07
  -2  -2  -7   21.67    1.04
  -2  -2  -7   22.14    1.09
  -2  -2  -7   21.68    1.08
  -2  -2  -7   20.85    1.10
  -2  -2  -7   21.99    1.05
   2   2   7   22.22    1.05
   2   2   7   20.42    1.25
   2   2   7   23.20    1.01
   2   2   7   18.38    1.44
  -3  -2  -7   17.45    0.92
  -3  -2  -7   17.00    0.97
  -3  -2  -7   18.32    0.97
  -3  -2  -7   16.78    1.01
  -3  -2  -7   16.51    0.96
   3   2   7   17.76    1.10
   3   2   7   18.32    0.97
   3   2   7   18.29    0.97
   3   2   7   17.18    1.20
  -4  -2  -7   24.03    1.26
  -4  -2  -7   23.60    1.18
  -4  -2  -7   23.59    1.19
  -4  -2  -7   24.46    1.24
  -4  -2  -7   22.55    1.11
   4   2   7   22.16    1.37
   4   2   7   18.92    1.42
   4   2   7   24.09    1.21
   4   2   7   22.52    1.16
   4   2   7   22.30    1.41
  -5  -2  -7    1.81    0.36
  -5  -2  -7    2.41    0.53
  -5  -2  -7    1.29    0.39
  -5  -2  -7    0.85    0.42
  -5  -2  -7    1.69    0.46
   5   2   7    0.54    0.56
   5   2   7    1.57    0.38
   5   2   7    1.21    0.41
  -6  -2  -7   10.51    0.94
  -6  -2  -7    9.34    0.87
  -6  -2  -7    9.73    0.92
   6   2   7    8.37    0.84
   6   2   7    8.13    0.84
   6   2   7    8.29    1.25
   6   2   7    6.99    1.39
  -7  -2  -7    3.20    0.63
  -7  -2  -7    2.24    0.58
  -7  -2  -7    4.20    0.75
   7   2   7    2.97    1.11
   7   2   7    2.59    0.55
   7  -3  -7   10.89    1.08
   7  -3  -7   10.73    0.92
   7  -3  -7   11.19    0.89
  -7   3   7   10.05    1.84
   6  -3  -7   30.30    1.61
   6  -3  -7   30.31    1.46
   6  -3  -7   30.79    1.47
  -6   3   7   29.19    1.30
  -6   3   7   28.29    2.32
  -6   3   7   26.21    2.03
   5  -3  -7    0.82    0.38
   5  -3  -7    0.69    0.50
   5  -3  -7    0.03    0.50
   5  -3  -7    0.46    0.29
  -5   3   7    1.04    0.78
  -5   3   7    0.97    0.95
  -5   3   7    0.54    0.46
  -5   3   7    0.59    0.34
   4  -3  -7   69.02    2.62
   4  -3  -7   71.19    2.63
   4  -3  -7   66.00    2.82
   4  -3  -7   67.93    2.70
   4  -3  -7   64.77    2.62
  -4   3   7   68.26    2.56
  -4   3   7   68.92    3.39
  -4   3   7   60.02    4.07
  -4   3   7   77.22    2.92
  -4   3   7   68.01    2.52
   3  -3  -7    6.86    0.78
   3  -3  -7    5.44    0.56
   3  -3  -7    5.89    0.54
   3  -3  -7    7.09    0.58
   3  -3  -7    7.44    0.60
  -3   3   7    7.13    1.18
  -3   3   7    5.65    0.48
  -3   3   7    7.94    0.49
  -3   3   7    7.27    1.09
   2  -3  -7   20.39    0.99
   2  -3  -7   20.66    1.19
   2  -3  -7   20.72    1.00
   2  -3  -7   20.02    0.99
   2  -3  -7   19.78    0.97
  -2   3   7   20.38    0.88
  -2   3   7   21.97    1.62
  -2   3   7   18.35    1.45
  -2   3   7   19.85    0.90
   1  -3  -7   10.37    0.68
   1  -3  -7   11.01    0.84
   1  -3  -7   10.91    0.70
   1  -3  -7    9.57    0.68
   1  -3  -7    9.40    0.65
   1  -3  -7   10.24    0.94
   1  -3  -7   10.14    0.65
  -1   3   7   11.04    0.56
  -1   3   7   10.24    1.17
  -1   3   7   11.79    1.04
  -1   3   7   10.48    0.61
   0  -3  -7   53.62    2.10
   0  -3  -7   51.35    2.10
   0  -3  -7   52.36    2.08
   0  -3  -7   52.41    2.23
   0  -3  -7   53.89    2.21
   0  -3  -7   53.17    2.10
   0   3   7   54.59    2.04
   0   3   7   53.23    2.71
   0   3   7   51.49    1.97
   0   3   7   57.05    2.30
   0   3   7   52.31    2.48
  -1  -3  -7    5.80    0.59
  -1  -3  -7    5.08    0.69
  -1  -3  -7    5.01    0.51
  -1  -3  -7    4.69    0.54
  -1  -3  -7    5.62    0.64
  -1  -3  -7    4.51    0.57
   1   3   7    3.96    0.55
   1   3   7    4.44    0.86
   1   3   7    4.52    0.41
   1   3   7    5.57    0.53
   1   3   7    5.32    0.98
  -2  -3  -7   40.33    1.63
  -2  -3  -7   36.75    1.72
  -2  -3  -7   36.20    1.76
  -2  -3  -7   37.71    1.62
  -2  -3  -7   38.43    1.60
   2   3   7   37.72    1.61
   2   3   7   37.62    1.52
   2   3   7   37.09    1.59
   2   3   7   38.16    2.05
   2   3   7   42.84    1.99
   2   3   7   31.55    2.22
  -3  -3  -7   33.73    1.65
  -3  -3  -7   32.73    1.41
  -3  -3  -7   33.45    1.52
  -3  -3  -7   34.56    1.51
   3   3   7   34.90    1.51
   3   3   7   32.36    2.14
   3   3   7   33.55    1.81
   3   3   7   32.73    1.43
   3   3   7   28.71    1.47
   3   3   7   33.92    1.49
  -4  -3  -7    8.37    0.87
  -4  -3  -7    7.81    0.77
  -4  -3  -7    8.07    0.79
   4   3   7    7.67    0.84
   4   3   7    9.07    1.22
   4   3   7    8.56    1.16
   4   3   7    8.65    0.77
   4   3   7    6.63    1.23
  -5  -3  -7   25.88    1.37
  -5  -3  -7   22.37    1.34
  -5  -3  -7   23.33    1.42
   5   3   7   22.37    1.28
   5   3   7   22.43    1.78
  -6  -3  -7    1.42    0.57
  -6  -3  -7    0.42    0.58
  -6  -3  -7    1.09    0.56
   6   3   7    1.12    0.90
   6   3   7   -2.70    1.32
   6   3   7    0.33    0.49
   6  -4  -7    6.21    0.79
   6  -4  -7    5.29    0.84
   6  -4  -7    5.79    0.84
  -6   4   7    3.32    1.61
  -6   4   7    6.27    1.42
   5  -4  -7   -0.08    0.32
   5  -4  -7    0.19    0.39
   5  -4  -7    0.47    0.59
  -5   4   7    0.26    0.91
  -5   4   7    0.55    1.16
   4  -4  -7   20.76    1.04
   4  -4  -7   19.22    1.35
  -4   4   7   19.03    2.03
  -4   4   7   20.40    1.91
   3  -4  -7   32.03    1.44
   3  -4  -7   30.32    1.67
   3  -4  -7   31.35    1.36
  -3   4   7   26.52    2.28
  -3   4   7   32.65    2.26
   2  -4  -7   10.70    0.78
   2  -4  -7   10.23    1.01
   2  -4  -7    9.90    0.69
   2  -4  -7    9.80    0.72
  -2   4   7   12.79    1.58
  -2   4   7   11.66    1.43
   1  -4  -7   34.23    1.72
   1  -4  -7   33.25    1.44
   1  -4  -7   31.46    1.43
   1  -4  -7   30.87    1.78
   1  -4  -7   33.43    1.49
  -1   4   7   35.67    2.34
  -1   4   7   35.78    1.98
   0  -4  -7   33.37    1.53
   0  -4  -7   35.06    1.54
   0  -4  -7   36.70    1.78
   0  -4  -7   34.36    1.50
   0  -4  -7   33.50    1.77
   0   4   7   39.03    1.85
   0   4   7   33.50    2.21
   0   4   7   34.67    2.31
  -1  -4  -7   14.27    0.92
  -1  -4  -7   11.66    1.29
  -1  -4  -7   14.57    0.97
  -1  -4  -7   14.83    1.13
  -1  -4  -7   15.78    1.03
  -1  -4  -7   15.33    0.94
   1   4   7   14.51    1.47
   1   4   7   15.46    1.65
  -2  -4  -7   17.07    1.03
  -2  -4  -7   15.39    0.99
  -2  -4  -7   15.29    1.20
   2   4   7   15.25    1.54
   2   4   7   16.95    1.78
  -3  -4  -7    6.21    0.77
  -3  -4  -7    6.57    0.93
  -3  -4  -7    5.72    0.82
   3   4   7    6.46    1.31
   3   4   7    6.12    1.19
  -4  -4  -7    2.46    0.69
  -4  -4  -7    3.12    0.53
  -4  -4  -7    2.29    0.58
   4   4   7    4.98    1.33
   4   4   7    2.58    1.01
  -5  -4  -7    0.67    0.59
  -5  -4  -7   -0.18    0.56
  -5  -4  -7    1.63    0.78
   5   4   7    0.77    1.21
   5   4   7    0.02    1.09
   4  -5  -7    4.17    0.61
   4  -5  -7    4.02    0.86
   4  -5  -7    3.03    0.48
  -4   5   7    3.66    1.58
  -4   5   7    3.30    1.78
   3  -5  -7    1.21    0.52
   3  -5  -7    1.19    0.72
   3  -5  -7    1.38    0.36
  -3   5   7    0.07    1.35
  -3   5   7    1.71    1.30
   2  -5  -7   19.83    1.48
   2  -5  -7   18.43    1.00
  -2   5   7   17.18    2.26
  -2   5   7   20.67    2.18
   1  -5  -7    2.92    0.45
   1  -5  -7    3.17    0.79
  -1   5   7    3.77    1.14
  -1   5   7    3.83    1.24
   0  -5  -7    8.67    0.79
   0  -5  -7    8.82    1.18
   0  -5  -7    9.78    1.21
   0   5   7   13.83    2.07
  -1  -5  -7    6.75    0.92
  -1  -5  -7    6.26    0.92
  -1  -5  -7    6.44    0.83
   1   5   7    7.88    1.55
   1   5   7    5.62    1.37
  -2  -5  -7    0.46    0.53
  -2  -5  -7    0.58    0.52
  -2  -5  -7    1.21    0.78
   2   5   7    0.96    1.31
   2   5   7   -0.07    1.18
   3   5  -8    0.94    1.09
   3   5  -8    1.43    1.18
  -3  -5   8    0.85    0.95
   2   5  -8    2.73    1.04
   2   5  -8    3.43    1.07
  -2  -5   8    2.59    0.97
   1   5  -8    2.72    0.99
  -1  -5   8    3.10    0.94
   0   5  -8    2.09    1.30
   0   5  -8    0.65    0.83
   0  -5   8    2.31    0.87
   0  -5   8    0.84    0.60
  -1   5  -8    6.23    1.59
  -1   5  -8    9.86    1.54
   1  -5   8    9.00    1.55
   1  -5   8    9.58    1.13
  -2   5  -8    1.52    1.89
  -2   5  -8    0.68    0.81
   2  -5   8    1.00    0.98
   2  -5   8    1.85    0.70
   6   4  -8    4.08    1.42
   6   4  -8    6.74    1.37
  -6  -4   8   11.24    1.86
  -6  -4   8    7.00    0.86
  -6  -4   8    5.71    0.79
   5   4  -8   18.64    2.08
   5   4  -8   21.88    1.89
  -5  -4   8   20.10    1.16
  -5  -4   8   21.98    1.91
  -5  -4   8   22.76    1.61
   4   4  -8    1.00    0.92
   4   4  -8    0.79    0.78
  -4  -4   8    0.83    0.48
  -4  -4   8    0.32    0.34
  -4  -4   8    0.09    0.70
   3   4  -8   22.90    1.77
   3   4  -8   27.03    1.86
  -3  -4   8   23.04    1.34
  -3  -4   8   24.03    1.14
  -3  -4   8   24.07    1.79
  -3  -4   8   21.97    1.35
  -3  -4   8   21.53    1.09
   2   4  -8    9.48    1.26
   2   4  -8    9.76    1.11
  -2  -4   8    7.81    0.83
  -2  -4   8    8.71    0.70
  -2  -4   8    7.99    0.62
  -2  -4   8   10.43    0.66
  -2  -4   8    9.50    1.28
   1   4  -8   13.28    1.11
   1   4  -8   14.06    1.56
   1   4  -8   12.42    0.58
   1   4  -8   13.95    1.38
  -1  -4   8   11.82    0.66
  -1  -4   8   12.65    0.97
  -1  -4   8   12.86    0.67
  -1  -4   8   12.99    0.78
  -1  -4   8   12.93    1.30
  -1  -4   8   13.20    1.04
   0   4  -8   13.07    1.31
   0   4  -8   14.36    1.69
   0  -4   8   13.63    0.80
   0  -4   8   14.43    1.04
   0  -4   8   13.38    1.29
   0  -4   8   14.76    0.68
   0  -4   8   12.26    0.66
  -1   4  -8    2.79    0.76
  -1   4  -8    1.00    0.99
   1  -4   8    1.98    0.37
   1  -4   8    1.97    0.27
   1  -4   8    2.65    0.54
   1  -4   8    1.22    0.27
   1  -4   8    1.39    0.67
  -2   4  -8   11.03    1.99
  -2   4  -8   14.42    1.23
   2  -4   8   12.25    0.69
   2  -4   8   12.84    0.81
   2  -4   8   13.02    1.09
   2  -4   8   10.85    0.69
   2  -4   8   12.77    1.37
  -3   4  -8    4.27    0.77
  -3   4  -8    3.06    1.40
   3  -4   8    4.22    0.90
   3  -4   8    4.31    0.51
   3  -4   8    4.10    0.57
   3  -4   8    2.86    0.67
  -4   4  -8    3.42    1.74
   4  -4   8    4.38    1.01
   4  -4   8    3.24    0.46
   4  -4   8    4.50    0.57
   4  -4   8    4.09    0.74
   7   3  -8    3.06    0.94
   7   3  -8    3.12    1.24
  -7  -3   8    2.39    0.69
  -7  -3   8    3.12    0.58
  -7  -3   8    3.98    1.14
   6   3  -8    1.95    0.45
   6   3  -8    1.34    0.98
   6   3  -8    1.44    0.78
  -6  -3   8    1.16    0.43
  -6  -3   8    1.32    0.80
  -6  -3   8    1.56    0.55
   5   3  -8   32.68    1.40
   5   3  -8   32.52    1.97
  -5  -3   8   33.55    1.60
  -5  -3   8   32.69    2.03
  -5  -3   8   31.62    1.51
   4   3  -8   15.97    0.83
   4   3  -8   17.31    1.51
   4   3  -8   16.82    1.35
   4   3  -8   13.78    0.94
  -4  -3   8   16.81    0.99
  -4  -3   8   15.19    0.91
  -4  -3   8   17.16    1.40
  -4  -3   8   16.62    1.07
  -4  -3   8   17.27    0.88
   3   3  -8   43.40    1.79
   3   3  -8   39.37    1.80
   3   3  -8   46.83    2.22
  -3  -3   8   40.85    1.82
  -3  -3   8   41.70    1.73
  -3  -3   8   41.65    1.88
  -3  -3   8   46.29    1.74
  -3  -3   8   42.20    1.71
  -3  -3   8   44.41    2.38
  -3  -3   8   43.87    1.79
   2   3  -8  155.15    6.04
   2   3  -8  150.38    5.51
   2   3  -8  151.89    5.96
   2   3  -8  148.40    5.34
   2   3  -8  159.13    5.70
  -2  -3   8  158.15    5.40
  -2  -3   8  137.32    5.55
  -2  -3   8  158.92    5.37
  -2  -3   8  150.91    5.42
  -2  -3   8  144.84    5.33
  -2  -3   8  147.34    5.37
  -2  -3   8  156.88    5.84
  -2  -3   8  154.32    5.48
   1   3  -8   18.12    0.82
   1   3  -8   18.36    1.03
   1   3  -8   18.78    1.08
   1   3  -8   19.16    1.40
   1   3  -8   19.48    1.55
  -1  -3   8   16.06    1.22
  -1  -3   8   17.63    0.88
  -1  -3   8   19.79    0.87
  -1  -3   8   17.08    0.83
  -1  -3   8   17.59    1.28
  -1  -3   8   18.57    0.89
  -1  -3   8   16.61    1.02
  -1  -3   8   18.19    0.88
   0   3  -8   82.55    3.60
   0   3  -8   84.56    3.55
   0   3  -8   84.69    3.06
   0   3  -8   81.20    3.83
   0  -3   8   85.54    3.51
   0  -3   8   82.36    3.20
   0  -3   8   84.14    3.08
   0  -3   8   85.94    3.06
   0  -3   8   85.01    3.06
   0  -3   8   86.50    3.07
   0  -3   8   84.14    3.04
  -1   3  -8   59.37    2.64
  -1   3  -8   52.25    2.12
   1  -3   8   57.70    2.13
   1  -3   8   56.57    2.12
   1  -3   8   57.75    2.14
   1  -3   8   55.36    2.14
   1  -3   8   54.47    2.31
   1  -3   8   56.08    2.57
   1  -3   8   55.65    2.14
  -2   3  -8    7.94    1.51
  -2   3  -8    9.42    0.92
  -2   3  -8    7.35    0.56
   2  -3   8    8.66    0.58
   2  -3   8    8.15    0.61
   2  -3   8    8.14    0.63
   2  -3   8    8.07    0.62
   2  -3   8    7.58    0.58
   2  -3   8    7.68    1.00
  -3   3  -8   20.32    2.15
  -3   3  -8   21.51    1.28
   3  -3   8   21.38    1.01
   3  -3   8   20.87    1.03
   3  -3   8   19.40    1.16
   3  -3   8   20.69    1.02
   3  -3   8   21.77    1.27
  -4   3  -8    3.41    0.64
  -4   3  -8    3.04    1.34
   4  -3   8    3.05    0.41
   4  -3   8    2.91    0.77
   4  -3   8    4.32    0.68
  -5   3  -8    1.18    1.49
   5  -3   8    1.67    0.41
   5  -3   8    1.60    0.57
   5  -3   8    2.09    0.45
  -6   3  -8    1.20    2.24
  -6   3  -8    0.89    1.44
   6  -3   8    0.21    0.55
   6  -3   8    0.76    0.51
   6  -3   8    0.46    0.73
   8   2  -8    1.87    0.49
   8   2  -8    1.76    0.75
  -8  -2   8    1.91    0.55
  -8  -2   8    1.40    0.69
  -8  -2   8    0.77    1.10
   7   2  -8   10.15    1.18
   7   2  -8   11.61    0.88
  -7  -2   8   11.10    1.02
  -7  -2   8   10.56    0.95
  -7  -2   8   10.09    1.56
   6   2  -8    6.35    0.66
   6   2  -8    6.32    0.74
   6   2  -8    5.45    0.93
  -6  -2   8    6.55    0.81
  -6  -2   8    6.13    0.74
  -6  -2   8    7.21    1.11
   5   2  -8   69.37    2.77
   5   2  -8   70.52    2.64
   5   2  -8   65.87    3.02
   5   2  -8   66.24    2.67
   5   2  -8   74.57    2.76
  -5  -2   8   70.12    2.70
  -5  -2   8   69.29    2.75
  -5  -2   8   65.58    3.13
   4   2  -8   61.61    2.32
   4   2  -8   61.34    2.29
   4   2  -8   64.77    2.49
   4   2  -8   59.00    2.34
   4   2  -8   59.46    2.76
  -4  -2   8   60.82    2.40
  -4  -2   8   59.21    2.41
  -4  -2   8   60.78    2.54
  -4  -2   8   60.17    2.77
   3   2  -8  104.38    4.55
   3   2  -8  134.55    4.68
   3   2  -8  118.19    4.86
   3   2  -8  117.08    4.77
   3   2  -8  127.90    4.40
   3   2  -8  128.32    4.39
  -3  -2   8  124.05    4.48
  -3  -2   8  120.74    4.41
  -3  -2   8  124.44    4.50
  -3  -2   8  126.29    4.81
  -3  -2   8  126.41    5.16
  -3  -2   8  126.90    4.44
  -3  -2   8  128.55    4.51
  -3  -2   8  122.88    4.60
   2   2  -8   93.53    3.18
   2   2  -8   79.85    3.40
   2   2  -8   83.50    2.92
   2   2  -8   75.47    3.42
   2   2  -8   84.96    3.16
   2   2  -8   77.00    3.41
   2   2  -8   82.57    2.91
   2   2  -8   72.56    3.12
  -2  -2   8   83.07    3.31
  -2  -2   8   78.41    3.10
  -2  -2   8   80.42    2.98
  -2  -2   8   75.25    2.92
  -2  -2   8   80.80    2.96
  -2  -2   8   79.65    3.39
  -2  -2   8   79.94    2.99
  -2  -2   8   81.92    3.00
   1   2  -8  148.57    5.78
   1   2  -8  152.17    5.47
   1   2  -8  162.56    5.22
   1   2  -8  151.57    5.20
   1   2  -8  145.29    5.27
   1   2  -8  141.01    5.75
   1   2  -8  138.67    5.26
  -1  -2   8  154.21    5.29
  -1  -2   8  142.43    5.68
  -1  -2   8  153.10    5.28
  -1  -2   8  148.48    5.57
  -1  -2   8  153.50    5.29
  -1  -2   8  151.41    5.27
  -1  -2   8  150.25    5.25
  -1  -2   8  147.76    5.38
   0   2  -8  103.30    4.30
   0   2  -8  100.32    3.79
   0   2  -8  102.97    4.37
   0   2  -8  107.90    3.82
   0   2  -8  106.27    4.01
   0  -2   8  106.91    3.80
   0  -2   8  110.25    3.77
   0  -2   8  106.55    3.82
   0  -2   8  103.54    4.45
   0  -2   8  105.92    3.91
   0  -2   8  107.12    3.80
   0  -2   8  105.87    4.30
   0  -2   8  110.03    3.80
   0  -2   8  107.51    4.10
  -1   2  -8   23.07    1.01
  -1   2  -8   22.14    1.64
  -1   2  -8   21.06    1.01
  -1   2  -8   22.62    1.80
  -1   2  -8   23.69    1.44
  -1   2  -8   24.30    0.95
   1  -2   8   23.89    1.33
   1  -2   8   22.29    1.02
   1  -2   8   23.55    1.06
   1  -2   8   22.75    0.97
   1  -2   8   24.14    1.03
   1  -2   8   23.68    1.19
   1  -2   8   23.43    1.02
  -2   2  -8   50.19    2.86
  -2   2  -8   53.30    2.03
  -2   2  -8   59.11    2.10
  -2   2  -8   55.30    2.50
   2  -2   8   56.34    2.13
   2  -2   8   53.08    2.11
   2  -2   8   57.01    2.28
   2  -2   8   55.11    2.10
   2  -2   8   54.07    2.10
  -3   2  -8    1.54    0.30
  -3   2  -8    2.54    0.51
  -3   2  -8    1.79    0.27
  -3   2  -8    1.56    0.86
   3  -2   8    1.89    0.36
   3  -2   8    1.56    0.30
   3  -2   8    1.98    0.36
   3  -2   8    1.53    0.47
   3  -2   8    1.24    0.32
  -4   2  -8   32.12    1.43
  -4   2  -8   32.06    1.37
  -4   2  -8   31.96    2.52
  -4   2  -8   37.13    1.60
  -4   2  -8   34.24    1.44
   4  -2   8   31.57    1.43
   4  -2   8   29.14    1.49
   4  -2   8   33.41    1.45
   4  -2   8   31.55    1.61
   4  -2   8   34.23    1.48
  -5   2  -8    2.18    0.42
  -5   2  -8    0.81    1.14
  -5   2  -8    3.04    1.01
   5  -2   8    2.86    0.59
   5  -2   8    2.82    0.47
   5  -2   8    2.75    0.45
  -6   2  -8    8.85    1.78
  -6   2  -8    8.65    1.49
  -6   2  -8    7.41    0.81
   6  -2   8    6.05    0.80
   6  -2   8    9.35    0.85
   6  -2   8    8.43    1.01
   9   1  -8   11.53    1.12
  -9  -1   8    6.22    2.92
  -9  -1   8   10.20    1.21
  -9  -1   8   11.51    1.77
   8   1  -8    0.92    0.44
   8   1  -8   -0.18    0.60
  -8  -1   8    1.49    0.52
  -8  -1   8   -0.34    0.93
  -8  -1   8    0.72    0.53
   7   1  -8   62.34    2.55
   7   1  -8   64.44    2.83
   7   1  -8   63.62    2.52
  -7  -1   8   59.84    2.55
  -7  -1   8   59.47    2.62
  -7  -1   8   59.77    3.24
  -7  -1   8   64.89    2.66
   6   1  -8   30.87    1.43
   6   1  -8   32.68    1.57
   6   1  -8   30.02    1.64
   6   1  -8   30.11    1.44
  -6  -1   8   30.08    1.51
  -6  -1   8   31.91    2.00
  -6  -1   8   30.57    1.54
  -6  -1   8   32.07    1.48
   5   1  -8   80.18    3.33
   5   1  -8   81.89    3.03
   5   1  -8   80.25    3.06
  -5  -1   8   78.60    3.52
  -5  -1   8   77.24    3.10
  -5  -1   8   83.16    3.14
  -5  -1   8   81.63    3.32
  -5  -1   8   80.60    3.07
   4   1  -8  232.67    8.53
   4   1  -8  231.06    8.31
   4   1  -8  237.07    8.35
   4   1  -8  246.11    8.72
   4   1  -8  242.77    8.33
   4   1  -8  238.31    8.34
  -4  -1   8  245.08    8.41
  -4  -1   8  224.44    8.39
  -4  -1   8  239.44    8.39
  -4  -1   8  242.30    8.75
  -4  -1   8  250.14    8.65
   3   1  -8   79.73    3.02
   3   1  -8   81.36    3.14
   3   1  -8   84.13    3.22
   3   1  -8   79.95    3.00
   3   1  -8   79.74    3.37
   3   1  -8   82.80    3.00
   3   1  -8   84.49    3.15
   3   1  -8   75.73    3.16
  -3  -1   8   81.83    3.06
  -3  -1   8   80.12    2.96
  -3  -1   8   85.43    3.29
  -3  -1   8   82.71    3.31
  -3  -1   8   82.42    3.05
  -3  -1   8   86.72    3.12
  -3  -1   8   81.89    3.25
  -3  -1   8   81.57    3.03
  -3  -1   8   77.91    2.99
   2   1  -8  285.79   10.85
   2   1  -8  316.16   10.72
   2   1  -8  317.50   10.87
   2   1  -8  309.47   10.69
   2   1  -8  310.06   10.90
   2   1  -8  315.93   10.70
   2   1  -8  308.90   10.99
   2   1  -8  288.85   11.13
   2   1  -8  300.40   10.71
  -2  -1   8  292.46   10.87
  -2  -1   8  313.24   10.72
  -2  -1   8  314.80   10.96
  -2  -1   8  306.26   10.72
  -2  -1   8  321.16   10.75
  -2  -1   8  311.78   10.70
  -2  -1   8  325.28   10.78
  -2  -1   8  341.02   11.03
   1   1  -8   14.29    1.06
   1   1  -8   14.59    0.75
   1   1  -8   16.21    0.76
   1   1  -8   15.08    0.76
   1   1  -8   16.89    0.97
  -1  -1   8   16.67    0.77
  -1  -1   8   16.25    1.01
  -1  -1   8   15.89    0.78
  -1  -1   8   15.91    0.78
  -1  -1   8   15.31    0.77
  -1  -1   8   16.23    0.80
  -1  -1   8   15.02    0.95
  -1  -1   8   14.58    0.93
   0   1  -8  272.16   10.53
   0   1  -8  286.78   10.16
   0   1  -8  299.50   10.17
   0   1  -8  281.83   10.14
   0   1  -8  299.79   10.14
   0   1  -8  297.00   10.33
   0  -1   8  306.98   10.22
   0  -1   8  304.24   10.83
   0  -1   8  291.97   10.16
   0  -1   8  293.08   10.14
   0  -1   8  297.27   10.34
   0  -1   8  288.64   10.26
   0  -1   8  295.67   10.15
   0  -1   8  305.91   10.17
  -1   1  -8   11.76    0.70
  -1   1  -8   12.21    0.68
  -1   1  -8   12.69    1.11
  -1   1  -8   13.15    0.71
  -1   1  -8   13.79    0.68
  -1   1  -8   12.30    0.86
   1  -1   8   12.10    0.68
   1  -1   8   12.98    0.59
   1  -1   8   13.28    0.70
   1  -1   8   11.46    0.81
   1  -1   8   12.37    0.85
   1  -1   8   12.28    0.70
   1  -1   8   11.66    0.66
   1  -1   8   11.57    1.01
  -2   1  -8   85.30    3.98
  -2   1  -8   85.42    3.21
  -2   1  -8   86.05    3.22
  -2   1  -8   89.29    3.19
  -2   1  -8   88.95    3.22
  -2   1  -8   87.99    3.80
   2  -1   8   85.95    3.29
   2  -1   8   86.96    3.20
   2  -1   8   90.26    3.22
   2  -1   8   85.18    3.20
   2  -1   8   88.05    3.59
   2  -1   8   86.56    3.18
  -3   1  -8    4.19    0.46
  -3   1  -8    4.51    0.56
  -3   1  -8    4.74    0.55
  -3   1  -8    5.07    0.98
   3  -1   8    4.82    0.52
   3  -1   8    4.14    0.74
   3  -1   8    5.17    0.67
   3  -1   8    5.77    0.44
   3  -1   8    3.91    0.51
   3  -1   8    4.56    0.50
  -4   1  -8   24.31    1.22
  -4   1  -8   22.19    1.14
   4  -1   8   23.38    1.16
   4  -1   8   24.10    1.29
   4  -1   8   22.92    1.15
   4  -1   8   23.43    1.14
  -5   1  -8    7.23    0.77
  -5   1  -8    7.97    0.74
  -5   1  -8    7.68    0.85
  -5   1  -8    8.83    1.47
   5  -1   8    7.66    0.72
   5  -1   8    8.83    0.72
   5  -1   8    7.30    0.85
   5  -1   8    8.31    0.71
  -6   1  -8    3.20    1.24
  -6   1  -8    2.18    1.23
  -6   1  -8    2.16    0.48
   6  -1   8    2.78    0.61
   6  -1   8    2.61    0.47
   6  -1   8    2.57    0.48
  -7   1  -8    1.34    1.25
  -7   1  -8    1.64    0.54
  -7   1  -8    3.25    1.73
   7  -1   8    1.76    0.65
   7  -1   8    1.85    0.50
   7  -1   8    1.10    0.55
   9   0  -8    0.53    0.49
   9   0  -8    0.15    0.54
  -9   0   8   -0.03    0.62
  -9   0   8   -1.16    1.43
  -9   0   8    0.49    0.68
  -9   0   8   -0.57    1.59
   8   0  -8    6.29    0.80
   8   0  -8    6.17    0.75
   8   0  -8    6.61    0.88
  -8   0   8    4.07    1.18
  -8   0   8    5.88    0.76
  -8   0   8    5.30    0.99
   7   0  -8    1.46    0.39
   7   0  -8    1.07    0.49
   7   0  -8    1.75    0.53
   7   0  -8    2.50    0.44
  -7   0   8    2.53    0.54
  -7   0   8    2.53    0.90
  -7   0   8    1.19    0.70
  -7   0   8    2.10    0.47
   6   0  -8    8.69    0.92
   6   0  -8    9.03    1.05
   6   0  -8    9.76    0.74
   6   0  -8   11.22    0.90
  -6   0   8    8.33    1.01
  -6   0   8   11.47    0.85
  -6   0   8   11.03    0.84
  -6   0   8   10.28    0.83
  -6   0   8    8.96    1.26
   5   0  -8    1.46    0.34
   5   0  -8    1.76    0.33
   5   0  -8    2.35    0.54
   5   0  -8    2.48    0.52
   5   0  -8    1.81    0.35
   5   0  -8    2.63    0.78
  -5   0   8    2.44    0.46
  -5   0   8    2.26    0.41
  -5   0   8    1.36    0.33
  -5   0   8    2.10    0.37
  -5   0   8    1.90    0.57
  -5   0   8    1.67    0.44
   4   0  -8    0.90    0.32
   4   0  -8    0.30    0.23
   4   0  -8    0.12    0.22
   4   0  -8    0.57    0.35
   4   0  -8    0.47    0.24
   4   0  -8    0.23    0.21
   4   0  -8    1.14    0.36
  -4   0   8    0.56    0.37
  -4   0   8    0.46    0.34
  -4   0   8    0.41    0.28
  -4   0   8    0.57    0.30
  -4   0   8    0.89    0.24
  -4   0   8    0.42    0.37
   3   0  -8  347.87   12.18
   3   0  -8  336.01   12.18
   3   0  -8  352.13   12.22
   3   0  -8  343.24   12.34
   3   0  -8  365.31   12.21
   3   0  -8  357.04   12.33
  -3   0   8  343.79   12.28
  -3   0   8  365.43   12.23
  -3   0   8  373.69   12.31
  -3   0   8  355.93   12.25
  -3   0   8  345.21   12.50
  -3   0   8  343.30   12.22
  -3   0   8  344.51   12.19
  -3   0   8  352.07   12.47
  -3   0   8  385.81   12.36
   2   0  -8    3.60    0.39
   2   0  -8    4.18    0.55
   2   0  -8    2.84    0.44
   2   0  -8    2.91    0.35
  -2   0   8    3.35    0.46
  -2   0   8    3.05    0.51
  -2   0   8    3.59    0.37
  -2   0   8    3.25    0.54
  -2   0   8    4.51    0.43
  -2   0   8    4.24    0.46
   1   0  -8  271.13    9.45
   1   0  -8  269.25    9.48
   1   0  -8  263.12    9.45
   1   0  -8  275.21    9.44
   1   0  -8  270.34    9.55
   1   0  -8  293.25    9.66
   1   0  -8  275.76    9.47
   1   0  -8  268.36    9.57
   1   0  -8  264.96    9.61
  -1   0   8  269.30    9.47
  -1   0   8  290.24    9.57
  -1   0   8  254.12    9.65
  -1   0   8  303.78    9.67
  -1   0   8  259.80    9.45
  -1   0   8  258.08    9.56
  -1   0   8  279.98    9.47
  -1   0   8  280.71    9.46
   0   0  -8  572.01   19.90
   0   0  -8  588.12   19.92
   0   0  -8  568.86   19.96
   0   0  -8  558.84   19.79
   0   0  -8  555.66   20.13
   0   0  -8  584.84   19.90
   0   0  -8  603.28   20.03
   0   0  -8  594.93   19.92
   0   0   8  585.91   19.91
   0   0   8  579.41   19.98
   0   0   8  598.87   19.90
   0   0   8  582.54   19.89
   0   0   8  574.61   20.05
   0   0   8  629.83   19.95
   0   0   8  563.76   19.88
  -1   0  -8   77.28    3.19
  -1   0  -8   75.48    2.83
  -1   0  -8   77.94    2.86
  -1   0  -8   75.19    2.84
  -1   0  -8   79.35    2.97
  -1   0  -8   75.58    2.85
  -1   0  -8   78.48    2.87
   1   0   8   76.92    2.84
   1   0   8   77.15    2.93
   1   0   8   74.90    2.97
   1   0   8   77.11    2.84
   1   0   8   75.91    2.73
   1   0   8   79.41    3.10
   1   0   8   77.59    2.85
   1   0   8   73.66    2.83
   1   0   8   76.69    2.84
  -2   0  -8  349.33   12.07
  -2   0  -8  351.42   12.06
  -2   0  -8  346.41   12.06
  -2   0  -8  347.94   12.50
  -2   0  -8  343.38   12.02
  -2   0  -8  347.56   12.07
  -2   0  -8  350.84   12.17
   2   0   8  369.82   12.31
   2   0   8  368.23   12.08
   2   0   8  351.75   12.06
   2   0   8  342.24   12.03
   2   0   8  347.77   12.14
   2   0   8  352.15   12.05
   2   0   8  322.41   11.96
  -3   0  -8   36.36    1.53
  -3   0  -8   31.41    1.93
  -3   0  -8   34.50    1.52
  -3   0  -8   36.52    1.44
  -3   0  -8   36.90    1.54
   3   0   8   34.09    1.50
   3   0   8   36.12    1.69
   3   0   8   34.37    1.47
   3   0   8   35.46    1.50
   3   0   8   34.72    1.60
   3   0   8   35.36    1.49
  -4   0  -8   33.25    1.50
  -4   0  -8   34.21    1.51
  -4   0  -8   32.49    1.37
   4   0   8   33.81    1.49
   4   0   8   32.04    1.47
   4   0   8   34.72    1.64
   4   0   8   32.57    1.48
   4   0   8   32.87    1.57
   4   0   8   33.34    1.48
  -5   0  -8   27.87    1.41
  -5   0  -8   26.99    1.24
  -5   0  -8   28.94    1.40
   5   0   8   28.42    1.42
   5   0   8   28.55    1.38
   5   0   8   28.29    1.38
   5   0   8   27.90    1.39
   5   0   8   30.54    1.53
  -6   0  -8    0.25    0.29
  -6   0  -8    0.54    0.41
  -6   0  -8   -0.15    0.40
   6   0   8    0.25    0.48
   6   0   8   -0.12    0.39
   6   0   8   -0.44    0.33
   6   0   8    0.09    0.43
  -7   0  -8    0.83    0.54
   7   0   8    0.87    0.42
   7   0   8    0.59    0.51
   7   0   8    0.28    0.48
   7   0   8    1.35    0.72
   9  -1  -8    9.59    1.08
  -9   1   8   10.26    1.22
  -9   1   8   10.09    2.43
  -9   1   8    6.72    1.76
   8  -1  -8    0.81    0.42
   8  -1  -8    0.14    0.42
   8  -1  -8    0.27    0.50
   8  -1  -8    0.89    0.57
  -8   1   8    0.48    0.52
  -8   1   8   -0.81    0.90
  -8   1   8   -0.38    0.47
  -8   1   8    0.17    1.31
   7  -1  -8   66.56    2.61
   7  -1  -8   62.40    2.55
   7  -1  -8   60.92    2.56
   7  -1  -8   62.71    2.61
   7  -1  -8   66.06    2.88
   7  -1  -8   62.17    2.67
  -7   1   8   61.59    2.64
  -7   1   8   59.38    3.40
  -7   1   8   64.71    2.64
   6  -1  -8   31.97    1.47
   6  -1  -8   30.91    1.58
   6  -1  -8   32.26    1.47
   6  -1  -8   33.13    1.46
   6  -1  -8   30.28    1.42
  -6   1   8   31.00    1.49
  -6   1   8   32.27    1.41
  -6   1   8   28.31    1.46
  -6   1   8   25.92    2.05
  -6   1   8   32.64    1.70
   5  -1  -8   84.44    3.13
   5  -1  -8   82.41    3.09
   5  -1  -8   81.85    3.24
   5  -1  -8   78.63    3.22
   5  -1  -8   81.39    3.11
   5  -1  -8   84.59    3.11
  -5   1   8   72.88    3.58
  -5   1   8   82.09    3.33
  -5   1   8   82.01    3.15
  -5   1   8   83.21    3.15
  -5   1   8   84.93    3.03
   4  -1  -8  250.16    8.58
   4  -1  -8  250.90    8.56
   4  -1  -8  244.92    8.65
   4  -1  -8  247.05    8.72
   4  -1  -8  256.20    8.59
  -4   1   8  241.69    8.58
  -4   1   8  231.80    8.97
  -4   1   8  240.12    8.58
  -4   1   8  247.84    8.60
  -4   1   8  252.26    8.62
  -4   1   8  233.76    8.96
   3  -1  -8   78.68    3.19
   3  -1  -8   87.48    3.09
   3  -1  -8   76.60    2.99
   3  -1  -8   80.76    3.04
   3  -1  -8   79.08    3.01
   3  -1  -8   79.36    3.18
   3  -1  -8   82.32    3.07
  -3   1   8   83.29    3.05
  -3   1   8   79.50    3.26
  -3   1   8   84.26    3.03
  -3   1   8   78.18    3.28
  -3   1   8   84.05    3.07
  -3   1   8   86.31    3.25
   2  -1  -8  334.13   11.36
   2  -1  -8  312.63   11.33
   2  -1  -8  326.31   11.20
   2  -1  -8  318.40   11.24
   2  -1  -8  319.14   11.22
   2  -1  -8  346.53   11.44
   2  -1  -8  310.96   11.20
   2  -1  -8  328.80   11.22
  -2   1   8  328.21   11.21
  -2   1   8  318.21   11.36
  -2   1   8  330.24   11.24
  -2   1   8  321.27   11.48
  -2   1   8  326.98   11.22
  -2   1   8  318.26   11.60
  -2   1   8  311.85   11.22
  -2   1   8  343.63   11.36
   1  -1  -8   16.98    0.87
   1  -1  -8   17.47    0.86
   1  -1  -8   18.31    0.97
   1  -1  -8   16.63    0.93
   1  -1  -8   18.84    0.97
   1  -1  -8   16.66    0.87
   1  -1  -8   17.45    0.82
   1  -1  -8   16.11    0.93
  -1   1   8   17.35    0.84
  -1   1   8   15.36    1.15
  -1   1   8   17.27    0.90
  -1   1   8   17.37    0.83
  -1   1   8   16.55    0.88
  -1   1   8   17.35    0.93
  -1   1   8   17.51    1.13
  -1   1   8   16.28    0.85
   0  -1  -8  295.15   10.13
   0  -1  -8  292.17   10.05
   0  -1  -8  290.55   10.03
   0  -1  -8  289.45   10.16
   0  -1  -8  294.13   10.05
   0  -1  -8  277.35   10.01
   0  -1  -8  289.39   10.09
   0  -1  -8  292.34   10.11
   0   1   8  294.35   10.02
   0   1   8  282.34   10.02
   0   1   8  279.11   10.32
   0   1   8  293.97   10.03
   0   1   8  290.89   10.03
   0   1   8  295.82   10.04
   0   1   8  288.46   10.08
  -1  -1  -8   12.39    0.73
  -1  -1  -8   11.61    0.72
  -1  -1  -8   12.26    0.71
  -1  -1  -8   12.15    0.74
  -1  -1  -8   12.04    0.79
  -1  -1  -8   13.53    0.77
  -1  -1  -8   12.13    0.75
   1   1   8   12.06    0.71
   1   1   8   12.74    0.74
   1   1   8   12.51    0.73
   1   1   8   13.87    0.73
   1   1   8   12.45    0.78
   1   1   8   12.59    0.71
   1   1   8   12.79    0.76
   1   1   8   11.24    1.03
  -2  -1  -8   86.59    3.28
  -2  -1  -8   86.82    3.23
  -2  -1  -8   85.90    3.21
  -2  -1  -8   77.54    3.21
  -2  -1  -8   90.79    3.25
  -2  -1  -8   86.70    3.22
   2   1   8   88.47    3.22
   2   1   8   89.08    3.36
   2   1   8   85.43    3.21
   2   1   8   90.81    3.43
   2   1   8   85.75    3.21
   2   1   8   85.13    3.27
   2   1   8   85.87    3.21
  -3  -1  -8    4.00    0.56
  -3  -1  -8    3.72    0.51
  -3  -1  -8    4.10    0.63
  -3  -1  -8    4.26    0.54
  -3  -1  -8    4.11    0.50
   3   1   8    3.57    0.49
   3   1   8    4.33    0.73
   3   1   8    4.94    0.68
   3   1   8    3.88    0.53
   3   1   8    3.45    0.60
   3   1   8    3.69    0.52
   3   1   8    2.61    0.37
  -4  -1  -8   24.19    1.25
  -4  -1  -8   23.96    1.23
  -4  -1  -8   24.63    1.20
   4   1   8   24.76    1.34
   4   1   8   23.49    1.35
   4   1   8   27.21    1.68
   4   1   8   24.30    1.20
   4   1   8   23.25    1.20
  -5  -1  -8    6.17    0.76
  -5  -1  -8    8.07    0.73
  -5  -1  -8    8.15    0.99
  -5  -1  -8    9.38    0.83
   5   1   8    7.95    0.76
   5   1   8    7.82    0.91
   5   1   8    6.92    0.88
   5   1   8    8.86    0.77
  -6  -1  -8    2.45    0.54
  -6  -1  -8    3.93    0.82
  -6  -1  -8    2.76    0.51
   6   1   8    2.95    0.51
   6   1   8    2.67    0.53
   6   1   8    1.94    0.59
  -7  -1  -8    2.50    0.58
  -7  -1  -8    1.75    0.65
  -7  -1  -8    2.53    0.59
   7   1   8    1.11    0.48
   7   1   8    1.15    0.79
   7   1   8    2.57    0.60
   7   1   8    2.70    0.64
   8  -2  -8    1.93    0.55
   8  -2  -8    2.36    0.65
   8  -2  -8    2.54    0.51
  -8   2   8    3.01    0.59
  -8   2   8    1.98    1.11
  -8   2   8    3.75    1.67
   7  -2  -8   10.22    0.86
   7  -2  -8   10.02    0.87
   7  -2  -8   10.78    1.04
  -7   2   8   11.23    0.91
  -7   2   8    7.22    1.29
  -7   2   8    7.53    1.58
   6  -2  -8    6.43    0.88
   6  -2  -8    5.01    0.65
   6  -2  -8    4.64    0.65
   6  -2  -8    5.49    0.63
  -6   2   8    4.43    0.59
  -6   2   8    4.81    1.01
  -6   2   8    5.53    1.01
  -6   2   8    6.39    0.70
  -6   2   8    4.58    1.23
   5  -2  -8   63.03    2.70
   5  -2  -8   64.32    2.53
   5  -2  -8   64.09    2.60
   5  -2  -8   65.68    2.57
   5  -2  -8   67.59    2.56
  -5   2   8   64.22    2.60
  -5   2   8   67.06    2.55
  -5   2   8   58.90    2.97
  -5   2   8   64.26    2.94
   4  -2  -8   58.30    2.26
   4  -2  -8   58.46    2.28
   4  -2  -8   57.37    2.45
   4  -2  -8   59.38    2.29
   4  -2  -8   59.12    2.29
  -4   2   8   55.06    2.30
  -4   2   8   58.61    2.28
  -4   2   8   52.36    2.60
  -4   2   8   55.10    2.63
  -4   2   8   61.15    2.29
   3  -2  -8  118.35    4.18
   3  -2  -8  114.18    4.16
   3  -2  -8  119.93    4.16
   3  -2  -8  113.28    4.31
   3  -2  -8  111.32    4.67
   3  -2  -8  116.79    4.12
   3  -2  -8  112.44    4.26
  -3   2   8  110.45    4.17
  -3   2   8  121.35    4.16
  -3   2   8  104.57    4.34
  -3   2   8  116.14    4.15
  -3   2   8  110.58    4.55
   2  -2  -8   75.68    3.09
   2  -2  -8   79.69    2.88
   2  -2  -8   77.30    3.26
   2  -2  -8   79.00    2.97
   2  -2  -8   77.75    2.98
   2  -2  -8   80.39    3.17
   2  -2  -8   80.00    2.98
   2  -2  -8   77.00    2.95
  -2   2   8   81.21    2.99
  -2   2   8   79.07    3.39
  -2   2   8   76.33    2.96
  -2   2   8   87.62    3.49
  -2   2   8   82.48    2.96
  -2   2   8   80.54    2.97
   1  -2  -8  142.74    5.10
   1  -2  -8  145.19    5.38
   1  -2  -8  147.77    5.26
   1  -2  -8  142.67    5.13
   1  -2  -8  146.52    5.11
   1  -2  -8  140.40    5.22
   1  -2  -8  143.92    5.13
  -1   2   8  142.93    5.60
  -1   2   8  140.52    5.10
  -1   2   8  136.96    5.04
  -1   2   8  141.52    5.12
  -1   2   8  149.16    5.12
  -1   2   8  138.30    5.24
  -1   2   8  149.81    5.10
  -1   2   8  138.79    5.62
   0  -2  -8  103.47    3.78
   0  -2  -8  106.04    3.81
   0  -2  -8  106.53    3.89
   0  -2  -8  107.21    3.89
   0  -2  -8  100.81    3.78
   0  -2  -8  106.71    4.02
   0  -2  -8  104.91    3.81
   0   2   8  100.66    3.77
   0   2   8  107.63    3.80
   0   2   8  108.38    3.77
   0   2   8  101.94    4.31
   0   2   8   95.58    4.21
   0   2   8  101.15    3.78
   0   2   8   99.24    3.88
   0   2   8  105.02    4.02
  -1  -2  -8   23.08    1.10
  -1  -2  -8   24.76    1.14
  -1  -2  -8   22.79    1.13
  -1  -2  -8   24.02    1.17
  -1  -2  -8   24.00    1.13
  -1  -2  -8   23.80    1.25
  -1  -2  -8   22.76    1.17
   1   2   8   20.97    1.64
   1   2   8   23.56    1.06
   1   2   8   18.58    1.51
   1   2   8   25.75    1.14
   1   2   8   23.20    0.98
   1   2   8   22.37    1.09
   1   2   8   23.78    1.31
   1   2   8   22.22    1.16
   1   2   8   23.50    1.18
  -2  -2  -8   53.52    2.27
  -2  -2  -8   54.87    2.20
  -2  -2  -8   57.89    2.26
  -2  -2  -8   57.55    2.26
  -2  -2  -8   55.95    2.24
   2   2   8   56.56    2.22
   2   2   8   57.37    2.35
   2   2   8   53.92    2.41
   2   2   8   55.06    2.22
   2   2   8   56.54    2.21
  -3  -2  -8    1.49    0.37
  -3  -2  -8    1.35    0.42
  -3  -2  -8    1.60    0.42
  -3  -2  -8    1.73    0.42
  -3  -2  -8    1.55    0.39
   3   2   8    2.09    0.52
   3   2   8    2.38    0.39
   3   2   8    1.01    0.62
   3   2   8    1.49    0.38
   3   2   8    2.61    0.59
  -4  -2  -8   33.37    1.56
  -4  -2  -8   34.54    1.57
  -4  -2  -8   32.94    1.60
  -4  -2  -8   31.62    1.75
  -4  -2  -8   32.59    1.61
   4   2   8   31.29    1.79
   4   2   8   35.91    1.55
   4   2   8   33.90    1.55
   4   2   8   29.09    1.85
   4   2   8   36.23    1.84
  -5  -2  -8    2.78    0.55
  -5  -2  -8    2.67    0.52
  -5  -2  -8    2.69    0.53
   5   2   8    2.97    0.55
   5   2   8    3.36    0.51
   5   2   8    0.90    0.68
   5   2   8    2.91    0.75
  -6  -2  -8    8.40    0.89
  -6  -2  -8    7.78    0.97
  -6  -2  -8    8.56    0.96
   6   2   8    7.70    1.16
   6   2   8    6.82    1.00
   6   2   8    9.52    0.90
   6   2   8    7.12    0.84
   7  -3  -8    4.43    0.77
   7  -3  -8    3.10    0.58
   7  -3  -8    3.18    0.55
  -7   3   8    2.54    1.16
  -7   3   8    1.77    1.42
   6  -3  -8    1.65    0.60
   6  -3  -8    1.12    0.40
   6  -3  -8    1.80    0.47
  -6   3   8    1.45    1.09
  -6   3   8    1.48    0.38
  -6   3   8    1.99    0.94
   5  -3  -8   34.38    1.75
   5  -3  -8   32.92    1.50
   5  -3  -8   33.24    1.50
   5  -3  -8   33.27    1.51
  -5   3   8   32.78    2.12
  -5   3   8   31.59    2.37
  -5   3   8   30.47    1.41
   4  -3  -8   18.40    1.00
   4  -3  -8   17.75    0.99
   4  -3  -8   17.73    1.19
   4  -3  -8   18.43    0.97
   4  -3  -8   16.70    0.90
  -4   3   8   16.27    2.00
  -4   3   8   18.31    1.02
  -4   3   8   16.45    0.89
  -4   3   8   15.46    0.86
  -4   3   8   16.85    1.56
   3  -3  -8   39.41    1.71
   3  -3  -8   38.75    1.98
   3  -3  -8   40.75    1.73
   3  -3  -8   42.93    1.74
   3  -3  -8   41.79    1.58
  -3   3   8   38.90    2.66
  -3   3   8   41.33    1.70
  -3   3   8   41.37    1.64
  -3   3   8   45.85    2.42
  -3   3   8   38.67    1.70
   2  -3  -8  157.51    5.48
   2  -3  -8  152.37    5.65
   2  -3  -8  147.04    5.47
   2  -3  -8  154.83    5.46
  -2   3   8  155.27    6.14
  -2   3   8  156.03    5.38
  -2   3   8  148.60    5.95
  -2   3   8  151.70    5.46
  -2   3   8  150.26    5.38
   1  -3  -8   20.44    1.02
   1  -3  -8   19.78    1.03
   1  -3  -8   20.53    1.19
   1  -3  -8   21.14    1.06
   1  -3  -8   20.19    1.17
  -1   3   8   21.39    1.66
  -1   3   8   20.55    1.34
  -1   3   8   18.20    0.95
  -1   3   8   18.60    0.98
  -1   3   8   20.08    0.90
   0  -3  -8   84.87    3.27
   0  -3  -8   87.72    3.37
   0  -3  -8   85.58    3.32
   0  -3  -8   86.04    3.43
   0  -3  -8   88.41    3.38
   0   3   8   84.65    3.27
   0   3   8   90.35    3.20
   0   3   8   88.82    3.68
   0   3   8   85.41    3.98
   0   3   8   93.71    3.54
   0   3   8   88.66    3.25
  -1  -3  -8   54.83    2.41
  -1  -3  -8   56.46    2.27
  -1  -3  -8   57.77    2.22
  -1  -3  -8   52.10    2.55
  -1  -3  -8   59.00    2.25
   1   3   8   57.79    2.21
   1   3   8   48.37    2.92
   1   3   8   56.30    2.21
   1   3   8   56.11    2.62
  -2  -3  -8    7.75    0.74
  -2  -3  -8    9.00    0.76
  -2  -3  -8    8.35    0.82
  -2  -3  -8   10.13    0.74
  -2  -3  -8   10.06    0.75
   2   3   8    8.96    0.70
   2   3   8    8.28    0.65
   2   3   8    9.05    1.09
   2   3   8    6.83    1.19
   2   3   8    8.43    0.73
   2   3   8   11.93    1.26
  -3  -3  -8   19.43    1.21
  -3  -3  -8   21.52    1.26
  -3  -3  -8   22.47    1.18
  -3  -3  -8   21.40    1.20
   3   3   8   21.62    1.16
   3   3   8   22.50    1.56
   3   3   8   17.17    1.89
   3   3   8   19.28    1.64
   3   3   8   22.63    1.65
  -4  -3  -8    1.84    0.51
  -4  -3  -8    2.87    0.51
  -4  -3  -8    4.20    0.67
   4   3   8    2.89    0.89
   4   3   8    2.97    0.86
   4   3   8    3.06    0.53
  -5  -3  -8    1.46    0.56
  -5  -3  -8    1.79    0.52
  -5  -3  -8    2.12    0.63
   5   3   8    1.96    0.90
   5   3   8    1.51    0.50
  -6  -3  -8    0.52    0.59
  -6  -3  -8    0.82    0.64
  -6  -3  -8    0.55    0.71
   6   3   8    0.98    0.97
   6   3   8    1.69    0.55
   6  -4  -8    7.40    1.17
   6  -4  -8    7.44    0.92
   6  -4  -8    7.81    0.93
  -6   4   8    7.40    1.66
  -6   4   8    8.47    1.95
   5  -4  -8   20.75    1.14
   5  -4  -8   18.08    1.48
   5  -4  -8   20.28    1.20
  -5   4   8   23.42    2.37
  -5   4   8   20.27    2.22
   4  -4  -8   -0.53    0.51
   4  -4  -8   -0.39    0.31
   4  -4  -8    0.31    0.38
  -4   4   8    0.77    0.94
  -4   4   8    0.23    1.05
   3  -4  -8   23.60    1.46
   3  -4  -8   22.64    1.14
   3  -4  -8   22.91    1.50
  -3   4   8   21.72    2.01
   2  -4  -8    9.58    0.72
   2  -4  -8    9.21    1.09
   2  -4  -8    9.58    1.02
  -2   4   8    9.73    1.49
  -2   4   8    8.12    1.42
   1  -4  -8   11.35    0.80
   1  -4  -8   12.91    1.06
   1  -4  -8   11.95    0.90
  -1   4   8   12.48    1.37
  -1   4   8   13.74    1.70
   0  -4  -8   13.96    1.12
   0  -4  -8   13.89    0.93
   0  -4  -8   14.24    0.95
   0   4   8   14.25    1.19
   0   4   8   14.62    1.73
   0   4   8   13.33    1.45
  -1  -4  -8    1.44    0.46
  -1  -4  -8    1.16    0.41
  -1  -4  -8    1.61    0.56
   1   4   8    0.81    0.74
   1   4   8    1.43    0.88
  -2  -4  -8   11.03    1.08
  -2  -4  -8   12.61    0.94
  -2  -4  -8   11.20    0.95
   2   4   8   11.40    1.48
   2   4   8   14.00    1.77
  -3  -4  -8    3.40    0.57
  -3  -4  -8    3.86    0.73
  -3  -4  -8    3.59    0.61
   3   4   8    3.58    1.26
   3   4   8    3.90    1.02
  -4  -4  -8    3.20    0.63
  -4  -4  -8    3.32    0.68
  -4  -4  -8    3.59    0.75
   4   4   8    3.18    1.34
   4   4   8    4.21    1.17
   3  -5  -8    1.17    0.56
   3  -5  -8    1.90    0.84
   3  -5  -8    1.61    0.45
  -3   5   8    1.19    1.65
  -3   5   8    2.84    1.53
   2  -5  -8    1.81    0.78
   2  -5  -8    3.09    0.61
   2  -5  -8    2.22    0.46
  -2   5   8    5.36    1.52
  -2   5   8    4.67    1.46
   1  -5  -8    1.71    0.62
   1  -5  -8    1.50    0.46
   1  -5  -8    1.85    0.75
  -1   5   8    0.37    1.42
   0  -5  -8    1.22    0.47
   0  -5  -8    0.52    0.55
   0  -5  -8    0.91    0.72
   0   5   8    2.88    1.36
  -1  -5  -8    8.75    0.99
  -1  -5  -8    5.41    0.93
  -1  -5  -8    7.95    0.97
   1   5   8    8.02    1.84
   1   5   8   10.56    1.69
  -2  -5  -8    1.50    0.60
  -2  -5  -8    1.48    0.77
   2   5   8    3.08    1.55
   2   5   8    4.16    1.73
   2   5  -9    7.41    1.53
  -2  -5   9    6.01    1.38
   1   5  -9    0.31    0.96
  -1  -5   9    1.20    0.96
   0   5  -9    2.80    1.04
   0   5  -9    0.41    1.51
   0  -5   9    1.61    0.71
   0  -5   9    2.42    0.96
   5   4  -9    9.96    1.64
   5   4  -9    8.12    1.51
  -5  -4   9    9.56    1.41
  -5  -4   9   10.84    1.13
  -5  -4   9    9.53    0.90
   4   4  -9    3.67    1.06
   4   4  -9    2.31    0.98
  -4  -4   9    3.78    1.03
  -4  -4   9    4.31    0.64
  -4  -4   9    2.53    0.46
   3   4  -9   22.54    1.83
   3   4  -9   26.30    1.79
  -3  -4   9   20.17    1.11
  -3  -4   9   21.52    1.24
  -3  -4   9   23.17    1.84
  -3  -4   9   22.03    1.38
   2   4  -9    3.46    0.84
   2   4  -9    3.72    0.77
  -2  -4   9    3.03    0.40
  -2  -4   9    2.52    0.81
  -2  -4   9    4.04    0.63
  -2  -4   9    3.44    0.52
  -2  -4   9    3.78    0.41
   1   4  -9   25.88    1.50
   1   4  -9   25.99    2.07
   1   4  -9   26.00    1.88
  -1  -4   9   26.41    1.44
  -1  -4   9   26.32    1.22
  -1  -4   9   26.75    1.81
  -1  -4   9   25.98    1.13
  -1  -4   9   21.63    1.10
   0   4  -9    9.72    1.29
   0   4  -9    8.83    1.64
   0  -4   9    9.32    0.60
   0  -4   9    7.78    0.60
   0  -4   9    9.10    1.25
   0  -4   9    8.80    0.72
  -1   4  -9    4.15    1.26
  -1   4  -9    6.32    1.15
   1  -4   9    5.10    0.62
   1  -4   9    4.17    0.88
   1  -4   9    5.43    0.50
   1  -4   9    3.94    0.53
   1  -4   9    5.23    0.72
  -2   4  -9   15.99    1.42
  -2   4  -9   14.54    2.29
   2  -4   9   15.29    0.91
   2  -4   9   14.40    0.88
   2  -4   9   14.87    1.53
   2  -4   9   14.60    1.18
  -3   4  -9    2.70    1.59
  -3   4  -9    4.62    1.02
   3  -4   9    2.52    0.91
   3  -4   9    2.14    0.68
   3  -4   9    3.27    0.46
  -4   4  -9    1.21    2.15
   4  -4   9    2.03    1.01
   4  -4   9    2.72    0.54
   4  -4   9    2.38    0.52
   4  -4   9    1.63    0.77
   7   3  -9    7.07    1.21
   7   3  -9    5.50    1.41
  -7  -3   9    5.34    0.79
  -7  -3   9    6.88    0.88
  -7  -3   9    6.09    1.34
   6   3  -9   17.12    1.56
   6   3  -9   16.34    1.86
  -6  -3   9   16.64    1.11
  -6  -3   9   16.55    1.72
  -6  -3   9   15.62    1.23
   5   3  -9    6.20    1.33
   5   3  -9    7.47    1.20
   5   3  -9    6.55    0.64
  -5  -3   9    5.44    1.04
  -5  -3   9    6.25    0.72
  -5  -3   9    6.58    0.89
   4   3  -9   52.27    2.72
   4   3  -9   49.89    2.16
   4   3  -9   52.12    2.73
  -4  -3   9   56.37    2.25
  -4  -3   9   56.24    2.26
  -4  -3   9   57.75    2.75
  -4  -3   9   51.83    2.20
  -4  -3   9   53.77    2.34
   3   3  -9   22.04    1.05
   3   3  -9   19.95    1.25
   3   3  -9   22.73    1.66
   3   3  -9   25.27    1.51
  -3  -3   9   24.16    1.60
  -3  -3   9   25.26    1.20
  -3  -3   9   24.55    1.46
  -3  -3   9   21.98    1.13
  -3  -3   9   23.02    1.32
   2   3  -9   45.22    1.94
   2   3  -9   38.48    1.66
   2   3  -9   42.88    2.32
   2   3  -9   38.05    1.86
   2   3  -9   39.59    2.46
  -2  -3   9   41.91    1.85
  -2  -3   9   44.76    1.68
  -2  -3   9   43.77    1.73
  -2  -3   9   36.07    1.98
  -2  -3   9   40.08    1.71
  -2  -3   9   42.51    2.19
  -2  -3   9   42.97    1.74
  -2  -3   9   37.99    1.64
   1   3  -9   28.47    1.85
   1   3  -9   28.47    1.21
   1   3  -9   23.31    2.22
   1   3  -9   29.82    1.38
  -1  -3   9   27.94    1.42
  -1  -3   9   26.76    2.10
  -1  -3   9   30.33    1.26
  -1  -3   9   28.84    1.27
  -1  -3   9   25.48    1.65
  -1  -3   9   29.72    1.24
  -1  -3   9   30.35    1.24
   0   3  -9    3.25    0.89
   0   3  -9    4.24    0.45
   0   3  -9    4.90    0.88
   0  -3   9    4.35    0.46
   0  -3   9    3.98    0.42
   0  -3   9    3.85    0.57
   0  -3   9    3.98    0.50
   0  -3   9    4.37    0.70
   0  -3   9    5.31    0.80
   0  -3   9    5.03    0.46
  -1   3  -9    5.68    0.54
  -1   3  -9    5.36    1.10
  -1   3  -9    7.99    1.01
   1  -3   9    7.15    0.59
   1  -3   9    7.13    0.67
   1  -3   9    6.80    0.54
   1  -3   9    7.66    0.82
   1  -3   9    6.99    0.96
  -2   3  -9    2.82    1.10
  -2   3  -9    3.79    0.72
   2  -3   9    2.82    0.41
   2  -3   9    2.89    0.37
   2  -3   9    2.64    0.39
   2  -3   9    3.47    0.72
   2  -3   9    2.19    0.52
  -3   3  -9    0.79    0.55
  -3   3  -9    0.54    1.02
   3  -3   9    0.83    0.59
   3  -3   9    0.18    0.34
   3  -3   9    0.67    0.32
   3  -3   9    0.34    0.46
  -4   3  -9    0.02    1.20
  -4   3  -9   -0.30    0.83
   4  -3   9   -0.16    0.49
   4  -3   9   -0.31    0.37
   4  -3   9    0.34    0.42
  -5   3  -9    0.44    1.65
   5  -3   9    0.75    0.44
   5  -3   9    1.97    0.70
   5  -3   9    0.83    0.48
   8   2  -9    4.08    0.63
   8   2  -9    3.77    0.97
  -8  -2   9    3.62    1.40
  -8  -2   9    3.57    0.85
  -8  -2   9    3.38    0.69
   7   2  -9   14.59    1.03
   7   2  -9   15.85    1.41
  -7  -2   9   17.48    1.85
  -7  -2   9   16.81    1.24
  -7  -2   9   14.51    1.10
   6   2  -9   20.18    1.51
   6   2  -9   22.10    1.15
   6   2  -9   21.30    1.18
  -6  -2   9   21.60    1.25
  -6  -2   9   21.34    1.29
  -6  -2   9   20.23    1.76
   5   2  -9   48.44    2.15
   5   2  -9   51.68    2.55
   5   2  -9   45.59    2.62
   5   2  -9   58.79    2.25
   5   2  -9   55.49    2.11
  -5  -2   9   50.67    2.61
  -5  -2   9   51.86    2.26
  -5  -2   9   51.13    2.19
   4   2  -9   13.52    0.82
   4   2  -9   13.18    1.23
   4   2  -9   14.77    1.24
   4   2  -9   13.64    0.76
   4   2  -9   16.50    1.02
   4   2  -9   14.88    0.81
  -4  -2   9   15.01    0.91
  -4  -2   9   14.83    0.85
  -4  -2   9   14.51    1.09
  -4  -2   9   15.18    0.92
  -4  -2   9   13.32    1.32
   3   2  -9  226.05    7.93
   3   2  -9  235.56    8.26
   3   2  -9  245.00    7.91
   3   2  -9  226.93    8.49
   3   2  -9  190.54    8.07
   3   2  -9  242.45    7.91
  -3  -2   9  216.12    7.91
  -3  -2   9  228.87    8.13
  -3  -2   9  232.67    7.95
  -3  -2   9  230.04    7.98
  -3  -2   9  224.79    8.07
  -3  -2   9  201.21    7.91
  -3  -2   9  240.07    7.99
  -3  -2   9  233.72    8.36
   2   2  -9    8.79    0.57
   2   2  -9    9.16    0.60
   2   2  -9   10.28    0.59
   2   2  -9    7.00    0.80
   2   2  -9    9.60    1.07
   2   2  -9   10.09    0.80
   2   2  -9    9.91    1.07
  -2  -2   9    9.21    0.66
  -2  -2   9    9.06    0.94
  -2  -2   9    9.69    0.67
  -2  -2   9   11.03    0.64
  -2  -2   9    9.12    0.85
  -2  -2   9    9.73    0.62
  -2  -2   9   10.22    0.69
   1   2  -9  265.80    8.87
   1   2  -9  229.84    9.48
   1   2  -9  262.39    8.87
   1   2  -9  259.64    9.48
   1   2  -9  249.42    9.15
  -1  -2   9  254.24    9.05
  -1  -2   9  259.70    8.96
  -1  -2   9  255.95    9.24
  -1  -2   9  260.79    8.95
  -1  -2   9  260.15    9.04
  -1  -2   9  264.95    8.93
  -1  -2   9  258.10    8.91
   0   2  -9  116.16    4.00
   0   2  -9  108.30    4.49
   0   2  -9  109.96    4.67
   0   2  -9   99.21    4.61
   0   2  -9  117.99    4.02
   0  -2   9  113.28    4.08
   0  -2   9  117.14    4.01
   0  -2   9  114.52    4.38
   0  -2   9  112.69    4.05
   0  -2   9  115.84    4.06
   0  -2   9  116.74    4.06
   0  -2   9  109.09    4.18
  -1   2  -9   87.27    3.08
  -1   2  -9   72.64    3.65
  -1   2  -9   84.05    3.88
  -1   2  -9   87.93    3.11
   1  -2   9   88.20    3.17
   1  -2   9   89.12    3.01
   1  -2   9   84.82    3.15
   1  -2   9   84.76    3.15
   1  -2   9   85.32    3.46
   1  -2   9   86.43    3.21
   1  -2   9   88.68    3.30
  -2   2  -9   86.22    3.16
  -2   2  -9   87.94    3.20
  -2   2  -9   85.76    3.24
  -2   2  -9   84.87    4.11
  -2   2  -9   82.94    3.71
   2  -2   9   89.05    3.35
   2  -2   9   89.54    3.22
   2  -2   9   88.22    3.24
   2  -2   9   85.69    3.37
   2  -2   9   90.25    3.24
   2  -2   9   88.62    3.56
  -3   2  -9    1.88    0.58
  -3   2  -9    1.36    0.27
  -3   2  -9    1.24    0.86
  -3   2  -9    1.23    0.49
   3  -2   9    0.71    0.34
   3  -2   9    1.39    0.50
   3  -2   9    0.81    0.27
   3  -2   9    0.77    0.30
  -4   2  -9   18.76    2.02
  -4   2  -9   17.31    0.97
  -4   2  -9   15.63    0.91
  -4   2  -9   17.68    1.13
   4  -2   9   16.49    0.97
   4  -2   9   17.40    1.00
   4  -2   9   18.07    1.19
  -5   2  -9    1.42    0.41
  -5   2  -9    1.15    1.23
   5  -2   9    2.25    0.42
   5  -2   9    1.56    0.57
   5  -2   9    2.13    0.48
  -6   2  -9    0.79    1.58
   6  -2   9    1.44    0.50
   6  -2   9    1.43    0.54
   6  -2   9    2.52    0.70
   8   1  -9    0.24    0.67
   8   1  -9    0.36    0.46
   8   1  -9    0.31    0.40
  -8  -1   9    1.16    0.58
  -8  -1   9   -0.09    0.42
  -8  -1   9    1.34    1.05
   7   1  -9    1.77    0.44
   7   1  -9    1.96    0.44
   7   1  -9    2.01    0.66
  -7  -1   9    1.27    0.51
  -7  -1   9    1.42    0.85
  -7  -1   9    0.90    0.51
   6   1  -9    2.62    0.45
   6   1  -9    2.06    0.60
  -6  -1   9    2.14    0.52
  -6  -1   9    1.15    0.65
  -6  -1   9    1.42    0.45
  -6  -1   9    1.81    0.44
   5   1  -9   11.81    0.97
   5   1  -9   12.56    0.80
   5   1  -9   13.60    0.84
   5   1  -9   13.46    1.15
  -5  -1   9   12.02    0.90
  -5  -1   9   13.54    1.26
  -5  -1   9   13.22    0.91
  -5  -1   9   11.73    1.02
   4   1  -9   27.04    1.58
   4   1  -9   27.05    1.25
   4   1  -9   24.86    1.19
   4   1  -9   26.77    1.21
   4   1  -9   25.88    1.42
  -4  -1   9   27.02    1.27
  -4  -1   9   27.65    1.30
  -4  -1   9   26.66    1.57
  -4  -1   9   26.74    1.25
  -4  -1   9   25.78    1.52
  -4  -1   9   25.48    1.43
   3   1  -9   32.22    1.32
   3   1  -9   31.71    1.64
   3   1  -9   28.16    1.71
   3   1  -9   28.46    1.49
   3   1  -9   29.33    1.53
   3   1  -9   31.20    1.37
   3   1  -9   28.81    1.30
   3   1  -9   29.91    1.29
  -3  -1   9   31.67    1.33
  -3  -1   9   31.59    1.39
  -3  -1   9   30.19    1.62
  -3  -1   9   28.01    1.30
  -3  -1   9   30.09    1.36
  -3  -1   9   32.71    1.44
  -3  -1   9   29.48    1.60
  -3  -1   9   31.27    1.58
   2   1  -9  100.74    4.38
   2   1  -9  116.77    4.54
   2   1  -9  115.14    4.24
   2   1  -9  123.80    4.24
   2   1  -9  114.83    4.44
   2   1  -9  119.71    4.41
   2   1  -9  105.67    4.71
   2   1  -9  122.56    4.24
   2   1  -9  119.86    4.27
  -2  -1   9  117.64    4.50
  -2  -1   9  122.48    4.53
  -2  -1   9  115.37    4.45
  -2  -1   9  118.06    4.26
  -2  -1   9  121.03    4.26
  -2  -1   9  124.92    4.32
  -2  -1   9  125.99    4.30
  -2  -1   9  118.87    4.23
   1   1  -9   83.89    3.29
   1   1  -9   88.54    3.28
   1   1  -9   86.28    3.31
   1   1  -9   91.26    3.28
   1   1  -9   93.57    3.51
  -1  -1   9   91.48    3.32
  -1  -1   9   97.99    3.32
  -1  -1   9   92.04    3.61
  -1  -1   9   87.89    3.46
  -1  -1   9   89.09    3.30
  -1  -1   9   89.79    3.28
  -1  -1   9   88.87    3.50
  -1  -1   9   88.03    3.30
   0   1  -9   77.40    2.84
   0   1  -9   74.24    2.87
   0   1  -9   72.39    2.85
   0   1  -9   74.84    3.05
   0   1  -9   77.95    2.86
   0   1  -9   73.08    3.27
   0  -1   9   76.98    2.86
   0  -1   9   74.00    2.99
   0  -1   9   80.13    2.82
   0  -1   9   77.67    3.05
   0  -1   9   83.38    3.23
   0  -1   9   79.72    2.87
   0  -1   9   78.23    2.85
   0  -1   9   75.69    2.85
  -1   1  -9  161.02    5.99
  -1   1  -9  177.14    6.00
  -1   1  -9  168.21    6.00
  -1   1  -9  161.35    6.22
  -1   1  -9  164.47    6.51
  -1   1  -9  175.28    5.98
   1  -1   9  170.64    5.99
   1  -1   9  169.38    5.98
   1  -1   9  169.48    6.18
   1  -1   9  171.95    6.11
   1  -1   9  168.69    6.45
   1  -1   9  171.07    5.97
   1  -1   9  172.65    6.00
   1  -1   9  169.74    5.89
  -2   1  -9    7.72    1.15
  -2   1  -9    6.08    0.63
  -2   1  -9    5.95    0.57
  -2   1  -9    6.00    0.61
  -2   1  -9    7.09    0.54
   2  -1   9    6.39    0.57
   2  -1   9    7.75    0.60
   2  -1   9    7.76    0.77
   2  -1   9    6.55    0.91
   2  -1   9    6.79    0.61
  -3   1  -9   50.36    2.03
  -3   1  -9   50.69    2.79
  -3   1  -9   50.17    2.04
  -3   1  -9   52.05    2.08
   3  -1   9   47.89    2.00
   3  -1   9   52.04    2.05
   3  -1   9   49.02    2.13
   3  -1   9   49.28    2.47
   3  -1   9   49.19    2.02
  -4   1  -9   18.77    1.05
  -4   1  -9   16.61    1.77
  -4   1  -9   18.68    1.08
   4  -1   9   19.37    0.95
   4  -1   9   19.89    1.06
   4  -1   9   19.27    1.05
   4  -1   9   20.77    1.09
   4  -1   9   19.43    1.19
  -5   1  -9   -0.73    0.87
  -5   1  -9    0.43    0.38
  -5   1  -9    0.95    0.53
  -5   1  -9    0.46    0.48
   5  -1   9   -0.04    0.38
   5  -1   9    0.03    0.35
   5  -1   9    0.64    0.46
   5  -1   9    0.23    0.34
  -6   1  -9    3.39    1.52
  -6   1  -9    3.17    0.56
   6  -1   9    5.10    0.87
   6  -1   9    4.70    0.64
   6  -1   9    5.22    0.71
   6  -1   9    4.49    0.85
   7  -1   9    2.77    0.63
   8   0  -9   36.88    1.99
   8   0  -9   39.44    1.87
   8   0  -9   41.23    1.83
  -8   0   9   33.03    2.79
  -8   0   9   38.41    1.95
  -8   0   9   41.28    1.97
   7   0  -9   28.08    1.38
   7   0  -9   26.82    1.56
   7   0  -9   30.21    1.49
   7   0  -9   28.01    1.61
  -7   0   9   28.48    1.49
  -7   0   9   25.97    2.16
  -7   0   9   27.76    1.54
   6   0  -9   68.76    2.98
   6   0  -9   70.37    2.79
   6   0  -9   69.18    2.93
   6   0  -9   68.97    2.75
  -6   0   9   75.13    2.90
  -6   0   9   72.95    2.90
  -6   0   9   75.51    3.06
  -6   0   9   67.99    3.49
  -6   0   9   67.14    2.84
   5   0  -9  343.36   12.12
   5   0  -9  349.44   12.09
   5   0  -9  345.88   12.10
   5   0  -9  348.61   12.28
   5   0  -9  362.15   12.43
  -5   0   9  358.28   12.19
  -5   0   9  360.14   12.23
  -5   0   9  343.31   12.67
  -5   0   9  344.29   12.16
  -5   0   9  330.04   12.13
   4   0  -9    7.97    0.85
   4   0  -9    7.14    0.59
   4   0  -9    7.75    0.72
   4   0  -9    8.10    0.63
   4   0  -9    7.45    0.78
   4   0  -9    7.01    0.58
  -4   0   9    7.14    0.62
  -4   0   9    7.46    0.67
  -4   0   9    7.99    0.69
  -4   0   9    8.43    0.67
  -4   0   9    7.42    0.72
  -4   0   9    6.94    0.86
   3   0  -9  445.12   15.41
   3   0  -9  451.27   15.59
   3   0  -9  457.24   15.42
   3   0  -9  452.24   15.44
   3   0  -9  440.60   15.53
   3   0  -9  425.64   15.39
  -3   0   9  473.97   15.53
  -3   0   9  457.54   15.47
  -3   0   9  444.01   15.52
  -3   0   9  435.69   15.44
  -3   0   9  455.50   15.71
  -3   0   9  421.69   15.40
  -3   0   9  435.77   15.76
  -3   0   9  454.96   15.43
  -3   0   9  476.22   15.57
   2   0  -9  172.33    6.03
   2   0  -9  165.58    6.10
   2   0  -9  170.65    6.01
   2   0  -9  169.09    6.16
   2   0  -9  164.40    6.11
   2   0  -9  169.02    6.00
   2   0  -9  165.85    5.98
   2   0  -9  170.33    6.14
  -2   0   9  181.38    6.13
  -2   0   9  171.94    6.04
  -2   0   9  184.36    6.16
  -2   0   9  167.46    6.00
  -2   0   9  168.67    6.01
  -2   0   9  164.37    6.30
  -2   0   9  168.38    6.20
  -2   0   9  163.65    6.01
   1   0  -9  217.63    8.14
   1   0  -9  228.64    7.91
   1   0  -9  229.73    7.96
   1   0  -9  232.95    7.99
   1   0  -9  225.27    7.96
   1   0  -9  230.41    8.10
   1   0  -9  235.69    8.11
   1   0  -9  230.59    7.99
  -1   0   9  227.75    7.98
  -1   0   9  235.65    7.98
  -1   0   9  227.20    7.96
  -1   0   9  222.73    7.97
  -1   0   9  228.69    8.10
  -1   0   9  221.68    8.20
   0   0  -9  131.51    4.79
   0   0  -9  130.73    4.86
   0   0  -9  135.90    4.94
   0   0  -9  128.12    5.04
   0   0  -9  136.10    4.82
   0   0  -9  132.30    4.79
   0   0  -9  135.38    4.81
   0   0   9  136.61    4.80
   0   0   9  134.02    4.79
   0   0   9  135.49    4.90
   0   0   9  135.30    4.79
   0   0   9  135.04    4.79
   0   0   9  136.97    4.81
   0   0   9  133.03    4.99
  -1   0  -9   32.62    1.44
  -1   0  -9   32.04    1.44
  -1   0  -9   32.48    1.41
  -1   0  -9   33.56    1.60
  -1   0  -9   33.34    1.45
  -1   0  -9   33.46    1.44
  -1   0  -9   36.38    1.84
   1   0   9   34.15    1.44
   1   0   9   33.37    1.38
   1   0   9   33.10    1.43
   1   0   9   34.90    1.70
   1   0   9   33.78    1.62
   1   0   9   34.05    1.42
   1   0   9   33.72    1.44
   1   0   9   34.78    1.53
  -2   0  -9   35.51    1.52
  -2   0  -9   37.69    1.58
  -2   0  -9   36.48    2.02
  -2   0  -9   36.52    1.56
  -2   0  -9   34.68    1.59
  -2   0  -9   35.41    1.56
   2   0   9   35.67    1.55
   2   0   9   34.13    1.45
   2   0   9   37.38    1.71
   2   0   9   38.64    1.56
   2   0   9   35.71    1.54
   2   0   9   37.72    1.76
  -3   0  -9   28.41    1.35
  -3   0  -9   27.67    1.24
  -3   0  -9   28.12    1.34
  -3   0  -9   29.31    1.89
   3   0   9   28.35    1.49
   3   0   9   28.42    1.32
   3   0   9   28.77    1.33
   3   0   9   30.54    1.48
   3   0   9   28.67    1.27
   3   0   9   28.06    1.32
  -4   0  -9   17.49    0.88
  -4   0  -9   15.89    1.61
  -4   0  -9   17.01    1.02
  -4   0  -9   18.01    1.05
   4   0   9   16.86    0.99
   4   0   9   16.93    1.12
   4   0   9   17.03    1.13
   4   0   9   17.98    1.03
   4   0   9   18.44    0.99
   4   0   9   17.86    0.99
  -5   0  -9   10.75    0.89
  -5   0  -9    9.64    0.69
  -5   0  -9   12.65    0.91
  -5   0  -9   10.06    1.54
   5   0   9   11.18    0.87
   5   0   9   10.49    0.89
   5   0   9   10.86    0.89
   5   0   9   11.71    0.87
   5   0   9   11.03    0.97
   5   0   9   12.47    1.23
  -6   0  -9   13.73    1.12
  -6   0  -9   13.05    1.03
  -6   0  -9   14.44    2.02
   6   0   9   11.59    0.95
   6   0   9   11.32    1.03
   6   0   9   12.80    1.00
   6   0   9   12.20    1.09
  -7   0  -9    0.88    1.63
  -7   0  -9   -0.27    0.53
   7   0   9    0.22    0.53
   7   0   9   -0.16    0.61
   7   0   9   -0.08    0.42
   8  -1  -9   -0.15    0.54
   8  -1  -9    0.14    0.43
   8  -1  -9    0.60    0.43
   8  -1  -9    0.02    0.55
  -8   1   9    0.97    0.53
  -8   1   9    0.73    0.50
  -8   1   9    1.51    1.42
  -8   1   9    0.17    1.00
   7  -1  -9    1.03    0.56
   7  -1  -9    1.01    0.42
   7  -1  -9    1.09    0.42
   7  -1  -9    1.65    0.56
  -7   1   9    1.28    0.48
  -7   1   9    1.50    0.47
  -7   1   9    0.26    0.86
   6  -1  -9    2.04    0.42
   6  -1  -9    1.95    0.40
   6  -1  -9    2.50    0.44
   6  -1  -9    2.19    0.55
  -6   1   9    1.41    0.83
  -6   1   9    2.50    0.47
  -6   1   9    2.20    0.47
  -6   1   9    2.11    0.42
  -6   1   9    1.96    0.61
   5  -1  -9   13.15    0.84
   5  -1  -9   13.53    1.03
   5  -1  -9   15.09    0.88
   5  -1  -9   13.09    0.83
  -5   1   9   12.09    1.29
  -5   1   9   14.45    1.10
  -5   1   9   11.71    0.86
  -5   1   9   12.45    0.91
   4  -1  -9   26.68    1.42
   4  -1  -9   26.47    1.22
   4  -1  -9   26.60    1.28
   4  -1  -9   25.91    1.22
   4  -1  -9   26.94    1.25
  -4   1   9   24.69    1.45
  -4   1   9   25.98    1.25
  -4   1   9   26.13    1.26
  -4   1   9   27.55    1.30
  -4   1   9   25.24    1.59
   3  -1  -9   31.69    1.42
   3  -1  -9   32.87    1.49
   3  -1  -9   32.11    1.42
   3  -1  -9   33.18    1.59
   3  -1  -9   32.51    1.41
  -3   1   9   32.47    1.45
  -3   1   9   33.18    1.45
  -3   1   9   31.72    1.42
  -3   1   9   30.93    1.40
  -3   1   9   32.11    1.66
  -3   1   9   32.13    1.67
   2  -1  -9  118.75    4.35
   2  -1  -9  116.53    4.17
   2  -1  -9  115.90    4.19
   2  -1  -9  112.99    4.18
   2  -1  -9  108.98    4.28
   2  -1  -9  107.29    4.13
   2  -1  -9  114.01    4.32
   2  -1  -9  116.32    4.18
  -2   1   9  114.84    4.17
  -2   1   9  116.75    4.20
  -2   1   9  112.33    4.71
  -2   1   9  115.91    4.19
  -2   1   9  117.98    4.17
  -2   1   9  114.56    4.33
  -2   1   9  118.96    4.50
  -2   1   9  115.93    4.30
   1  -1  -9   84.56    3.26
   1  -1  -9   81.65    3.13
   1  -1  -9   80.25    3.12
   1  -1  -9   84.74    3.24
   1  -1  -9   83.60    3.16
   1  -1  -9   79.80    3.19
   1  -1  -9   84.81    3.23
  -1   1   9   85.19    3.49
  -1   1   9   85.52    3.16
  -1   1   9   83.34    3.20
  -1   1   9   92.81    3.24
  -1   1   9   84.00    3.15
  -1   1   9   88.57    3.14
  -1   1   9   81.45    3.53
  -1   1   9   86.27    3.14
   0  -1  -9   76.46    2.87
   0  -1  -9   75.35    2.97
   0  -1  -9   77.39    2.89
   0  -1  -9   71.34    2.85
   0  -1  -9   77.04    2.91
   0  -1  -9   77.35    2.89
   0  -1  -9   75.57    3.00
   0  -1  -9   78.95    2.95
   0   1   9   75.96    2.86
   0   1   9   74.00    3.20
   0   1   9   78.08    2.88
   0   1   9   75.90    2.87
   0   1   9   75.57    2.85
   0   1   9   76.14    2.86
   0   1   9   75.76    2.90
  -1  -1  -9  164.18    5.91
  -1  -1  -9  166.28    5.97
  -1  -1  -9  159.84    5.86
  -1  -1  -9  172.72    5.95
  -1  -1  -9  167.06    5.90
  -1  -1  -9  168.17    5.95
  -1  -1  -9  165.52    6.11
  -1  -1  -9  171.59    5.91
   1   1   9  157.86    5.89
   1   1   9  161.58    6.41
   1   1   9  168.36    5.88
   1   1   9  159.17    5.88
   1   1   9  160.60    5.87
   1   1   9  166.95    5.88
   1   1   9  165.78    5.87
   1   1   9  165.33    5.87
  -2  -1  -9    5.34    0.64
  -2  -1  -9    6.54    0.60
  -2  -1  -9    5.50    0.62
  -2  -1  -9    5.97    0.59
   2   1   9    6.51    0.66
   2   1   9    6.79    0.96
   2   1   9    5.91    0.58
   2   1   9    6.50    0.61
   2   1   9    6.11    0.61
   2   1   9    6.29    0.66
  -3  -1  -9   48.10    2.06
  -3  -1  -9   49.11    2.03
  -3  -1  -9   48.86    2.05
  -3  -1  -9   50.10    2.29
   3   1   9   48.80    2.03
   3   1   9   48.88    2.04
   3   1   9   49.62    2.03
   3   1   9   47.74    2.22
   3   1   9   54.12    2.38
   3   1   9   49.93    2.10
   3   1   9   48.58    2.03
  -4  -1  -9   19.67    1.14
  -4  -1  -9   19.04    1.04
  -4  -1  -9   21.54    1.39
  -4  -1  -9   18.39    1.10
   4   1   9   20.57    1.05
   4   1   9   19.04    1.08
   4   1   9   19.35    1.09
   4   1   9   18.70    1.28
   4   1   9   18.23    1.16
  -5  -1  -9    0.61    0.36
  -5  -1  -9    0.36    0.40
  -5  -1  -9    0.58    0.42
   5   1   9    0.62    0.38
   5   1   9    0.12    0.35
   5   1   9    0.81    0.55
   5   1   9    0.39    0.72
  -6  -1  -9    4.56    0.67
  -6  -1  -9    3.58    0.61
  -6  -1  -9    3.87    0.60
   6   1   9    4.79    0.73
   6   1   9    4.90    0.88
   6   1   9    3.26    0.53
   6   1   9    4.64    0.62
   7   1   9    1.98    0.55
   8  -2  -9    4.27    0.72
   8  -2  -9    3.52    0.63
   8  -2  -9    4.26    0.80
  -8   2   9    3.03    1.87
  -8   2   9    3.78    0.65
  -8   2   9    4.20    1.35
   7  -2  -9   14.69    1.03
   7  -2  -9   16.52    1.07
   7  -2  -9   16.68    1.37
  -7   2   9   11.21    1.86
  -7   2   9   12.41    1.61
  -7   2   9   13.98    2.08
  -7   2   9   14.86    1.10
   6  -2  -9   19.26    1.11
   6  -2  -9   20.20    1.11
   6  -2  -9   19.08    1.27
  -6   2   9   18.04    1.75
  -6   2   9   19.24    1.15
  -6   2   9   15.81    2.03
  -6   2   9   19.33    1.16
  -6   2   9   18.99    1.62
   5  -2  -9   52.93    2.14
   5  -2  -9   54.37    2.16
   5  -2  -9   52.43    2.31
   5  -2  -9   51.66    2.18
   5  -2  -9   54.74    2.14
  -5   2   9   48.52    2.54
  -5   2   9   52.02    2.19
  -5   2   9   48.61    2.63
  -5   2   9   45.91    2.94
  -5   2   9   51.96    2.15
   4  -2  -9   14.32    0.88
   4  -2  -9   15.20    0.84
   4  -2  -9   14.37    0.88
   4  -2  -9   15.40    0.90
   4  -2  -9   14.81    1.11
  -4   2   9   15.05    1.24
  -4   2   9   13.43    0.89
  -4   2   9   13.48    1.18
  -4   2   9   14.45    0.99
   3  -2  -9  242.53    8.40
   3  -2  -9  226.62    8.54
   3  -2  -9  238.50    8.34
   3  -2  -9  241.98    8.41
  -3   2   9  249.93    8.41
  -3   2   9  231.85    8.63
  -3   2   9  233.68    8.58
  -3   2   9  237.15    8.85
  -3   2   9  249.68    8.42
   2  -2  -9   12.61    0.79
   2  -2  -9   11.91    0.77
   2  -2  -9   11.67    0.76
   2  -2  -9   11.23    0.94
   2  -2  -9   10.69    0.87
  -2   2   9    9.84    0.89
  -2   2   9   12.16    0.89
  -2   2   9   12.54    0.77
  -2   2   9   10.40    1.10
  -2   2   9   11.51    0.71
   1  -2  -9  264.39    9.24
   1  -2  -9  284.30    9.50
   1  -2  -9  263.29    9.27
   1  -2  -9  267.47    9.51
   1  -2  -9  268.35    9.29
   1  -2  -9  251.70    9.35
   1  -2  -9  266.90    9.52
  -1   2   9  252.20    9.78
  -1   2   9  270.69    9.27
  -1   2   9  256.77    9.77
  -1   2   9  267.03    9.23
   0  -2  -9  125.50    4.43
   0  -2  -9  120.63    4.49
   0  -2  -9  123.07    4.59
   0  -2  -9  118.14    4.38
   0  -2  -9  124.06    4.43
   0  -2  -9  123.99    4.51
   0   2   9  115.53    4.96
   0   2   9  122.41    4.41
   0   2   9  122.29    4.40
   0   2   9  111.72    4.88
   0   2   9  115.54    4.29
   0   2   9  123.51    4.38
  -1  -2  -9   84.65    3.33
  -1  -2  -9   83.44    3.18
  -1  -2  -9   84.66    3.16
  -1  -2  -9   83.70    3.24
  -1  -2  -9   85.31    3.19
  -1  -2  -9   81.08    3.21
   1   2   9   91.97    3.23
   1   2   9   75.30    3.75
   1   2   9   87.26    3.18
   1   2   9   86.05    3.16
   1   2   9   88.72    3.19
   1   2   9   82.59    3.34
   1   2   9   71.51    3.60
  -2  -2  -9   90.48    3.49
  -2  -2  -9   91.48    3.48
  -2  -2  -9   91.81    3.59
  -2  -2  -9   93.12    3.49
  -2  -2  -9   89.69    3.43
  -2  -2  -9   95.36    3.48
   2   2   9   96.82    3.62
   2   2   9   91.57    3.43
   2   2   9   92.04    3.66
   2   2   9   75.49    3.81
   2   2   9   92.46    3.43
  -3  -2  -9    1.51    0.44
  -3  -2  -9    0.64    0.39
  -3  -2  -9    0.51    0.36
  -3  -2  -9    1.24    0.36
   3   2   9    1.17    0.36
   3   2   9    1.08    0.38
   3   2   9    1.09    0.73
   3   2   9    2.11    0.62
   3   2   9    0.96    0.59
  -4  -2  -9   17.76    1.08
  -4  -2  -9   18.10    1.16
  -4  -2  -9   16.47    1.09
  -4  -2  -9   16.48    1.13
   4   2   9   17.46    1.05
   4   2   9   16.60    1.05
   4   2   9   18.45    1.46
   4   2   9   15.30    1.44
   4   2   9   17.51    1.35
  -5  -2  -9    1.78    0.55
  -5  -2  -9    2.15    0.48
  -5  -2  -9    2.53    0.55
   5   2   9    1.72    0.47
   5   2   9    1.59    0.81
   5   2   9    1.92    0.49
   5   2   9    2.32    0.77
  -6  -2  -9    2.01    0.55
  -6  -2  -9    1.86    0.57
  -6  -2  -9    0.91    0.62
   6   2   9    1.34    0.85
   6   2   9    1.21    0.52
   6   2   9    0.89    0.84
   7  -3  -9    7.02    0.95
   7  -3  -9    7.39    1.11
   7  -3  -9    6.12    0.75
  -7   3   9    6.14    1.90
  -7   3   9    5.80    1.39
   6  -3  -9   17.06    1.06
   6  -3  -9   16.33    1.44
   6  -3  -9   17.81    1.17
  -6   3   9   15.19    1.02
  -6   3   9   16.58    1.86
  -6   3   9   17.51    2.22
   5  -3  -9    6.77    0.77
   5  -3  -9    7.17    1.00
   5  -3  -9    6.49    0.70
  -5   3   9    9.53    1.64
  -5   3   9    6.87    0.68
  -5   3   9    6.47    1.22
   4  -3  -9   55.46    2.19
   4  -3  -9   55.77    2.20
   4  -3  -9   52.13    2.26
   4  -3  -9   51.55    2.38
  -4   3   9   48.90    2.74
  -4   3   9   50.91    2.98
  -4   3   9   53.08    2.18
  -4   3   9   50.87    2.09
  -4   3   9   54.96    2.14
   3  -3  -9   22.38    1.33
   3  -3  -9   23.36    1.18
   3  -3  -9   21.63    1.14
   3  -3  -9   23.26    1.16
   3  -3  -9   23.45    0.97
  -3   3   9   21.60    1.78
  -3   3   9   22.06    1.07
  -3   3   9   20.60    1.12
  -3   3   9   26.10    1.86
  -3   3   9   22.54    1.09
   2  -3  -9   39.59    1.92
   2  -3  -9   39.69    1.72
   2  -3  -9   39.98    1.73
   2  -3  -9   39.53    1.72
  -2   3   9   38.79    2.37
  -2   3   9   40.57    1.67
  -2   3   9   40.30    1.64
  -2   3   9   39.40    1.71
  -2   3   9   43.37    2.27
   1  -3  -9   26.71    1.32
   1  -3  -9   30.50    1.54
   1  -3  -9   29.48    1.36
   1  -3  -9   28.27    1.40
  -1   3   9   30.16    1.25
  -1   3   9   28.77    1.31
  -1   3   9   28.40    2.01
  -1   3   9   28.62    1.67
  -1   3   9   27.44    1.31
   0  -3  -9    4.87    0.57
   0  -3  -9    4.68    0.74
   0  -3  -9    4.88    0.64
   0  -3  -9    4.88    0.59
   0   3   9    4.29    0.59
   0   3   9    5.60    0.49
   0   3   9    4.98    0.55
   0   3   9    5.36    0.81
   0   3   9    6.01    1.11
  -1  -3  -9    6.75    0.67
  -1  -3  -9    6.18    0.77
  -1  -3  -9    5.64    0.69
  -1  -3  -9    6.08    0.70
   1   3   9    5.98    1.15
   1   3   9    7.04    0.60
   1   3   9    5.97    0.64
   1   3   9    5.92    0.64
   1   3   9    5.08    1.02
  -2  -3  -9    3.15    0.57
  -2  -3  -9    3.49    0.51
  -2  -3  -9    3.22    0.51
   2   3   9    3.91    0.53
   2   3   9    3.60    0.50
   2   3   9    1.43    0.95
   2   3   9    3.77    0.83
   2   3   9    4.31    0.93
  -3  -3  -9    0.77    0.41
  -3  -3  -9    0.79    0.47
  -3  -3  -9    1.16    0.45
   3   3   9    0.23    1.00
   3   3   9    0.66    0.44
   3   3   9    1.60    0.84
   3   3   9    0.62    0.66
   3   3   9    1.31    0.48
  -4  -3  -9   -0.78    0.44
  -4  -3  -9   -0.47    0.41
  -4  -3  -9   -0.43    0.41
   4   3   9    1.36    0.97
   4   3   9    0.07    0.70
   4   3   9   -2.00    1.12
   4   3   9   -0.12    0.41
  -5  -3  -9    0.98    0.56
  -5  -3  -9    1.43    0.57
  -5  -3  -9    1.27    0.61
   5   3   9    0.85    0.48
   5   3   9    0.65    0.90
   5  -4  -9    9.12    0.89
   5  -4  -9   10.63    0.97
   5  -4  -9    9.14    1.27
  -5   4   9   12.63    2.07
  -5   4   9   14.18    2.20
   4  -4  -9    3.48    0.56
   4  -4  -9    3.56    0.54
   4  -4  -9    4.18    0.79
  -4   4   9    5.95    1.42
  -4   4   9    5.07    1.28
   3  -4  -9   20.96    1.22
   3  -4  -9   22.06    1.16
   3  -4  -9   20.94    1.45
  -3   4   9   21.26    2.09
  -3   4   9   21.27    2.13
   2  -4  -9    3.76    0.71
   2  -4  -9    3.72    0.49
   2  -4  -9    3.00    0.54
  -2   4   9    2.94    1.01
  -2   4   9    5.39    1.25
   1  -4  -9   26.42    1.59
   1  -4  -9   24.06    1.31
   1  -4  -9   27.22    1.38
  -1   4   9   28.81    1.86
  -1   4   9   27.96    2.36
   0  -4  -9    9.86    1.07
   0  -4  -9    9.54    0.87
   0  -4  -9   10.45    0.85
   0   4   9    9.78    1.57
   0   4   9   10.25    1.15
  -1  -4  -9    4.97    0.61
  -1  -4  -9    6.02    0.81
  -1  -4  -9    5.30    0.78
   1   4   9    4.82    1.19
   1   4   9    7.60    1.38
  -2  -4  -9   16.52    1.30
  -2  -4  -9   16.24    1.14
  -2  -4  -9   15.29    1.09
   2   4   9   16.83    2.19
   2   4   9   15.80    2.10
  -3  -4  -9    3.51    0.64
  -3  -4  -9    2.92    0.58
  -3  -4  -9    3.07    0.74
   3   4   9    2.54    0.92
   3   4   9    3.10    1.44
  -4  -4  -9    2.66    0.71
  -4  -4  -9    1.96    0.73
  -4  -4  -9    2.89    0.85
   4   4   9    1.05    1.51
   4   4   9    1.43    1.12
   2  -5  -9    7.98    1.03
   2  -5  -9    8.21    0.94
   2  -5  -9    7.46    1.18
  -2   5   9    6.93    2.14
   1  -5  -9    0.11    0.78
   1  -5  -9    0.38    0.51
   1  -5  -9    0.61    0.56
  -1   5   9    2.42    1.79
   0  -5  -9    2.40    0.62
   0  -5  -9    3.29    1.01
   0   5   9    2.23    1.77
   5   4 -10   10.16    1.87
   5   4 -10    9.30    1.63
  -5  -4  10    8.34    1.03
  -5  -4  10   12.89    1.93
  -5  -4  10   11.60    1.23
   4   4 -10    0.81    0.96
   4   4 -10   -0.72    0.85
  -4  -4  10   -0.45    0.82
  -4  -4  10    0.29    0.55
  -4  -4  10    0.46    0.40
   3   4 -10   19.63    1.87
   3   4 -10   20.19    1.53
  -3  -4  10   22.17    1.86
  -3  -4  10   16.80    1.05
  -3  -4  10   19.73    1.40
   2   4 -10   18.33    1.71
   2   4 -10   18.98    1.34
  -2  -4  10   19.20    1.69
  -2  -4  10   17.62    1.00
  -2  -4  10   18.30    1.34
  -2  -4  10   19.81    1.20
   1   4 -10    3.65    1.01
   1   4 -10    2.23    1.02
  -1  -4  10    3.01    0.50
  -1  -4  10    2.50    0.83
  -1  -4  10    3.43    0.45
  -1  -4  10    3.70    0.82
   0   4 -10   15.25    1.60
   0   4 -10   12.06    1.93
   0  -4  10   15.53    0.94
   0  -4  10   12.52    0.84
   0  -4  10   15.50    1.51
   0  -4  10   14.10    1.15
  -1   4 -10    1.00    1.20
  -1   4 -10    3.19    0.89
   1  -4  10    2.62    0.87
   1  -4  10    2.34    0.51
   1  -4  10    2.73    0.66
   1  -4  10    1.72    0.39
  -2   4 -10    0.80    1.33
  -2   4 -10    1.73    0.83
   2  -4  10    0.87    0.39
   2  -4  10    0.49    0.59
   2  -4  10   -0.25    0.70
  -3   4 -10   -0.91    1.72
   3  -4  10    0.44    0.89
   3  -4  10    0.49    0.42
   3  -4  10    0.69    0.67
   3  -4  10   -0.09    0.48
   7   3 -10    1.97    1.26
   7   3 -10    0.33    0.97
  -7  -3  10    1.33    0.73
  -7  -3  10    0.58    0.69
  -7  -3  10    2.16    1.35
   6   3 -10    9.61    1.55
   6   3 -10   11.96    1.81
  -6  -3  10   13.63    1.21
  -6  -3  10   11.97    1.01
  -6  -3  10   11.13    1.66
   5   3 -10   10.16    1.36
   5   3 -10    9.97    1.49
  -5  -3  10   10.34    0.89
  -5  -3  10   11.38    1.43
  -5  -3  10    7.71    1.00
   4   3 -10   26.59    1.74
   4   3 -10   21.64    1.17
   4   3 -10   25.35    1.87
  -4  -3  10   25.19    1.51
  -4  -3  10   26.13    1.38
  -4  -3  10   26.56    1.84
  -4  -3  10   25.38    1.32
   3   3 -10    6.50    1.14
   3   3 -10    7.51    0.93
  -3  -3  10    7.53    0.98
  -3  -3  10    7.23    1.05
  -3  -3  10    6.23    0.60
  -3  -3  10    6.62    0.78
  -3  -3  10    5.84    1.00
  -3  -3  10    5.73    0.66
   2   3 -10   35.39    1.62
   2   3 -10   34.17    1.45
   2   3 -10   31.24    2.10
   2   3 -10   34.38    2.16
  -2  -3  10   33.34    1.51
  -2  -3  10   34.64    1.48
  -2  -3  10   35.47    1.55
  -2  -3  10   35.05    1.70
  -2  -3  10   35.55    1.60
  -2  -3  10   33.30    1.97
   1   3 -10   27.54    1.93
   1   3 -10   27.61    1.97
   1   3 -10   28.08    1.33
   1   3 -10   27.52    1.23
  -1  -3  10   26.24    1.29
  -1  -3  10   27.32    1.46
  -1  -3  10   27.90    1.27
  -1  -3  10   28.64    1.26
  -1  -3  10   30.01    1.32
  -1  -3  10   29.77    1.28
  -1  -3  10   29.11    1.73
   0   3 -10   39.91    2.56
   0   3 -10   40.96    1.69
   0   3 -10   37.79    3.10
   0  -3  10   42.51    2.15
   0  -3  10   43.47    1.72
   0  -3  10   41.81    1.69
   0  -3  10   41.27    1.62
   0  -3  10   41.53    1.89
   0  -3  10   41.38    1.73
  -1   3 -10   39.31    2.70
  -1   3 -10   41.01    2.37
   1  -3  10   41.81    1.92
   1  -3  10   41.12    1.74
   1  -3  10   42.28    2.18
   1  -3  10   41.75    1.72
   1  -3  10   41.74    1.70
  -2   3 -10    1.68    1.06
  -2   3 -10    2.26    0.74
   2  -3  10    1.20    0.37
   2  -3  10    0.97    0.61
   2  -3  10    1.32    0.40
   2  -3  10    2.45    0.59
  -3   3 -10   31.98    1.80
  -3   3 -10   26.69    2.68
   3  -3  10   27.88    1.85
   3  -3  10   27.44    1.36
   3  -3  10   29.95    1.63
   3  -3  10   27.39    1.36
  -4   3 -10    4.84    1.68
   4  -3  10    4.49    0.74
   4  -3  10    4.79    0.61
   4  -3  10    5.60    0.74
  -5   3 -10    2.38    2.24
   5  -3  10    1.82    0.64
   5  -3  10    2.33    0.87
   5  -3  10    4.14    0.64
   8   2 -10    6.11    1.53
   8   2 -10    4.82    0.69
   8   2 -10    4.59    1.02
  -8  -2  10    4.11    0.80
  -8  -2  10    4.40    1.96
  -8  -2  10    3.30    0.93
   7   2 -10    1.65    0.46
   7   2 -10    1.38    0.78
  -7  -2  10    1.44    0.62
  -7  -2  10    1.66    0.56
  -7  -2  10    0.38    0.86
   6   2 -10   16.77    1.01
   6   2 -10   14.11    1.63
   6   2 -10   14.60    1.38
  -6  -2  10   15.86    1.58
  -6  -2  10   16.37    1.13
  -6  -2  10   16.06    1.16
   5   2 -10   43.21    1.92
   5   2 -10   44.05    2.41
   5   2 -10   46.29    1.87
   5   2 -10   48.78    2.14
   5   2 -10   42.50    2.36
  -5  -2  10   41.74    2.17
  -5  -2  10   43.75    1.98
  -5  -2  10   42.68    2.40
  -5  -2  10   43.66    1.97
   4   2 -10    2.68    0.40
   4   2 -10    2.75    0.42
   4   2 -10    4.08    0.62
   4   2 -10    3.53    0.43
   4   2 -10    4.55    0.79
   4   2 -10    3.39    0.84
  -4  -2  10    3.20    0.53
  -4  -2  10    3.40    0.49
  -4  -2  10    2.54    0.43
  -4  -2  10    2.50    0.67
  -4  -2  10    3.57    0.68
   3   2 -10   85.31    3.08
   3   2 -10   80.93    3.10
   3   2 -10   69.58    3.31
   3   2 -10   80.29    3.83
   3   2 -10   86.39    3.36
   3   2 -10   83.81    3.07
  -3  -2  10   87.29    3.17
  -3  -2  10   83.98    3.18
  -3  -2  10   83.63    3.54
  -3  -2  10   81.73    3.34
  -3  -2  10   86.47    3.13
   2   2 -10   59.93    2.26
   2   2 -10   55.76    2.70
   2   2 -10   52.15    2.17
   2   2 -10   49.83    2.78
   2   2 -10   56.86    2.15
   2   2 -10   57.64    2.15
  -2  -2  10   56.86    2.36
  -2  -2  10   57.05    2.21
  -2  -2  10   55.55    2.56
  -2  -2  10   56.57    2.22
  -2  -2  10   54.31    2.39
  -2  -2  10   55.48    2.23
  -2  -2  10   57.17    2.43
   1   2 -10   35.80    1.52
   1   2 -10   38.58    1.54
   1   2 -10   38.62    1.61
   1   2 -10   38.85    2.16
  -1  -2  10   37.28    1.91
  -1  -2  10   39.87    1.58
  -1  -2  10   38.61    1.60
  -1  -2  10   37.79    1.63
  -1  -2  10   35.89    1.57
  -1  -2  10   36.79    1.58
  -1  -2  10   39.36    1.78
   0   2 -10   27.72    1.88
   0   2 -10   27.36    1.26
   0   2 -10   28.90    1.22
   0   2 -10   28.56    1.19
   0  -2  10   27.23    1.44
   0  -2  10   28.63    1.27
   0  -2  10   27.09    1.26
   0  -2  10   28.81    1.30
   0  -2  10   27.07    1.24
   0  -2  10   29.53    1.20
  -1   2 -10    3.90    0.43
  -1   2 -10    5.39    0.50
  -1   2 -10    5.48    0.52
  -1   2 -10    4.76    1.09
  -1   2 -10    3.06    0.80
   1  -2  10    4.64    0.79
   1  -2  10    4.37    0.47
   1  -2  10    5.47    0.58
   1  -2  10    3.67    0.46
   1  -2  10    4.72    0.72
   1  -2  10    4.38    0.35
  -2   2 -10   29.79    1.28
  -2   2 -10   28.83    2.24
  -2   2 -10   31.17    1.78
  -2   2 -10   25.90    1.86
  -2   2 -10   31.73    1.33
   2  -2  10   30.23    1.36
   2  -2  10   30.55    1.35
   2  -2  10   31.92    1.70
   2  -2  10   29.34    1.54
   2  -2  10   31.52    1.39
  -3   2 -10    1.16    0.31
  -3   2 -10    0.69    0.34
  -3   2 -10    0.22    0.28
  -3   2 -10   -0.01    0.95
  -3   2 -10    1.19    0.61
   3  -2  10    0.00    0.30
   3  -2  10    0.83    0.36
   3  -2  10    0.79    0.50
  -4   2 -10   10.94    2.00
  -4   2 -10   12.50    1.08
  -4   2 -10    9.76    0.81
   4  -2  10   10.62    0.83
   4  -2  10   10.05    0.80
   4  -2  10    8.96    1.02
  -5   2 -10    2.96    0.76
   5  -2  10    1.92    0.48
   5  -2  10    3.02    0.54
   5  -2  10    2.92    0.66
  -6   2 -10    1.94    3.19
   6  -2  10    0.13    0.56
   6  -2  10    1.00    0.82
   6  -2  10   -0.53    0.50
   8   1 -10    6.65    1.28
   8   1 -10    6.22    0.72
  -8  -1  10    8.07    0.99
  -8  -1  10    5.67    0.85
  -8  -1  10    3.98    1.32
   7   1 -10   15.54    1.34
   7   1 -10   15.42    1.08
   7   1 -10   16.94    1.01
  -7  -1  10   15.65    1.20
  -7  -1  10   15.25    1.15
  -7  -1  10   12.86    1.64
   6   1 -10   78.08    3.01
   6   1 -10   75.01    3.35
   6   1 -10   76.44    2.98
  -6  -1  10   75.09    3.10
  -6  -1  10   73.71    3.62
  -6  -1  10   79.69    3.13
   5   1 -10    6.02    0.63
   5   1 -10    8.31    0.69
   5   1 -10    7.33    1.05
   5   1 -10    6.79    0.85
  -5  -1  10    8.21    0.77
  -5  -1  10    7.53    0.78
  -5  -1  10    7.24    0.99
  -5  -1  10    5.66    0.98
  -5  -1  10    7.47    0.68
   4   1 -10  205.43    7.11
   4   1 -10  191.02    7.34
   4   1 -10  199.03    7.60
   4   1 -10  204.50    7.14
  -4  -1  10  202.12    7.18
  -4  -1  10  202.07    7.20
  -4  -1  10  192.73    7.42
  -4  -1  10  195.15    7.52
  -4  -1  10  212.92    7.44
  -4  -1  10  204.37    7.15
   3   1 -10  129.24    5.29
   3   1 -10  143.77    5.12
   3   1 -10  134.58    5.61
   3   1 -10  149.21    5.09
   3   1 -10  131.30    5.32
   3   1 -10  139.80    5.06
  -3  -1  10  147.92    5.16
  -3  -1  10  143.07    5.25
  -3  -1  10  139.83    5.39
  -3  -1  10  142.99    5.13
  -3  -1  10  147.22    5.39
  -3  -1  10  147.21    5.44
  -3  -1  10  144.24    5.11
   2   1 -10  179.41    6.15
   2   1 -10  146.91    6.37
   2   1 -10  143.80    6.55
   2   1 -10  179.23    6.05
   2   1 -10  170.20    6.36
   2   1 -10  166.14    6.24
   2   1 -10  174.32    6.03
   2   1 -10  146.56    6.19
   2   1 -10  197.17    7.08
  -2  -1  10  182.62    6.37
  -2  -1  10  164.37    6.19
  -2  -1  10  178.21    6.10
  -2  -1  10  178.86    6.10
  -2  -1  10  168.25    6.27
  -2  -1  10  172.61    6.06
  -2  -1  10  170.26    6.31
  -2  -1  10  173.64    6.07
   1   1 -10  251.71    8.58
   1   1 -10  249.88    9.22
   1   1 -10  231.12    8.58
   1   1 -10  242.62    8.61
   1   1 -10  246.06    8.57
   1   1 -10  235.46    8.95
  -1  -1  10  244.48    8.81
  -1  -1  10  257.49    8.61
  -1  -1  10  247.76    8.60
  -1  -1  10  242.41    8.58
  -1  -1  10  238.85    8.58
  -1  -1  10  244.18    8.77
  -1  -1  10  264.36    8.96
  -1  -1  10  245.01    8.61
   0   1 -10   11.87    1.16
   0   1 -10   12.15    0.72
   0   1 -10   11.68    0.79
   0   1 -10   13.87    0.78
   0  -1  10   12.07    0.97
   0  -1  10   13.21    0.76
   0  -1  10   12.87    0.77
   0  -1  10   12.83    0.89
   0  -1  10   13.87    1.06
   0  -1  10   12.25    0.78
   0  -1  10   12.31    0.96
   0  -1  10   13.33    0.70
  -1   1 -10  204.81    7.04
  -1   1 -10  202.20    7.03
  -1   1 -10  195.43    7.04
  -1   1 -10  196.30    7.60
   1  -1  10  195.45    7.59
   1  -1  10  197.60    7.03
   1  -1  10  203.03    7.24
   1  -1  10  201.47    6.92
   1  -1  10  195.59    7.16
   1  -1  10  195.81    7.00
   1  -1  10  203.82    7.04
  -2   1 -10    9.46    1.29
  -2   1 -10    8.27    0.74
  -2   1 -10    8.11    0.70
  -2   1 -10    7.72    0.67
  -2   1 -10    7.41    0.73
   2  -1  10    7.15    0.84
   2  -1  10    8.49    0.86
   2  -1  10    9.16    0.71
   2  -1  10    7.97    0.66
   2  -1  10    9.56    0.71
  -3   1 -10   34.36    2.31
  -3   1 -10   35.58    1.59
  -3   1 -10   34.98    1.64
   3  -1  10   34.90    2.01
   3  -1  10   37.69    1.60
   3  -1  10   35.23    1.78
  -4   1 -10    5.30    0.72
  -4   1 -10    3.98    1.11
   4  -1  10    4.34    0.52
   4  -1  10    4.21    0.56
   4  -1  10    4.41    0.64
   4  -1  10    4.91    0.67
  -5   1 -10    8.51    0.84
  -5   1 -10    7.39    1.07
  -5   1 -10    7.06    1.53
   5  -1  10    8.51    0.82
   5  -1  10    7.95    0.78
   5  -1  10    8.58    0.94
  -6   1 -10    2.86    0.59
  -6   1 -10    1.93    1.60
   6  -1  10    1.68    0.58
   6  -1  10    1.77    0.67
   6  -1  10    2.66    0.55
   8   0 -10    4.22    0.63
   8   0 -10    7.33    0.93
   8   0 -10    5.96    1.04
  -8   0  10    5.22    0.73
  -8   0  10    5.29    1.42
  -8   0  10    4.51    0.75
   7   0 -10    9.05    0.78
   7   0 -10    8.56    0.89
   7   0 -10    6.98    0.97
  -7   0  10    7.88    0.87
  -7   0  10    5.67    1.13
  -7   0  10    7.82    0.84
   6   0 -10    3.52    0.62
   6   0 -10    3.68    0.55
   6   0 -10    3.90    0.53
   6   0 -10    4.28    0.77
  -6   0  10    3.14    0.55
  -6   0  10    3.92    0.65
  -6   0  10    4.37    0.63
  -6   0  10    4.11    0.93
  -6   0  10    4.11    0.60
   5   0 -10   27.85    1.35
   5   0 -10   23.81    1.99
   5   0 -10   28.84    1.36
   5   0 -10   30.93    1.70
  -5   0  10   29.88    1.44
  -5   0  10   28.78    1.43
  -5   0  10   27.63    1.37
  -5   0  10   27.66    1.43
  -5   0  10   26.75    1.84
   4   0 -10    4.31    0.56
   4   0 -10    5.41    0.78
   4   0 -10    3.68    0.53
   4   0 -10    4.95    0.58
  -4   0  10    4.57    0.65
  -4   0  10    4.04    0.51
  -4   0  10    4.23    0.75
  -4   0  10    4.91    0.60
  -4   0  10    4.72    0.67
  -4   0  10    4.72    0.56
   3   0 -10   73.96    2.87
   3   0 -10   74.95    3.01
   3   0 -10   77.19    2.90
   3   0 -10   76.53    2.88
   3   0 -10   77.89    3.08
  -3   0  10   80.64    2.99
  -3   0  10   73.35    3.15
  -3   0  10   79.07    2.94
  -3   0  10   69.28    3.22
  -3   0  10   74.94    2.91
  -3   0  10   73.76    3.01
  -3   0  10   76.62    2.96
   2   0 -10    2.47    0.65
   2   0 -10    1.35    0.34
   2   0 -10    0.84    0.26
   2   0 -10    0.94    0.34
   2   0 -10    1.30    0.32
   2   0 -10    1.67    0.46
   2   0 -10    1.23    0.46
   2   0 -10    0.86    0.32
  -2   0  10    1.51    0.59
  -2   0  10    1.27    0.34
  -2   0  10    0.66    0.39
  -2   0  10    0.48    0.38
  -2   0  10    0.88    0.34
  -2   0  10    0.83    0.31
  -2   0  10    1.44    0.32
  -2   0  10    1.30    0.42
   1   0 -10   92.96    3.47
   1   0 -10   91.55    3.55
   1   0 -10   97.20    3.59
   1   0 -10   96.62    3.78
   1   0 -10   95.83    3.57
   1   0 -10  101.19    3.72
   1   0 -10   93.91    3.71
   1   0 -10  101.30    3.61
  -1   0  10   97.69    3.58
  -1   0  10   95.64    3.85
  -1   0  10  100.73    3.60
  -1   0  10   96.54    3.57
  -1   0  10   94.47    3.56
  -1   0  10  100.08    3.60
  -1   0  10   96.92    3.71
   0   0 -10   45.50    1.87
   0   0 -10   45.82    1.87
   0   0 -10   48.23    1.91
   0   0 -10   44.37    1.95
   0   0 -10   45.17    2.16
   0   0 -10   44.05    1.85
   0   0  10   46.88    2.14
   0   0  10   45.85    1.87
   0   0  10   45.15    2.03
   0   0  10   47.20    1.88
   0   0  10   45.01    1.86
   0   0  10   45.63    1.97
   0   0  10   47.61    1.85
  -1   0 -10   54.56    2.58
  -1   0 -10   56.35    2.22
  -1   0 -10   51.31    2.19
  -1   0 -10   56.28    2.21
  -1   0 -10   55.40    2.21
   1   0  10   55.83    2.19
   1   0  10   56.87    2.30
   1   0  10   54.56    2.37
   1   0  10   55.41    2.20
   1   0  10   54.19    2.18
   1   0  10   54.64    2.46
   1   0  10   56.02    2.15
  -2   0 -10   47.39    2.01
  -2   0 -10   49.28    2.50
  -2   0 -10   50.19    2.14
  -2   0 -10   47.64    1.97
  -2   0 -10   49.45    2.03
   2   0  10   48.96    2.00
   2   0  10   48.51    1.84
   2   0  10   48.89    2.00
   2   0  10   49.32    2.19
   2   0  10   50.39    2.02
   2   0  10   46.93    2.20
  -3   0 -10    0.99    0.35
  -3   0 -10    0.78    0.38
  -3   0 -10    1.74    0.77
  -3   0 -10    1.60    0.41
   3   0  10    0.99    0.52
   3   0  10    1.44    0.55
   3   0  10    1.36    0.37
   3   0  10    0.82    0.28
   3   0  10    1.11    0.36
   3   0  10    0.80    0.42
  -4   0 -10    7.49    0.63
  -4   0 -10    8.29    1.48
  -4   0 -10    6.91    0.77
  -4   0 -10    8.46    0.79
   4   0  10    8.72    0.73
   4   0  10    8.43    0.92
   4   0  10    8.26    0.77
   4   0  10    7.49    0.75
   4   0  10    7.04    0.74
   4   0  10    9.27    0.99
  -5   0 -10    4.11    0.59
  -5   0 -10    4.29    0.60
  -5   0 -10    4.98    1.20
  -5   0 -10    4.94    0.56
   5   0  10    3.68    0.64
   5   0  10    4.27    0.57
   5   0  10    4.52    0.59
   5   0  10    4.18    0.73
  -6   0 -10    2.37    0.55
  -6   0 -10    2.14    1.30
   6   0  10    2.74    0.61
   6   0  10    3.01    0.57
   6   0  10    1.96    0.54
   8  -1 -10    6.45    0.93
   8  -1 -10    5.64    0.72
   8  -1 -10    6.94    1.16
   8  -1 -10    6.44    0.88
  -8   1  10    6.00    0.78
  -8   1  10    3.60    1.85
  -8   1  10    3.89    1.36
   7  -1 -10   14.00    1.18
   7  -1 -10   16.53    1.06
   7  -1 -10   13.41    1.14
   7  -1 -10   14.81    1.02
  -7   1  10   14.16    1.15
  -7   1  10   15.05    1.09
  -7   1  10   10.68    1.82
   6  -1 -10   72.99    2.88
   6  -1 -10   69.26    3.21
   6  -1 -10   75.54    3.08
   6  -1 -10   69.23    2.87
  -6   1  10   74.16    2.96
  -6   1  10   75.76    2.98
  -6   1  10   71.57    3.14
   5  -1 -10    5.68    0.82
   5  -1 -10    6.69    0.68
   5  -1 -10    7.05    0.69
   5  -1 -10    6.87    0.66
  -5   1  10    6.17    0.73
  -5   1  10    5.91    0.67
  -5   1  10    6.09    1.07
  -5   1  10    6.32    0.90
   4  -1 -10  200.04    7.06
   4  -1 -10  193.30    7.09
   4  -1 -10  205.26    7.04
   4  -1 -10  199.64    7.21
   4  -1 -10  201.61    7.03
  -4   1  10  202.62    7.09
  -4   1  10  192.39    7.29
  -4   1  10  190.41    7.48
  -4   1  10  195.71    7.07
   3  -1 -10  148.55    5.17
   3  -1 -10  149.10    5.40
   3  -1 -10  146.83    5.18
   3  -1 -10  143.32    5.15
   3  -1 -10  143.15    5.33
   3  -1 -10  142.11    5.19
  -3   1  10  146.87    5.20
  -3   1  10  135.89    5.42
  -3   1  10  138.08    5.15
  -3   1  10  137.31    5.44
  -3   1  10  138.53    5.17
   2  -1 -10  174.49    6.27
   2  -1 -10  183.06    6.41
   2  -1 -10  164.16    6.21
   2  -1 -10  176.63    6.40
   2  -1 -10  176.45    6.34
   2  -1 -10  177.99    6.27
   2  -1 -10  179.77    6.28
  -2   1  10  173.12    6.42
  -2   1  10  178.57    6.60
  -2   1  10  172.65    6.27
  -2   1  10  172.15    6.73
  -2   1  10  175.44    6.28
  -2   1  10  179.60    6.26
   1  -1 -10  251.64    8.74
   1  -1 -10  240.38    8.63
   1  -1 -10  245.46    8.75
   1  -1 -10  257.43    8.69
   1  -1 -10  239.48    8.68
   1  -1 -10  251.08    8.67
  -1   1  10  243.57    8.72
  -1   1  10  253.99    8.67
  -1   1  10  251.57    9.04
  -1   1  10  251.63    8.74
  -1   1  10  234.29    9.06
  -1   1  10  243.02    8.65
  -1   1  10  245.45    8.65
   0  -1 -10   15.83    1.03
   0  -1 -10   14.75    0.88
   0  -1 -10   13.51    0.82
   0  -1 -10   13.88    0.93
   0  -1 -10   13.96    0.90
   0  -1 -10   12.94    0.86
   0   1  10   15.63    0.88
   0   1  10   14.60    0.86
   0   1  10   12.63    1.21
   0   1  10   13.64    0.84
   0   1  10   13.39    0.81
   0   1  10   14.50    0.86
  -1  -1 -10  197.47    7.21
  -1  -1 -10  202.14    7.49
  -1  -1 -10  205.24    7.24
  -1  -1 -10  210.64    7.25
  -1  -1 -10  200.04    7.25
  -1  -1 -10  209.11    7.23
   1   1  10  205.31    7.23
   1   1  10  201.31    7.20
   1   1  10  195.24    7.21
   1   1  10  204.78    7.22
   1   1  10  206.63    7.21
   1   1  10  202.13    7.22
   1   1  10  209.38    7.54
  -2  -1 -10    8.91    0.73
  -2  -1 -10   10.08    0.75
  -2  -1 -10    9.62    1.05
  -2  -1 -10    9.25    0.81
  -2  -1 -10    9.62    0.78
   2   1  10    9.68    0.74
   2   1  10    9.10    0.72
   2   1  10   10.22    0.75
   2   1  10    8.79    0.74
   2   1  10    8.40    1.07
   2   1  10    8.90    0.78
  -3  -1 -10   38.41    1.69
  -3  -1 -10   36.76    1.67
  -3  -1 -10   34.11    1.65
  -3  -1 -10   34.85    1.60
   3   1  10   32.81    1.83
   3   1  10   34.57    1.65
   3   1  10   36.79    1.63
   3   1  10   39.16    2.04
   3   1  10   35.60    1.61
   3   1  10   37.15    1.63
  -4  -1 -10    4.46    0.61
  -4  -1 -10    4.40    0.60
  -4  -1 -10    4.47    0.64
   4   1  10    5.65    0.70
   4   1  10    5.04    0.76
   4   1  10    4.43    0.57
  -5  -1 -10    8.87    0.89
  -5  -1 -10    8.18    0.77
   5   1  10    6.45    0.80
   5   1  10    9.25    1.02
   5   1  10    7.69    0.97
   5   1  10    7.28    1.00
  -6  -1 -10    2.18    0.65
  -6  -1 -10    1.63    0.63
  -6  -1 -10    1.85    0.59
   6   1  10    2.30    0.65
   6   1  10    1.99    0.55
   6   1  10    1.95    0.58
   6   1  10    1.74    0.83
   8  -2 -10    6.13    0.79
   8  -2 -10    4.45    0.82
   8  -2 -10    3.00    0.80
  -8   2  10    4.61    1.50
  -8   2  10    5.55    0.78
  -8   2  10    5.62    2.77
   7  -2 -10    0.92    0.51
   7  -2 -10    1.36    0.47
   7  -2 -10    1.25    0.62
  -7   2  10    1.41    0.51
  -7   2  10    1.30    0.96
  -7   2  10    0.88    1.02
  -7   2  10    1.24    1.42
   6  -2 -10   15.93    1.24
   6  -2 -10   16.37    1.06
   6  -2 -10   16.90    1.09
  -6   2  10   18.49    1.12
  -6   2  10   14.72    2.03
  -6   2  10   15.07    1.76
  -6   2  10   18.06    1.15
   5  -2 -10   45.95    1.95
   5  -2 -10   41.45    2.27
   5  -2 -10   45.49    2.12
   5  -2 -10   46.27    2.13
   5  -2 -10   46.38    1.94
  -5   2  10   46.62    1.99
  -5   2  10   45.09    1.99
  -5   2  10   42.70    2.40
  -5   2  10   42.90    2.50
   4  -2 -10    3.10    0.65
   4  -2 -10    2.77    0.48
   4  -2 -10    3.47    0.54
   4  -2 -10    3.20    0.49
   4  -2 -10    2.56    0.48
  -4   2  10    2.85    0.78
  -4   2  10    3.59    0.70
  -4   2  10    3.02    0.47
  -4   2  10    3.29    0.53
   3  -2 -10   83.88    3.21
   3  -2 -10   88.72    3.23
   3  -2 -10   86.10    3.14
   3  -2 -10   81.91    3.44
   3  -2 -10   84.27    3.20
  -3   2  10   87.49    3.23
  -3   2  10   84.68    3.23
  -3   2  10   79.98    3.64
  -3   2  10   75.44    3.40
   2  -2 -10   54.95    2.22
   2  -2 -10   56.35    2.24
   2  -2 -10   52.24    2.46
   2  -2 -10   56.85    2.25
  -2   2  10   55.45    2.73
  -2   2  10   51.01    2.32
  -2   2  10   56.07    2.25
  -2   2  10   55.64    2.24
   1  -2 -10   36.74    1.63
   1  -2 -10   36.61    1.74
   1  -2 -10   36.50    1.51
   1  -2 -10   37.59    1.63
   1  -2 -10   35.99    1.60
   1  -2 -10   35.94    1.77
  -1   2  10   37.02    2.16
  -1   2  10   37.22    1.64
  -1   2  10   38.11    1.64
  -1   2  10   31.88    2.15
   0  -2 -10   27.38    1.32
   0  -2 -10   28.59    1.30
   0  -2 -10   25.90    1.30
   0  -2 -10   26.98    1.40
   0  -2 -10   26.47    1.35
   0  -2 -10   26.14    1.39
   0   2  10   26.39    1.91
   0   2  10   23.78    1.84
   0   2  10   25.40    1.28
   0   2  10   26.82    1.28
  -1  -2 -10    3.47    0.50
  -1  -2 -10    3.27    0.59
  -1  -2 -10    4.70    0.72
  -1  -2 -10    3.33    0.49
  -1  -2 -10    4.40    0.55
   1   2  10    4.07    0.68
   1   2  10    3.41    0.50
   1   2  10    4.41    0.63
   1   2  10    2.98    0.93
   1   2  10    4.66    0.69
   1   2  10    4.65    0.62
   1   2  10    3.08    0.91
  -2  -2 -10   29.08    1.44
  -2  -2 -10   31.86    1.50
  -2  -2 -10   30.23    1.56
  -2  -2 -10   30.10    1.45
  -2  -2 -10   30.04    1.50
   2   2  10   28.15    1.94
   2   2  10   31.22    1.47
   2   2  10   29.83    1.32
   2   2  10   30.57    1.42
   2   2  10   32.44    1.62
   2   2  10   29.76    1.60
  -3  -2 -10    0.48    0.43
  -3  -2 -10   -0.24    0.38
  -3  -2 -10    0.27    0.39
   3   2  10    1.12    0.58
   3   2  10    0.36    0.60
   3   2  10    0.51    0.38
   3   2  10    0.58    0.36
   3   2  10   -0.46    0.72
  -4  -2 -10   10.23    0.89
  -4  -2 -10    9.09    0.91
  -4  -2 -10   10.15    0.97
   4   2  10   10.79    0.91
   4   2  10    7.70    1.33
   4   2  10   11.58    1.19
   4   2  10    9.68    0.84
  -5  -2 -10    2.17    0.52
  -5  -2 -10    2.14    0.58
  -5  -2 -10    2.46    0.56
   5   2  10    2.73    0.55
   5   2  10    2.34    1.23
   5   2  10    1.14    0.46
  -6  -2 -10    0.14    0.50
  -6  -2 -10    0.87    0.63
   6   2  10   -0.14    0.85
   6   2  10   -0.33    0.54
   7  -3 -10    0.39    0.59
   7  -3 -10    1.64    0.76
   7  -3 -10    0.92    0.61
  -7   3  10    1.23    2.08
  -7   3  10    1.09    1.24
   6  -3 -10   12.16    1.25
   6  -3 -10   11.30    0.95
   6  -3 -10   13.41    1.04
  -6   3  10   11.48    1.01
  -6   3  10   12.23    1.80
  -6   3  10    8.31    1.81
   5  -3 -10   11.69    0.87
   5  -3 -10   11.28    0.95
   5  -3 -10   10.40    1.15
  -5   3  10   10.36    1.58
  -5   3  10   10.30    1.62
  -5   3  10   10.94    0.88
   4  -3 -10   24.99    1.25
   4  -3 -10   23.06    1.46
   4  -3 -10   24.95    1.27
  -4   3  10   24.29    1.91
  -4   3  10   18.77    2.04
  -4   3  10   23.12    1.19
   3  -3 -10    6.96    0.71
   3  -3 -10    7.44    0.93
   3  -3 -10    6.89    0.74
  -3   3  10    9.29    1.49
  -3   3  10    5.29    0.71
  -3   3  10    8.20    1.30
  -3   3  10    9.16    0.74
  -3   3  10    7.61    0.73
   2  -3 -10   32.10    1.51
   2  -3 -10   31.75    1.76
   2  -3 -10   32.62    1.51
   2  -3 -10   32.07    1.68
  -2   3  10   32.07    1.46
  -2   3  10   32.40    1.49
  -2   3  10   30.65    2.17
  -2   3  10   31.07    1.44
  -2   3  10   32.01    2.03
   1  -3 -10   28.42    1.40
   1  -3 -10   26.56    1.53
   1  -3 -10   28.25    1.36
  -1   3  10   26.76    1.30
  -1   3  10   29.21    1.34
  -1   3  10   26.82    1.72
  -1   3  10   27.83    1.36
  -1   3  10   30.98    2.17
   0  -3 -10   36.69    1.88
   0  -3 -10   39.98    1.78
   0  -3 -10   39.50    1.77
   0  -3 -10   40.77    1.80
   0   3  10   42.06    1.98
   0   3  10   39.54    2.60
   0   3  10   41.53    1.76
   0   3  10   38.32    1.92
   0   3  10   39.99    1.76
  -1  -3 -10   43.28    1.85
  -1  -3 -10   41.01    1.81
  -1  -3 -10   41.63    1.94
   1   3  10   42.15    2.15
   1   3  10   41.62    1.80
   1   3  10   34.57    2.65
   1   3  10   36.13    2.48
  -2  -3 -10    1.79    0.52
  -2  -3 -10    1.32    0.44
  -2  -3 -10    1.24    0.45
   2   3  10    2.04    0.73
   2   3  10    1.12    0.92
   2   3  10    0.21    0.96
   2   3  10    1.01    0.45
   2   3  10    1.65    0.47
  -3  -3 -10   29.08    1.59
  -3  -3 -10   30.56    1.56
  -3  -3 -10   29.35    1.54
   3   3  10   29.15    1.95
  -4  -3 -10    5.57    0.73
  -4  -3 -10    5.62    0.74
  -4  -3 -10    5.35    0.77
   4   3  10    7.13    0.88
   4   3  10    6.88    1.18
   4   3  10    3.76    1.32
  -5  -3 -10    2.51    0.83
  -5  -3 -10    2.30    0.66
  -5  -3 -10    3.14    0.68
   5   3  10   -1.22    1.63
   5   3  10    4.14    1.08
   5   3  10    2.78    0.63
   5  -4 -10    9.88    1.36
   5  -4 -10   10.98    1.08
   5  -4 -10   13.26    1.10
  -5   4  10   10.10    1.84
  -5   4  10   13.36    2.10
   4  -4 -10    0.13    0.62
   4  -4 -10    0.66    0.43
   4  -4 -10   -0.54    0.43
  -4   4  10    0.50    1.22
  -4   4  10    1.45    1.17
   3  -4 -10   20.28    1.18
   3  -4 -10   19.10    1.21
   3  -4 -10   18.88    1.47
  -3   4  10   17.29    2.23
  -3   4  10   22.25    2.15
   2  -4 -10   18.22    1.25
   2  -4 -10   19.71    1.14
   2  -4 -10   18.06    1.41
  -2   4  10   21.92    2.31
  -2   4  10   18.77    1.96
   1  -4 -10    3.03    0.51
   1  -4 -10    3.57    0.61
   1  -4 -10    2.97    0.68
  -1   4  10    6.12    1.09
  -1   4  10    5.77    1.42
   0  -4 -10   14.24    1.02
   0  -4 -10   15.16    1.26
   0  -4 -10   15.12    1.08
   0   4  10   13.83    2.13
  -1  -4 -10    2.78    0.54
  -1  -4 -10    2.88    0.71
  -1  -4 -10    1.81    0.57
   1   4  10    2.66    0.97
   1   4  10    2.35    1.19
  -2  -4 -10    0.21    0.46
  -2  -4 -10    0.63    0.52
  -2  -4 -10    1.73    0.66
   2   4  10    0.60    0.89
   2   4  10   -0.52    1.41
  -3  -4 -10    0.38    0.58
  -3  -4 -10    1.54    0.64
  -3  -4 -10    0.35    0.70
   3   4  10    0.49    1.57
   3   4  10    1.24    0.98
   4   4 -11    6.03    1.39
  -4  -4  11    5.61    0.75
  -4  -4  11    4.15    1.18
  -4  -4  11    3.33    0.61
   3   4 -11    2.90    1.14
  -3  -4  11    3.31    0.65
  -3  -4  11    2.35    0.53
  -3  -4  11    3.42    0.86
  -3  -4  11    3.22    0.98
   2   4 -11   10.88    1.72
  -2  -4  11    7.14    0.95
  -2  -4  11    7.98    1.46
  -2  -4  11    7.54    0.79
   1   4 -11    2.87    1.05
   1   4 -11    3.64    1.25
  -1  -4  11    4.60    0.77
  -1  -4  11    3.15    0.61
  -1  -4  11    3.28    0.49
  -1  -4  11    3.32    0.86
   0   4 -11    7.98    1.54
   0   4 -11    8.87    1.57
   0  -4  11    9.05    1.05
   0  -4  11    6.93    0.78
   0  -4  11    8.86    1.10
   0  -4  11    8.65    1.42
  -1   4 -11    4.04    1.01
  -1   4 -11    2.52    1.45
   1  -4  11    2.47    0.70
   1  -4  11    3.01    0.56
   1  -4  11    2.60    0.76
   1  -4  11    3.07    0.50
  -2   4 -11    3.55    1.95
  -2   4 -11    4.13    1.08
   2  -4  11    2.87    0.76
   2  -4  11    3.17    1.02
   2  -4  11    3.03    0.54
   2  -4  11    1.78    0.55
   6   3 -11   14.54    1.92
   6   3 -11   10.99    1.69
  -6  -3  11    9.74    1.77
  -6  -3  11    9.47    1.13
  -6  -3  11   10.32    1.25
   5   3 -11    1.12    0.97
   5   3 -11    3.15    0.94
  -5  -3  11    2.75    0.86
  -5  -3  11    4.06    0.66
  -5  -3  11    2.42    0.52
   4   3 -11   36.68    2.41
   4   3 -11   37.86    2.08
  -4  -3  11   34.68    1.73
  -4  -3  11   39.11    1.81
  -4  -3  11   36.69    1.99
  -4  -3  11   37.25    2.28
   3   3 -11   29.85    2.13
   3   3 -11   32.28    1.67
  -3  -3  11   31.93    2.02
  -3  -3  11   29.08    1.71
  -3  -3  11   31.57    1.76
  -3  -3  11   29.94    1.49
   2   3 -11   46.09    2.62
   2   3 -11   46.96    1.92
   2   3 -11   41.32    2.62
  -2  -3  11   36.62    2.23
  -2  -3  11   47.03    2.40
  -2  -3  11   46.32    1.92
  -2  -3  11   40.46    2.18
  -2  -3  11   48.83    1.96
   1   3 -11   50.14    3.03
   1   3 -11   57.57    3.11
  -1  -3  11   50.81    2.54
  -1  -3  11   59.45    2.77
  -1  -3  11   56.60    2.31
  -1  -3  11   61.11    2.26
  -1  -3  11   62.20    2.36
  -1  -3  11   60.75    2.42
   0   3 -11    5.24    1.05
   0   3 -11    3.94    1.13
   0  -3  11    4.56    0.71
   0  -3  11    3.55    0.51
   0  -3  11    3.40    0.47
   0  -3  11    2.91    0.66
  -1   3 -11   27.00    2.02
  -1   3 -11   28.36    2.39
   1  -3  11   26.88    1.33
   1  -3  11   27.46    1.34
   1  -3  11   28.81    1.79
   1  -3  11   28.22    1.58
  -2   3 -11    6.76    1.47
  -2   3 -11    7.53    1.41
   2  -3  11    6.48    0.98
   2  -3  11    7.55    0.74
   2  -3  11    8.28    1.20
   2  -3  11    7.40    0.77
  -3   3 -11    0.41    1.30
  -3   3 -11    0.99    0.85
   3  -3  11    0.64    0.68
   3  -3  11    0.94    0.44
   3  -3  11    0.87    0.59
   3  -3  11    0.48    0.40
  -4   3 -11    3.21    1.88
   4  -3  11    1.88    0.94
   4  -3  11    2.11    0.55
   4  -3  11    1.59    0.50
   4  -3  11    1.17    0.69
   7   2 -11    6.55    1.10
   7   2 -11    6.86    1.36
   7   2 -11    7.09    0.84
  -7  -2  11    5.81    0.87
  -7  -2  11    4.00    0.70
  -7  -2  11    6.48    1.24
   6   2 -11   21.24    1.73
   6   2 -11   19.95    1.70
   6   2 -11   20.28    1.77
  -6  -2  11   20.72    1.82
  -6  -2  11   21.20    1.40
  -6  -2  11   23.10    1.35
   5   2 -11   38.12    2.10
   5   2 -11   33.49    1.67
   5   2 -11   35.79    1.58
   5   2 -11   33.22    2.10
  -5  -2  11   33.23    1.69
  -5  -2  11   33.79    2.13
  -5  -2  11   31.99    1.66
   4   2 -11   39.81    1.83
   4   2 -11   38.36    2.31
   4   2 -11   39.75    1.74
   4   2 -11   38.53    2.02
  -4  -2  11   37.47    2.05
  -4  -2  11   39.36    2.19
  -4  -2  11   41.97    2.04
  -4  -2  11   40.62    1.75
  -4  -2  11   38.44    1.80
   3   2 -11   40.88    1.85
   3   2 -11   36.74    2.35
   3   2 -11   41.21    1.67
   3   2 -11   38.74    1.64
   3   2 -11   39.59    1.70
  -3  -2  11   40.94    1.78
  -3  -2  11   37.86    1.96
  -3  -2  11   38.92    1.76
  -3  -2  11   39.08    1.70
  -3  -2  11   39.80    2.12
   2   2 -11   75.87    3.48
   2   2 -11   80.15    2.90
   2   2 -11   77.27    2.94
   2   2 -11   75.15    2.98
   2   2 -11   80.36    2.89
  -2  -2  11   75.09    3.14
  -2  -2  11   77.46    2.95
  -2  -2  11   71.05    3.06
  -2  -2  11   78.73    2.98
  -2  -2  11   75.65    3.43
  -2  -2  11   78.02    2.94
   1   2 -11    9.58    0.68
   1   2 -11    9.50    1.32
   1   2 -11   10.15    0.66
   1   2 -11    7.24    1.28
   1   2 -11    9.99    0.67
  -1  -2  11    9.51    0.97
  -1  -2  11   11.63    0.76
  -1  -2  11    9.54    0.76
  -1  -2  11    8.26    1.13
  -1  -2  11   11.21    0.69
   0   2 -11   50.16    2.76
   0   2 -11   52.18    2.00
   0   2 -11   49.39    1.97
   0   2 -11   48.53    2.08
   0  -2  11   47.89    2.38
   0  -2  11   49.58    2.03
   0  -2  11   52.33    1.96
   0  -2  11   52.30    2.04
   0  -2  11   52.12    2.08
   0  -2  11   50.19    2.26
  -1   2 -11    5.39    0.53
  -1   2 -11    7.84    1.36
  -1   2 -11    3.77    1.00
  -1   2 -11    5.45    0.57
  -1   2 -11    5.92    0.57
   1  -2  11    6.22    0.74
   1  -2  11    5.82    0.89
   1  -2  11    5.89    0.62
   1  -2  11    6.54    0.68
   1  -2  11    6.05    0.86
  -2   2 -11   27.89    1.26
  -2   2 -11   28.79    1.33
  -2   2 -11   28.63    1.30
  -2   2 -11   24.05    2.17
   2  -2  11   29.10    1.54
   2  -2  11   27.48    1.54
   2  -2  11   25.91    1.38
   2  -2  11   28.22    1.35
   2  -2  11   28.45    1.67
  -3   2 -11    5.43    1.01
  -3   2 -11    5.14    0.68
  -3   2 -11    6.62    1.42
   3  -2  11    4.78    0.67
   3  -2  11    5.70    0.78
   3  -2  11    5.23    0.96
   3  -2  11    5.18    0.71
  -4   2 -11    9.93    0.83
  -4   2 -11   10.63    1.22
  -4   2 -11   12.78    2.28
   4  -2  11    7.88    1.01
   4  -2  11    9.50    0.89
   4  -2  11    8.74    0.83
  -5   2 -11    4.60    1.88
   5  -2  11    7.48    1.15
   5  -2  11    6.46    0.89
   5  -2  11    4.59    0.67
   8   1 -11   12.17    1.06
   8   1 -11   11.36    1.39
  -8  -1  11   12.81    1.44
  -8  -1  11   11.00    1.93
  -8  -1  11   12.77    1.21
   7   1 -11   11.42    0.98
   7   1 -11    9.96    1.24
   7   1 -11    9.29    0.87
  -7  -1  11    8.87    1.10
  -7  -1  11   10.18    1.05
  -7  -1  11    9.17    1.59
   6   1 -11   51.44    2.61
   6   1 -11   49.10    2.23
   6   1 -11   52.75    2.17
  -6  -1  11   49.68    2.79
  -6  -1  11   51.29    2.29
  -6  -1  11   50.17    2.28
   5   1 -11    5.20    0.80
   5   1 -11    8.14    0.73
   5   1 -11    6.84    1.11
   5   1 -11    7.24    0.67
  -5  -1  11    7.09    1.15
  -5  -1  11    7.17    1.09
  -5  -1  11    6.77    0.78
  -5  -1  11    8.33    0.75
   4   1 -11  150.68    5.28
   4   1 -11  139.17    5.53
   4   1 -11  147.84    5.31
  -4  -1  11  140.34    5.24
  -4  -1  11  149.64    5.60
  -4  -1  11  152.91    5.39
  -4  -1  11  140.13    5.62
  -4  -1  11  144.01    5.79
  -4  -1  11  152.74    5.31
  -4  -1  11  138.04    5.67
   3   1 -11    6.79    0.67
   3   1 -11    6.42    1.09
   3   1 -11    7.31    0.88
   3   1 -11    7.93    0.65
  -3  -1  11    8.98    0.85
  -3  -1  11    7.20    0.65
  -3  -1  11    7.77    0.75
  -3  -1  11    7.22    0.95
  -3  -1  11    5.67    0.94
  -3  -1  11    7.64    0.71
   2   1 -11   59.72    2.75
   2   1 -11   66.54    2.45
   2   1 -11   60.93    2.46
   2   1 -11   65.86    2.50
   2   1 -11   51.23    2.96
  -2  -1  11   67.45    2.77
  -2  -1  11   65.33    2.50
  -2  -1  11   60.88    2.45
  -2  -1  11   60.40    2.71
  -2  -1  11   60.18    2.70
  -2  -1  11   63.15    2.45
  -2  -1  11   64.02    2.49
   1   1 -11   65.02    2.52
   1   1 -11   62.20    2.47
   1   1 -11   64.16    2.54
   1   1 -11   59.60    2.92
  -1  -1  11   63.20    2.48
  -1  -1  11   61.06    2.47
  -1  -1  11   66.73    2.48
  -1  -1  11   68.36    2.86
  -1  -1  11   62.16    2.72
  -1  -1  11   63.47    2.51
  -1  -1  11   63.53    2.72
   0   1 -11   51.16    2.06
   0   1 -11   51.32    2.07
   0   1 -11   49.03    2.50
   0   1 -11   50.22    2.09
   0  -1  11   50.38    2.26
   0  -1  11   49.71    2.05
   0  -1  11   51.79    2.06
   0  -1  11   49.59    2.25
   0  -1  11   48.45    2.03
   0  -1  11   52.42    1.98
  -1   1 -11   20.39    1.15
  -1   1 -11   21.68    1.11
  -1   1 -11   20.84    1.13
  -1   1 -11   20.03    1.60
   1  -1  11   21.15    1.09
   1  -1  11   20.45    1.06
   1  -1  11   20.35    1.09
   1  -1  11   19.65    0.93
   1  -1  11   19.61    1.25
   1  -1  11   20.13    1.27
  -2   1 -11    5.42    0.66
  -2   1 -11    6.14    1.19
  -2   1 -11    4.54    0.56
  -2   1 -11    4.46    0.55
   2  -1  11    4.71    0.81
   2  -1  11    6.14    0.77
   2  -1  11    5.88    0.75
   2  -1  11    5.33    0.64
  -3   1 -11   21.92    1.95
  -3   1 -11   20.40    1.17
  -3   1 -11   19.70    1.20
   3  -1  11   20.40    1.12
   3  -1  11   21.13    1.14
   3  -1  11   20.74    1.14
   3  -1  11   21.61    1.34
  -4   1 -11    2.05    0.50
  -4   1 -11    3.42    0.57
  -4   1 -11    3.18    1.12
   4  -1  11    2.85    0.48
   4  -1  11    2.62    0.50
   4  -1  11    2.65    0.61
  -5   1 -11    2.57    0.54
  -5   1 -11    3.96    1.43
   5  -1  11    2.03    0.61
   5  -1  11    3.50    0.58
   5  -1  11    2.52    0.48
  -6   1 -11    1.77    0.58
  -6   1 -11    1.90    2.73
   6  -1  11    1.50    0.55
   6  -1  11    2.45    0.80
   6  -1  11    1.35    0.70
   8   0 -11    0.33    0.74
   8   0 -11    0.16    0.51
   8   0 -11    0.46    0.56
  -8   0  11    0.38    0.66
  -8   0  11    1.13    0.67
  -8   0  11   -1.16    1.13
   7   0 -11    4.96    0.75
   7   0 -11    5.59    0.84
   7   0 -11    5.33    0.72
   7   0 -11    5.55    0.98
  -7   0  11    3.73    0.65
  -7   0  11    5.17    1.21
   6   0 -11    0.50    0.33
   6   0 -11   -0.68    0.31
   6   0 -11   -0.15    0.56
   6   0 -11   -0.64    0.43
  -6   0  11   -0.06    0.40
  -6   0  11   -0.02    0.53
  -6   0  11   -0.10    0.41
  -6   0  11   -0.35    0.69
   5   0 -11   82.25    3.56
   5   0 -11   80.46    3.10
   5   0 -11   81.51    3.07
   5   0 -11   83.70    3.33
  -5   0  11   78.05    3.16
  -5   0  11   76.18    3.10
  -5   0  11   75.84    3.12
  -5   0  11   72.49    3.12
  -5   0  11   84.17    3.18
  -5   0  11   75.37    3.64
   4   0 -11   39.18    1.93
   4   0 -11   40.60    1.75
   4   0 -11   39.84    1.71
  -4   0  11   38.54    2.08
  -4   0  11   39.27    1.77
  -4   0  11   36.15    1.80
  -4   0  11   39.12    1.79
  -4   0  11   39.68    1.80
   3   0 -11   95.02    3.47
   3   0 -11   93.38    3.67
   3   0 -11   95.20    3.50
   3   0 -11   86.09    3.71
   3   0 -11   87.18    3.45
  -3   0  11   96.99    3.68
  -3   0  11   88.44    3.86
  -3   0  11   88.55    3.49
  -3   0  11   90.13    3.75
  -3   0  11   89.46    3.60
  -3   0  11  101.60    3.61
  -3   0  11   93.08    3.47
   2   0 -11  361.94   12.61
   2   0 -11  348.90   12.73
   2   0 -11  375.66   12.80
   2   0 -11  354.81   12.76
   2   0 -11  369.42   12.61
   2   0 -11  355.73   12.63
   2   0 -11  351.45   12.61
  -2   0  11  360.39   12.83
  -2   0  11  379.08   12.83
  -2   0  11  343.32   12.95
  -2   0  11  414.41   12.85
  -2   0  11  367.43   12.66
  -2   0  11  365.76   12.62
  -2   0  11  346.17   12.62
   1   0 -11    1.84    0.35
   1   0 -11    1.91    0.39
   1   0 -11    1.70    0.41
   1   0 -11    3.41    0.63
   1   0 -11    3.42    0.49
   1   0 -11    1.61    0.47
  -1   0  11    1.44    0.39
  -1   0  11    1.88    0.48
  -1   0  11    1.62    0.36
  -1   0  11    1.44    0.38
  -1   0  11    2.23    0.40
  -1   0  11    1.38    0.58
   0   0 -11  223.35    8.26
   0   0 -11  224.57    7.96
   0   0 -11  222.69    7.93
   0   0 -11  222.17    7.95
   0   0 -11  217.85    8.01
   0   0  11  224.52    8.19
   0   0  11  219.69    7.91
   0   0  11  229.62    7.94
   0   0  11  234.50    7.95
   0   0  11  230.24    7.94
   0   0  11  227.52    8.05
  -1   0 -11  139.37    5.30
  -1   0 -11  147.24    5.31
  -1   0 -11  142.26    5.71
  -1   0 -11  147.47    5.29
   1   0  11  150.00    5.29
   1   0  11  146.34    5.28
   1   0  11  146.95    5.39
   1   0  11  143.64    5.21
   1   0  11  145.29    5.27
   1   0  11  145.52    5.49
   1   0  11  151.17    5.63
  -2   0 -11   53.11    2.19
  -2   0 -11   49.86    2.12
  -2   0 -11   53.88    2.18
  -2   0 -11   53.08    2.70
   2   0  11   51.60    2.41
   2   0  11   51.53    2.40
   2   0  11   55.38    2.18
   2   0  11   54.16    2.17
   2   0  11   53.01    2.28
   2   0  11   49.35    2.52
  -3   0 -11   32.62    1.51
  -3   0 -11   33.17    2.22
  -3   0 -11   34.24    1.62
  -3   0 -11   33.38    1.61
   3   0  11   34.80    1.78
   3   0  11   36.75    1.62
   3   0  11   36.15    1.84
   3   0  11   34.77    1.58
   3   0  11   34.19    1.46
   3   0  11   35.00    1.59
  -4   0 -11    1.76    0.96
  -4   0 -11    1.24    0.39
  -4   0 -11    0.89    0.45
  -4   0 -11    0.93    0.48
   4   0  11    0.25    0.36
   4   0  11    0.87    0.42
   4   0  11    1.06    0.42
   4   0  11    0.77    0.53
  -5   0 -11    3.64    0.63
  -5   0 -11    5.09    1.32
  -5   0 -11    4.65    0.63
   5   0  11    4.09    0.70
   5   0  11    3.78    0.56
   5   0  11    3.78    0.63
  -6   0 -11   -1.06    1.60
  -6   0 -11    0.69    0.59
   6   0  11   -0.19    0.44
   6   0  11    0.79    0.62
   6   0  11   -0.25    0.63
   8  -1 -11   11.13    1.11
   8  -1 -11   12.71    1.41
   8  -1 -11   14.04    1.24
   8  -1 -11   12.88    1.33
  -8   1  11   11.95    1.23
  -8   1  11   10.28    1.81
   7  -1 -11   10.59    0.89
   7  -1 -11   11.19    0.94
   7  -1 -11    9.47    1.12
   7  -1 -11   11.17    1.20
  -7   1  11    9.60    1.35
  -7   1  11    8.97    0.97
  -7   1  11   10.16    1.60
  -7   1  11   10.40    1.05
   6  -1 -11   54.06    2.23
   6  -1 -11   52.64    2.25
   6  -1 -11   51.84    2.40
  -6   1  11   54.24    2.32
  -6   1  11   46.66    2.92
  -6   1  11   49.10    2.47
  -6   1  11   53.26    2.31
   5  -1 -11    5.72    0.72
   5  -1 -11    5.50    0.77
   5  -1 -11    6.64    0.75
  -5   1  11    7.01    0.99
  -5   1  11    8.28    0.81
  -5   1  11    6.91    0.75
  -5   1  11    6.73    1.21
   4  -1 -11  148.45    5.62
   4  -1 -11  155.50    5.47
   4  -1 -11  151.71    5.44
   4  -1 -11  148.52    5.61
   4  -1 -11  152.47    5.43
  -4   1  11  140.27    5.69
  -4   1  11  143.18    5.88
  -4   1  11  156.21    5.50
  -4   1  11  147.54    5.48
   3  -1 -11    7.78    0.66
   3  -1 -11    8.50    0.92
   3  -1 -11    8.80    0.80
   3  -1 -11    8.38    0.71
   3  -1 -11    7.05    0.67
   3  -1 -11    8.17    0.73
  -3   1  11    8.34    0.95
  -3   1  11    7.72    0.75
  -3   1  11    8.01    1.16
  -3   1  11    7.72    0.91
  -3   1  11    8.27    0.74
   2  -1 -11   64.41    2.52
   2  -1 -11   61.55    2.43
   2  -1 -11   59.90    2.50
   2  -1 -11   60.46    2.57
   2  -1 -11   59.75    2.41
  -2   1  11   62.06    2.60
  -2   1  11   61.28    2.77
  -2   1  11   58.55    2.92
  -2   1  11   60.55    2.42
  -2   1  11   59.69    2.44
  -2   1  11   60.91    2.45
   1  -1 -11   62.10    2.51
   1  -1 -11   63.31    2.54
   1  -1 -11   61.81    2.58
   1  -1 -11   64.23    2.54
   1  -1 -11   63.65    2.50
   1  -1 -11   64.21    2.63
  -1   1  11   64.49    2.52
  -1   1  11   62.44    3.00
  -1   1  11   61.21    2.58
  -1   1  11   64.85    2.51
  -1   1  11   63.87    2.91
  -1   1  11   63.92    2.52
   0  -1 -11   50.15    2.02
   0  -1 -11   50.36    2.23
   0  -1 -11   47.06    2.04
   0  -1 -11   47.56    2.12
   0  -1 -11   49.17    2.05
   0  -1 -11   49.63    2.08
   0   1  11   48.73    2.06
   0   1  11   49.87    2.50
   0   1  11   49.56    2.04
   0   1  11   49.74    2.04
   0   1  11   51.68    2.06
  -1  -1 -11   20.59    1.04
  -1  -1 -11   20.66    1.17
  -1  -1 -11   19.49    1.13
  -1  -1 -11   19.46    1.13
  -1  -1 -11   19.14    1.08
  -1  -1 -11   20.49    1.39
   1   1  11   19.14    1.48
   1   1  11   19.67    1.10
   1   1  11   18.50    1.08
   1   1  11   21.21    1.10
   1   1  11   20.21    1.07
  -2  -1 -11    5.11    0.74
  -2  -1 -11    5.47    1.02
  -2  -1 -11    4.84    0.66
  -2  -1 -11    3.62    0.52
  -2  -1 -11    4.16    0.65
   2   1  11    5.46    0.64
   2   1  11    4.86    0.64
   2   1  11    4.64    0.61
   2   1  11    4.85    0.71
   2   1  11    4.87    0.64
   2   1  11    5.58    0.90
  -3  -1 -11   22.36    1.17
  -3  -1 -11   21.57    1.96
  -3  -1 -11   21.64    1.26
  -3  -1 -11   20.13    1.19
   3   1  11   20.48    1.19
   3   1  11   21.49    1.17
   3   1  11   21.81    1.21
   3   1  11   19.39    1.47
   3   1  11   22.02    1.33
  -4  -1 -11    2.76    0.53
  -4  -1 -11    2.44    0.53
  -4  -1 -11    3.73    0.54
   4   1  11    1.98    0.46
   4   1  11    3.48    0.64
   4   1  11    2.54    0.70
   4   1  11    2.83    0.50
  -5  -1 -11    2.83    0.62
  -5  -1 -11    2.97    0.56
  -5  -1 -11    3.20    0.61
   5   1  11    3.00    0.70
   5   1  11    3.79    0.58
   5   1  11    2.97    0.76
   5   1  11    2.38    0.55
  -6  -1 -11    2.14    0.79
  -6  -1 -11    1.19    0.61
   6   1  11    1.58    0.60
   6   1  11    1.48    0.69
   6   1  11    2.10    0.75
   7  -2 -11    4.20    0.58
   7  -2 -11    5.48    0.87
   7  -2 -11    5.62    0.74
  -7   2  11    2.74    1.69
  -7   2  11    5.97    0.74
  -7   2  11    4.14    1.28
  -7   2  11    4.64    1.30
   6  -2 -11   23.83    1.29
   6  -2 -11   23.71    1.32
   6  -2 -11   22.61    1.48
  -6   2  11   20.90    1.82
  -6   2  11   21.77    1.30
  -6   2  11   19.22    2.43
  -6   2  11   17.97    2.08
   5  -2 -11   30.79    1.73
   5  -2 -11   32.07    1.54
   5  -2 -11   31.07    1.51
  -5   2  11   31.13    1.56
  -5   2  11   26.22    2.07
  -5   2  11   31.52    1.63
   4  -2 -11   40.61    1.77
   4  -2 -11   38.47    1.69
   4  -2 -11   40.71    1.98
   4  -2 -11   38.10    1.73
   4  -2 -11   38.89    1.74
  -4   2  11   34.44    2.12
  -4   2  11   38.52    2.26
  -4   2  11   40.67    1.81
  -4   2  11   38.79    1.80
   3  -2 -11   36.46    1.83
   3  -2 -11   37.65    1.71
   3  -2 -11   39.17    1.63
   3  -2 -11   34.93    1.66
   3  -2 -11   39.38    1.70
  -3   2  11   39.34    1.73
  -3   2  11   38.09    1.71
  -3   2  11   36.47    2.17
  -3   2  11   31.06    1.85
   2  -2 -11   72.04    2.92
   2  -2 -11   70.72    3.21
   2  -2 -11   75.55    2.94
  -2   2  11   75.08    3.48
  -2   2  11   78.45    2.96
  -2   2  11   75.77    2.94
   1  -2 -11    9.67    0.92
   1  -2 -11    9.46    0.88
   1  -2 -11    8.68    0.76
   1  -2 -11   10.99    0.84
   1  -2 -11    9.54    1.00
  -1   2  11    9.92    0.82
  -1   2  11    9.68    1.38
  -1   2  11    9.51    1.43
  -1   2  11    9.35    0.80
  -1   2  11    7.87    0.85
   0  -2 -11   53.26    2.15
   0  -2 -11   49.43    2.21
   0  -2 -11   51.34    2.11
   0  -2 -11   46.48    2.11
   0  -2 -11   50.04    2.20
   0  -2 -11   49.35    2.15
   0   2  11   48.92    2.84
   0   2  11   44.46    2.70
   0   2  11   48.02    2.04
   0   2  11   52.41    2.12
   0   2  11   51.03    2.08
  -1  -2 -11    5.55    0.74
  -1  -2 -11    5.37    0.74
  -1  -2 -11    5.72    0.69
  -1  -2 -11    6.04    0.71
  -1  -2 -11    5.67    0.81
   1   2  11    7.38    0.69
   1   2  11    7.69    0.76
   1   2  11    7.11    0.80
   1   2  11    6.11    0.59
   1   2  11    5.20    1.07
   1   2  11    5.80    1.05
   1   2  11    5.86    0.91
  -2  -2 -11   26.43    1.43
  -2  -2 -11   27.74    1.51
  -2  -2 -11   30.06    1.45
  -2  -2 -11   28.02    1.50
   2   2  11   29.50    1.46
   2   2  11   26.18    2.00
   2   2  11   27.48    1.40
   2   2  11   28.60    1.31
   2   2  11   28.37    1.57
   2   2  11   31.63    1.60
  -3  -2 -11    7.11    0.80
  -3  -2 -11    6.48    0.86
  -3  -2 -11    5.03    0.67
   3   2  11    5.31    1.34
   3   2  11    5.47    0.76
   3   2  11    6.26    0.87
   3   2  11    4.82    0.92
  -4  -2 -11    8.30    0.86
  -4  -2 -11    8.69    0.95
  -4  -2 -11    8.43    0.95
   4   2  11    8.76    0.85
   4   2  11    7.84    1.13
   4   2  11    8.06    1.13
   4   2  11    9.32    0.95
  -5  -2 -11    7.39    0.90
  -5  -2 -11    4.46    0.79
  -5  -2 -11    7.53    0.84
   5   2  11    5.12    1.03
   5   2  11    6.93    0.90
   5   2  11    5.16    1.04
   6  -3 -11   12.11    1.06
   6  -3 -11   13.74    1.13
   6  -3 -11   12.92    1.35
  -6   3  11    7.52    1.91
  -6   3  11   13.54    1.89
   5  -3 -11    3.80    0.84
   5  -3 -11    4.12    0.58
   5  -3 -11    3.31    0.59
  -5   3  11    3.10    0.58
  -5   3  11    5.31    1.16
  -5   3  11    2.64    1.34
   4  -3 -11   36.59    1.97
   4  -3 -11   40.09    1.78
   4  -3 -11   39.14    1.79
  -4   3  11   35.96    1.74
  -4   3  11   38.70    2.50
   3  -3 -11   28.17    1.69
   3  -3 -11   30.43    1.51
   3  -3 -11   31.03    1.49
  -3   3  11   26.31    2.26
  -3   3  11   30.46    2.26
  -3   3  11   32.15    1.48
   2  -3 -11   52.18    2.15
   2  -3 -11   49.41    2.12
   2  -3 -11   47.90    2.29
  -2   3  11   50.77    2.11
  -2   3  11   47.41    2.74
  -2   3  11   50.25    2.96
  -2   3  11   49.11    2.14
   1  -3 -11   58.58    2.47
   1  -3 -11   56.80    2.61
   1  -3 -11   63.76    2.52
  -1   3  11   58.13    2.91
  -1   3  11   60.76    3.36
  -1   3  11   59.84    2.50
  -1   3  11   61.07    2.47
   0  -3 -11    3.39    0.62
   0  -3 -11    4.25    0.62
   0  -3 -11    4.12    0.60
   0   3  11    3.09    0.60
   0   3  11    4.50    1.20
   0   3  11    3.88    0.57
   0   3  11    5.33    0.83
  -1  -3 -11   29.39    1.49
  -1  -3 -11   27.97    1.48
  -1  -3 -11   27.88    1.60
   1   3  11   27.87    1.84
   1   3  11   30.26    1.48
  -2  -3 -11    7.47    0.85
  -2  -3 -11    6.66    0.90
  -2  -3 -11    6.49    0.87
   2   3  11    7.11    1.11
  -3  -3 -11   -0.10    0.44
  -3  -3 -11    0.86    0.51
  -3  -3 -11    1.25    0.54
   3   3  11   -0.42    0.84
   3   3  11    0.35    1.19
   3   3  11    0.81    1.25
   3   3  11    0.01    0.48
  -4  -3 -11    1.65    0.68
  -4  -3 -11    2.17    0.62
  -4  -3 -11    1.40    0.60
   4   3  11    3.38    1.01
   4   3  11    2.34    0.59
   4   3  11    1.02    1.63
   4   3  11   -0.34    1.53
   4  -4 -11    4.75    0.68
   4  -4 -11    4.02    0.86
   4  -4 -11    4.65    0.66
  -4   4  11    6.03    1.60
  -4   4  11    1.96    1.47
   3  -4 -11    2.33    0.73
   3  -4 -11    2.65    0.52
   3  -4 -11    3.34    0.63
  -3   4  11    4.65    1.53
  -3   4  11    2.98    1.35
   2  -4 -11    7.96    0.89
   2  -4 -11    7.97    0.97
   2  -4 -11    8.98    1.17
  -2   4  11   10.21    1.58
  -2   4  11    7.65    1.72
   1  -4 -11    3.64    0.62
   1  -4 -11    3.18    0.79
   1  -4 -11    2.67    0.55
  -1   4  11    5.20    1.44
   0  -4 -11    8.72    1.15
   0  -4 -11    8.28    0.99
   0  -4 -11    8.67    0.92
   0   4  11    6.02    1.52
  -1  -4 -11    2.09    0.63
  -1  -4 -11    3.52    0.63
  -1  -4 -11    3.76    0.79
   1   4  11   -0.32    1.30
  -2  -4 -11    2.16    0.68
  -2  -4 -11    2.28    0.80
  -2  -4 -11    2.41    0.70
   2   4  11    2.18    1.00
   2   4  11    1.40    1.70
   3   4 -12    2.98    1.39
  -3  -4  12    3.47    1.15
  -3  -4  12    5.49    0.82
  -3  -4  12    3.72    0.66
   2   4 -12   12.98    2.08
  -2  -4  12   17.56    1.89
  -2  -4  12   17.95    1.29
  -2  -4  12   14.90    1.12
  -2  -4  12   16.85    1.54
   1   4 -12    1.09    1.27
   1   4 -12    2.83    1.24
  -1  -4  12    1.87    0.83
  -1  -4  12    0.93    0.47
  -1  -4  12    1.41    0.54
  -1  -4  12    1.61    0.91
   0   4 -12   15.08    2.07
   0   4 -12   11.37    1.92
   0  -4  12   15.71    1.77
   0  -4  12   12.07    1.04
   0  -4  12   15.56    1.37
   0  -4  12   16.19    1.14
  -1   4 -12    3.15    1.90
  -1   4 -12    3.02    1.23
   1  -4  12    2.73    0.59
   1  -4  12    2.98    1.04
   1  -4  12    3.94    0.69
   1  -4  12    3.84    0.95
   6   3 -12    7.82    1.40
   6   3 -12    6.97    1.52
  -6  -3  12    6.27    1.49
  -6  -3  12    6.22    0.91
  -6  -3  12    6.91    0.98
   5   3 -12   14.37    1.63
   5   3 -12   13.12    1.81
  -5  -3  12   15.58    1.19
  -5  -3  12   17.09    1.27
  -5  -3  12   15.70    1.78
   4   3 -12    6.47    1.32
   4   3 -12    8.78    1.14
  -4  -3  12    8.19    1.45
  -4  -3  12    9.23    1.32
  -4  -3  12   10.49    1.03
  -4  -3  12    7.97    0.88
   3   3 -12   15.22    1.72
  -3  -3  12   16.46    1.16
  -3  -3  12   16.30    1.62
  -3  -3  12   13.81    1.06
  -3  -3  12   15.83    1.43
   2   3 -12    9.37    1.54
   2   3 -12   12.02    1.61
  -2  -3  12   11.44    1.18
  -2  -3  12   11.68    1.34
  -2  -3  12   11.33    0.95
  -2  -3  12   11.38    0.90
   1   3 -12   12.15    1.77
   1   3 -12   10.69    1.60
  -1  -3  12   13.16    1.30
  -1  -3  12   12.55    0.91
  -1  -3  12   14.47    0.96
  -1  -3  12   12.75    1.17
   0   3 -12    1.83    0.94
   0   3 -12    2.19    0.98
   0  -3  12    2.61    0.47
   0  -3  12    2.28    0.66
   0  -3  12    2.66    0.49
   0  -3  12    3.10    0.79
  -1   3 -12    1.45    0.91
  -1   3 -12    0.74    1.12
   1  -3  12    0.55    0.38
   1  -3  12   -0.26    0.39
   1  -3  12    0.83    0.59
   1  -3  12    0.72    0.59
  -2   3 -12    2.10    1.01
  -2   3 -12    0.41    1.31
   2  -3  12    0.93    0.46
   2  -3  12    1.10    0.70
   2  -3  12    0.40    0.42
   2  -3  12    1.17    0.64
  -3   3 -12    3.64    1.13
  -3   3 -12    1.80    1.63
   3  -3  12    2.47    0.54
   3  -3  12    2.70    0.57
   3  -3  12    2.20    0.91
   3  -3  12    3.15    0.82
   7   2 -12   14.58    1.14
   7   2 -12   17.78    2.31
   7   2 -12   12.81    1.68
  -7  -2  12   16.42    1.40
  -7  -2  12   13.24    1.52
  -7  -2  12   17.82    2.34
   6   2 -12   -0.43    0.77
   6   2 -12    0.62    0.82
   6   2 -12    0.13    0.43
  -6  -2  12    0.83    0.79
  -6  -2  12    0.41    0.48
  -6  -2  12    0.05    0.60
   5   2 -12   50.24    2.46
   5   2 -12   51.42    2.52
   5   2 -12   44.57    2.66
  -5  -2  12   48.29    2.18
  -5  -2  12   49.11    2.20
  -5  -2  12   45.61    2.62
   4   2 -12   22.18    1.86
   4   2 -12   22.62    1.48
   4   2 -12   26.12    1.25
  -4  -2  12   24.77    1.36
  -4  -2  12   23.99    1.34
  -4  -2  12   22.96    1.67
  -4  -2  12   23.53    1.70
   3   2 -12   69.25    2.69
   3   2 -12   58.06    3.47
   3   2 -12   70.35    2.75
   3   2 -12   71.36    2.66
   3   2 -12   71.64    2.73
  -3  -2  12   68.62    2.74
  -3  -2  12   68.37    2.75
  -3  -2  12   64.50    3.11
  -3  -2  12   65.92    3.00
   2   2 -12   78.31    2.96
   2   2 -12   79.16    3.03
   2   2 -12   80.76    2.98
   2   2 -12   77.26    3.85
  -2  -2  12   73.77    3.25
  -2  -2  12   77.42    3.40
  -2  -2  12   80.70    3.20
  -2  -2  12   77.86    3.06
   1   2 -12   11.11    0.74
   1   2 -12   10.82    0.75
   1   2 -12   11.15    2.07
   1   2 -12   10.21    0.72
  -1  -2  12   11.32    0.82
  -1  -2  12   11.07    1.40
  -1  -2  12   10.04    0.75
  -1  -2  12   10.65    0.87
  -1  -2  12    9.58    1.08
  -1  -2  12   10.15    0.85
   0   2 -12   92.45    3.54
   0   2 -12   95.49    3.48
   0   2 -12   90.20    3.45
   0   2 -12   90.36    4.26
   0  -2  12   93.68    3.52
   0  -2  12   98.46    3.44
   0  -2  12   91.98    3.71
   0  -2  12   94.71    3.55
   0  -2  12   92.28    3.84
  -1   2 -12    4.19    0.60
  -1   2 -12    4.21    0.47
  -1   2 -12    5.18    0.61
  -1   2 -12    3.82    1.12
   1  -2  12    3.94    0.70
   1  -2  12    4.13    0.53
   1  -2  12    4.23    0.77
   1  -2  12    3.32    0.52
  -2   2 -12   19.34    2.04
  -2   2 -12   19.26    1.07
   2  -2  12   19.67    1.41
   2  -2  12   17.66    1.09
   2  -2  12   18.69    1.09
   2  -2  12   18.06    1.30
  -3   2 -12    5.56    0.71
  -3   2 -12    3.26    1.02
  -3   2 -12    4.20    1.30
   3  -2  12    4.82    0.76
   3  -2  12    4.44    0.56
   3  -2  12    3.90    0.76
   3  -2  12    4.72    0.62
  -4   2 -12    1.46    1.41
   4  -2  12    0.35    0.49
   4  -2  12    1.03    0.46
   4  -2  12    1.04    0.64
   7   1 -12    0.50    0.43
   7   1 -12    0.04    0.74
  -7  -1  12    0.79    0.55
  -7  -1  12    1.03    0.94
  -7  -1  12    0.28    0.59
   6   1 -12    8.45    1.28
   6   1 -12    9.62    0.82
   6   1 -12    7.33    1.04
   6   1 -12    9.26    0.87
  -6  -1  12    9.52    1.39
  -6  -1  12    8.21    0.99
  -6  -1  12    6.86    0.91
   5   1 -12    8.96    0.79
   5   1 -12    6.50    0.99
   5   1 -12    9.37    0.79
   5   1 -12    8.89    1.27
  -5  -1  12    7.73    1.18
  -5  -1  12    7.67    0.86
  -5  -1  12    8.23    0.91
   4   1 -12   43.17    1.81
   4   1 -12   40.80    2.34
   4   1 -12   41.90    1.83
   4   1 -12   35.44    2.02
  -4  -1  12   43.10    1.82
  -4  -1  12   42.32    2.24
  -4  -1  12   38.64    1.79
  -4  -1  12   39.42    2.21
  -4  -1  12   37.95    2.06
  -4  -1  12   41.88    1.88
  -4  -1  12   47.52    2.46
   3   1 -12   52.25    2.63
   3   1 -12   61.93    2.44
   3   1 -12   56.76    3.15
   3   1 -12   61.63    2.40
  -3  -1  12   59.65    2.41
  -3  -1  12   59.22    2.68
  -3  -1  12   62.18    2.50
  -3  -1  12   57.18    2.90
  -3  -1  12   61.24    2.78
  -3  -1  12   62.32    2.47
   2   1 -12   17.87    1.01
   2   1 -12   17.54    1.36
   2   1 -12   17.24    1.03
  -2  -1  12   16.75    1.01
  -2  -1  12   16.77    1.28
  -2  -1  12   16.47    0.98
  -2  -1  12   19.37    1.34
  -2  -1  12   17.69    1.08
  -2  -1  12   15.31    1.32
   1   1 -12  132.02    4.61
   1   1 -12  122.82    5.03
  -1  -1  12  123.87    4.89
  -1  -1  12  124.96    4.58
  -1  -1  12  121.39    4.84
  -1  -1  12  125.47    4.64
  -1  -1  12  124.86    4.60
  -1  -1  12  129.31    4.62
   0   1 -12   11.41    0.89
   0   1 -12    9.66    1.22
   0   1 -12   11.18    0.83
   0   1 -12    9.07    0.88
   0  -1  12   11.64    0.69
   0  -1  12    9.09    1.48
   0  -1  12   12.87    1.02
   0  -1  12   10.51    0.78
   0  -1  12   10.39    0.83
   0  -1  12   10.61    0.83
  -1   1 -12   25.64    1.86
  -1   1 -12   24.65    1.28
  -1   1 -12   27.52    1.28
  -1   1 -12   24.46    1.30
   1  -1  12   25.10    1.26
   1  -1  12   21.12    1.31
   1  -1  12   23.87    1.23
   1  -1  12   22.72    2.05
   1  -1  12   24.05    1.08
   1  -1  12   23.90    1.47
  -2   1 -12   48.74    2.01
  -2   1 -12   47.64    1.97
  -2   1 -12   45.49    2.03
  -2   1 -12   45.13    2.72
   2  -1  12   47.51    2.00
   2  -1  12   45.76    1.99
   2  -1  12   47.03    2.22
   2  -1  12   46.96    2.58
   2  -1  12   45.68    1.97
  -3   1 -12   -0.21    0.49
  -3   1 -12    0.52    0.97
  -3   1 -12    0.32    0.41
   3  -1  12   -0.14    0.51
   3  -1  12   -0.45    0.36
   3  -1  12    0.19    0.33
   3  -1  12    0.90    0.49
  -4   1 -12    3.64    0.57
  -4   1 -12    2.23    1.24
   4  -1  12    4.43    0.59
   4  -1  12    4.07    0.61
   4  -1  12    3.34    0.74
  -5   1 -12    3.78    0.61
  -5   1 -12    3.25    1.60
   5  -1  12    4.28    0.85
   5  -1  12    3.68    0.63
   5  -1  12    3.54    0.68
   8   0 -12    1.75    0.65
   8   0 -12    0.40    0.78
   8   0 -12    1.34    0.61
   8   0 -12    0.86    0.91
  -8   0  12   -0.23    1.47
  -8   0  12    0.14    0.67
  -8   0  12    0.70    0.76
   7   0 -12   58.78    2.74
   7   0 -12   60.08    2.88
   7   0 -12   58.16    2.50
   7   0 -12   59.04    2.59
  -7   0  12   56.04    2.62
  -7   0  12   55.33    3.34
  -7   0  12   58.99    2.65
   6   0 -12   13.69    1.01
   6   0 -12   13.46    1.34
   6   0 -12   12.42    1.15
   6   0 -12   12.88    0.94
  -6   0  12   13.07    1.51
  -6   0  12   13.10    1.11
  -6   0  12   13.29    1.08
   5   0 -12  101.67    4.15
   5   0 -12  109.45    4.43
   5   0 -12  105.67    3.94
   5   0 -12  104.57    3.90
  -5   0  12   99.77    3.97
  -5   0  12  100.33    4.47
  -5   0  12   95.94    4.05
  -5   0  12  104.85    4.06
   4   0 -12  107.05    4.01
   4   0 -12  108.63    3.97
   4   0 -12  109.51    4.22
  -4   0  12  104.58    4.00
  -4   0  12   97.11    4.45
  -4   0  12   98.78    4.08
  -4   0  12  102.24    4.39
  -4   0  12  114.51    4.08
  -4   0  12  108.71    4.07
  -4   0  12  104.58    4.03
   3   0 -12   31.21    1.47
   3   0 -12   30.31    1.44
   3   0 -12   31.40    1.67
  -3   0  12   28.92    1.70
  -3   0  12   32.16    1.52
  -3   0  12   29.68    1.60
  -3   0  12   28.86    1.91
  -3   0  12   27.41    1.90
  -3   0  12   30.45    1.44
  -3   0  12   35.12    1.59
   2   0 -12  117.46    4.29
   2   0 -12  117.30    4.34
   2   0 -12  112.72    4.50
   2   0 -12  117.43    4.37
   2   0 -12  124.58    4.55
  -2   0  12  118.66    4.35
  -2   0  12  118.91    4.39
  -2   0  12  113.86    4.36
  -2   0  12  117.79    4.58
  -2   0  12  116.27    4.75
   1   0 -12    3.13    0.59
   1   0 -12    1.53    0.40
   1   0 -12    2.83    0.48
   1   0 -12    2.13    0.60
  -1   0  12    2.18    0.40
  -1   0  12    2.05    0.43
  -1   0  12    2.19    0.52
  -1   0  12    1.37    0.64
   0   0 -12   35.41    1.65
   0   0 -12   32.59    1.53
   0   0 -12   30.98    1.59
   0   0 -12   31.26    1.92
   0   0  12   33.18    1.63
   0   0  12   31.98    1.85
   0   0  12   32.69    1.55
   0   0  12   33.26    1.48
   0   0  12   34.43    1.51
   0   0  12   35.21    1.55
  -1   0 -12    0.64    0.38
  -1   0 -12    0.20    0.32
  -1   0 -12    0.71    0.38
  -1   0 -12   -0.08    0.56
   1   0  12    0.43    0.34
   1   0  12    0.45    0.41
   1   0  12    1.66    1.59
   1   0  12    0.00    0.50
   1   0  12    0.13    0.28
   1   0  12    0.97    0.33
   1   0  12    0.92    0.36
  -2   0 -12   23.52    1.74
  -2   0 -12   17.46    1.07
  -2   0 -12   17.73    1.13
  -2   0 -12   20.71    1.15
   2   0  12   17.98    1.33
   2   0  12   19.19    2.11
   2   0  12   20.05    1.11
   2   0  12   20.03    1.13
   2   0  12   19.52    1.23
   2   0  12   18.11    1.10
  -3   0 -12    0.42    0.85
  -3   0 -12    0.11    0.35
  -3   0 -12   -0.26    0.40
  -3   0 -12    0.20    0.38
   3   0  12   -0.87    0.34
   3   0  12   -0.18    0.35
   3   0  12    0.30    0.40
   3   0  12    0.11    0.58
  -4   0 -12   13.31    1.04
  -4   0 -12   14.10    1.09
  -4   0 -12   13.36    1.93
  -4   0 -12   13.53    0.96
   4   0  12   14.54    1.00
   4   0  12   14.14    1.21
   4   0  12   14.46    1.05
  -5   0 -12    1.72    0.54
  -5   0 -12    2.19    1.39
   5   0  12    1.18    0.45
   5   0  12    1.05    0.54
   5   0  12    2.11    0.69
   7  -1 -12    0.47    0.63
   7  -1 -12    0.18    0.48
   7  -1 -12    0.53    0.47
   7  -1 -12    0.32    0.72
  -7   1  12   -0.84    0.52
  -7   1  12   -0.02    0.55
   6  -1 -12    8.09    1.09
   6  -1 -12    8.29    0.87
   6  -1 -12    7.82    0.84
  -6   1  12    7.62    1.24
  -6   1  12    8.20    0.94
  -6   1  12    8.24    0.97
  -6   1  12    7.80    1.36
   5  -1 -12    7.22    0.97
   5  -1 -12    7.78    0.96
   5  -1 -12    7.80    0.78
   5  -1 -12    9.14    1.17
  -5   1  12    8.74    1.34
  -5   1  12    8.22    0.88
  -5   1  12    8.81    1.24
  -5   1  12    7.43    0.85
   4  -1 -12   40.90    1.85
   4  -1 -12   39.80    1.82
   4  -1 -12   42.20    1.83
   4  -1 -12   42.88    2.04
  -4   1  12   40.11    1.87
  -4   1  12   38.64    2.24
  -4   1  12   39.46    2.15
  -4   1  12   41.33    1.87
   3  -1 -12   56.97    2.40
   3  -1 -12   59.68    2.42
   3  -1 -12   59.58    2.55
   3  -1 -12   61.39    2.46
   3  -1 -12   57.11    2.44
   3  -1 -12   60.20    2.62
  -3   1  12   60.50    2.45
  -3   1  12   59.95    2.76
  -3   1  12   57.64    3.09
  -3   1  12   58.15    2.70
   2  -1 -12   16.01    1.00
   2  -1 -12   17.24    1.01
   2  -1 -12   17.37    1.03
   2  -1 -12   18.34    1.21
   2  -1 -12   18.74    1.07
  -2   1  12   17.12    1.36
  -2   1  12   15.11    1.02
  -2   1  12   15.80    2.37
  -2   1  12   17.59    1.04
  -2   1  12   15.21    1.13
   1  -1 -12  120.63    4.56
   1  -1 -12  105.67    4.89
   1  -1 -12  118.02    4.50
   1  -1 -12  119.14    4.50
   1  -1 -12  121.10    4.46
   1  -1 -12  119.70    4.42
  -1   1  12  126.63    4.90
  -1   1  12  123.87    4.44
  -1   1  12  119.15    4.43
  -1   1  12  115.14    5.21
  -1   1  12  120.90    4.52
   0  -1 -12   11.13    0.92
   0  -1 -12   10.29    0.70
   0  -1 -12    9.93    0.83
   0  -1 -12   11.07    0.99
   0  -1 -12    9.83    0.85
   0  -1 -12    7.52    0.81
   0   1  12    9.99    0.79
   0   1  12    9.31    0.78
   0   1  12    9.24    0.95
   0   1  12   11.30    1.75
  -1  -1 -12   26.43    1.64
  -1  -1 -12   25.12    1.35
  -1  -1 -12   26.80    1.36
  -1  -1 -12   23.23    1.31
  -1  -1 -12   25.11    1.35
   1   1  12   27.30    1.49
   1   1  12   25.31    1.30
   1   1  12   25.62    1.30
   1   1  12   24.68    1.30
   1   1  12   24.04    1.72
  -2  -1 -12   47.40    2.51
  -2  -1 -12   47.45    2.07
  -2  -1 -12   46.45    2.05
  -2  -1 -12   44.51    2.01
   2   1  12   45.80    2.10
   2   1  12   47.35    2.01
   2   1  12   46.89    2.01
   2   1  12   45.26    2.34
   2   1  12   43.97    1.96
   2   1  12   46.86    2.03
  -3  -1 -12    0.69    0.49
  -3  -1 -12    1.42    0.84
  -3  -1 -12    0.17    0.43
  -3  -1 -12   -0.44    0.37
   3   1  12   -0.07    0.36
   3   1  12   -0.02    0.44
   3   1  12    0.09    0.60
   3   1  12   -0.29    0.36
  -4  -1 -12    5.18    0.72
  -4  -1 -12    4.38    1.10
  -4  -1 -12    4.53    0.66
  -4  -1 -12    3.90    0.63
   4   1  12    4.10    0.79
   4   1  12    4.84    0.75
   4   1  12    3.33    0.56
   4   1  12    4.06    0.62
  -5  -1 -12    4.31    0.71
  -5  -1 -12    3.56    1.26
  -5  -1 -12    4.16    0.76
   5   1  12    4.11    0.71
   5   1  12    2.77    0.76
   5   1  12    3.45    0.59
   7  -2 -12   13.79    1.47
   7  -2 -12   14.86    1.18
   7  -2 -12   14.83    1.29
  -7   2  12   12.09    1.97
  -7   2  12    9.39    1.79
  -7   2  12   11.33    2.64
  -7   2  12   13.63    1.29
   6  -2 -12    0.35    0.49
   6  -2 -12    0.60    0.63
   6  -2 -12   -0.16    0.40
  -6   2  12    1.56    1.16
  -6   2  12   -1.12    0.96
  -6   2  12    0.72    0.49
   5  -2 -12   49.54    2.16
   5  -2 -12   50.01    2.35
   5  -2 -12   49.17    2.13
  -5   2  12   47.14    2.19
  -5   2  12   44.46    2.62
  -5   2  12   48.53    2.21
   4  -2 -12   27.01    1.40
   4  -2 -12   27.85    1.39
   4  -2 -12   24.46    1.56
   4  -2 -12   25.91    1.36
  -4   2  12   27.11    1.43
  -4   2  12   21.76    1.78
  -4   2  12   24.86    1.89
  -4   2  12   25.77    1.40
   3  -2 -12   67.08    2.63
   3  -2 -12   65.73    2.92
   3  -2 -12   68.04    2.72
   3  -2 -12   65.51    2.71
   3  -2 -12   70.99    2.76
  -3   2  12   66.54    2.74
  -3   2  12   70.79    2.79
  -3   2  12   63.59    3.24
   2  -2 -12   80.85    3.19
   2  -2 -12   81.85    3.31
   2  -2 -12   80.16    3.33
   2  -2 -12   83.17    3.17
  -2   2  12   78.80    3.17
  -2   2  12   82.13    3.21
  -2   2  12   80.24    3.78
   1  -2 -12   10.16    0.84
   1  -2 -12    8.88    0.84
   1  -2 -12   10.88    0.97
   1  -2 -12    8.42    0.79
   1  -2 -12    9.34    1.00
  -1   2  12   10.09    0.88
  -1   2  12   11.49    1.44
  -1   2  12    8.22    0.87
  -1   2  12   10.92    0.83
  -1   2  12   10.14    1.43
   0  -2 -12   89.50    3.60
   0  -2 -12   93.10    3.58
   0  -2 -12   90.27    3.48
   0  -2 -12   88.91    3.60
   0  -2 -12   89.43    3.50
   0  -2 -12   89.11    3.75
   0   2  12   87.44    4.17
   0   2  12   90.85    3.45
   0   2  12   94.78    3.49
   0   2  12   91.23    3.70
   0   2  12   88.18    4.20
  -1  -2 -12    4.14    0.58
  -1  -2 -12    4.37    0.60
  -1  -2 -12    4.41    0.68
  -1  -2 -12    5.48    0.73
  -1  -2 -12    5.26    0.95
  -1  -2 -12    3.34    0.59
   1   2  12    4.78    1.11
   1   2  12    4.41    0.60
   1   2  12    3.67    0.52
   1   2  12    3.16    0.96
   1   2  12    3.69    0.57
  -2  -2 -12   16.63    1.14
  -2  -2 -12   18.17    1.52
  -2  -2 -12   18.57    1.22
  -2  -2 -12   17.82    1.20
   2   2  12   20.24    1.16
   2   2  12   18.04    1.01
   2   2  12   17.29    1.25
   2   2  12   16.98    1.69
   2   2  12   18.21    1.27
  -3  -2 -12    4.34    0.69
  -3  -2 -12    5.35    0.70
  -3  -2 -12    4.18    0.62
   3   2  12    5.11    0.83
   3   2  12    5.62    0.78
   3   2  12    5.60    0.68
   3   2  12    4.06    0.57
   3   2  12    4.29    0.93
  -4  -2 -12    0.67    0.51
  -4  -2 -12    0.48    0.55
  -4  -2 -12    0.41    0.52
   4   2  12    1.34    0.85
   4   2  12    0.37    0.46
   6  -3 -12    5.07    1.13
   6  -3 -12    6.97    0.86
   6  -3 -12    7.12    0.89
  -6   3  12    5.18    2.17
  -6   3  12    7.78    1.45
   5  -3 -12   16.25    1.17
   5  -3 -12   16.98    1.23
   5  -3 -12   18.32    1.47
  -5   3  12   15.61    1.98
  -5   3  12   12.64    2.14
   4  -3 -12    9.34    0.87
   4  -3 -12    7.58    0.91
   4  -3 -12    7.37    1.11
  -4   3  12    5.55    1.43
  -4   3  12    6.40    0.94
  -4   3  12    4.71    1.53
   3  -3 -12   15.98    1.10
   3  -3 -12   15.00    1.04
   3  -3 -12   16.01    1.31
  -3   3  12   15.11    1.10
  -3   3  12   14.24    1.90
   2  -3 -12   12.47    1.14
   2  -3 -12   11.68    0.99
   2  -3 -12   11.34    0.91
  -2   3  12   12.76    1.01
  -2   3  12   11.23    1.78
  -2   3  12   11.11    1.72
   1  -3 -12   12.52    1.13
   1  -3 -12   12.92    1.02
   1  -3 -12   14.17    1.01
  -1   3  12   12.47    1.82
  -1   3  12   11.92    1.55
  -1   3  12   11.81    1.01
   0  -3 -12    1.43    0.49
   0  -3 -12    2.08    0.55
   0  -3 -12    1.93    0.57
   0  -3 -12    2.16    0.71
   0   3  12    2.11    0.52
   0   3  12    3.18    0.83
   0   3  12    2.66    1.06
  -1  -3 -12   -0.51    0.42
  -1  -3 -12   -0.41    0.46
  -1  -3 -12   -0.37    0.48
   1   3  12   -1.23    1.11
   1   3  12   -0.02    0.45
   1   3  12   -0.67    1.05
  -2  -3 -12    1.84    0.59
  -2  -3 -12    0.17    0.51
  -2  -3 -12    1.10    0.49
   2   3  12    1.37    0.53
   2   3  12   -2.37    1.12
   2   3  12    1.06    0.82
   2   3  12    0.46    1.32
  -3  -3 -12    1.97    0.68
  -3  -3 -12    3.45    0.70
  -3  -3 -12    2.87    0.67
   3   3  12    3.36    0.94
   3   3  12    2.81    1.63
   3   3  12   -0.27    1.31
   3   3  12    3.82    0.66
   3  -4 -12    4.77    0.73
   3  -4 -12    3.45    0.69
   3  -4 -12    4.63    0.98
  -3   4  12    4.85    1.60
  -3   4  12    5.47    1.90
   2  -4 -12   15.65    1.24
   2  -4 -12   14.93    1.23
   2  -4 -12   14.93    1.50
  -2   4  12   16.98    2.77
   1  -4 -12    1.12    0.78
   1  -4 -12    0.61    0.50
   1  -4 -12    1.58    0.59
  -1   4  12   -0.16    1.61
   0  -4 -12   17.65    1.32
   0  -4 -12   14.63    1.48
   0  -4 -12   15.81    1.30
   0   4  12   15.93    2.60
  -1  -4 -12    3.85    0.98
  -1  -4 -12    2.90    0.71
  -1  -4 -12    3.52    0.77
   1   4  12    3.08    2.05
   2   4 -13    5.07    1.87
  -2  -4  13    6.05    1.06
   1   4 -13    3.98    1.57
   1   4 -13    6.42    2.01
  -1  -4  13    7.34    1.26
  -1  -4  13    7.01    1.47
  -1  -4  13    7.66    1.07
  -1  -4  13    6.15    0.81
   5   3 -13    5.54    1.50
  -5  -3  13    4.53    0.80
  -5  -3  13    3.79    0.82
  -5  -3  13    6.01    1.29
  -5  -3  13    4.37    1.26
   4   3 -13    6.09    1.33
  -4  -3  13   10.15    1.14
  -4  -3  13    8.58    1.45
  -4  -3  13    8.49    1.54
  -4  -3  13    6.25    0.77
   3   3 -13    8.30    1.57
  -3  -3  13    9.32    1.46
  -3  -3  13   10.35    1.38
  -3  -3  13    8.87    1.02
  -3  -3  13    9.30    0.97
   2   3 -13    4.79    1.19
   2   3 -13    4.28    1.23
  -2  -3  13    6.38    0.86
  -2  -3  13    5.54    1.01
  -2  -3  13    5.51    0.68
  -2  -3  13    5.33    1.27
   1   3 -13   26.17    2.37
  -1  -3  13   28.14    1.46
  -1  -3  13   28.18    1.74
  -1  -3  13   28.50    1.90
  -1  -3  13   28.93    1.48
   0   3 -13    2.96    1.20
   0   3 -13    1.38    1.02
   0  -3  13    1.39    0.73
   0  -3  13    1.67    0.51
   0  -3  13    1.77    0.69
   0  -3  13    2.14    0.53
  -1   3 -13   18.53    2.48
   1  -3  13   21.44    1.55
   1  -3  13   21.93    1.26
   1  -3  13   22.11    1.26
   1  -3  13   19.72    1.69
  -2   3 -13    6.76    1.87
  -2   3 -13    5.31    1.35
   2  -3  13    6.83    0.93
   2  -3  13    7.32    0.90
   2  -3  13    6.27    1.00
   2  -3  13    7.03    1.15
   6   2 -13    2.02    0.95
   6   2 -13    2.17    1.06
   6   2 -13    2.30    0.57
  -6  -2  13    1.70    0.62
  -6  -2  13    2.02    0.71
  -6  -2  13    0.65    0.85
   5   2 -13   19.01    1.47
   5   2 -13   16.45    1.74
  -5  -2  13   14.14    1.60
  -5  -2  13   16.61    1.67
  -5  -2  13   18.64    1.30
  -5  -2  13   15.04    1.20
   4   2 -13   27.43    1.60
   4   2 -13   32.91    1.49
   4   2 -13   26.64    2.20
  -4  -2  13   28.97    1.98
  -4  -2  13   32.12    1.62
  -4  -2  13   29.55    1.92
  -4  -2  13   29.80    1.58
   3   2 -13    4.20    1.14
   3   2 -13    5.47    0.74
   3   2 -13    6.05    0.65
  -3  -2  13    3.91    0.80
  -3  -2  13    3.98    0.60
  -3  -2  13    4.22    0.59
  -3  -2  13    4.56    0.86
   2   2 -13   40.37    1.70
   2   2 -13   38.68    2.34
  -2  -2  13   37.25    1.76
  -2  -2  13   39.04    1.78
  -2  -2  13   37.14    2.08
  -2  -2  13   38.77    2.05
   1   2 -13    7.46    0.67
   1   2 -13    8.16    1.29
   1   2 -13    7.07    0.85
  -1  -2  13    6.68    0.69
  -1  -2  13    6.75    1.07
  -1  -2  13    5.76    0.76
  -1  -2  13    7.60    0.80
  -1  -2  13    5.79    0.97
   0   2 -13   17.46    1.03
   0   2 -13   21.59    2.20
   0  -2  13   18.66    1.38
   0  -2  13   19.08    1.12
   0  -2  13   18.37    1.33
   0  -2  13   18.77    1.12
  -1   2 -13    6.89    0.72
  -1   2 -13    4.26    1.17
   1  -2  13    5.43    0.74
   1  -2  13    5.94    0.88
   1  -2  13    5.26    0.71
   1  -2  13    3.51    0.70
  -2   2 -13    0.18    0.96
  -2   2 -13    2.95    0.50
  -2   2 -13    3.37    1.38
   2  -2  13    2.08    0.44
   2  -2  13    2.52    0.53
   2  -2  13    2.23    0.68
   2  -2  13    2.69    0.74
  -3   2 -13    7.09    1.64
   3  -2  13    6.42    0.87
   3  -2  13    7.21    1.20
   3  -2  13    6.49    0.88
   3  -2  13    6.09    0.91
  -4   2 -13    0.63    1.89
   4  -2  13   -0.08    0.84
   4  -2  13    0.07    0.55
   4  -2  13    0.27    0.57
   4  -2  13   -0.14    0.85
   7   1 -13    6.39    0.85
   7   1 -13    4.19    1.07
  -7  -1  13    3.51    0.71
  -7  -1  13    3.76    1.20
  -7  -1  13    2.15    0.82
   6   1 -13   29.15    1.83
   6   1 -13   30.74    2.16
   6   1 -13   32.69    1.57
  -6  -1  13   28.38    2.17
  -6  -1  13   31.18    1.74
  -6  -1  13   31.33    1.71
   5   1 -13   68.36    2.72
   5   1 -13   66.61    3.33
   5   1 -13   60.53    2.96
   5   1 -13   66.89    2.67
  -5  -1  13   68.59    2.82
  -5  -1  13   65.15    2.77
  -5  -1  13   60.98    3.16
   4   1 -13   16.70    1.03
   4   1 -13   14.45    1.26
   4   1 -13   14.76    1.59
   4   1 -13   17.43    1.14
  -4  -1  13   17.42    1.17
  -4  -1  13   14.61    1.49
  -4  -1  13   14.66    1.39
  -4  -1  13   15.12    1.10
  -4  -1  13   15.50    1.08
   3   1 -13  156.12    5.48
   3   1 -13  138.31    5.85
   3   1 -13  143.11    6.22
   3   1 -13  159.75    5.54
  -3  -1  13  153.22    5.56
  -3  -1  13  149.58    6.02
  -3  -1  13  155.37    5.54
  -3  -1  13  142.45    5.82
  -3  -1  13  153.32    5.50
   2   1 -13    6.43    1.00
   2   1 -13    4.82    1.02
   2   1 -13    5.25    0.79
   2   1 -13    5.50    0.73
   2   1 -13    6.10    0.72
  -2  -1  13    5.13    0.72
  -2  -1  13    6.24    0.86
  -2  -1  13    6.58    0.97
  -2  -1  13    5.07    0.64
  -2  -1  13    5.92    0.74
   1   1 -13   94.57    4.19
   1   1 -13  117.43    4.10
   1   1 -13  106.79    4.56
  -1  -1  13  108.62    4.35
  -1  -1  13  105.37    4.34
  -1  -1  13  115.62    4.11
  -1  -1  13  108.86    4.10
  -1  -1  13  112.03    4.13
  -1  -1  13  112.66    4.10
   0   1 -13   18.66    1.66
   0   1 -13   23.18    1.21
   0   1 -13   20.43    1.25
   0   1 -13   20.21    1.18
   0  -1  13   20.22    1.46
   0  -1  13   20.70    1.14
   0  -1  13   21.84    1.18
   0  -1  13   21.11    1.35
   0  -1  13   21.15    1.16
   0  -1  13   19.91    1.07
  -1   1 -13   23.22    1.31
  -1   1 -13   26.03    1.35
  -1   1 -13   24.80    1.95
  -1   1 -13   24.53    1.33
   1  -1  13   25.19    1.11
   1  -1  13   25.32    1.52
   1  -1  13   23.94    1.26
   1  -1  13   23.64    1.28
   1  -1  13   23.40    1.55
  -2   1 -13   20.91    1.26
  -2   1 -13   20.35    1.17
  -2   1 -13   19.54    1.92
   2  -1  13   21.53    1.19
   2  -1  13   21.30    1.46
   2  -1  13   21.55    1.41
   2  -1  13   21.19    1.20
  -3   1 -13   10.34    1.81
  -3   1 -13    8.13    0.85
   3  -1  13    6.54    0.85
   3  -1  13    7.82    1.02
   3  -1  13    6.57    1.05
   3  -1  13    7.34    0.82
  -4   1 -13    3.44    0.59
  -4   1 -13    5.13    1.41
  -4   1 -13    3.74    1.42
   4  -1  13    2.96    0.62
   4  -1  13    3.98    0.60
   4  -1  13    3.06    0.76
   7   0 -13    1.47    0.59
   7   0 -13    1.26    0.86
   7   0 -13    1.08    0.77
   7   0 -13    0.96    0.51
  -7   0  13    1.86    0.61
  -7   0  13    1.68    0.70
  -7   0  13    1.85    1.12
   6   0 -13    0.34    0.74
   6   0 -13    0.34    0.47
   6   0 -13    0.17    0.59
   6   0 -13    1.06    0.45
  -6   0  13    0.10    0.50
  -6   0  13    0.57    0.45
  -6   0  13    1.90    0.89
   5   0 -13   11.49    1.20
   5   0 -13   15.56    1.04
   5   0 -13   14.37    1.47
   5   0 -13   13.85    0.98
  -5   0  13   13.04    1.42
  -5   0  13   13.09    1.69
  -5   0  13   14.23    1.07
  -5   0  13   12.33    1.22
   4   0 -13   13.32    0.94
   4   0 -13   12.43    1.14
   4   0 -13   13.12    0.93
  -4   0  13   12.20    0.99
  -4   0  13   12.82    1.10
  -4   0  13   11.44    1.45
  -4   0  13   11.22    1.45
  -4   0  13   12.97    1.31
  -4   0  13   12.80    1.04
   3   0 -13   51.48    2.08
   3   0 -13   49.84    2.31
   3   0 -13   50.18    2.11
   3   0 -13   49.81    2.08
  -3   0  13   45.14    2.53
  -3   0  13   46.97    2.07
  -3   0  13   47.17    2.11
  -3   0  13   48.52    2.15
  -3   0  13   47.29    2.27
   2   0 -13   27.41    1.59
   2   0 -13   28.06    1.28
   2   0 -13   30.90    1.48
   2   0 -13   31.50    1.46
   2   0 -13   31.26    1.65
  -2   0  13   28.20    1.44
  -2   0  13   28.88    1.85
  -2   0  13   28.47    1.47
  -2   0  13   26.94    1.38
  -2   0  13   28.34    1.63
   1   0 -13    1.28    0.43
   1   0 -13    1.33    0.49
   1   0 -13    1.46    0.61
  -1   0  13    1.61    0.42
  -1   0  13    1.12    0.51
  -1   0  13    1.73    0.65
  -1   0  13    1.10    0.33
  -1   0  13    1.63    0.42
   0   0 -13   73.91    3.38
   0   0 -13   76.58    3.04
   0   0 -13   79.39    3.13
   0   0 -13   79.49    3.07
   0   0  13   76.79    3.04
   0   0  13   78.00    3.03
   0   0  13   78.06    3.02
   0   0  13   76.81    3.16
   0   0  13   73.45    3.31
  -1   0 -13    0.42    0.38
  -1   0 -13    0.46    0.71
  -1   0 -13    0.38    0.37
  -1   0 -13   -0.14    0.38
   1   0  13    0.09    0.44
   1   0  13    0.04    0.39
   1   0  13   -0.14    0.59
   1   0  13   -0.78    0.56
   1   0  13    0.13    0.37
   1   0  13   -0.19    0.35
  -2   0 -13    0.02    0.42
  -2   0 -13   -0.40    0.38
  -2   0 -13   -0.30    0.38
  -2   0 -13    1.64    0.85
   2   0  13    0.48    0.58
   2   0  13   -0.41    0.37
   2   0  13    1.13    0.49
   2   0  13   -0.36    0.35
   2   0  13    0.17    0.46
  -3   0 -13   13.40    1.08
  -3   0 -13   12.06    0.91
  -3   0 -13   13.79    1.77
  -3   0 -13   13.59    1.04
   3   0  13   14.20    1.01
   3   0  13   13.19    1.24
   3   0  13   12.93    1.12
   3   0  13   15.17    1.03
  -4   0 -13    2.31    1.28
  -4   0 -13    1.78    0.54
   4   0  13    1.54    0.70
   4   0  13    2.13    0.52
   4   0  13    0.51    0.44
   7  -1 -13    3.10    0.92
   7  -1 -13    2.93    0.61
   7  -1 -13    3.59    0.91
   7  -1 -13    1.30    0.62
  -7   1  13    2.29    1.34
  -7   1  13    5.22    0.80
   6  -1 -13   29.11    1.57
   6  -1 -13   30.16    1.58
   6  -1 -13   32.40    1.84
  -6   1  13   29.22    1.66
  -6   1  13   27.45    2.34
  -6   1  13   26.46    1.98
  -6   1  13   33.61    1.76
   5  -1 -13   64.10    2.67
   5  -1 -13   69.00    2.76
   5  -1 -13   65.83    2.90
  -5   1  13   64.44    2.76
  -5   1  13   65.06    3.07
  -5   1  13   56.75    3.79
  -5   1  13   69.49    2.82
   4  -1 -13   17.49    1.08
   4  -1 -13   17.66    1.29
   4  -1 -13   18.72    1.16
  -4   1  13   16.11    1.14
  -4   1  13   16.27    1.48
  -4   1  13   18.52    1.16
  -4   1  13   15.79    1.49
   3  -1 -13  147.22    5.68
   3  -1 -13  152.85    5.75
   3  -1 -13  161.27    5.68
   3  -1 -13  159.24    5.83
   3  -1 -13  157.28    5.63
  -3   1  13  152.40    5.65
  -3   1  13  146.66    6.26
  -3   1  13  146.00    5.92
  -3   1  13  157.08    5.66
  -3   1  13  152.71    6.02
   2  -1 -13    5.55    0.65
   2  -1 -13    6.33    0.78
   2  -1 -13    6.28    0.73
   2  -1 -13    6.43    0.77
   2  -1 -13    7.48    0.93
   2  -1 -13    6.87    0.83
  -2   1  13    6.90    0.77
  -2   1  13    5.93    0.85
  -2   1  13    5.59    0.98
  -2   1  13    5.77    0.73
  -2   1  13    4.95    0.95
   1  -1 -13  109.39    4.10
   1  -1 -13  116.53    4.17
   1  -1 -13  106.16    4.13
   1  -1 -13  107.63    4.20
   1  -1 -13   98.04    4.46
   1  -1 -13  108.14    4.05
  -1   1  13  108.90    4.10
  -1   1  13  111.27    4.67
  -1   1  13  111.34    4.22
  -1   1  13  116.18    4.13
  -1   1  13   98.79    5.00
   0  -1 -13   22.09    1.27
   0  -1 -13   22.75    1.09
   0  -1 -13   22.62    1.33
   0  -1 -13   20.92    1.43
   0  -1 -13   20.26    1.20
   0   1  13   18.84    1.67
   0   1  13   21.58    1.20
   0   1  13   23.01    1.24
   0   1  13   21.96    1.23
  -1  -1 -13   22.71    1.35
  -1  -1 -13   23.93    1.30
  -1  -1 -13   20.94    1.71
  -1  -1 -13   23.85    1.36
   1   1  13   25.32    1.31
   1   1  13   24.78    1.31
   1   1  13   25.72    1.75
   1   1  13   23.94    1.53
   1   1  13   25.89    1.32
  -2  -1 -13   19.95    2.06
  -2  -1 -13   20.77    1.32
  -2  -1 -13   21.10    1.51
  -2  -1 -13   20.74    1.25
   2   1  13   21.87    1.26
   2   1  13   23.65    1.65
   2   1  13   21.82    1.27
   2   1  13   23.87    1.25
  -3  -1 -13    6.78    0.89
  -3  -1 -13    6.68    0.89
  -3  -1 -13    6.56    1.27
  -3  -1 -13    6.86    0.93
   3   1  13    6.76    0.82
   3   1  13    5.89    0.87
   3   1  13    6.43    0.96
   3   1  13    6.76    0.85
  -4  -1 -13    2.90    0.65
  -4  -1 -13    2.69    0.65
  -4  -1 -13    3.44    0.64
  -4  -1 -13    5.43    1.34
   4   1  13    2.72    0.55
   4   1  13    2.69    0.57
   4   1  13    3.24    0.84
   6  -2 -13    2.21    0.62
   6  -2 -13    3.30    0.86
   6  -2 -13    2.64    0.55
  -6   2  13    1.97    0.63
  -6   2  13   -0.71    1.25
  -6   2  13    1.66    1.10
   5  -2 -13   17.54    1.17
   5  -2 -13   15.56    1.44
   5  -2 -13   17.17    1.21
  -5   2  13   18.47    1.23
  -5   2  13   15.49    1.73
   4  -2 -13   31.41    1.59
   4  -2 -13   32.09    1.80
   4  -2 -13   32.17    1.61
  -4   2  13   31.97    1.63
  -4   2  13   30.15    1.62
  -4   2  13   29.02    2.18
   3  -2 -13    4.26    0.59
   3  -2 -13    4.71    0.61
   3  -2 -13    4.10    0.70
  -3   2  13    3.61    0.92
  -3   2  13    4.76    0.66
  -3   2  13    3.86    0.60
  -3   2  13    2.83    0.74
   2  -2 -13   37.48    1.76
   2  -2 -13   38.08    1.73
   2  -2 -13   35.06    1.86
  -2   2  13   38.02    1.74
  -2   2  13   37.33    2.37
  -2   2  13   29.71    1.84
  -2   2  13   37.66    1.77
   1  -2 -13    6.01    0.77
   1  -2 -13    5.88    0.82
   1  -2 -13    7.15    1.06
   1  -2 -13    6.87    0.86
   1  -2 -13    6.61    0.90
  -1   2  13    6.70    0.81
  -1   2  13    7.56    1.32
  -1   2  13    4.92    0.86
  -1   2  13    6.77    0.76
  -1   2  13    5.58    1.12
   0  -2 -13   18.03    1.24
   0  -2 -13   16.89    1.62
   0  -2 -13   20.09    1.58
   0  -2 -13   19.41    1.21
   0  -2 -13   16.76    1.15
   0   2  13   21.23    1.18
   0   2  13   17.31    1.90
   0   2  13   16.41    1.81
   0   2  13   18.02    1.14
   0   2  13   16.25    1.09
  -1  -2 -13    3.58    0.61
  -1  -2 -13    5.42    0.90
  -1  -2 -13    4.26    0.63
  -1  -2 -13    5.59    0.86
   1   2  13    5.87    0.77
   1   2  13    4.91    0.66
   1   2  13    6.26    1.13
   1   2  13    4.86    1.14
   1   2  13    4.45    0.57
  -2  -2 -13    2.11    0.59
  -2  -2 -13    2.00    0.54
  -2  -2 -13    2.88    0.61
  -2  -2 -13    2.67    0.94
   2   2  13    3.78    0.58
   2   2  13    1.81    0.89
   2   2  13    3.08    0.82
   2   2  13    2.11    0.49
  -3  -2 -13    7.68    1.25
  -3  -2 -13    6.45    0.91
  -3  -2 -13    8.69    1.01
  -3  -2 -13    6.22    0.83
   3   2  13    7.17    0.87
   3   2  13    7.98    1.24
   3   2  13    7.91    1.13
   3   2  13    6.47    0.87
  -4  -2 -13   -0.10    0.53
  -4  -2 -13    0.61    0.61
  -4  -2 -13    0.48    1.08
  -4  -2 -13    0.87    0.74
   4   2  13   -0.32    1.00
   4   2  13   -0.54    0.53
   5  -3 -13    5.16    1.02
   5  -3 -13    4.60    0.75
   5  -3 -13    5.85    0.82
  -5   3  13    3.52    1.85
  -5   3  13    3.46    2.06
  -5   3  13    5.47    0.79
   4  -3 -13    7.42    1.07
   4  -3 -13    8.20    1.02
   4  -3 -13    6.77    0.97
  -4   3  13    9.20    1.57
  -4   3  13    8.70    1.07
   3  -3 -13    9.13    1.03
   3  -3 -13   10.16    1.00
   3  -3 -13   10.20    1.17
  -3   3  13    7.56    1.56
  -3   3  13   10.28    1.08
   2  -3 -13    6.23    0.82
   2  -3 -13    5.26    0.83
   2  -3 -13    6.46    0.90
  -2   3  13    5.20    1.31
  -2   3  13    6.29    1.04
  -2   3  13    4.04    1.45
   1  -3 -13   30.01    1.58
   1  -3 -13   26.96    1.67
   1  -3 -13   30.23    1.55
  -1   3  13   31.50    1.60
  -1   3  13   26.29    2.16
  -1   3  13   24.91    2.61
   0  -3 -13    2.53    0.67
   0  -3 -13    1.72    0.54
   0  -3 -13    1.45    0.52
   0   3  13    0.90    1.20
   0   3  13    2.29    0.56
  -1  -3 -13   20.56    1.36
  -1  -3 -13   19.84    1.43
  -1  -3 -13   19.82    1.38
   1   3  13   17.07    2.55
   1   3  13   22.39    1.33
  -2  -3 -13    7.18    1.12
  -2  -3 -13    5.73    0.82
  -2  -3 -13    6.57    0.83
   2   3  13    9.09    1.00
   2   3  13    6.94    1.15
   2   3  13    8.38    1.85
   2   3  13    3.22    1.37
  -2   4  13    5.90    2.80
   1  -4 -13    5.23    0.99
   1  -4 -13    5.53    0.81
  -1   4  13    2.97    3.35
   4   3 -14    3.01    1.61
  -4  -3  14    4.25    1.28
  -4  -3  14    5.56    0.85
  -4  -3  14    5.74    1.10
  -4  -3  14    4.73    0.83
  -3  -3  14   26.19    2.18
  -3  -3  14   27.71    1.64
  -3  -3  14   28.39    1.62
  -3  -3  14   29.96    2.00
   2   3 -14    0.85    1.28
   2   3 -14    1.49    1.15
  -2  -3  14    2.48    0.62
  -2  -3  14    2.65    0.91
  -2  -3  14    2.62    0.79
  -2  -3  14    2.76    0.59
   1   3 -14    8.43    1.58
  -1  -3  14    7.28    0.95
  -1  -3  14    7.07    0.95
  -1  -3  14    8.37    1.36
  -1  -3  14    8.26    1.28
   0   3 -14    7.98    1.70
   0  -3  14    7.72    1.36
   0  -3  14    8.43    1.28
   0  -3  14    8.47    0.93
   0  -3  14    7.70    1.00
  -1   3 -14    1.22    1.72
  -1   3 -14   -1.25    1.23
   1  -3  14   -0.14    0.75
   1  -3  14    1.71    0.62
   1  -3  14    1.12    0.54
   1  -3  14    0.41    0.79
   6   2 -14   12.84    1.13
   6   2 -14   11.56    2.06
  -6  -2  14   11.50    2.13
  -6  -2  14   12.63    1.45
  -6  -2  14   11.89    1.51
   5   2 -14    6.59    1.40
   5   2 -14    6.13    0.74
  -5  -2  14    4.46    1.02
  -5  -2  14    5.23    1.10
  -5  -2  14    5.07    0.73
  -5  -2  14    5.89    0.84
   4   2 -14   26.10    2.43
   4   2 -14   33.25    1.58
  -4  -2  14   31.18    2.07
  -4  -2  14   31.93    1.71
  -4  -2  14   31.51    2.11
  -4  -2  14   29.82    1.65
   3   2 -14    1.81    0.45
   3   2 -14    0.32    0.97
  -3  -2  14    1.99    0.82
  -3  -2  14    1.98    0.51
  -3  -2  14    1.58    0.54
  -3  -2  14    2.09    0.73
   2   2 -14   29.55    1.41
   2   2 -14   26.69    2.09
  -2  -2  14   28.39    1.49
  -2  -2  14   27.29    1.58
  -2  -2  14   28.54    1.80
  -2  -2  14   26.74    1.77
   1   2 -14   15.49    0.97
   1   2 -14   11.66    1.73
  -1  -2  14   13.36    1.35
  -1  -2  14   14.37    1.02
  -1  -2  14   13.74    1.30
  -1  -2  14   14.65    1.07
   0   2 -14   18.88    2.06
   0   2 -14   20.61    1.11
   0  -2  14   17.52    1.16
   0  -2  14   18.02    1.14
   0  -2  14   18.60    1.42
   0  -2  14   18.83    1.44
  -1   2 -14   12.60    0.95
  -1   2 -14   10.87    1.86
   1  -2  14   11.52    0.96
   1  -2  14   10.36    1.30
   1  -2  14   10.89    1.05
   1  -2  14   10.68    1.20
  -2   2 -14    4.17    1.27
  -2   2 -14    6.83    1.56
   2  -2  14    5.81    0.99
   2  -2  14    4.67    0.65
   2  -2  14    5.62    0.94
   2  -2  14    5.14    0.67
  -3   2 -14    6.56    1.58
  -3   2 -14    8.92    2.18
   3  -2  14   10.52    1.08
   3  -2  14   10.61    1.15
   3  -2  14   11.40    1.56
   3  -2  14   10.38    1.53
   6   1 -14   18.09    1.17
   6   1 -14   16.57    1.90
   6   1 -14   16.49    1.54
  -6  -1  14   20.45    1.39
  -6  -1  14   17.85    1.44
  -6  -1  14   18.02    1.92
   5   1 -14   13.85    1.37
   5   1 -14   18.24    1.09
   5   1 -14   14.86    1.77
  -5  -1  14   15.52    1.54
  -5  -1  14   16.18    1.28
  -5  -1  14   18.11    1.24
   4   1 -14    7.41    1.01
   4   1 -14    8.14    0.82
   4   1 -14    7.79    1.47
   4   1 -14    8.80    0.86
  -4  -1  14    8.73    0.97
  -4  -1  14    7.37    0.93
  -4  -1  14    6.06    1.13
  -4  -1  14    8.89    0.95
  -4  -1  14    8.23    1.34
   3   1 -14   43.68    2.74
   3   1 -14   43.13    2.24
   3   1 -14   46.86    1.97
   3   1 -14   45.71    2.01
  -3  -1  14   44.95    2.03
  -3  -1  14   44.86    2.07
  -3  -1  14   43.69    2.30
  -3  -1  14   43.09    2.42
  -3  -1  14   44.02    2.10
   2   1 -14    5.74    1.02
   2   1 -14    3.80    0.72
   2   1 -14    6.03    0.75
   2   1 -14    5.54    1.15
  -2  -1  14    3.92    0.86
  -2  -1  14    3.90    0.57
  -2  -1  14    4.98    0.64
  -2  -1  14    3.60    0.73
   1   1 -14   29.70    1.65
   1   1 -14   27.71    1.99
   1   1 -14   30.03    1.63
  -1  -1  14   27.77    1.79
  -1  -1  14   28.76    1.47
  -1  -1  14   31.45    1.51
  -1  -1  14   28.58    1.70
   0   1 -14    3.31    0.66
   0   1 -14    3.72    1.00
   0   1 -14    2.78    0.51
   0  -1  14    3.12    0.62
   0  -1  14    3.00    0.50
   0  -1  14    3.04    0.53
   0  -1  14    3.56    0.82
  -1   1 -14   24.17    1.29
  -1   1 -14   21.28    1.39
  -1   1 -14   21.51    2.03
  -1   1 -14   25.03    1.33
   1  -1  14   22.41    1.48
   1  -1  14   22.12    1.27
   1  -1  14   22.13    1.27
   1  -1  14   22.45    1.61
  -2   1 -14    0.74    1.03
  -2   1 -14    1.81    0.50
   2  -1  14    1.53    0.58
   2  -1  14    0.95    0.46
   2  -1  14    0.48    0.65
   2  -1  14    1.23    0.46
  -3   1 -14    1.46    1.28
  -3   1 -14    0.64    0.46
   3  -1  14    0.15    0.61
   3  -1  14    0.29    0.47
   3  -1  14   -0.84    0.43
   3  -1  14   -0.04    0.67
  -4   1 -14    2.60    1.69
   4  -1  14    2.93    1.04
   4  -1  14    2.06    0.76
   4  -1  14    3.30    0.67
   7   0 -14    9.78    1.51
   7   0 -14   10.03    1.44
   7   0 -14    9.98    1.20
   7   0 -14    9.50    1.12
  -7   0  14    6.51    1.10
  -7   0  14   11.97    1.29
  -7   0  14    8.29    1.56
   6   0 -14   11.88    1.31
   6   0 -14   12.86    1.14
   6   0 -14   13.95    1.11
   6   0 -14   13.71    1.55
  -6   0  14   11.86    1.19
  -6   0  14   14.65    1.72
  -6   0  14   12.28    1.16
   5   0 -14    8.11    1.01
   5   0 -14    8.40    0.93
   5   0 -14    6.96    0.85
   5   0 -14    9.98    1.40
  -5   0  14    7.63    1.27
  -5   0  14    7.20    0.95
  -5   0  14    9.10    1.01
  -5   0  14    6.18    1.28
   4   0 -14  116.13    4.26
   4   0 -14  119.43    4.49
   4   0 -14  114.47    4.21
  -4   0  14  106.22    4.40
  -4   0  14  107.35    4.25
  -4   0  14  113.59    4.32
  -4   0  14  105.40    4.63
  -4   0  14  101.56    4.75
   3   0 -14   12.92    0.96
   3   0 -14   13.62    0.98
   3   0 -14   13.19    1.19
  -3   0  14   13.23    1.00
  -3   0  14   11.39    1.19
  -3   0  14   10.44    1.19
  -3   0  14   12.26    1.48
   2   0 -14  130.99    5.23
   2   0 -14  141.68    5.26
   2   0 -14  141.07    5.06
   2   0 -14  137.98    5.08
  -2   0  14  130.43    5.05
  -2   0  14  141.36    5.14
  -2   0  14  130.78    5.28
  -2   0  14  138.64    5.08
  -2   0  14  133.49    5.52
   1   0 -14   56.16    2.32
   1   0 -14   52.67    2.58
   1   0 -14   51.96    2.27
   1   0 -14   57.08    2.43
  -1   0  14   53.00    2.27
  -1   0  14   51.53    2.43
  -1   0  14   51.93    2.69
  -1   0  14   53.97    2.29
  -1   0  14   50.93    2.57
   0   0 -14    9.77    0.89
   0   0 -14   10.07    0.89
   0   0 -14   10.05    0.97
   0   0 -14    8.38    1.28
   0   0  14    9.52    0.97
   0   0  14   10.39    0.88
   0   0  14    7.83    0.84
   0   0  14   10.60    1.23
   0   0  14    9.57    0.88
  -1   0 -14   40.88    1.85
  -1   0 -14   39.82    1.89
  -1   0 -14   40.85    1.90
   1   0  14   38.88    2.16
   1   0  14   40.05    1.99
   1   0  14   40.97    1.86
   1   0  14   39.87    1.85
  -2   0 -14    0.40    0.88
  -2   0 -14    0.22    0.45
  -2   0 -14    0.50    0.46
  -2   0 -14    0.39    0.45
   2   0  14    0.14    0.38
   2   0  14    0.23    0.46
   2   0  14    0.88    0.67
   2   0  14   -0.04    0.41
  -3   0 -14    0.15    0.51
  -3   0 -14    0.58    0.50
  -3   0 -14    0.19    1.09
   3   0  14    0.55    0.49
   3   0  14    0.28    0.50
   3   0  14    0.92    0.43
   3   0  14    1.41    0.71
  -4   0 -14   -0.22    1.24
  -4   0 -14    1.92    0.61
   4   0  14   -0.08    0.51
   4   0  14   -0.45    0.59
   4   0  14   -0.37    0.76
   4   0  14    0.48    0.57
   6  -1 -14   19.45    1.30
   6  -1 -14   18.23    1.29
   6  -1 -14   19.21    1.54
  -6   1  14   18.73    1.43
  -6   1  14   15.43    2.07
  -6   1  14   16.47    1.39
  -6   1  14   15.48    1.81
   5  -1 -14   19.56    1.44
   5  -1 -14   18.06    1.21
   5  -1 -14   17.52    1.21
  -5   1  14   18.32    1.73
  -5   1  14   17.23    1.23
  -5   1  14   15.91    1.76
  -5   1  14   20.29    1.38
   4  -1 -14    8.36    0.88
   4  -1 -14    8.20    0.98
   4  -1 -14    8.32    1.06
  -4   1  14   10.12    0.95
  -4   1  14    8.10    1.31
  -4   1  14    8.21    0.97
  -4   1  14    6.45    1.03
   3  -1 -14   44.80    2.00
   3  -1 -14   47.38    2.23
   3  -1 -14   46.24    2.15
  -3   1  14   42.72    2.70
  -3   1  14   47.96    2.07
  -3   1  14   43.01    2.50
  -3   1  14   42.12    2.29
  -3   1  14   42.21    2.02
   2  -1 -14    6.05    0.84
   2  -1 -14    4.86    0.64
   2  -1 -14    4.02    0.62
   2  -1 -14    5.46    0.72
  -2   1  14    5.20    1.00
  -2   1  14    2.55    0.95
  -2   1  14    5.39    0.77
  -2   1  14    4.84    0.74
  -2   1  14    5.62    0.80
   1  -1 -14   27.75    1.58
   1  -1 -14   28.88    1.55
   1  -1 -14   28.79    1.47
   1  -1 -14   27.82    1.61
  -1   1  14   28.95    1.94
  -1   1  14   29.48    1.46
  -1   1  14   28.67    1.48
  -1   1  14   29.36    1.56
  -1   1  14   26.19    1.98
   0  -1 -14    2.85    0.54
   0  -1 -14    3.31    0.63
   0  -1 -14    2.54    0.56
   0  -1 -14    4.82    0.84
   0   1  14    3.62    0.59
   0   1  14    3.50    0.57
   0   1  14    4.01    0.97
   0   1  14    3.12    0.57
  -1  -1 -14   22.87    1.38
  -1  -1 -14   20.83    1.33
  -1  -1 -14   23.86    1.38
  -1  -1 -14   24.15    1.79
   1   1  14   24.74    1.34
   1   1  14   24.27    1.35
   1   1  14   21.38    1.77
   1   1  14   22.58    1.30
  -2  -1 -14    0.91    0.49
  -2  -1 -14    0.32    0.50
  -2  -1 -14    1.45    0.94
  -2  -1 -14    1.25    0.51
   2   1  14    1.99    0.75
   2   1  14    1.58    0.55
   2   1  14    1.19    0.51
   2   1  14    1.00    0.48
  -3  -1 -14    1.26    0.57
  -3  -1 -14    0.32    0.54
  -3  -1 -14    0.97    1.04
  -3  -1 -14    0.49    0.56
   3   1  14   -0.55    0.43
   3   1  14    1.16    0.54
   3   1  14    0.56    0.77
   3   1  14    0.40    0.48
  -4  -1 -14    0.50    1.25
   4   1  14    2.54    0.71
   4   1  14    4.20    1.02
   4   1  14    0.77    0.54
   6  -2 -14   12.40    1.47
   6  -2 -14   12.76    1.19
   6  -2 -14   13.05    1.72
  -6   2  14    9.20    1.60
  -6   2  14   13.67    1.31
   5  -2 -14    6.33    0.79
   5  -2 -14    5.34    0.91
   5  -2 -14    5.42    0.71
  -5   2  14    6.42    1.30
  -5   2  14    2.70    2.02
  -5   2  14    5.46    0.77
   4  -2 -14   30.52    1.86
   4  -2 -14   30.91    1.61
   4  -2 -14   29.81    1.60
  -4   2  14   27.50    2.23
  -4   2  14   30.81    1.66
   3  -2 -14    1.45    0.53
   3  -2 -14    2.04    0.64
   3  -2 -14    1.32    0.50
  -3   2  14    2.06    0.54
  -3   2  14    1.97    0.53
  -3   2  14    1.11    0.76
  -3   2  14    1.70    0.90
   2  -2 -14   27.78    1.48
   2  -2 -14   27.88    1.62
   2  -2 -14   28.02    1.50
  -2   2  14   23.17    1.66
  -2   2  14   28.94    1.53
  -2   2  14   29.36    1.50
  -2   2  14   27.88    2.22
  -2   2  14   26.35    2.28
   1  -2 -14   11.89    1.13
   1  -2 -14   15.01    1.14
   1  -2 -14   12.65    1.06
  -1   2  14   14.10    1.71
  -1   2  14   14.33    1.82
  -1   2  14   13.20    1.06
  -1   2  14   14.59    1.08
  -1   2  14   13.62    1.85
   0  -2 -14   18.32    1.34
   0  -2 -14   17.00    1.21
   0  -2 -14   19.36    1.31
   0  -2 -14   18.99    1.24
   0   2  14   18.30    1.18
   0   2  14   15.62    1.92
   0   2  14   20.71    1.22
   0   2  14   24.17    2.08
  -1  -2 -14    9.76    1.36
  -1  -2 -14   11.34    1.07
  -1  -2 -14   12.25    1.08
  -1  -2 -14   11.14    1.07
   1   2  14   12.53    1.06
   1   2  14    9.66    1.41
   1   2  14   11.55    0.99
   1   2  14   11.57    1.69
  -2  -2 -14    5.71    1.20
  -2  -2 -14    6.91    0.96
  -2  -2 -14    5.84    0.79
  -2  -2 -14    7.77    0.99
   2   2  14    5.82    1.23
   2   2  14    6.40    0.75
  -3  -2 -14   11.07    1.15
  -3  -2 -14   12.57    1.87
  -3  -2 -14    7.90    1.03
  -3  -2 -14   11.63    1.12
   3   2  14    9.23    1.39
   3   2  14   11.98    1.15
   4  -3 -14    4.79    0.75
   4  -3 -14    4.84    1.02
   4  -3 -14    5.31    0.84
  -4   3  14    0.45    1.84
  -4   3  14    6.08    0.83
  -4   3  14    5.14    1.58
   3  -3 -14   28.33    1.68
   3  -3 -14   28.09    1.86
   3  -3 -14   31.98    1.69
  -3   3  14   28.80    2.73
  -3   3  14   30.38    1.71
   2  -3 -14    2.91    0.79
   2  -3 -14    1.46    0.54
   2  -3 -14    2.30    0.64
  -2   3  14    3.11    0.71
  -2   3  14    0.99    1.51
  -2   3  14    2.87    1.38
   1  -3 -14    7.79    1.05
   1  -3 -14    7.47    1.13
   1  -3 -14    8.98    1.03
  -1   3  14    6.71    1.66
  -1   3  14    8.77    1.04
   0  -3 -14    7.39    1.06
   0  -3 -14    7.55    1.09
   0  -3 -14    7.52    1.03
   0   3  14    6.62    1.76
   0   3  14    7.73    0.99
  -1  -3 -14    0.72    0.68
  -1  -3 -14    0.66    0.67
  -1  -3 -14    0.39    0.59
   1   3  14   -0.73    1.70
   1   3  14    0.23    1.30
   1   3  14   -0.04    0.56
   2   3 -15   -0.39    1.70
   2   3 -15    0.23    1.25
  -2  -3  15    0.54    0.76
  -2  -3  15    1.60    0.88
  -2  -3  15    1.03    1.10
   1   3 -15   -0.45    1.50
   1   3 -15    1.72    1.35
  -1  -3  15    2.54    1.13
  -1  -3  15    1.08    0.74
  -1  -3  15    1.38    0.59
  -1  -3  15    1.92    0.91
   5   2 -15    7.24    1.00
   5   2 -15    5.77    1.70
  -5  -2  15    5.72    1.35
  -5  -2  15    4.70    0.84
  -5  -2  15    6.49    0.99
  -5  -2  15    5.31    1.25
   4   2 -15   42.65    1.89
   4   2 -15   32.83    2.93
  -4  -2  15   40.28    2.02
  -4  -2  15   37.01    2.42
  -4  -2  15   39.97    2.05
  -4  -2  15   40.04    2.51
   3   2 -15    1.42    1.18
   3   2 -15    1.64    0.50
  -3  -2  15    1.76    0.76
  -3  -2  15    1.56    0.56
  -3  -2  15    1.70    0.96
  -3  -2  15    0.77    0.57
   2   2 -15   33.84    2.36
   2   2 -15   35.56    1.66
  -2  -2  15   32.94    1.73
  -2  -2  15   32.33    1.73
  -2  -2  15   31.97    2.06
  -2  -2  15   33.64    2.07
   1   2 -15   12.98    0.98
   1   2 -15   10.20    1.91
   1   2 -15    9.05    1.73
  -1  -2  15   11.62    1.40
  -1  -2  15   13.93    1.10
  -1  -2  15   14.10    1.06
  -1  -2  15   11.67    1.33
   0   2 -15    2.16    1.19
   0   2 -15    4.95    0.86
   0   2 -15    4.05    1.33
   0  -2  15    6.37    0.88
   0  -2  15    5.20    0.68
   0  -2  15    3.46    0.79
   0  -2  15    4.51    0.95
  -1   2 -15    9.70    1.75
  -1   2 -15    7.49    1.60
   1  -2  15   11.35    1.07
   1  -2  15    9.31    1.28
   1  -2  15    9.54    1.34
   1  -2  15   11.27    1.08
  -2   2 -15   -0.61    1.28
  -2   2 -15    1.48    1.57
   2  -2  15    1.30    0.99
   2  -2  15    2.75    0.94
   2  -2  15    2.74    0.69
   2  -2  15    1.09    0.60
   6   1 -15    3.59    1.06
   6   1 -15    5.10    1.43
  -6  -1  15    6.24    0.84
  -6  -1  15    5.74    1.12
  -6  -1  15    4.69    1.24
   5   1 -15   20.59    2.07
   5   1 -15   22.31    1.26
   5   1 -15   15.69    1.58
  -5  -1  15   20.42    1.41
  -5  -1  15   18.54    1.46
  -5  -1  15   18.86    1.79
   4   1 -15    4.16    1.18
   4   1 -15    4.15    0.58
  -4  -1  15    4.33    0.73
  -4  -1  15    2.23    0.78
  -4  -1  15    2.31    0.90
  -4  -1  15    3.15    0.61
   3   1 -15   44.50    2.81
   3   1 -15   46.84    1.99
   3   1 -15   42.19    2.25
  -3  -1  15   43.63    2.13
  -3  -1  15   44.98    2.09
  -3  -1  15   42.45    2.32
  -3  -1  15   43.13    2.48
  -3  -1  15   43.71    2.06
   2   1 -15   22.50    1.27
   2   1 -15   21.53    1.99
   2   1 -15   21.38    1.49
  -2  -1  15   20.43    1.76
  -2  -1  15   21.17    1.33
  -2  -1  15   23.42    1.36
  -2  -1  15   22.95    1.57
   1   1 -15   14.99    1.70
   1   1 -15   17.97    1.32
   1   1 -15   17.54    1.13
  -1  -1  15   13.89    1.30
  -1  -1  15   17.44    1.15
  -1  -1  15   17.21    1.15
  -1  -1  15   16.83    1.52
   0   1 -15   33.43    1.73
   0   1 -15   32.97    1.59
   0   1 -15   29.54    2.19
   0  -1  15   29.46    1.91
   0  -1  15   31.92    1.60
   0  -1  15   30.44    1.58
   0  -1  15   29.13    1.76
  -1   1 -15    0.52    1.06
  -1   1 -15    0.68    0.45
   1  -1  15    0.48    0.48
   1  -1  15    0.07    0.71
   1  -1  15    0.86    0.40
   1  -1  15    0.94    0.56
  -2   1 -15    2.63    1.21
  -2   1 -15    3.01    0.60
   2  -1  15    3.21    0.71
   2  -1  15    1.99    0.58
   2  -1  15    3.85    0.62
   2  -1  15    3.36    0.92
  -3   1 -15    3.14    0.66
  -3   1 -15    4.48    1.59
  -3   1 -15    4.28    1.16
   3  -1  15    2.43    0.67
   3  -1  15    3.01    0.82
   3  -1  15    1.23    0.69
   3  -1  15    2.14    1.09
   6   0 -15   28.14    1.56
   6   0 -15   20.79    1.84
   6   0 -15   24.84    2.11
   6   0 -15   23.89    1.55
  -6   0  15   21.97    1.71
  -6   0  15   27.18    2.26
  -6   0  15   25.23    1.62
   5   0 -15    0.32    0.50
   5   0 -15    1.05    0.93
   5   0 -15   -0.02    1.00
  -5   0  15    0.19    0.52
  -5   0  15    0.32    0.75
  -5   0  15    0.73    0.57
   4   0 -15   51.97    2.44
   4   0 -15   48.54    2.20
   4   0 -15   48.53    2.12
  -4   0  15   46.90    2.19
  -4   0  15   47.51    2.21
  -4   0  15   44.03    2.79
  -4   0  15   43.50    2.50
  -4   0  15   44.62    2.41
   3   0 -15    4.16    0.60
   3   0 -15    3.44    0.74
   3   0 -15    3.96    0.63
  -3   0  15    3.72    0.85
  -3   0  15    2.86    0.52
  -3   0  15    2.85    0.93
  -3   0  15    3.37    0.59
  -3   0  15    3.46    0.74
   2   0 -15   31.86    1.89
   2   0 -15   34.17    1.82
   2   0 -15   31.83    1.65
   2   0 -15   33.04    1.63
  -2   0  15   35.58    1.97
  -2   0  15   30.81    2.11
  -2   0  15   31.37    1.83
  -2   0  15   31.00    1.64
  -2   0  15   35.07    1.70
   1   0 -15    5.48    0.69
   1   0 -15    6.63    0.87
   1   0 -15    6.18    1.06
   1   0 -15    5.91    0.93
  -1   0  15    5.28    0.89
  -1   0  15    7.61    0.86
  -1   0  15    5.00    0.68
  -1   0  15    5.22    1.03
   0   0 -15   19.74    1.38
   0   0 -15   22.47    1.28
   0   0 -15   20.14    1.77
   0   0 -15   21.12    1.31
   0   0  15   21.18    1.38
   0   0  15   22.10    1.25
   0   0  15   21.04    1.28
   0   0  15   21.09    1.64
  -1   0 -15    8.17    0.93
  -1   0 -15    7.19    0.96
  -1   0 -15    6.50    1.22
  -1   0 -15    5.80    0.89
   1   0  15    6.91    1.08
   1   0  15    6.92    0.85
   1   0  15    6.89    0.88
   1   0  15    4.87    0.87
  -2   0 -15   11.23    1.54
  -2   0 -15   10.70    0.98
  -2   0 -15    8.69    1.14
  -2   0 -15    8.54    1.47
   2   0  15    9.74    0.98
   2   0  15    9.39    1.08
   2   0  15    8.34    1.39
   2   0  15   11.32    1.00
  -3   0 -15    5.37    0.78
  -3   0 -15    6.28    1.55
   3   0  15    5.63    0.87
   3   0  15    5.98    0.77
   3   0  15    6.18    1.11
   3   0  15    6.19    1.06
   6  -1 -15    4.47    0.88
   6  -1 -15    7.41    1.00
   6  -1 -15    5.24    1.13
  -6   1  15    6.89    0.97
  -6   1  15    5.48    1.44
   5  -1 -15   20.25    1.35
   5  -1 -15   22.97    1.65
   5  -1 -15   19.13    1.34
  -5   1  15   22.52    1.49
  -5   1  15   17.20    1.96
  -5   1  15   20.94    1.43
  -5   1  15   17.41    1.97
   4  -1 -15    3.00    0.59
   4  -1 -15    2.75    0.73
   4  -1 -15    3.19    0.60
  -4   1  15    2.52    0.65
  -4   1  15    3.22    0.65
  -4   1  15    3.08    0.97
  -4   1  15    2.50    0.85
   3  -1 -15   45.77    2.03
   3  -1 -15   47.15    2.10
   3  -1 -15   44.82    2.23
  -3   1  15   39.41    2.77
  -3   1  15   42.93    2.36
  -3   1  15   46.21    2.10
  -3   1  15   43.04    2.06
  -3   1  15   42.11    2.50
   2  -1 -15   20.98    1.34
   2  -1 -15   20.58    1.42
   2  -1 -15   21.41    1.30
  -2   1  15   22.28    1.86
  -2   1  15   20.91    1.47
  -2   1  15   21.89    1.36
  -2   1  15   20.12    1.90
  -2   1  15   23.15    1.32
   1  -1 -15   16.16    1.22
   1  -1 -15   16.25    1.26
   1  -1 -15   16.88    1.14
   1  -1 -15   15.04    1.32
  -1   1  15   17.82    1.18
  -1   1  15   17.70    1.76
  -1   1  15   15.31    1.23
  -1   1  15   16.74    1.67
  -1   1  15   16.06    1.10
   0  -1 -15   27.86    2.15
   0  -1 -15   27.91    1.55
   0  -1 -15   28.35    1.62
   0  -1 -15   29.15    1.60
   0   1  15   31.79    1.57
   0   1  15   30.10    1.64
   0   1  15   30.07    2.10
  -1  -1 -15    0.83    0.52
  -1  -1 -15    1.59    0.57
  -1  -1 -15    0.58    0.52
   1   1  15    0.42    0.43
   1   1  15    1.46    0.88
   1   1  15    0.54    0.51
   1   1  15    1.40    0.52
  -2  -1 -15    3.17    0.69
  -2  -1 -15    2.55    0.64
  -2  -1 -15    3.64    0.69
  -2  -1 -15    3.99    1.20
   2   1  15    2.91    0.93
   2   1  15    3.65    0.65
   2   1  15    2.52    0.59
   2   1  15    5.00    0.88
  -3  -1 -15    2.96    1.27
  -3  -1 -15    1.31    0.77
  -3  -1 -15    3.40    0.72
   3   1  15    3.36    0.68
   3   1  15    1.42    0.70
   3   1  15    2.25    1.01
   3   1  15    3.64    0.71
   5  -2 -15    6.67    0.95
   5  -2 -15    5.74    1.12
   5  -2 -15    7.13    1.02
  -5   2  15    5.11    0.81
  -5   2  15    4.17    1.34
   4  -2 -15   41.30    2.00
   4  -2 -15   40.07    2.01
   4  -2 -15   39.95    2.28
  -4   2  15   40.32    2.02
  -4   2  15   37.55    2.70
   3  -2 -15    0.83    0.54
   3  -2 -15    1.19    0.65
  -3   2  15    2.01    0.56
  -3   2  15    1.56    1.08
   2  -2 -15   32.04    1.67
   2  -2 -15   29.97    1.82
   2  -2 -15   33.42    1.70
  -2   2  15   31.57    2.45
  -2   2  15   29.05    2.63
  -2   2  15   33.78    1.71
   1  -2 -15   13.21    1.16
   1  -2 -15   12.55    1.20
   1  -2 -15   14.15    1.13
  -1   2  15   14.30    1.26
  -1   2  15   14.23    1.92
  -1   2  15   13.79    1.11
  -1   2  15   14.70    2.05
   0  -2 -15    3.98    0.74
   0  -2 -15    4.96    0.70
   0  -2 -15    4.34    0.68
   0   2  15    2.96    1.18
   0   2  15    5.45    0.70
   0   2  15    4.52    1.33
  -1  -2 -15    9.50    1.15
  -1  -2 -15    9.71    1.10
  -1  -2 -15   12.09    1.13
   1   2  15   11.91    1.92
   1   2  15   11.04    1.06
   1   2  15    8.44    1.58
  -2  -2 -15    2.60    0.86
  -2  -2 -15    2.49    0.68
  -2  -2 -15    2.43    0.67
  -2  -2 -15    1.63    1.13
   2   2  15    1.96    0.65
   2   2  15    1.60    1.20
   2  -3 -15   -0.37    0.86
   2  -3 -15    0.82    0.62
   2  -3 -15    0.70    0.72
  -2   3  15    1.66    1.66
  -2   3  15    0.47    0.71
   1  -3 -15    1.12    0.86
   1  -3 -15    0.19    0.73
  -1   3  15    1.99    0.66
  -1   3  15    1.76    1.88
   3   2 -16    5.89    1.85
  -3  -2  16    7.38    1.22
  -3  -2  16    7.10    0.95
  -3  -2  16    6.34    0.91
   2   2 -16    4.99    1.70
   2   2 -16    7.69    1.44
  -2  -2  16    7.41    1.17
  -2  -2  16    6.64    0.85
  -2  -2  16    5.48    0.80
  -2  -2  16    6.21    1.07
   1   2 -16    4.70    1.38
   1   2 -16    3.62    1.57
  -1  -2  16    5.21    0.77
  -1  -2  16    5.47    0.76
  -1  -2  16    4.48    1.04
  -1  -2  16    5.97    1.11
   0   2 -16    2.07    1.34
   0   2 -16    0.07    1.37
   0  -2  16    1.69    1.29
   0  -2  16    1.62    0.66
   0  -2  16    1.74    0.95
   0  -2  16    0.15    0.64
   5   1 -16   23.89    1.94
   5   1 -16   26.32    2.67
   5   1 -16   30.10    1.55
  -5  -1  16   24.07    2.14
  -5  -1  16   24.34    2.03
  -5  -1  16   29.11    1.79
   4   1 -16   10.72    1.98
   4   1 -16    7.43    1.02
   4   1 -16   10.99    1.03
  -4  -1  16   11.74    1.23
  -4  -1  16   12.31    1.75
  -4  -1  16   11.18    1.49
  -4  -1  16    9.12    1.23
   3   1 -16   29.35    1.44
   3   1 -16   23.60    1.65
   3   1 -16   26.86    2.35
  -3  -1  16   21.46    1.99
  -3  -1  16   26.50    1.56
  -3  -1  16   22.93    1.75
  -3  -1  16   27.26    1.55
  -3  -1  16   25.83    1.86
   2   1 -16   29.73    2.28
   2   1 -16   26.70    1.43
   2   1 -16   23.50    1.64
   2   1 -16   24.16    2.01
  -2  -1  16   24.67    1.53
  -2  -1  16   26.71    1.51
  -2  -1  16   23.30    1.96
  -2  -1  16   24.61    1.72
   1   1 -16   10.04    0.94
   1   1 -16   11.04    1.17
   1   1 -16    7.76    1.44
  -1  -1  16    8.21    1.00
  -1  -1  16    7.98    1.15
  -1  -1  16    9.07    0.96
  -1  -1  16    8.54    1.27
   0   1 -16   15.44    1.12
   0   1 -16   15.48    1.91
   0  -1  16   14.80    1.18
   0  -1  16   13.69    1.24
   0  -1  16   12.80    1.53
   0  -1  16   13.44    1.13
  -1   1 -16    0.55    0.54
  -1   1 -16    0.83    1.13
   1  -1  16   -0.20    0.90
   1  -1  16    1.38    0.53
   1  -1  16    0.31    0.56
   1  -1  16    0.90    0.60
   5   0 -16    3.37    0.67
   5   0 -16    3.76    0.95
   5   0 -16    4.94    1.34
  -5   0  16    3.15    0.73
  -5   0  16    2.64    0.90
  -5   0  16    3.08    0.83
   4   0 -16   17.18    1.71
   4   0 -16   22.92    1.34
   4   0 -16   22.35    1.62
  -4   0  16   20.07    1.72
  -4   0  16   21.57    2.17
  -4   0  16   18.70    1.39
  -4   0  16   20.54    1.46
   3   0 -16    3.91    0.82
   3   0 -16    3.24    0.59
   3   0 -16    2.27    0.59
  -3   0  16    2.81    0.91
  -3   0  16    4.01    0.62
  -3   0  16    3.27    0.63
  -3   0  16    0.98    0.92
  -3   0  16    2.28    0.72
   2   0 -16   22.87    1.33
   2   0 -16   24.41    1.50
   2   0 -16   23.25    1.42
   2   0 -16   19.23    1.68
  -2   0  16   23.32    1.35
  -2   0  16   18.87    1.92
  -2   0  16   21.73    1.39
  -2   0  16   21.16    1.84
  -2   0  16   21.61    1.53
   1   0 -16   23.56    1.48
   1   0 -16   24.85    1.41
   1   0 -16   22.03    1.91
  -1   0  16   21.41    1.35
  -1   0  16   20.35    1.89
  -1   0  16   21.46    1.48
  -1   0  16   23.01    1.35
   0   0 -16    0.54    0.51
   0   0 -16    0.21    0.56
   0   0 -16    1.23    0.51
   0   0 -16    0.81    0.93
   0   0  16    0.97    0.43
   0   0  16    1.85    0.56
   0   0  16    0.63    0.80
   0   0  16    0.66    0.54
  -1   0 -16   13.37    1.15
  -1   0 -16   15.89    2.41
  -1   0 -16   11.26    1.16
   1   0  16   11.67    1.19
   1   0  16   14.78    1.64
   1   0  16   15.65    1.13
   1   0  16   12.36    1.19
  -2   0 -16    1.84    0.65
  -2   0 -16    3.18    1.29
   2   0  16    2.52    0.64
   2   0  16    2.62    0.75
   2   0  16    2.40    0.72
   2   0  16    2.77    1.09
   5  -1 -16   25.02    1.74
   5  -1 -16   28.86    1.68
   5  -1 -16   26.00    2.02
  -5   1  16   27.29    1.83
  -5   1  16   28.45    2.30
  -5   1  16   30.79    1.95
  -5   1  16   24.79    2.24
   4  -1 -16   12.47    1.42
   4  -1 -16   11.81    1.15
   4  -1 -16   10.62    1.11
  -4   1  16   10.75    1.61
  -4   1  16   10.66    1.21
  -4   1  16   10.27    1.21
  -4   1  16   10.58    1.42
   3  -1 -16   27.79    1.59
   3  -1 -16   26.37    1.54
   3  -1 -16   26.59    1.78
  -3   1  16   29.08    1.64
  -3   1  16   24.95    1.88
  -3   1  16   27.72    2.11
  -3   1  16   27.15    1.61
  -3   1  16   26.13    2.40
   2  -1 -16   25.93    1.54
   2  -1 -16   25.24    1.50
   2  -1 -16   26.73    1.65
  -2   1  16   25.04    1.52
  -2   1  16   27.10    1.55
  -2   1  16   22.85    2.06
  -2   1  16   24.25    2.04
  -2   1  16   25.41    2.20
   1  -1 -16    8.92    1.04
   1  -1 -16    9.46    1.09
   1  -1 -16    7.97    0.96
  -1   1  16    8.25    1.00
  -1   1  16    7.36    0.97
  -1   1  16    7.46    1.07
  -1   1  16    7.57    1.23
  -1   1  16   11.93    1.61
   0  -1 -16   13.94    1.16
   0  -1 -16   13.54    1.20
   0  -1 -16   13.26    1.19
   0  -1 -16   14.32    2.27
   0   1  16   15.66    1.18
   0   1  16   14.75    1.84
   0   1  16   13.80    1.17
  -1  -1 -16    0.19    0.53
  -1  -1 -16    1.05    0.60
  -1  -1 -16    0.28    1.00
  -1  -1 -16    0.66    0.58
   1   1  16    0.21    0.93
   1   1  16    0.36    0.58
   1   1  16    1.67    0.53
   1   1  16   -0.13    0.56
   3  -2 -16    7.26    1.02
   3  -2 -16    5.54    1.04
   3  -2 -16    6.39    0.92
  -3   2  16    6.16    1.49
  -3   2  16    6.40    0.85
   2  -2 -16    7.02    1.00
   2  -2 -16    5.51    1.00
   2  -2 -16    4.88    0.84
  -2   2  16    6.23    1.69
  -2   2  16    8.54    1.81
   1  -2 -16    4.30    0.81
   1  -2 -16    3.86    0.81
   1  -2 -16    3.79    0.73
  -1   2  16    7.54    1.68
  -1   2  16    6.33    0.80
  -1   2  16    4.72    1.45
   0  -2 -16    0.96    0.67
   0  -2 -16    1.98    0.75
   0  -2 -16    1.11    0.55
   0   2  16    1.54    0.59
   0   2  16    0.13    1.22
   0   2  16    1.40    1.38
   3   1 -17   11.10    1.28
   3   1 -17   13.24    1.09
   3   1 -17   14.02    2.56
  -3  -1  17   13.37    1.43
  -3  -1  17    7.56    1.33
  -3  -1  17   11.97    1.26
  -3  -1  17    8.45    1.40
   2   1 -17    7.71    1.40
   2   1 -17    8.19    1.65
   2   1 -17    6.71    0.97
   2   1 -17    9.22    1.05
  -2  -1  17    6.12    0.92
  -2  -1  17    9.43    1.16
  -2  -1  17    6.81    1.36
  -2  -1  17    6.68    1.08
   1   1 -17    3.94    0.80
   1   1 -17    3.84    0.63
   1   1 -17    2.81    1.21
  -1  -1  17    3.11    0.84
  -1  -1  17    3.16    1.14
  -1  -1  17    2.53    0.75
  -1  -1  17    1.38    0.60
   0  -1  17   10.22    1.16
   0  -1  17    7.41    1.67
   0  -1  17    7.81    1.23
   4   0 -17   18.18    1.63
   4   0 -17   18.65    1.38
  -4   0  17   16.13    1.72
  -4   0  17   18.09    1.43
  -4   0  17   19.63    2.56
   3   0 -17   38.50    1.92
   3   0 -17   39.31    2.13
  -3   0  17   38.03    2.77
  -3   0  17   34.60    2.16
  -3   0  17   37.94    1.96
  -3   0  17   35.01    2.33
  -3   0  17   37.17    2.06
   2   0 -17    0.16    0.55
   2   0 -17    0.44    0.66
  -2   0  17    0.67    0.57
  -2   0  17   -0.42    0.63
  -2   0  17    1.18    0.92
  -2   0  17    0.53    0.64
  -2   0  17    0.24    0.91
   1   0 -17   23.45    1.55
   1   0 -17   23.16    2.16
   1   0 -17   23.79    1.47
  -1   0  17   22.95    1.53
  -1   0  17   22.85    1.41
  -1   0  17   21.43    1.61
  -1   0  17   23.57    2.25
   0   0 -17    3.20    0.74
   0   0 -17    3.93    1.21
   0   0 -17    2.64    0.63
   0   0  17    2.64    0.62
   0   0  17    2.71    1.21
   0   0  17    2.74    0.72
   0   0  17    3.06    0.79
   3  -1 -17   12.58    1.37
   3  -1 -17   12.41    1.24
   3  -1 -17   14.46    1.51
  -3   1  17    9.94    1.61
  -3   1  17   10.39    1.99
  -3   1  17   12.03    1.34
  -3   1  17   14.72    1.27
  -3   1  17   11.20    1.58
   2  -1 -17    7.17    1.00
   2  -1 -17    6.48    0.91
   2  -1 -17    6.18    0.86
  -2   1  17    7.56    1.33
  -2   1  17    6.56    0.90
  -2   1  17    7.38    1.68
  -2   1  17    5.34    0.74
   1  -1 -17    1.95    0.72
   1  -1 -17    3.93    0.81
  -1   1  17    4.30    1.37
  -1   1  17    2.24    0.76
  -1   1  17    3.31    0.62
  -1   1  17    3.62    1.19
   0   1  17    9.76    1.33
   0   1  17    8.43    1.09
   0   1  17    8.66    1.65
   0   0   0    0.00    0.00
;
_shelx_hkl_checksum              65197
loop_
_space_group_symop_operation_xyz
'x, y, z'
'-x, y+1/2, -z'
loop_
_atom_site_label
_atom_site_type_symbol
_atom_site_fract_x
_atom_site_fract_y
_atom_site_fract_z
_atom_site_U_iso_or_equiv
_atom_site_adp_type
_atom_site_occupancy
_atom_site_site_symmetry_order
_atom_site_calc_flag
_atom_site_refinement_flags_posn
_atom_site_refinement_flags_adp
I1 I 0.7906(2) 1.1116(3) 0.04422(9) 0.0756(7) Uani 1 1 d . .
Br1 Br 0.2331(3) 1.1659(7) 0.3022(2) 0.0816(9) Uani 1 1 d . .
Cl1 Cl 0.8547(3) 0.4497(6) 0.4181(2) 0.0318(6) Uani 1 1 d . .
O1 O 0.4870(17) 0.753(3) 0.4345(9) 0.053(2) Uani 1 1 d . .
H1A H 0.4972 0.9008 0.4703 0.079 Uiso 1 1 calc R U
C1 C 0.5531(19) 0.810(3) 0.3457(12) 0.044(3) Uani 1 1 d . .
C2 C 0.4539(17) 0.999(4) 0.2756(11) 0.043(3) Uani 1 1 d . .
C3 C 0.518(2) 1.091(4) 0.1883(11) 0.054(4) Uani 1 1 d . .
H3A H 0.4525 1.2276 0.1435 0.064 Uiso 1 1 calc R U
C4 C 0.679(2) 0.974(4) 0.1719(12) 0.052(3) Uani 1 1 d . .
C5 C 0.784(2) 0.769(4) 0.2415(12) 0.051(3) Uani 1 1 d . .
H5A H 0.8938 0.6862 0.2276 0.061 Uiso 1 1 calc R U
C6 C 0.7207(19) 0.697(3) 0.3285(11) 0.044(3) Uani 1 1 d . .
loop_
_atom_site_aniso_label
_atom_site_aniso_U_11
_atom_site_aniso_U_22
_atom_site_aniso_U_33
_atom_site_aniso_U_23
_atom_site_aniso_U_13
_atom_site_aniso_U_12
I1 0.1080(12) 0.0754(11) 0.0529(8) -0.0001(6) 0.0400(7) -0.0120(7)
Br1 0.0628(11) 0.0922(18) 0.0904(15) 0.0030(13) 0.0164(9) 0.0124(11)
Cl1 0.0342(11) 0.0276(11) 0.0340(12) -0.0005(10) 0.0069(8) 0.0050(9)
O1 0.066(6) 0.048(5) 0.049(6) 0.005(5) 0.026(5) 0.006(5)
C1 0.041(5) 0.038(6) 0.053(7) -0.007(6) 0.011(5) -0.009(5)
C2 0.038(5) 0.050(7) 0.042(6) -0.003(5) 0.007(4) 0.002(5)
C3 0.058(8) 0.057(10) 0.045(7) 0.006(8) 0.005(6) -0.007(8)
C4 0.067(8) 0.046(7) 0.046(7) -0.005(7) 0.017(6) -0.003(7)
C5 0.064(8) 0.046(7) 0.048(7) -0.003(6) 0.026(6) -0.002(7)
C6 0.051(6) 0.033(6) 0.048(7) -0.010(5) 0.014(5) -0.011(5)
loop_
_atom_type_symbol
_atom_type_description
_atom_type_scat_dispersion_real
_atom_type_scat_dispersion_imag
_atom_type_scat_source
C C 0.0033 0.0016 'International Tables Vol C Tables 4.2.6.8 and 6.1.1.4'
H H 0.0000 0.0000 'International Tables Vol C Tables 4.2.6.8 and 6.1.1.4'
O O 0.0106 0.0060 'International Tables Vol C Tables 4.2.6.8 and 6.1.1.4'
Cl Cl 0.1484 0.1585 'International Tables Vol C Tables 4.2.6.8 and 6.1.1.4'
Br Br -0.2901 2.4595 'International Tables Vol C Tables 4.2.6.8 and 6.1.1.4'
I I -0.4742 1.8119 'International Tables Vol C Tables 4.2.6.8 and 6.1.1.4'
loop_
_geom_angle_atom_site_label_1
_geom_angle_atom_site_label_2
_geom_angle_atom_site_label_3
_geom_angle
C2 C1 C6 119.3(14)
C2 C1 O1 118.7(13)
C6 C1 O1 121.9(15)
C1 C2 C3 122.7(13)
C1 C2 Br1 119.1(11)
C3 C2 Br1 118.1(11)
C4 C3 C2 117.1(15)
C3 C4 C5 122.0(14)
C3 C4 I1 119.4(12)
C5 C4 I1 118.5(12)
C6 C5 C4 119.0(14)
C5 C6 C1 119.9(15)
C5 C6 Cl1 119.4(12)
C1 C6 Cl1 120.7(12)
loop_
_geom_bond_atom_site_label_1
_geom_bond_atom_site_label_2
_geom_bond_distance
I1 C4 2.110(17)
Br1 C2 1.866(14)
Cl1 C6 1.788(16)
O1 C1 1.383(18)
C1 C2 1.37(2)
C1 C6 1.38(2)
C2 C3 1.40(2)
C3 C4 1.34(2)
C4 C5 1.43(2)
C5 C6 1.36(2)
