#------------------------------------------------------------------------------
#$Date: 2019-11-10 19:03:39 +0200 (Sun, 10 Nov 2019) $
#$Revision: 225977 $
#$URL: file:///home/coder/svn-repositories/cod/cif/4/51/58/4515898.cif $
#------------------------------------------------------------------------------
#
# This file is available in the Crystallography Open Database (COD),
# http://www.crystallography.net/
#
# All data on this site have been placed in the public domain by the
# contributors.
#
data_4515898
loop_
_publ_author_name
'Zhou, Huawei'
'Liu, Xuejing'
'He, Guohang'
'Fan, Lin'
'Shi, Shaozhen'
'Wei, Jiazhen'
'Xu, Wenli'
'Yuan, Cang'
'Chai, Ning'
'Chen, Baoli'
'Zhang, Yingtian'
'Zhang, Xianxi'
'Zhao, Jinsheng'
'Wei, Xinting'
'Yin, Jie'
'Tian, Dongxu'
_publ_section_title
;
 Synthesis, Crystal Structure, UV-Vis Adsorption Properties, Photoelectric
 Behavior, and DFT Computational Study of All-Inorganic and Lead-Free
 Copper Halide Salt K<sub>2</sub>Cu<sub>2</sub>Cl<sub>6</sub>.
;
_journal_issue                   10
_journal_name_full               'ACS omega'
_journal_page_first              14021
_journal_page_last               14026
_journal_paper_doi               10.1021/acsomega.8b01337
_journal_volume                  3
_journal_year                    2018
_chemical_formula_sum            'C0 H0 Cl3 Cu K'
_chemical_formula_weight         208.99
_space_group_crystal_system      monoclinic
_space_group_IT_number           14
_space_group_name_Hall           '-P 2ybc'
_space_group_name_H-M_alt        'P 1 21/c 1'
_audit_creation_method           SHELXL-2014
_cell_angle_alpha                90
_cell_angle_beta                 97.1230(10)
_cell_angle_gamma                90
_cell_formula_units_Z            4
_cell_length_a                   4.0340(3)
_cell_length_b                   13.7987(13)
_cell_length_c                   8.7445(7)
_cell_measurement_reflns_used    1719
_cell_measurement_temperature    298(2)
_cell_measurement_theta_max      18.169
_cell_measurement_theta_min      2.272
_cell_volume                     483.00(7)
_computing_structure_refinement  'SHELXL-2014 (Sheldrick, 2014)'
_diffrn_ambient_temperature      298(2)
_diffrn_measured_fraction_theta_full 0.972
_diffrn_measured_fraction_theta_max 0.993
_diffrn_measurement_device_type  'CCD area detector'
_diffrn_radiation_type           MoK\a
_diffrn_radiation_wavelength     0.71073
_diffrn_reflns_av_R_equivalents  0.0715
_diffrn_reflns_av_unetI/netI     0.0656
_diffrn_reflns_Laue_measured_fraction_full 0.972
_diffrn_reflns_Laue_measured_fraction_max 0.993
_diffrn_reflns_limit_h_max       4
_diffrn_reflns_limit_h_min       -4
_diffrn_reflns_limit_k_max       16
_diffrn_reflns_limit_k_min       -16
_diffrn_reflns_limit_l_max       10
_diffrn_reflns_limit_l_min       -9
_diffrn_reflns_number            2298
_diffrn_reflns_point_group_measured_fraction_full 0.972
_diffrn_reflns_point_group_measured_fraction_max 0.993
_diffrn_reflns_theta_full        25.242
_diffrn_reflns_theta_max         24.997
_diffrn_reflns_theta_min         2.773
_exptl_absorpt_coefficient_mu    6.844
_exptl_absorpt_correction_type   multi-scan
_exptl_absorpt_process_details   sadabs
_exptl_crystal_density_diffrn    2.874
_exptl_crystal_description       bolck
_exptl_crystal_F_000             396
_exptl_crystal_size_max          0.420
_exptl_crystal_size_mid          0.200
_exptl_crystal_size_min          0.110
_exptl_transmission_factor_max   0.610
_exptl_transmission_factor_min   0.150
_refine_diff_density_max         1.203
_refine_diff_density_min         -1.106
_refine_diff_density_rms         0.288
_refine_ls_extinction_coef       0.046(5)
_refine_ls_extinction_expression Fc^*^=kFc[1+0.001xFc^2^\l^3^/sin(2\q)]^-1/4^
_refine_ls_extinction_method     SHELXL
_refine_ls_goodness_of_fit_ref   0.842
_refine_ls_hydrogen_treatment    undef
_refine_ls_matrix_type           full
_refine_ls_number_parameters     47
_refine_ls_number_reflns         846
_refine_ls_number_restraints     0
_refine_ls_restrained_S_all      0.842
_refine_ls_R_factor_all          0.0467
_refine_ls_R_factor_gt           0.0429
_refine_ls_shift/su_max          0.000
_refine_ls_shift/su_mean         0.000
_refine_ls_structure_factor_coef Fsqd
_refine_ls_weighting_details
'w=1/[\s^2^(Fo^2^)+(0.0953P)^2^] where P=(Fo^2^+2Fc^2^)/3'
_refine_ls_weighting_scheme      calc
_refine_ls_wR_factor_gt          0.1081
_refine_ls_wR_factor_ref         0.1128
_reflns_Friedel_coverage         0.000
_reflns_number_gt                727
_reflns_number_total             846
_reflns_threshold_expression     'I > 2\s(I)'
_cod_data_source_file            ao8b01337_si_002.cif
_cod_data_source_block           170110g
_cod_original_sg_symbol_H-M      'P 21/c'
_cod_database_code               4515898
_shelx_space_group_comment
;
The symmetry employed for this shelxl refinement is uniquely defined
by the following loop, which should always be used as a source of
symmetry information in preference to the above space-group names.
They are only intended as comments.
;
_shelx_estimated_absorpt_t_min   0.161
_shelx_estimated_absorpt_t_max   0.520
_shelxl_version_number           2014-3
_shelx_res_file
;
TITL 170110g in P2(1)/c
CELL 0.71073   4.0340  13.7987   8.7445  90.000  97.123  90.000
ZERR    4.00   0.0003   0.0013   0.0007   0.000   0.001   0.000
LATT 1
SYMM -X, 0.5+Y, 0.5-Z
SFAC C  H  Cl K  Cu
UNIT 0 0 12 4 4
OMIT  -1.00  50.04
L.S. 8
ACTA
BOND
FMAP 2
PLAN 20
size 0.42 0.20 0.11
TEMP 25
WGHT    0.095300
EXTI    0.046095
FVAR       0.25516
MOLE 1
CU1   5    0.259514    0.450113    0.342654    11.00000    0.03295    0.01199 =
         0.02240   -0.00283   -0.00225    0.00377
CL1   3    0.319806    0.598523    0.465641    11.00000    0.03499    0.01165 =
         0.02286   -0.00278   -0.00077    0.00401
CL3   3    0.226501    0.301138    0.236966    11.00000    0.03547    0.01329 =
         0.02939   -0.00428   -0.00298    0.00284
CL2   3   -0.179219    0.507805    0.178291    11.00000    0.03078    0.01903 =
         0.02159    0.00149    0.00142    0.00417
K1    4   -0.282066    0.329401   -0.057445    11.00000    0.03448    0.02093 =
         0.03540   -0.00044   -0.00048   -0.00313
HKLF 4

REM  170110g in P2(1)/c
REM R1 =  0.0429 for     727 Fo > 4sig(Fo)  and  0.0467 for all     846 data
REM     47 parameters refined using      0 restraints

END

WGHT      0.0619      0.0000

REM Highest difference peak  1.203,  deepest hole -1.106,  1-sigma level  0.288
Q1    1   0.0103  0.4492  0.3597  11.00000  0.05    1.20
Q2    1  -0.0387  0.4480  0.2952  11.00000  0.05    1.18
Q3    1   0.5119  0.4491  0.3044  11.00000  0.05    1.07
Q4    1   0.0290  0.3705  0.3332  11.00000  0.05    1.02
Q5    1   0.0023  0.3005  0.2796  11.00000  0.05    0.97
Q6    1   0.5607  0.4535  0.3981  11.00000  0.05    0.94
Q7    1  -0.5150  0.3322 -0.0251  11.00000  0.05    0.86
Q8    1   0.5085  0.2993  0.2719  11.00000  0.05    0.86
Q9    1   0.4939  0.5276  0.3578  11.00000  0.05    0.86
Q10   1   0.4625  0.3747  0.2489  11.00000  0.05    0.83
Q11   1   0.4386  0.5204  0.2336  11.00000  0.05    0.79
Q12   1   0.0225  0.5224  0.3016  11.00000  0.05    0.79
Q13   1   0.5277  0.6695  0.5034  11.00000  0.05    0.76
Q14   1   0.5205  0.5966  0.4340  11.00000  0.05    0.73
Q15   1   0.6040  0.6017  0.5264  11.00000  0.05    0.71
Q16   1   0.0180  0.5093  0.1417  11.00000  0.05    0.71
Q17   1  -0.0069  0.3246 -0.0122  11.00000  0.05    0.70
Q18   1   0.4665  0.3802  0.3790  11.00000  0.05    0.69
Q19   1   0.0964  0.5236  0.4498  11.00000  0.05    0.69
Q20   1  -0.0046  0.5950  0.4291  11.00000  0.05    0.68
;
_shelx_res_checksum              66577
_shelx_hkl_file
;
   1   0   0    7.03    0.74
   2   0   0 1000.00   67.36
   3   0   0    9.80    1.16
  -5   1   0    4.20    0.77
  -3   1   0    6.49    0.82
  -1   1   0    1.06    0.30
   1   1   0    0.75    0.23
   2   1   0   90.80    6.46
   3   1   0    9.82    1.17
  -4  -1   0   39.06    2.45
  -5   2   0    0.36    0.42
  -4   2   0    0.33    0.43
  -3   2   0    4.03    0.80
  -2   2   0   95.85    6.88
  -1   2   0    6.47    0.69
  -1  -2   0    6.73    0.50
   1   2   0    8.79    0.75
   2   2   0  105.47    7.47
   3   2   0    3.62    0.83
  -4  -2   0    1.07    0.48
  -4   3   0    1.91    0.70
  -3   3   0   25.96    2.35
  -2   3   0   16.20    1.57
  -1   3   0   13.43    1.25
   0  -3   0    0.27    0.62
   0  -3   0    0.00    0.19
   0   3   0    0.02    0.29
   1   3   0   15.35    1.35
  -1  -3   0   17.45    1.58
  -1  -3   0   14.79    0.86
  -2  -3   0   16.92    1.10
   2   3   0   17.35    1.56
   3   3   0   38.10    3.15
  -3  -3   0   35.62    2.20
  -5  -3   0   28.26    3.97
  -4   4   0    2.37    0.87
  -3   4   0  108.82    8.07
  -2   4   0   23.56    2.16
  -1   4   0   91.60    6.65
   0   4   0   67.01    5.25
  -1  -4   0  112.39    5.66
  -1  -4   0  125.98    9.05
   1   4   0  115.72    8.35
  -2  -4   0   28.87    1.66
  -2  -4   0   27.12    2.66
   2   4   0   31.08    2.44
  -3  -4   0  154.04   11.48
  -3  -4   0  143.91    7.41
   3   4   0  145.32   10.64
  -4  -4   0    6.51    1.89
  -5  -4   0   42.80    5.07
  -4   5   0    6.76    1.20
  -3   5   0  193.61   13.87
  -2   5   0    7.25    1.04
  -1   5   0  671.92   45.64
   0   5   0   -0.17    0.35
   0  -5   0    0.60    0.91
  -1  -5   0  872.03   62.17
   1   5   0  856.37   58.48
  -2  -5   0   10.26    1.37
   2   5   0    9.18    1.14
  -2  -5   0   11.49    0.76
  -3  -5   0  246.46   18.36
   3   5   0  242.55   17.19
  -4  -5   0   13.40    2.10
  -5  -5   0   35.85    4.48
  -4   6   0    0.55    0.70
  -3   6   0   41.62    3.72
  -2   6   0   27.54    2.59
  -1   6   0   29.10    2.64
   0   6   0  123.06    9.25
   0  -6   0  120.09   10.05
  -1  -6   0   35.94    1.79
   1   6   0   33.00    3.02
  -1  -6   0   34.00    3.34
  -2  -6   0   36.10    3.32
   2   6   0   33.26    2.93
  -3  -6   0   53.70    4.78
   3   6   0   52.38    4.38
  -4  -6   0    3.60    1.49
  -5  -6   0    9.86    2.90
  -4   7   0    0.55    0.75
  -3   7   0   61.54    5.18
  -2   7   0    0.15    0.50
  -1   7   0  356.20   24.77
   0   7   0   -0.08    0.55
   0  -7   0   -0.21    0.89
  -1  -7   0  397.11   18.57
  -1  -7   0  371.42   28.98
   1   7   0  408.05   27.39
  -2  -7   0    0.89    0.64
   2   7   0    0.75    0.56
  -3  -7   0   73.85    6.35
  -4  -7   0   -0.45    0.88
  -4   8   0   90.86    7.42
  -3   8   0   16.27    2.07
  -2   8   0  217.87   15.67
  -1   8   0    6.64    1.14
   0   8   0  407.52   30.10
   0  -8   0  449.11   32.33
  -1  -8   0    6.86    1.62
   1   8   0    5.81    1.52
   2   8   0  258.11   18.53
  -2  -8   0  266.30   19.85
  -3  -8   0   21.81    2.64
  -4  -8   0  124.28   10.42
  -4   9   0   13.30    2.01
  -3   9   0    1.08    0.94
  -2   9   0   12.67    1.77
  -1   9   0   38.37    3.65
   0   9   0    0.03    0.65
   0  -9   0   -0.32    0.96
  -1  -9   0   37.75    4.34
   1   9   0   48.51    4.45
   2   9   0   15.60    2.00
  -2  -9   0   15.11    2.20
  -3  -9   0    0.69    0.99
  -4  -9   0   16.39    2.54
  -4  10   0   18.85    2.57
  -3  10   0   12.87    1.99
  -2  10   0    0.72    0.71
  -1  10   0    2.06    1.00
   0  10   0   17.53    2.62
   0 -10   0   21.24    3.15
   1  10   0    3.41    1.50
  -1 -10   0    2.98    1.58
  -2 -10   0    0.68    1.00
   2  10   0    0.96    0.81
  -3 -10   0   11.69    2.01
  -4 -10   0   22.60    3.15
  -4  11   0    7.28    1.92
  -3  11   0    9.13    2.04
  -2  11   0   12.39    1.93
  -1  11   0   31.51    3.44
   0  11   0    0.04    0.96
   0 -11   0   -0.68    1.04
   1  11   0   44.75    4.74
  -1 -11   0   37.78    4.52
   2  11   0   14.76    2.29
  -2 -11   0   12.21    2.19
  -3 -11   0    9.49    2.30
  -4 -11   0    4.98    1.94
  -4  12   0   10.74    2.46
  -3  12   0    0.07    0.88
  -2  12   0    7.26    1.84
  -1  12   0   -0.09    0.82
   0 -12   0    6.74    2.48
   0  12   0    4.37    1.77
  -1 -12   0    0.47    1.48
   1  12   0   -0.61    1.14
  -2 -12   0    8.48    2.32
   2  12   0    9.00    2.40
  -3 -12   0    0.41    1.19
  -4 -12   0   12.35    2.90
  -3  13   0   98.86    8.56
  -2  13   0   40.34    4.31
  -1  13   0  342.84   24.91
   0 -13   0   -0.51    1.10
   0  13   0    0.07    1.15
  -2 -13   0   31.92    4.32
   2  13   0   46.42    4.91
  -3 -13   0   76.83    7.38
  -3  14   0   49.76    5.27
  -2  14   0   15.79    2.54
  -1  14   0   20.99    3.02
   0 -14   0   60.37    6.52
   0  14   0   55.64    6.02
  -1 -14   0   24.08    3.80
   1  14   0   35.93    4.59
  -2 -14   0   17.95    3.01
  -3 -14   0   33.99    4.29
  -3  15   0   22.67    3.35
  -2  15   0    7.77    2.27
  -1  15   0   35.96    4.32
   0  15   0    0.12    1.26
  -1 -15   0   41.53    5.36
   1  15   0   55.68    6.20
  -2 -15   0    6.51    2.48
  -3 -15   0   19.30    3.20
  -2  16   0    6.57    2.34
  -1  16   0   10.28    2.74
   0  16   0    8.60    2.69
   1  16   0   17.69    4.22
  -1 -16   0   16.05    3.03
  -2 -16   0    5.77    2.50
  -1  17   0   19.84    3.31
   0  17   0    0.98    1.75
  -1 -17   0   30.26    4.35
   1  17   0   30.16    4.66
  -1  18   0    0.26    1.53
   1  18   0    0.46    2.07
  -1 -18   0    1.37    1.73
   0  18  -1   73.53    7.78
  -1 -17   1    2.71    2.04
   0  17  -1    9.18    3.02
  -1  17  -1    2.09    1.86
  -2 -16   1    2.03    1.90
  -1 -16   1   76.52    8.23
   1  16  -1   93.35    8.84
   0  16  -1   12.51    3.18
  -1  16  -1   43.13    5.01
  -2  16  -1    6.05    2.22
  -3 -15   1    0.00    1.51
  -2 -15   1    0.17    1.48
   1  15  -1    1.86    2.16
  -1 -15   1    2.18    1.93
   0  15  -1    8.53    2.69
   0 -15   1   15.44    2.87
  -1  15  -1    0.38    1.19
  -2  15  -1    2.62    1.61
  -3 -14   1   11.24    2.80
  -2 -14   1  127.97   11.26
   1  14  -1   87.74    8.53
   0 -14   1  499.27   36.16
   0  14  -1  444.20   33.95
  -1  14  -1   23.13    3.16
  -2  14  -1  138.86   11.35
  -3  14  -1    0.86    1.19
  -3 -13   1   40.29    4.65
  -2 -13   1   30.81    3.93
   0  13  -1   67.10    7.05
   0 -13   1   89.39    7.96
  -1  13  -1  132.39   10.69
  -2  13  -1    4.04    1.56
  -3  13  -1   28.28    3.57
  -4 -12   1    4.28    1.94
  -3 -12   1    6.05    1.94
  -2 -12   1   28.12    3.57
   0 -12   1   74.52    6.87
   0  12  -1   56.31    5.98
  -1  12  -1   58.40    5.44
  -2  12  -1    0.82    1.00
  -3  12  -1    6.58    1.90
  -4 -11   1   35.76    4.24
  -3 -11   1    2.81    1.45
  -2 -11   1   79.75    7.04
   2  11  -1   70.65    6.53
   0 -11   1  117.38    9.77
   0  11  -1   97.81    8.82
  -1  11  -1  117.11    9.28
  -2  11  -1   18.43    2.42
  -3  11  -1   53.52    5.13
  -4  11  -1    6.74    1.93
  -4 -10   1   -0.18    1.06
  -3 -10   1   39.34    4.16
   2  10  -1    0.10    0.73
  -2 -10   1    0.11    0.84
   0  10  -1    0.53    0.89
   0 -10   1    1.11    1.44
  -1  10  -1   19.37    2.36
  -2  10  -1    0.60    0.79
  -3  10  -1   -0.30    0.71
  -4  10  -1    2.87    1.40
  -4  -9   1    5.70    1.89
  -3  -9   1    3.61    1.27
   2   9  -1    3.62    1.16
  -2  -9   1    2.60    1.22
   0  -9   1    4.79    1.80
   0  -9   1    4.03    0.83
   0   9  -1    2.77    1.19
  -1   9  -1  399.93   27.94
  -2   9  -1    2.97    1.05
  -3   9  -1  210.70   15.52
  -4   9  -1   -0.10    0.68
  -4  -8   1   79.08    7.21
  -3  -8   1    8.21    1.53
   2   8  -1   97.33    7.74
  -2  -8   1  108.59    8.50
  -1  -8   1  207.64    9.89
   1   8  -1  216.68   15.12
  -1  -8   1  185.18   15.61
   0   8  -1    0.55    0.71
   0  -8   1    2.81    0.68
   0  -8   1    1.04    1.12
  -1   8  -1  362.38   25.27
  -2   8  -1   45.47    4.05
  -3   8  -1  122.90    9.48
  -4   8  -1   20.09    2.44
  -4  -7   1   63.21    6.02
  -3  -7   1  122.36    9.84
   2   7  -1  277.43   19.18
  -2  -7   1  273.17   20.55
  -1  -7   1  477.44   35.01
   0  -7   1  289.02   13.96
   0  -7   1  292.14   21.74
   0   7  -1  272.33   20.07
  -1   7  -1  371.15   25.71
  -2   7  -1   16.53    1.89
  -3   7  -1   55.34    4.77
  -4   7  -1    2.91    1.08
  -5  -6   1    4.67    2.24
  -4  -6   1  190.80   15.16
  -3  -6   1   26.06    2.82
  -2  -6   1  548.19   25.98
  -2  -6   1  542.69   39.87
   2   6  -1  556.96   37.40
  -1  -6   1  208.01   15.69
   0   6  -1  518.60   36.21
   0  -6   1  502.64   38.74
   0  -6   1  561.41   25.29
  -1   6  -1  218.83   15.37
  -2   6  -1  144.87   10.57
  -3   6  -1   52.82    4.50
  -4   6  -1   15.53    1.90
  -5  -5   1    6.37    2.75
  -4  -5   1   10.34    2.33
  -3  -5   1    0.03    0.65
  -2  -5   1  248.82   11.70
  -2  -5   1  237.91   18.03
   2   5  -1  243.42   16.78
   1   5  -1    0.49    0.38
  -1  -5   1    1.25    0.60
  -1  -5   1    1.18    0.32
   0   5  -1  517.23   34.04
   0  -5   1  462.61   36.39
   0  -5   1  513.68   23.80
  -1   5  -1   35.17    2.92
  -2   5  -1   83.14    6.32
  -3   5  -1   66.84    5.34
  -4   5  -1    0.07    0.48
  -5  -4   1    4.38    2.47
  -3  -4   1   22.34    1.56
  -2  -4   1    3.89    0.95
  -2  -4   1    4.17    0.47
   2   4  -1    4.00    0.60
   1   4  -1   92.22    6.94
  -1  -4   1  105.87    7.56
  -1  -4   1   96.02    4.81
   0  -4   1   54.82    2.81
   0  -4   1   43.11    4.30
   0   4  -1   52.40    3.85
  -1   4  -1    1.30    0.45
  -2   4  -1  142.91   10.23
  -3   4  -1   34.14    3.01
  -4   4  -1   41.89    3.57
   3   3  -1   10.67    1.21
  -3  -3   1   12.31    1.03
  -2  -3   1   13.86    0.96
   2   3  -1   12.20    1.18
  -1  -3   1  119.78    5.86
   1   3  -1  123.39    8.35
  -1  -3   1  119.43    9.02
   0   3  -1  177.46   12.18
   0  -3   1  176.40    8.64
  -1   3  -1  269.55   18.49
  -2   3  -1  273.01   18.86
  -3   3  -1   34.41    2.92
  -4   3  -1   77.66    5.89
  -4  -2   1   20.67    1.59
  -3  -2   1   77.31    4.02
   3   2  -1   69.56    5.38
  -2  -2   1   55.33    2.89
   2   2  -1   51.79    3.87
   1   2  -1   81.02    5.72
  -1  -2   1   85.43    4.11
   0   2  -1  157.03   11.31
   0  -2   1  163.01   12.13
   0  -2   1  174.58    8.06
  -1   2  -1   24.01    1.97
  -2   2  -1  109.43    7.81
  -3   2  -1   12.76    1.35
  -4   2  -1   15.87    1.60
  -4  -1   1   12.27    1.18
  -3  -1   1  264.70   12.97
   2   1  -1    4.43    0.55
  -2  -1   1    4.68    0.53
  -1  -1   1  423.22   20.01
   1  -1   1  100.83    7.05
   2  -1   1  218.11   15.08
   3  -1   1   19.19    1.91
  -4   1  -1   33.95    2.77
  -5   0   1    0.72    0.57
  -4   0   1    0.10    0.40
  -3   0   1    0.23    0.41
  -3   0   1   -0.41    0.25
  -2   0   1   -0.07    0.17
  -1   0   1    1.23    0.27
   1   0   1   -0.10    0.14
   2   0   1    0.10    0.28
   3   0   1    0.13    0.40
  -4   0  -1   -0.05    0.23
  -5   1   1   47.35    3.03
  -4   1   1    9.76    1.06
  -3   1   1  234.68   16.24
  -2   1   1    4.88    0.62
  -1   1   1  354.61   24.01
   0   1   1  151.57   10.34
   1   1   1  104.49    7.27
   2   1   1  240.74   16.61
   3   1   1   19.68    1.96
   4   1   1   72.67    5.91
  -5   2   1   18.95    1.62
  -4   2   1   15.48    1.41
  -3   2   1   64.97    4.96
  -2   2   1   49.85    3.78
  -1   2   1   66.80    4.83
   0  -2  -1  174.41   12.74
   0   2   1  173.55   12.04
  -1  -2  -1   30.07    2.39
   1   2   1   25.63    2.17
   2   2   1  131.41    9.31
   3   2   1   16.83    1.79
   4   2   1   31.34    3.09
  -5   3   1   13.77    1.37
  -3   3   1   10.59    1.30
  -2   3   1   10.21    1.15
  -1   3   1   91.34    6.61
   0  -3  -1  201.81   14.29
   0   3   1  182.25   13.39
  -1  -3  -1  314.21   22.18
   1   3   1  295.01   20.79
  -2  -3  -1  337.54   23.41
   2   3   1  304.62   22.02
  -3  -3  -1   52.25    4.49
   3   3   1   51.06    4.25
  -4  -3  -1  172.61   13.59
  -5   4   1    0.74    0.52
  -3   4   1   16.41    1.80
  -2   4   1    3.97    0.86
  -1   4   1   73.20    5.54
   0  -4  -1   64.46    5.22
   0   4   1   54.66    4.69
   1   4   1    2.70    0.59
  -1  -4  -1    2.19    0.73
  -2  -4  -1  174.26   12.42
   2   4   1  155.43   11.58
  -3  -4  -1   45.58    4.07
   3   4   1   45.19    3.87
  -4  -4  -1   84.03    7.27
  -5   5   1    2.38    0.73
  -3   5   1   -0.29    0.38
  -2   5   1  183.79   13.07
  -1   5   1    1.25    0.57
   0   5   1  512.98   37.37
   0  -5  -1  572.92   39.92
  -1  -5  -1   36.62    3.53
   1   5   1   40.41    3.19
  -2  -5  -1  102.81    4.77
  -2  -5  -1   94.95    7.62
   2   5   1   91.33    7.07
   3   5   1   87.46    6.76
  -3  -5  -1   87.26    7.14
  -4  -5  -1    0.27    0.85
  -5   6   1    0.55    0.59
  -4   6   1  114.75    8.86
  -3   6   1   21.66    2.34
  -2   6   1  395.02   27.36
  -1   6   1  150.56   11.05
   0  -6  -1  642.10   44.40
   0   6   1  560.33   41.50
   2   6   1  160.71   11.76
  -2  -6  -1  168.59   12.66
  -3  -6  -1   68.71    5.88
   3   6   1   67.86    5.51
  -4  -6  -1   24.90    2.98
  -4   7   1   40.52    3.92
  -3   7   1   94.06    7.44
  -2   7   1  195.57   14.11
  -1   7   1  382.21   26.72
   0  -7  -1  372.68   28.27
  -2  -7  -1   17.12    2.17
   2   7   1   18.10    1.96
   3   7   1   66.18    5.39
  -3  -7  -1   64.21    5.74
  -4  -7  -1    4.93    1.60
  -4   8   1   51.89    4.84
  -3   8   1    5.80    1.49
  -2   8   1   75.56    6.16
  -1   8   1  184.00   13.56
   0  -8  -1    0.17    1.08
   0   8   1    0.65    0.90
   2   8   1   48.98    4.16
  -2  -8  -1   45.65    4.51
   3   8   1  148.79   10.73
  -3  -8  -1  136.89   11.39
  -4  -8  -1   28.55    3.40
  -4   9   1    5.54    1.68
  -3   9   1    1.12    0.90
  -2   9   1    4.07    1.21
  -1   9   1  143.49   10.99
   0  -9  -1    5.78    2.14
   0   9   1    4.34    1.58
   1   9   1  443.93   29.68
  -1  -9  -1  392.14   31.24
  -2  -9  -1    2.82    1.28
   2   9   1    3.33    1.07
   3   9   1  238.90   16.41
  -3  -9  -1  211.34   17.36
  -4  -9  -1    1.89    1.34
  -4  10   1   -0.33    0.93
  -3  10   1   31.58    3.46
  -2  10   1    0.08    0.59
  -1  10   1   76.19    6.56
   0 -10  -1   -0.06    1.28
   0  10   1    0.61    1.08
  -1 -10  -1   21.95    3.11
   1  10   1   23.60    3.01
  -2 -10  -1   -0.14    0.81
   2  10   1    0.31    0.66
  -3 -10  -1   -0.35    0.96
  -4 -10  -1    4.56    1.89
  -4  11   1   31.29    3.68
  -3  11   1    3.60    1.43
  -2  11   1   80.80    6.91
  -1  11   1   57.42    5.39
   0  11   1  103.55    9.51
   0 -11  -1  122.93   10.52
  -1 -11  -1  129.68   11.60
   1  11   1  146.71   11.46
   2  11   1   18.50    2.53
  -2 -11  -1   14.92    2.50
  -3 -11  -1   33.83    3.95
  -4 -11  -1    7.42    2.24
  -4  12   1    4.14    1.72
  -3  12   1    6.55    1.88
  -2  12   1   31.05    3.53
  -1  12   1   77.66    6.94
   0  12   1   67.09    7.03
   0 -12  -1   86.08    7.99
   1  12   1   87.79    7.96
  -1 -12  -1   80.32    7.83
   2  12   1    1.39    1.26
  -2 -12  -1    0.73    1.34
  -3 -12  -1    4.84    1.99
  -3  13   1   44.16    4.74
  -2  13   1   38.31    4.19
  -1  13   1  196.00   15.16
   0  13   1   73.60    7.16
  -1 -13  -1  187.46   16.17
   1  13   1  209.84   16.14
  -2 -13  -1    3.27    1.81
   2  13   1    3.13    1.73
  -3 -13  -1   21.14    3.15
  -3  14   1   12.88    2.92
  -2  14   1  162.54   12.94
  -1  14   1   57.41    5.78
   0  14   1  444.93   32.48
   1  14   1   37.25    4.88
  -1 -14  -1   38.01    4.67
   2  14   1  148.04   12.08
  -2 -14  -1  125.87   11.75
  -3 -14  -1    0.17    1.43
  -3  15   1   -0.23    1.31
  -2  15   1    0.24    1.15
  -1  15   1    1.62    1.35
   0  15   1   13.81    3.25
   1  15   1    0.68    1.70
  -1 -15  -1   -0.50    1.33
  -2 -15  -1    2.12    2.01
   2  15   1    1.83    2.26
  -2  16   1   -0.01    1.19
  -1  16   1   64.64    6.58
   0  16   1   12.41    3.24
  -1 -16  -1   54.03    6.56
   1  16   1   72.75    7.47
  -2 -16  -1    6.70    2.59
  -1  17   1    1.87    1.70
   0  17   1   10.76    3.28
   1  17   1   -1.25    1.66
  -1 -17  -1    0.58    1.49
   0  18   1   70.62    7.54
   0  18  -2    7.62    2.91
  -1 -17   2   19.30    3.37
   0  17  -2   17.40    3.98
  -1  17  -2    4.05    2.29
  -2 -16   2    7.99    2.72
  -1 -16   2    3.63    2.25
   0  16  -2   89.42    8.55
  -1  16  -2   12.05    3.01
  -2  16  -2   48.97    5.58
  -2 -15   2   15.55    2.91
  -1 -15   2   20.55    3.34
   0 -15   2   72.92    7.39
   0  15  -2   71.71    7.16
  -1  15  -2    0.69    1.20
  -2  15  -2   59.65    6.15
  -3 -14   2   -0.15    1.18
  -2 -14   2    1.87    1.67
  -1 -14   2   -0.23    1.38
   1  14  -2    1.07    1.70
   0 -14   2  103.80    9.16
   0  14  -2   88.18    8.47
  -1  14  -2    1.67    1.33
  -2  14  -2   52.23    5.43
  -3  14  -2    0.82    1.17
  -3 -13   2    4.26    1.80
  -2 -13   2   36.61    4.36
   1  13  -2    8.24    2.74
  -1 -13   2    4.12    2.09
   0  13  -2   21.12    3.21
   0 -13   2   30.42    3.80
  -1  13  -2   25.98    3.26
  -2  13  -2    0.25    0.96
  -3  13  -2    3.21    1.61
  -4 -12   2   67.23    6.78
  -3 -12   2    2.04    1.40
  -2 -12   2  143.32   12.01
   1  12  -2   40.09    4.77
   0 -12   2  226.43   18.13
  -1  12  -2   85.48    7.32
  -2  12  -2   26.58    3.25
  -3  12  -2   90.15    7.89
  -4 -11   2    0.14    1.19
  -3 -11   2    4.72    1.64
  -2 -11   2   10.44    2.39
  -1 -11   2    5.45    2.09
   1  11  -2   16.00    2.65
   0 -11   2   67.56    5.94
   0  11  -2   47.67    5.00
   0 -11   2   47.13    3.31
  -1  11  -2   54.25    4.99
  -2  11  -2   52.42    4.97
  -3  11  -2   19.14    2.65
  -4  11  -2   27.21    3.31
  -4 -10   2    0.98    1.24
  -3 -10   2    1.56    1.17
  -2 -10   2    0.70    1.03
   1  10  -2    1.75    1.32
  -1 -10   2    0.44    1.03
   0 -10   2    0.49    0.54
   0  10  -2    0.98    0.93
   0 -10   2    0.35    1.16
  -1  10  -2  119.78    9.31
  -2  10  -2    3.99    1.33
  -3  10  -2  191.11   14.41
  -4  10  -2    4.17    1.50
  -4  -9   2    4.50    1.82
  -3  -9   2   17.67    2.35
  -2  -9   2   59.04    5.39
  -1  -9   2   71.31    3.90
   0  -9   2  103.67    8.44
   0  -9   2   89.58    5.22
   0   9  -2   90.76    7.52
  -1   9  -2   63.48    5.33
  -2   9  -2   10.59    1.65
  -3   9  -2   15.86    2.17
  -4   9  -2   -0.14    0.70
  -4  -8   2   31.61    3.81
  -3  -8   2    3.89    1.41
  -2  -8   2   55.85    5.02
  -1  -8   2    0.31    0.42
   1   8  -2    1.01    0.89
  -1  -8   2    0.32    0.78
   0   8  -2   26.07    2.70
   0  -8   2   26.17    1.94
   0  -8   2   27.58    3.26
  -1   8  -2    8.45    1.31
  -2   8  -2    1.60    0.79
  -3   8  -2   22.17    2.58
  -4   8  -2    0.51    0.71
  -4  -7   2   74.42    6.93
  -3  -7   2  164.16   12.86
  -2  -7   2  442.60   32.09
  -2  -7   2  448.94   20.86
   2   7  -2  421.99   29.95
  -1  -7   2  278.31   12.63
   1   7  -2  250.21   18.57
  -1  -7   2  248.92   19.40
   0  -7   2  564.05   41.82
   0   7  -2  565.84   39.07
   0  -7   2  580.51   27.41
   1  -7   2  107.13    6.01
  -1   7  -2   96.50    7.64
  -2   7  -2  147.73   10.94
  -3   7  -2   14.00    1.87
  -4   7  -2    7.65    1.60
  -5  -6   2    2.65    2.34
  -4  -6   2   95.08    8.44
  -3  -6   2   14.73    1.98
   2   6  -2   47.27    3.57
  -2  -6   2   43.16    2.53
  -2  -6   2   47.21    4.10
  -1  -6   2   82.89    4.19
  -1  -6   2   78.65    6.54
   0  -6   2   40.45    4.07
   0  -6   2   44.63    2.67
   0   6  -2   42.45    3.51
  -1   6  -2  111.65    8.71
   1  -6   2  126.86    6.84
  -2   6  -2   91.03    7.01
  -3   6  -2   58.24    4.88
  -4   6  -2    6.66    1.19
  -5  -5   2    0.66    1.65
  -4  -5   2   53.81    5.45
  -3  -5   2    0.63    0.44
  -3  -5   2    0.12    0.50
  -2  -5   2  184.17    9.24
   2   5  -2  198.36   13.06
  -2  -5   2  185.11   14.19
   1   5  -2    3.53    0.90
  -1  -5   2    5.23    0.89
  -1  -5   2    4.44    0.52
   0   5  -2  243.37   17.15
   0  -5   2  251.56   12.22
  -1   5  -2   13.89    1.68
   1  -5   2   19.56    1.81
  -2   5  -2   77.48    5.99
  -3   5  -2    5.91    1.29
  -4   5  -2    7.49    1.18
  -5  -4   2   -0.20    1.71
  -3  -4   2   16.32    1.30
  -2  -4   2   73.89    3.81
   2   4  -2   71.36    5.13
  -1  -4   2  159.74    7.79
   0  -4   2  611.55   28.96
   0   4  -2  604.38   41.15
   1  -4   2  203.35   10.44
  -1   4  -2  192.09   13.81
  -2   4  -2  280.49   19.50
  -3   4  -2   30.87    2.79
  -4   4  -2    9.70    1.28
  -4  -3   2    1.12    0.56
  -3  -3   2    0.11    0.35
   2   3  -2   18.33    1.54
  -2  -3   2   22.30    1.37
  -1  -3   2   71.09    3.56
   1   3  -2   67.86    4.87
   0  -3   2  224.60   10.96
   0   3  -2  221.77   15.34
   0  -3   2  226.06   16.39
  -1   3  -2  132.76    9.67
   1  -3   2  141.69    7.53
  -2   3  -2  256.62   17.81
  -3   3  -2    8.99    1.15
  -4   3  -2   60.86    4.76
  -4  -2   2   -0.40    0.38
  -3  -2   2  186.27    9.34
  -2  -2   2    9.57    0.78
   2   2  -2    6.82    0.70
  -1  -2   2  820.13   38.62
   0  -2   2   88.52    6.10
   0  -2   2   79.27    5.77
   0  -2   2   77.90    4.23
   1  -2   2  643.53   32.20
   1  -2   2  690.91   45.13
   2  -2   2   32.07    2.69
  -4   2  -2    0.36    0.43
  -5  -1   2   12.16    1.27
  -4  -1   2    1.43    0.62
  -3  -1   2  135.99    7.00
  -2  -1   2   15.35    1.30
  -2  -1   2   16.99    1.18
  -1  -1   2  644.39   30.44
   0  -1   2  150.70    6.87
   0  -1   2  126.91    9.53
   1  -1   2  551.97   36.32
   1  -1   2  521.04   25.99
   2  -1   2  107.53    7.76
   3  -1   2   74.37    5.77
  -4   1  -2   14.83    1.47
  -5   0   2   40.17    2.73
  -4   0   2    5.35    0.98
  -3   0   2  361.42   17.57
  -2   0   2   12.45    1.14
  -2   0   2   13.06    1.01
  -1   0   2  802.74   37.82
   1   0   2  141.98    7.27
   1   0   2  134.97    9.62
   2   0   2   76.18    5.65
   3   0   2   20.42    2.09
   4   0   2   34.92    3.42
  -5   1   2    9.05    1.10
  -4   1   2    1.63    0.66
  -3   1   2  119.95    6.32
  -2   1   2   14.66    1.15
  -2   1   2   15.61    1.41
  -1   1   2  593.26   26.46
  -1   1   2  522.92   37.86
   0   1   2  141.17    6.66
   0   1   2  132.23    9.42
   1   1   2  539.69   36.51
   2   1   2  118.26    8.50
   3   1   2   81.35    6.27
   4   1   2   31.38    3.18
  -5   2   2    2.58    0.89
  -4   2   2   -0.01    0.46
  -3   2   2  163.75   11.42
  -3   2   2  155.51    8.23
  -2   2   2    6.50    0.86
  -2   2   2    6.70    0.75
  -1   2   2  683.93   48.30
  -1   2   2  739.90   33.64
   0   2   2   67.97    3.35
   0   2   2   65.62    4.79
   1   2   2  680.35   45.79
  -1  -2  -2  675.33   48.65
  -2  -2  -2   40.31    3.24
   2   2   2   36.11    3.10
  -3  -2  -2  155.54   11.23
   3   2   2  138.07   10.68
   4   2   2    1.30    0.91
  -5   3   2    1.40    0.70
  -4   3   2    0.40    0.58
  -3   3   2   -0.23    0.43
  -3   3   2    0.08    0.47
  -2   3   2   18.37    1.41
  -2   3   2   18.55    1.84
  -1   3   2   58.08    3.17
  -1   3   2   61.14    4.77
   0   3   2  228.71   15.93
   0   3   2  233.40   11.02
   1   3   2  129.65    9.23
  -1  -3  -2  132.53   10.00
   2   3   2  292.60   21.03
  -2  -3  -2  317.50   22.30
   3   3   2   12.74    1.65
  -3  -3  -2   14.41    1.72
   4   3   2  120.85    9.39
  -5   4   2    0.17    0.58
  -4   4   2    0.92    0.66
  -3   4   2   11.35    1.51
  -2   4   2   59.72    4.77
  -1   4   2  141.29    9.91
  -1   4   2  124.95    6.64
   0   4   2  615.06   42.90
   0   4   2  646.24   29.73
   2   4   2  288.32   20.76
  -2  -4  -2  312.31   22.10
  -3  -4  -2   43.93    3.90
   3   4   2   41.84    3.76
   4   4   2   18.20    2.34
  -5   5   2    0.43    0.62
  -4   5   2   28.53    2.31
  -3   5   2    0.10    0.55
  -2   5   2  142.33   10.46
  -1   5   2    2.90    0.98
   0   5   2  260.10   18.34
   0   5   2  259.35   12.43
  -1  -5  -2   12.83    1.95
   1   5   2   15.92    1.62
   2   5   2   80.15    6.17
  -2  -5  -2   83.24    6.67
   3   5   2    6.14    1.38
  -3  -5  -2    6.79    1.22
   4   5   2   11.64    1.88
  -5   6   2    1.04    0.70
  -4   6   2   51.37    3.53
  -3   6   2   11.37    1.66
  -2   6   2   33.44    3.19
  -1   6   2   65.43    5.57
   0   6   2   46.94    2.53
   0  -6  -2   52.34    4.77
   0   6   2   43.95    4.20
  -2  -6  -2   83.11    7.14
   2   6   2   90.23    6.64
   3   6   2   66.84    5.64
  -3  -6  -2   71.94    6.02
  -4   7   2   40.18    3.03
  -3   7   2  129.81    9.99
  -2   7   2  316.55   22.43
  -1   7   2  228.03   16.70
   0   7   2  592.11   41.72
   0   7   2  610.20   28.46
  -1  -7  -2   78.08    7.37
   1   7   2   93.42    6.81
   2   7   2  142.06    9.76
  -2  -7  -2  119.04   10.35
  -3  -7  -2   15.93    2.12
   3   7   2   14.70    1.93
  -3   8   2    5.49    1.55
  -2   8   2   45.67    4.28
  -1   8   2   -0.03    0.64
   0  -8  -2   35.77    4.11
   0   8   2   29.01    3.39
   0   8   2   25.97    1.77
   1   8   2    8.67    1.47
  -1  -8  -2    9.80    2.28
   2   8   2    0.97    0.75
  -2  -8  -2    1.83    1.11
  -3  -8  -2   23.29    2.85
   3   8   2   24.03    2.64
  -4  -8  -2    0.49    1.05
  -3   9   2   14.34    2.13
  -2   9   2   49.41    4.63
  -1   9   2   78.03    6.81
   0   9   2   99.55    8.49
  -1  -9  -2   62.75    6.14
   1   9   2   64.69    5.69
   2   9   2   10.12    1.58
  -2  -9  -2    7.38    1.96
  -3  -9  -2   14.10    2.24
   3   9   2   16.79    2.14
  -4  -9  -2   -0.18    1.02
  -4  10   2    0.14    1.06
  -3  10   2    2.26    1.22
  -2  10   2    1.07    0.95
  -1  10   2    1.43    1.07
   0  10   2    0.13    1.00
   1  10   2  121.57   10.14
  -1 -10  -2  130.17   10.81
   2  10   2    3.80    1.40
  -2 -10  -2    1.61    1.40
  -3 -10  -2  141.31   13.00
   3  10   2  183.40   12.54
  -4 -10  -2    3.19    1.62
  -4  11   2    0.02    1.14
  -3  11   2    4.52    1.69
  -2  11   2   10.65    2.28
  -1  11   2    8.58    2.19
   0  11   2   61.96    6.21
   1  11   2   56.21    5.97
  -1 -11  -2   70.28    6.47
  -2 -11  -2   40.02    4.68
   2  11   2   48.03    4.64
  -3 -11  -2   13.14    2.37
   3  11   2   18.08    2.48
  -4 -11  -2   22.53    3.31
  -4  12   2   59.18    5.95
  -3  12   2    2.93    1.46
  -2  12   2  165.43   12.96
  -1  12   2   26.70    3.45
   0  12   2  206.29   16.26
   1  12   2   99.87    9.57
  -1 -12  -2  122.74   10.10
  -2 -12  -2   21.03    3.06
   2  12   2   19.97    2.95
   3  12   2   79.03    6.72
  -3 -12  -2   61.86    6.66
  -3  13   2    7.77    2.30
  -2  13   2   50.09    5.15
  -1  13   2    7.35    2.21
   0  13   2   23.30    3.54
   1  13   2   34.74    4.61
  -1 -13  -2   39.29    4.61
   2  13   2   -0.22    1.00
  -2 -13  -2   -0.62    1.22
  -3 -13  -2    2.75    1.80
  -3  14   2   -0.18    1.26
  -2  14   2    2.93    1.65
  -1  14   2   -0.07    1.12
   0  14   2   90.31    8.57
   1  14   2    0.73    1.64
  -1 -14  -2    3.59    1.98
  -2 -14  -2   54.62    5.83
   2  14   2   52.80    6.00
  -3 -14  -2   -0.50    1.39
  -3  15   2   31.54    4.12
  -2  15   2   19.99    3.06
  -1  15   2   20.15    3.16
   0  15   2   64.30    6.82
   1  15   2    2.82    2.12
  -1 -15  -2    2.59    1.90
  -2 -15  -2   71.63    7.03
   2  15   2   62.47    7.18
  -2  16   2    9.39    2.70
  -1  16   2    4.56    1.98
   0  16   2   93.50    8.98
  -1 -16  -2   16.21    3.07
   1  16   2   17.88    4.24
   2  16   2   62.40    7.38
  -2 -16  -2   66.63    6.87
  -1  17   2   18.49    3.73
   0  17   2   16.43    3.89
  -1 -17  -2    6.76    2.59
   1  17   2    3.87    2.48
   0  18   2    6.97    2.88
  -1 -17   3   17.40    3.21
   0  17  -3   31.87    4.45
  -1  17  -3   47.25    5.62
  -2 -16   3   -0.47    1.54
  -1 -16   3   75.71    7.63
   0 -16   3    1.06    1.43
   0  16  -3    0.30    1.59
  -1  16  -3  118.61   10.47
  -2  16  -3    0.27    1.59
  -2 -15   3   14.75    3.42
  -1 -15   3  117.60   10.61
   0  15  -3    7.79    2.56
   0 -15   3    5.94    2.23
  -1  15  -3   43.63    4.99
  -2  15  -3    0.11    1.43
  -3 -14   3   55.12    5.88
  -2 -14   3    2.47    1.68
  -1 -14   3   99.07    9.16
   0 -14   3    1.22    1.51
   0  14  -3    0.57    1.51
  -1  14  -3   33.14    4.01
  -2  14  -3    2.22    1.59
  -3 -13   3    0.01    1.21
  -2 -13   3   33.10    4.07
  -1 -13   3    4.25    2.01
   0  13  -3   65.01    6.76
   0 -13   3   87.29    7.56
  -1  13  -3   26.50    3.36
  -2  13  -3   12.72    2.72
  -3  13  -3   20.84    3.13
  -3 -12   3   37.57    4.26
  -2 -12   3   95.93    8.56
  -1 -12   3   51.08    5.38
   0  12  -3   85.02    8.04
   0 -12   3  114.47    9.03
   0 -12   3   91.23    5.58
  -1  12  -3   26.61    3.22
  -2  12  -3    2.97    1.48
  -3  12  -3    8.06    2.20
  -4 -11   3    1.26    1.40
  -3 -11   3   -0.02    1.00
  -2 -11   3  101.96    8.82
  -1 -11   3   10.64    2.65
   1  11  -3   19.77    2.91
   0 -11   3  425.10   21.01
  -1  11  -3   11.30    1.90
  -2  11  -3  264.03   19.44
  -3  11  -3   -0.09    0.85
  -4 -10   3    0.17    1.24
  -3 -10   3    8.76    2.07
  -2 -10   3    1.09    1.09
  -1 -10   3    0.53    1.01
  -1 -10   3    1.25    0.65
   1  10  -3    0.44    1.14
   0 -10   3   57.59    5.40
   0 -10   3   52.55    3.42
   0  10  -3   45.11    4.63
   1 -10   3    0.85    0.89
  -1  10  -3   -0.17    0.58
  -2  10  -3   67.44    5.99
  -3  10  -3   -0.13    0.73
  -4  10  -3   15.22    2.27
  -4  -9   3   44.19    4.87
  -3  -9   3   13.40    2.06
  -2  -9   3  360.20   26.85
  -1  -9   3   28.54    1.99
   0  -9   3  816.51   57.08
   0  -9   3  776.50   37.51
   0   9  -3  749.55   53.48
  -1   9  -3   45.65    4.30
   1  -9   3   50.51    3.57
  -2   9  -3  346.72   24.67
  -3   9  -3   34.73    3.65
  -4   9  -3   17.11    2.31
  -4  -8   3    1.37    1.24
  -3  -8   3    6.01    1.58
  -2  -8   3   19.66    1.39
  -2  -8   3   19.43    2.35
   1   8  -3    0.62    0.99
  -1  -8   3    0.53    0.74
  -1  -8   3    0.78    0.49
   0  -8   3   30.32    3.42
   0   8  -3   29.79    2.90
   0  -8   3   28.71    2.20
   1  -8   3    1.75    0.91
  -1   8  -3    0.03    0.48
  -2   8  -3    1.08    0.86
  -3   8  -3   13.25    1.90
  -4   8  -3    1.03    0.89
  -4  -7   3   25.19    3.35
  -3  -7   3    6.16    1.61
  -2  -7   3  119.40    9.53
  -2  -7   3  122.15    6.14
  -1  -7   3    6.49    1.46
   1   7  -3    7.17    1.58
  -1  -7   3    8.07    1.02
   0  -7   3  162.01    8.22
   0  -7   3  143.15   12.23
   0   7  -3  164.49   11.36
   1  -7   3  117.32    6.52
  -1   7  -3   98.33    8.11
  -2   7  -3   27.85    2.86
  -3   7  -3   61.45    5.27
  -4   7  -3   -0.10    0.54
  -5  -6   3   64.76    7.26
  -4  -6   3   18.00    2.76
  -3  -6   3  127.37    6.52
  -3  -6   3  122.20   10.04
  -2  -6   3   17.40    1.27
  -2  -6   3   15.17    1.88
  -1  -6   3  135.23    7.02
   1   6  -3  148.68   10.38
  -1  -6   3  135.12   10.70
   0  -6   3    6.44    1.48
   0   6  -3    7.78    1.04
   0  -6   3    6.34    1.06
   1  -6   3   52.84    3.58
  -1   6  -3   43.36    3.97
  -2   6  -3    2.06    0.84
  -3   6  -3   13.40    1.74
  -4   6  -3    0.75    0.67
  -5  -5   3   50.01    6.24
  -3  -5   3  204.33   10.23
  -2  -5   3    1.94    0.77
  -2  -5   3    1.67    0.53
  -1  -5   3  239.97   11.84
   1   5  -3  243.16   17.07
  -1  -5   3  247.78   17.99
   0  -5   3    0.28    0.60
   0   5  -3    0.14    0.36
   0  -5   3    0.20    0.49
  -1   5  -3    0.14    0.46
   1  -5   3    1.04    0.71
  -2   5  -3    0.42    0.49
  -3   5  -3   48.08    4.10
  -4   5  -3   -0.07    0.49
  -4  -4   3    2.52    0.81
  -3  -4   3  173.77    8.81
  -2  -4   3   51.27    2.88
  -1  -4   3  654.31   47.23
  -1  -4   3  661.95   31.15
   1   4  -3  656.05   44.61
   0  -4   3  360.96   27.08
   0  -4   3  365.30   18.09
   0   4  -3  393.06   25.50
   1  -4   3  632.98   33.48
  -1   4  -3  745.81   46.90
  -2   4  -3  339.21   23.50
  -3   4  -3  169.30   12.16
  -4   4  -3   73.92    5.76
  -4  -3   3    3.54    0.86
  -3  -3   3   32.13    2.13
  -2  -3   3   12.84    1.03
  -1  -3   3   19.67    1.33
   0  -3   3    2.44    0.58
   0  -3   3    1.71    0.50
   0   3  -3    0.79    0.37
   1  -3   3   24.65    2.24
   1  -3   3   27.05    2.30
   2  -3   3   90.50    6.75
  -3   3  -3   29.10    2.61
  -4   3  -3   51.40    4.14
  -4  -2   3   35.77    2.48
  -3  -2   3    0.20    0.42
  -2  -2   3  270.42   13.15
  -1  -2   3   79.07    4.10
   0  -2   3  497.10   33.10
   0  -2   3  446.26   22.09
   0  -2   3  441.60   31.28
   1  -2   3  203.83   10.74
   1  -2   3  202.55   14.10
   2  -2   3   29.92    2.61
   3  -2   3   70.44    5.61
  -4   2  -3   -0.14    0.30
  -5  -1   3   10.42    1.44
  -4  -1   3  118.58    6.42
  -3  -1   3    2.20    0.63
  -2  -1   3  158.38    7.92
  -1  -1   3   86.25    4.44
   0  -1   3   15.33    1.45
   0  -1   3   18.82    1.30
   1  -1   3  178.73    9.80
   1  -1   3  191.42   12.89
   2  -1   3   15.30    1.58
   3  -1   3   61.79    5.01
   4  -1   3   27.37    2.95
  -5   0   3    0.34    0.59
  -4   0   3    0.30    0.48
  -3   0   3   -0.23    0.36
  -2   0   3    0.06    0.33
  -2   0   3   -0.27    0.24
  -1   0   3    0.09    0.15
  -1   0   3    0.11    0.25
   0   0   3   -0.01    0.29
   0   0   3   -0.04    0.18
   1   0   3    0.86    0.66
   1   0   3   -0.17    0.20
  -2   0  -3   -0.02    0.28
   2   0   3   -0.19    0.28
   3   0   3   -0.05    0.43
   4   0   3    0.20    0.71
  -5   1   3    9.58    1.42
  -4   1   3  109.53    6.06
  -3   1   3    1.82    0.69
  -2   1   3  140.10    6.85
  -2   1   3  128.01    9.55
  -1   1   3   86.27    4.47
  -1   1   3   86.56    6.09
   0   1   3   18.65    1.20
   0   1   3   14.10    1.40
   1   1   3  180.44    9.45
  -2  -1  -3   21.85    1.88
   2   1   3   17.78    1.88
   3   1   3   63.49    5.16
   4   1   3   26.24    2.89
  -5   2   3    1.27    0.73
  -4   2   3   29.92    2.28
  -3   2   3    0.01    0.43
  -2   2   3  222.48   15.87
  -2   2   3  228.35   11.14
  -1   2   3   78.84    4.18
  -1   2   3   81.66    5.85
   0   2   3  405.37   19.18
   0   2   3  399.86   27.36
   1   2   3  189.18    9.70
   2   2   3   33.86    3.04
  -2  -2  -3   38.67    3.16
   3   2   3   78.31    6.22
   4   2   3    0.00    0.68
  -5   3   3    2.46    0.86
  -4   3   3    2.30    0.86
  -3   3   3   24.70    1.92
  -2   3   3   12.38    1.56
  -2   3   3   10.79    1.05
  -1   3   3   20.25    1.37
  -1   3   3   20.26    1.99
   0   3   3    1.01    0.42
   0   3   3    1.54    0.44
   1   3   3   23.54    2.00
  -1  -3  -3   18.73    2.36
   1   3   3   24.01    1.69
   2   3   3   95.72    7.49
  -2  -3  -3  108.24    7.99
   3   3   3   45.01    4.00
   4   3   3   97.34    7.92
  -5   4   3   14.16    1.57
  -4   4   3    1.49    0.78
  -3   4   3  133.38    7.22
  -2   4   3   43.68    3.88
  -2   4   3   42.14    2.67
  -1   4   3  603.26   40.86
  -1   4   3  586.95   28.31
   0   4   3  349.64   17.36
   0   4   3  378.42   25.04
   1   4   3  631.87   30.02
   2   4   3  337.67   22.85
  -2  -4  -3  321.63   24.26
   3   4   3  245.85   17.56
   4   4   3  137.77   10.72
  -5   5   3   19.29    1.97
  -4   5   3   -0.05    0.73
  -3   5   3  151.35    8.16
  -3   5   3  150.55   11.43
  -2   5   3    1.02    0.57
  -2   5   3    1.44    0.93
  -1   5   3  217.00   15.34
  -1   5   3  203.53   10.38
   0   5   3    0.06    0.40
   0   5   3    0.12    0.33
  -1  -5  -3    0.80    0.99
   1   5   3    0.53    0.24
   1   5   3    0.29    0.44
  -2  -5  -3    0.35    0.71
   2   5   3    2.98    0.81
   3   5   3   61.58    5.11
  -3  -5  -3   58.34    5.27
   4   5   3   -0.31    0.79
  -4   6   3    8.37    1.59
  -3   6   3  107.07    6.13
  -3   6   3  102.60    8.41
  -2   6   3   15.59    2.08
  -2   6   3   13.51    1.43
  -1   6   3  126.48    9.56
  -1   6   3  115.56    6.25
   0   6   3    7.11    1.23
   0   6   3    7.86    0.73
   1   6   3   43.70    3.78
  -1  -6  -3   45.63    4.54
  -2  -6  -3    1.76    0.99
   2   6   3    1.28    0.66
  -3  -6  -3   14.89    2.12
   3   6   3   16.11    2.00
   4   6   3    1.01    0.96
  -4   7   3   15.87    1.85
  -3   7   3    4.77    1.22
  -3   7   3    4.36    1.48
  -2   7   3  109.64    6.26
  -2   7   3  115.54    9.07
  -1   7   3    4.87    1.55
  -1   7   3    4.74    0.85
   0   7   3  158.97   12.30
   0   7   3  170.86    8.14
  -1  -7  -3  108.12    8.90
   1   7   3   96.42    7.82
  -2  -7  -3   16.61    2.50
   2   7   3   26.34    2.45
  -3  -7  -3   55.96    5.59
   3   7   3   68.87    5.46
   4   7   3   -0.56    0.76
  -4   8   3    0.58    0.90
  -3   8   3    4.33    1.56
  -3   8   3    2.05    1.02
  -2   8   3   19.86    1.90
  -2   8   3   22.50    2.78
  -1   8   3    0.20    0.48
  -1   8   3    0.69    0.92
   0   8   3   31.41    1.88
   0   8   3   29.00    3.32
  -1  -8  -3    0.61    1.15
   1   8   3   -0.44    0.44
  -2  -8  -3    1.94    1.28
   2   8   3    1.01    0.76
   3   8   3   14.12    1.95
  -3  -8  -3   10.96    2.41
  -4   9   3   28.44    2.73
  -3   9   3   11.85    1.97
  -3   9   3   11.24    2.40
  -2   9   3  366.62   18.01
  -2   9   3  345.51   25.63
  -1   9   3   31.70    3.67
  -1   9   3   28.07    2.16
   0   9   3  767.72   53.35
  -1  -9  -3   58.72    5.58
   1   9   3   45.78    4.73
   3   9   3   32.40    3.23
  -3  -9  -3   23.54    3.20
  -4  10   3    1.02    0.96
  -3  10   3    9.33    2.34
  -3  10   3    8.48    1.76
  -2  10   3    2.53    1.34
  -2  10   3    3.14    1.06
  -1  10   3    0.15    0.62
  -1  10   3    0.93    1.13
   0  10   3   57.37    5.74
  -1 -10  -3    0.78    1.31
   1  10   3    0.20    0.81
   2  10   3   58.11    5.16
  -2 -10  -3   49.93    5.36
  -3 -10  -3   -0.25    0.99
   3  10   3    1.25    1.05
  -4  11   3    3.16    1.21
  -3  11   3    0.47    0.87
  -3  11   3    1.31    1.47
  -2  11   3  136.93    7.56
  -2  11   3  119.38   10.43
  -1  11   3   14.59    2.92
   0  11   3  471.14   33.99
  -1 -11  -3   17.05    2.72
   1  11   3    9.74    2.53
  -2 -11  -3  201.04   16.71
   2  11   3  218.76   16.00
  -3 -11  -3   -0.43    1.07
   3  11   3    0.13    0.94
  -3  12   3   47.63    3.81
  -3  12   3   44.52    4.99
  -2  12   3  155.75    8.30
  -2  12   3  125.88   11.33
  -1  12   3   86.02    7.90
   0  12   3   99.78    9.07
   1  12   3   28.19    4.05
  -1 -12  -3   41.54    4.58
  -2 -12  -3    2.38    1.74
   2  12   3    1.81    1.42
   3  12   3    2.33    1.45
  -3 -12  -3    3.23    1.91
  -3  13   3    1.51    1.45
  -3  13   3    1.32    1.12
  -2  13   3   51.38    5.43
  -1  13   3    9.71    2.60
   0  13   3   76.44    7.58
   1  13   3   31.16    4.49
  -1 -13  -3   44.17    4.88
   2  13   3   11.80    2.96
  -2 -13  -3   14.66    3.10
   3  13   3   14.56    3.28
  -3 -13  -3   17.16    3.53
  -3  14   3   82.35    7.83
  -2  14   3    7.83    2.35
  -1  14   3  123.72   10.70
   0  14   3    1.91    1.85
  -1 -14  -3   52.39    5.64
   1  14   3   41.65    5.46
  -2 -14  -3    3.64    1.99
   2  14   3    1.18    1.60
  -3 -14  -3    0.32    1.62
  -2  15   3   20.70    3.23
  -1  15   3  142.10   12.04
   0  15   3    5.63    2.40
  -1 -15  -3   70.10    7.00
   1  15   3   56.85    6.89
  -2 -15  -3   -0.09    1.46
   2  15   3   -0.31    1.55
  -2  16   3    1.73    1.78
  -1  16   3   68.76    7.03
   0  16   3   -0.18    1.56
   1  16   3  162.46   14.32
  -2 -16  -3    0.56    1.51
   2  16   3   -0.79    1.74
  -1  17   3   14.18    3.36
   0  17   3   27.10    4.26
   1  17   3   61.82    7.33
  -1 -17   4   29.12    4.17
  -2 -16   4    0.46    1.79
  -1 -16   4   27.65    3.96
  -1  16  -4   15.54    3.58
  -2 -15   4    1.80    1.69
  -1 -15   4    7.51    2.64
   0  15  -4    0.90    1.50
  -1  15  -4   31.14    4.12
  -2  15  -4    0.05    1.43
  -3 -14   4    0.23    1.32
  -2 -14   4    0.65    1.40
  -1 -14   4    0.95    1.52
   0  14  -4    1.25    1.48
  -1  14  -4    0.80    1.29
  -2  14  -4    2.45    1.72
  -3 -13   4   -0.32    1.21
  -2 -13   4    3.45    1.79
  -1 -13   4    1.77    1.55
   0 -13   4   11.44    2.72
   0  13  -4   12.66    2.26
  -1  13  -4   -0.02    1.03
  -2  13  -4   29.03    3.78
  -3  13  -4    7.14    2.37
  -3 -12   4   12.33    2.29
  -2 -12   4   -0.07    1.03
  -1 -12   4   -0.27    1.18
   0 -12   4   11.29    1.81
   0 -12   4   15.74    2.55
   0  12  -4    8.92    2.31
  -1  12  -4   13.52    2.33
   1 -12   4   16.95    2.02
  -2  12  -4   28.42    3.57
  -3  12  -4   12.59    2.72
  -4 -11   4    0.08    1.29
  -3 -11   4   36.03    4.05
  -2 -11   4   14.38    2.28
  -1 -11   4   42.38    2.71
  -1 -11   4   32.10    4.00
   0  11  -4   28.62    3.46
   0 -11   4   36.50    4.00
   0 -11   4   32.92    2.63
  -1  11  -4   23.91    3.04
   1 -11   4   28.29    2.65
  -2  11  -4   -0.18    0.96
  -3  11  -4    9.43    2.27
  -4 -10   4    0.04    1.18
  -3 -10   4   89.26    7.84
  -2 -10   4   23.59    2.89
  -1 -10   4  177.91    8.54
  -1 -10   4  146.26   12.89
   0 -10   4  349.08   24.95
   0 -10   4  317.61   16.51
   0  10  -4  315.30   23.26
  -1  10  -4  113.41    9.40
   1 -10   4  125.85    7.30
  -2  10  -4  433.51   30.78
  -3  10  -4   20.13    2.72
  -4  -9   4    0.16    1.26
  -3  -9   4   50.93    4.96
  -2  -9   4    3.29    0.76
  -2  -9   4    3.03    1.22
  -1  -9   4   64.60    3.65
  -1  -9   4   56.07    5.48
   0  -9   4   47.36    3.27
   0  -9   4   46.71    4.75
   0   9  -4   48.43    4.30
  -1   9  -4   13.12    1.93
   1  -9   4   15.41    2.21
  -2   9  -4   67.78    6.00
  -3   9  -4    0.70    0.90
  -4   9  -4   19.74    2.59
  -4  -8   4   30.68    3.86
  -3  -8   4   75.58    6.68
  -2  -8   4   33.55    2.17
  -2  -8   4   35.51    3.48
   1   8  -4   89.79    6.70
  -1  -8   4   73.18    6.66
  -1  -8   4   75.02    4.43
   0  -8   4    2.16    1.30
   0   8  -4    4.73    1.20
   0  -8   4    2.82    0.93
  -1   8  -4   21.64    2.50
   1  -8   4   23.76    2.35
  -2   8  -4   78.16    6.56
  -3   8  -4    2.57    1.07
  -4   8  -4   37.28    3.76
  -4  -7   4    0.71    1.18
  -3  -7   4   61.14    3.62
  -3  -7   4   62.54    5.66
  -2  -7   4    3.05    1.02
  -2  -7   4    5.09    0.84
   1   7  -4   33.86    3.23
  -1  -7   4   33.22    3.24
  -1  -7   4   32.36    2.18
   0  -7   4    6.21    1.12
   0  -7   4    5.80    1.55
   0   7  -4    6.08    1.25
  -1   7  -4    4.83    1.24
   1  -7   4    4.53    1.26
  -2   7  -4   -0.45    0.59
  -3   7  -4    9.89    1.60
  -4   7  -4    0.69    0.84
  -4  -6   4   25.38    3.49
  -3  -6   4   25.51    2.92
  -3  -6   4   23.73    1.84
  -2  -6   4   10.37    1.48
  -2  -6   4   11.14    1.06
  -1  -6   4  242.57   12.54
  -1  -6   4  265.08   19.00
   1   6  -4  259.93   17.99
   0   6  -4    0.62    0.53
   0  -6   4    1.16    0.64
   0  -6   4    1.06    0.81
   1  -6   4  185.17   10.09
  -1   6  -4  180.79   13.20
  -2   6  -4    1.49    0.85
  -3   6  -4    2.80    1.03
  -4   6  -4    1.50    0.87
  -5  -5   4    0.35    1.86
  -3  -5   4   16.18    1.46
  -2  -5   4  273.53   13.38
  -1  -5   4  117.64    9.00
   1   5  -4  127.09    8.52
  -1  -5   4  107.95    6.00
   0  -5   4  504.52   24.43
  -1   5  -4  179.16   12.85
  -2   5  -4  223.42   15.93
  -3   5  -4   63.95    5.25
  -4   5  -4   18.90    2.10
  -4  -4   4    8.46    1.36
  -3  -4   4   26.36    1.94
  -2  -4   4   49.76    2.91
  -1  -4   4  211.46   10.82
   1   4  -4  229.83   15.20
   0  -4   4   87.63    6.59
   0   4  -4   85.34    6.24
   0  -4   4   81.59    4.71
  -1   4  -4  101.42    7.42
   1  -4   4   97.26    6.00
   2  -4   4    3.10    1.46
  -2   4  -4    3.91    1.00
  -3   4  -4    0.02    0.44
  -4   4  -4    1.33    0.69
  -4  -3   4   36.18    2.58
  -3  -3   4   29.27    2.05
  -2  -3   4  257.56   12.64
  -1  -3   4  306.29   15.62
   1   3  -4  341.43   22.00
   0  -3   4  597.43   42.51
   0  -3   4  588.31   40.27
   1  -3   4  408.24   20.94
   1  -3   4  427.43   28.65
   2  -3   4  103.55    8.22
   2  -3   4  120.11    7.46
  -4   3  -4    3.38    0.88
  -5  -2   4    0.09    0.73
  -4  -2   4  130.16    7.03
  -3  -2   4    8.77    1.02
  -2  -2   4  439.36   21.14
  -1  -2   4  147.46    7.41
   0  -2   4  387.79   18.75
   0  -2   4  386.26   26.37
   1  -2   4  210.68   14.25
   1  -2   4  197.07   10.85
   2  -2   4   36.61    3.28
   2  -2   4   31.97    2.95
   3  -2   4   59.82    4.98
  -4   2  -4    0.46    0.48
  -5  -1   4    0.19    0.64
  -4  -1   4    2.85    0.86
  -3  -1   4    1.17    0.55
  -2  -1   4    2.95    0.65
  -1  -1   4    0.24    0.40
  -1  -1   4    0.07    0.20
   0  -1   4    9.77    0.95
   0  -1   4    9.53    0.98
   1  -1   4    0.14    0.35
   1  -1   4    0.66    0.70
   2  -1   4   48.72    3.70
   2  -1   4   41.74    3.68
   3  -1   4    0.28    0.59
   4  -1   4   32.28    3.38
  -5   0   4   10.51    1.54
  -4   0   4   13.70    1.42
  -3   0   4   86.56    4.81
  -2   0   4   38.81    2.39
  -1   0   4  407.19   19.66
  -1   0   4  412.12   27.69
   0   0   4    1.56    0.42
   0   0   4    1.91    0.54
   2   0   4    8.56    1.55
   2   0   4   10.37    1.25
   3   0   4  134.65   10.04
   4   0   4   -0.17    0.62
  -5   1   4    0.04    0.59
  -4   1   4    1.90    0.75
  -3   1   4    0.81    0.52
  -2   1   4    2.18    0.58
  -1   1   4   -0.04    0.22
  -1   1   4   -0.09    0.34
   0   1   4    8.48    0.92
   0   1   4    9.40    0.87
   1   1   4    0.29    0.64
   1   1   4    0.44    0.37
   2   1   4   46.17    3.81
   3   1   4    0.01    0.48
   4   1   4   32.13    3.41
  -5   2   4    0.07    0.69
  -4   2   4  112.94    6.35
  -3   2   4    9.02    1.24
  -2   2   4  405.74   27.77
  -2   2   4  404.99   19.62
  -1   2   4  158.26   11.02
  -1   2   4  158.29    7.94
   0   2   4  343.91   24.17
   0   2   4  364.71   17.07
   2   2   4   33.53    2.97
   3   2   4   65.33    5.43
   4   2   4    0.19    0.67
  -5   3   4   -0.27    0.64
  -4   3   4   26.76    2.22
  -3   3   4   23.54    1.90
  -2   3   4  256.17   17.73
  -2   3   4  246.69   12.46
  -1   3   4  305.47   21.13
  -1   3   4  308.57   14.92
   0   3   4  449.48   21.60
   0   3   4  453.55   30.79
   1   3   4  372.69   18.93
   1   3   4  394.07   26.30
   2   3   4  110.85    8.22
   3   3   4  156.29   11.61
   4   3   4    3.44    1.36
  -5   4   4   -0.22    0.67
  -4   4   4    5.10    1.18
  -3   4   4   21.07    1.81
  -2   4   4   46.76    4.08
  -2   4   4   42.90    2.79
  -1   4   4  204.67   10.06
  -1   4   4  199.20   14.29
   0   4   4   79.32    5.79
   0   4   4   73.59    4.07
   1   4   4  101.19    5.59
   1   4   4   90.08    7.39
  -1  -4  -4  112.63    8.20
  -2  -4  -4    6.32    1.51
   2   4   4    3.83    0.93
   3   4   4    0.25    0.69
   4   4   4    2.53    1.26
  -5   5   4   -0.48    0.78
  -4   5   4   41.52    3.16
  -3   5   4   15.17    1.58
  -2   5   4  247.47   12.80
  -2   5   4  264.86   18.59
  -1   5   4  112.65    5.88
  -1   5   4  110.72    8.47
   0   5   4  484.59   24.08
   0   5   4  524.26   34.64
   1   5   4  179.06    9.06
   3   5   4   78.11    6.40
   4   5   4   34.55    3.76
  -4   6   4   15.95    2.14
  -3   6   4   19.76    1.90
  -2   6   4    9.66    1.74
  -2   6   4    9.72    1.15
  -1   6   4  241.37   11.93
  -1   6   4  237.89   17.34
   0   6   4    1.27    0.64
   0   6   4    1.54    0.76
   2   6   4    0.24    0.53
  -2  -6  -4    1.83    1.26
   3   6   4    1.49    0.91
   4   6   4    1.50    1.19
  -4   7   4   -0.08    0.78
  -3   7   4   55.31    3.86
  -2   7   4    4.00    1.54
  -2   7   4    2.15    0.81
  -1   7   4   30.89    3.36
  -1   7   4   29.56    2.11
   0   7   4    6.78    1.50
   0   7   4    6.63    1.01
   1   7   4    4.19    1.19
  -1  -7  -4    8.74    2.12
  -2  -7  -4   -0.09    0.93
   2   7   4    0.22    0.54
   3   7   4    9.13    1.58
   4   7   4    0.65    1.04
  -4   8   4   20.56    2.33
  -3   8   4   66.50    4.68
  -3   8   4   75.03    6.75
  -2   8   4   37.17    4.07
  -2   8   4   33.88    2.64
  -1   8   4   75.30    4.39
  -1   8   4   78.02    6.86
   0   8   4    4.05    1.32
  -1  -8  -4   25.29    3.18
   1   8   4   17.67    2.35
  -2  -8  -4   65.42    6.27
   2   8   4   67.67    5.66
   3   8   4    1.21    0.96
   4   8   4   49.28    5.01
  -4   9   4    1.90    1.26
  -3   9   4   55.45    5.64
  -3   9   4   54.20    4.10
  -2   9   4    2.01    0.91
  -2   9   4    3.87    1.77
  -1   9   4   68.01    4.04
  -1   9   4   67.21    6.38
   0   9   4   45.88    4.66
  -1  -9  -4   20.71    3.04
   2   9   4   56.50    5.09
  -2  -9  -4   55.91    5.63
   3   9   4    0.45    0.85
   4   9   4   22.22    3.14
  -4  10   4    0.62    1.10
  -3  10   4   95.24    8.57
  -3  10   4   93.59    6.18
  -2  10   4   25.89    2.42
  -2  10   4   28.73    3.67
  -1  10   4  216.78   16.76
   0  10   4  320.66   23.62
  -2 -10  -4  374.40   27.66
   2  10   4  350.15   25.89
   3  10   4   17.69    2.50
  -4  11   4    0.35    1.32
  -3  11   4   44.68    3.83
  -3  11   4   45.03    5.10
  -2  11   4   19.58    2.13
  -2  11   4   18.32    2.94
  -1  11   4   51.47    5.53
   0  11   4   28.32    3.77
  -1 -11  -4   36.20    4.22
   1  11   4   21.33    3.33
  -2 -11  -4   -0.01    1.22
   2  11   4    0.14    1.01
   3  11   4    3.30    1.45
  -3  12   4   24.61    3.66
  -3  12   4   22.00    2.65
  -2  12   4    0.88    1.49
  -1  12   4    0.23    1.25
   0  12   4    9.66    2.72
   1  12   4   12.18    3.01
  -1 -12  -4   20.05    3.12
  -2 -12  -4   32.80    3.86
   2  12   4   22.09    3.35
   3  12   4   10.10    2.51
  -3  13   4    1.31    1.44
  -3  13   4    1.03    1.54
  -2  13   4   13.40    3.09
  -1  13   4    2.73    1.81
   0  13   4    8.19    2.66
   1  13   4   -0.23    1.22
  -2 -13  -4   29.72    3.68
   2  13   4   18.02    3.20
   3  13   4    3.25    1.81
  -3  14   4    1.87    1.77
  -2  14   4    2.10    1.58
  -1  14   4    0.88    1.51
   0  14   4    0.91    1.63
   1  14   4   -0.58    1.43
   2  14   4    2.32    1.93
  -2 -14  -4    4.74    2.04
  -2  15   4    7.29    2.61
  -1  15   4    9.52    2.82
   0  15   4    1.17    1.78
   1  15   4   34.31    4.96
   2  15   4   -0.70    1.56
  -2 -15  -4    0.51    1.50
  -2  16   4    5.33    2.32
  -1  16   4   33.12    4.48
   0  16   4   13.23    3.66
   1  16   4   22.75    4.98
  -1  17   4   27.62    4.10
   0  17   4   14.50    3.80
  -2 -15   5   -0.01    1.49
  -1  15  -5    0.97    1.43
  -2 -14   5   -0.12    1.23
  -1 -14   5    3.01    1.87
  -1  14  -5   22.65    3.27
  -2  14  -5    2.52    1.90
  -3 -13   5    3.78    1.84
  -2 -13   5    0.05    1.22
  -1 -13   5   10.49    2.73
   0 -13   5    6.34    1.51
   1 -13   5    7.56    1.81
  -1  13  -5    4.75    1.92
  -2  13  -5    1.75    1.61
  -3 -12   5    3.54    1.71
  -2 -12   5   14.64    2.40
  -1 -12   5    6.23    2.13
   0 -12   5   22.95    2.21
   0  12  -5   19.11    2.76
  -1  12  -5   94.00    8.29
   1 -12   5  100.58    6.44
  -2  12  -5   16.98    2.72
  -3  12  -5   48.70    5.27
  -3 -11   5  166.44   13.54
  -2 -11   5   23.10    2.96
   0  11  -5   13.62    2.10
   0 -11   5   15.93    1.84
   1 -11   5  406.27   19.91
  -1  11  -5  354.89   27.16
  -2  11  -5   -0.36    0.92
  -3  11  -5   42.08    4.63
  -4 -10   5    9.84    2.67
  -3 -10   5    0.44    1.11
  -2 -10   5   46.75    4.62
  -1 -10   5    2.54    0.96
  -1 -10   5    0.12    0.93
   0 -10   5   52.16    3.64
   0  10  -5   49.32    4.63
  -1  10  -5    0.22    0.93
   1 -10   5    1.07    1.15
  -2  10  -5    8.55    2.12
  -3  10  -5    3.45    1.72
  -4  -9   5   -0.37    1.29
  -3  -9   5   77.05    6.91
  -2  -9   5   11.91    1.15
  -2  -9   5   10.78    1.76
  -1  -9   5  230.02   18.10
  -1  -9   5  243.52   12.02
   0  -9   5   41.54    3.05
   0   9  -5   39.32    3.76
  -1   9  -5  156.71   12.35
   1  -9   5  170.55    9.53
  -2   9  -5   26.25    3.16
  -3   9  -5    6.77    1.88
  -4  -8   5   18.89    2.99
  -3  -8   5    1.03    1.07
  -2  -8   5   24.65    2.72
  -2  -8   5   23.70    1.76
  -1  -8   5    4.41    1.35
  -1  -8   5    6.97    1.11
   0  -8   5   78.50    4.83
   0   8  -5   79.77    6.33
   1  -8   5   15.99    2.33
  -1   8  -5   13.23    1.95
  -2   8  -5  133.24   10.40
  -3   8  -5    4.76    1.52
  -4  -7   5    0.68    1.31
  -3  -7   5   28.09    3.20
  -3  -7   5   27.74    2.09
  -2  -7   5    2.13    1.00
  -2  -7   5    2.52    0.70
  -1  -7   5   73.31    6.08
  -1  -7   5   71.97    4.17
   0   7  -5   34.39    3.04
   0  -7   5   29.08    2.40
  -1   7  -5   35.97    3.58
   1  -7   5   40.87    3.27
  -2   7  -5   14.97    2.10
   2  -7   5   16.39    2.86
  -3   7  -5    1.00    0.89
  -4   7  -5   -0.06    0.71
  -4  -6   5    4.47    1.91
  -3  -6   5    9.92    2.04
  -3  -6   5    6.58    1.23
  -2  -6   5    3.12    0.76
  -2  -6   5    2.59    1.01
  -1  -6   5    3.28    0.78
  -1  -6   5    2.05    0.87
   0  -6   5   17.35    1.68
   0  -6   5   16.17    2.03
   0   6  -5   20.24    2.00
   1  -6   5   -0.18    0.66
  -1   6  -5    0.03    0.55
  -2   6  -5   62.23    5.56
   2  -6   5   71.65    5.50
  -3   6  -5    0.77    0.81
  -4   6  -5   29.38    3.03
  -4  -5   5   33.40    2.57
  -3  -5   5   62.77    3.77
  -2  -5   5    3.43    0.82
  -1  -5   5  108.72    5.80
  -1  -5   5  111.14    8.48
   0   5  -5  134.63    9.29
   0  -5   5  120.40    6.86
  -1   5  -5   58.84    4.87
   1  -5   5   59.56    4.21
   2  -5   5  182.19   10.87
  -2   5  -5  168.67   12.80
  -3   5  -5    8.49    1.38
  -4   5  -5   16.31    1.97
  -4  -4   5   35.49    2.63
  -3  -4   5   19.57    1.72
  -2  -4   5  167.01    8.51
   1   4  -5   26.30    2.23
  -1  -4   5   29.05    1.91
   0  -4   5  333.53   17.40
   0   4  -5  365.47   24.36
   0  -4   5  361.73   25.67
   1  -4   5   15.63    1.77
   1  -4   5   16.27    1.91
   2  -4   5  158.51    9.72
   2  -4   5  144.15   11.03
  -3   4  -5    8.89    1.36
  -4   4  -5   17.93    2.01
  -5  -3   5   15.04    1.69
  -4  -3   5   49.40    3.28
  -3  -3   5   83.78    4.76
  -2  -3   5   27.07    1.94
  -1  -3   5  313.06   15.80
   1   3  -5  337.45   22.13
   0  -3   5   21.79    1.85
   0  -3   5   19.39    1.67
   0  -3   5   20.05    1.95
   1  -3   5  400.26   20.14
   1  -3   5  394.40   27.35
   2  -3   5   47.40    3.92
   2  -3   5   43.99    4.19
   3  -3   5  159.77   11.84
  -4   3  -5    4.39    1.06
  -5  -2   5   22.94    2.11
  -4  -2   5   22.51    1.93
  -3  -2   5   49.66    3.12
  -2  -2   5  192.21    9.71
  -1  -2   5    0.16    0.48
  -1  -2   5    0.51    0.38
   0  -2   5  387.06   18.69
   0  -2   5  378.15   26.17
   1  -2   5   95.71    7.32
   1  -2   5  103.86    6.12
   2  -2   5   89.72    6.52
   2  -2   5   92.74    6.96
   3  -2   5   79.68    6.42
  -5  -1   5    1.83    0.92
  -4  -1   5    6.97    1.22
  -3  -1   5    7.63    1.15
  -2  -1   5    2.23    0.71
  -1  -1   5   32.50    2.36
  -1  -1   5   27.47    1.97
   0  -1   5    0.17    0.31
   0  -1   5    0.04    0.43
   1  -1   5   15.16    1.59
   1  -1   5   15.39    1.77
   2  -1   5    0.29    0.47
   2  -1   5    0.11    1.02
   3  -1   5   98.76    7.71
   4  -1   5    1.14    0.91
  -5   0   5   -0.24    0.70
  -4   0   5    0.27    0.57
  -3   0   5   -0.31    0.45
  -2   0   5    0.03    0.41
  -1   0   5    0.01    0.22
  -1   0   5    0.06    0.46
   0   0   5   -0.28    0.23
   0   0   5   -0.36    0.41
   1   0   5   -0.20    0.29
   1   0   5   -0.40    0.58
   2   0   5    0.75    0.94
   2   0   5   -0.26    0.37
   3   0   5   -0.28    0.55
   4   0   5   -0.45    0.66
  -5   1   5    1.11    0.82
  -4   1   5    5.30    1.11
  -3   1   5    7.38    1.12
  -2   1   5    2.95    0.71
  -1   1   5   27.70    1.93
  -1   1   5   27.52    2.21
   0   1   5   -0.05    0.37
   0   1   5   -0.10    0.27
   1   1   5    8.87    1.65
   1   1   5   15.20    1.45
   2   1   5    0.35    0.79
   2   1   5    0.25    0.46
   3   1   5  105.85    8.22
   4   1   5    0.63    0.85
  -5   2   5   19.09    1.93
  -4   2   5   16.12    1.65
  -3   2   5   43.68    2.90
  -2   2   5  203.66   10.30
   0   2   5  329.81   23.00
   0   2   5  341.45   16.35
   2   2   5  105.73    6.14
   2   2   5  103.81    7.88
   3   2   5   88.37    7.09
   4   2   5    4.18    1.42
  -5   3   5   13.90    1.67
  -4   3   5   41.01    3.01
  -3   3   5   73.52    4.39
  -2   3   5   28.75    2.07
  -1   3   5  316.14   22.04
  -1   3   5  325.11   15.72
   0   3   5   16.19    1.64
   0   3   5   16.65    1.39
   1   3   5  299.64   15.27
   2   3   5   39.84    2.85
   2   3   5   48.53    3.88
   3   3   5  175.81   13.02
   4   3   5    8.43    1.99
  -4   4   5   28.21    2.42
  -3   4   5   15.75    1.57
  -2   4   5  169.36    8.90
  -2   4   5  174.82   12.39
  -1   4   5   26.90    1.96
  -1   4   5   26.58    2.44
   0   4   5  300.11   14.91
   0   4   5  309.07   21.13
   1   4   5   14.00    1.56
   1   4   5   12.52    1.50
   2   4   5  142.10   10.46
   3   4   5   13.11    1.87
   4   4   5   30.86    3.49
  -4   5   5   25.18    2.35
  -3   5   5   57.03    3.75
  -2   5   5    1.24    0.62
  -2   5   5    2.71    1.00
  -1   5   5  114.97    6.03
  -1   5   5  108.24    8.33
   0   5   5  112.90    6.05
   0   5   5  116.57    8.53
   1   5   5   44.47    3.77
   2   5   5  152.92   11.24
   3   5   5   10.27    1.65
   4   5   5   26.97    3.28
  -4   6   5    2.20    0.99
  -3   6   5    5.50    1.25
  -2   6   5    3.34    1.21
  -2   6   5    2.44    0.78
  -1   6   5    2.28    0.96
  -1   6   5    2.29    0.76
   0   6   5   18.93    2.09
   0   6   5   17.44    1.56
   1   6   5   -0.11    0.41
   2   6   5   51.18    4.43
   3   6   5    1.51    0.91
   4   6   5   38.64    4.22
  -4   7   5    1.16    0.97
  -3   7   5   25.23    2.32
  -2   7   5    1.70    1.15
  -2   7   5    0.37    0.62
  -1   7   5   71.56    6.14
  -1   7   5   72.75    4.27
   0   7   5   27.57    2.90
   1   7   5   28.91    2.93
   2   7   5   11.56    1.68
   3   7   5    1.19    0.84
   4   7   5   -0.18    0.93
  -4   8   5   13.74    2.31
  -3   8   5    0.16    0.82
  -2   8   5   21.20    2.04
  -2   8   5   25.12    3.21
  -1   8   5    8.22    1.98
  -1   8   5   10.85    1.28
   0   8   5   70.50    6.09
   1   8   5   11.96    1.80
   2   8   5  105.88    8.39
   3   8   5    3.97    1.43
  -4   9   5   -0.59    1.09
  -3   9   5   83.52    5.53
  -2   9   5    8.03    1.53
  -2   9   5   15.44    3.03
  -1   9   5  243.07   12.94
  -1   9   5  268.08   19.20
   0   9   5   38.01    4.06
   1   9   5  125.05    9.92
   2   9   5   21.07    2.64
   3   9   5    5.22    1.62
  -4  10   5   10.47    2.25
  -3  10   5    2.32    1.31
  -2  10   5   51.41    3.79
  -2  10   5   56.97    5.80
  -1  10   5    0.78    1.20
   0  10   5   49.54    5.12
   1  10   5   -0.14    0.83
   2  10   5    4.17    1.51
   3  10   5    1.12    1.10
  -3  11   5  206.52   11.70
  -2  11   5   32.02    4.18
  -1  11   5  555.95   39.80
   0  11   5   15.68    3.21
   1  11   5  299.71   22.28
   2  11   5   -0.05    0.84
   3  11   5   38.95    4.32
  -3  12   5    4.47    1.75
  -2  12   5   25.70    3.76
  -1  12   5   16.98    3.52
   0  12   5   19.95    3.21
   1  12   5   84.49    7.98
   2  12   5   12.13    2.80
   3  12   5   32.92    4.06
  -3  13   5    9.77    2.98
  -2  13   5    2.05    1.87
  -1  13   5   14.91    3.47
   0  13   5    5.57    2.45
   1  13   5    8.43    2.71
   2  13   5   -0.25    1.16
  -2 -13  -5    3.76    1.90
  -2  14   5   -0.24    1.55
  -1  14   5    3.78    2.19
   0  14   5    0.25    1.60
   1  14   5   23.12    3.88
   2  14   5   -0.30    1.45
  -2 -14  -5    1.59    1.70
  -2  15   5    1.54    1.87
  -1  15   5    1.78    1.94
   0  15   5   46.83    5.85
   1  15   5    0.25    1.85
  -1  16   5   19.60    4.21
   0  16   5  284.01   22.51
  -2 -14   6    0.57    1.36
   0 -14   6    0.36    1.09
   1 -14   6    7.27    1.91
  -1  14  -6    3.03    1.84
  -2 -13   6    0.13    1.23
   0 -13   6   12.61    2.12
   1 -13   6   13.03    2.44
  -1  13  -6    6.20    2.21
  -2  13  -6   42.03    4.93
  -3 -12   6    9.16    2.39
  -2 -12   6    0.28    1.19
  -1 -12   6   -0.01    0.79
   0 -12   6    5.06    1.47
   1 -12   6   41.07    3.59
  -1  12  -6   31.62    3.93
  -2  12  -6   14.57    2.62
  -3 -11   6    1.99    1.33
  -2 -11   6   15.02    2.40
  -1 -11   6   14.89    1.60
   0 -11   6   20.28    2.21
  -1  11  -6   78.39    7.12
   1 -11   6   84.67    5.82
  -2  11  -6    1.92    1.48
  -3 -10   6    1.97    1.34
  -2 -10   6  101.95    8.64
  -2 -10   6  102.28    5.70
  -1 -10   6   49.03    3.31
   0 -10   6   65.57    4.45
   1 -10   6  107.23    6.66
  -1  10  -6   86.57    7.93
  -2  10  -6   21.29    2.96
  -3  10  -6   12.57    2.78
  -4  -9   6    1.95    1.78
  -3  -9   6   15.58    2.37
  -2  -9   6    3.36    1.29
  -2  -9   6    3.39    0.90
  -1  -9   6   77.10    4.59
   0   9  -6   29.75    3.10
   0  -9   6   31.98    2.67
  -1   9  -6  108.20    9.26
   1  -9   6  126.65    7.52
   2  -9   6   19.82    3.37
  -2   9  -6   20.86    2.79
  -3   9  -6   26.53    3.33
  -4  -8   6    3.78    1.91
  -3  -8   6    1.23    0.72
  -3  -8   6    0.64    0.99
  -2  -8   6    0.05    0.71
  -2  -8   6   -0.01    0.57
  -1  -8   6   79.51    4.68
  -1  -8   6   79.75    6.73
   0  -8   6    5.75    1.36
   0   8  -6    5.97    1.36
   1  -8   6  233.66   12.54
  -1   8  -6  217.89   16.49
  -2   8  -6    1.15    1.03
   2  -8   6    0.56    1.26
  -3   8  -6   93.08    7.88
  -4  -7   6    2.77    1.71
  -3  -7   6    0.75    1.01
  -3  -7   6    1.97    0.94
  -2  -7   6   22.26    1.74
  -2  -7   6   22.94    2.55
  -1  -7   6   81.27    6.75
  -1  -7   6   82.94    4.76
   0  -7   6   33.53    2.68
   0   7  -6   36.90    3.28
   1  -7   6  244.72   13.12
  -1   7  -6  235.19   17.32
  -2   7  -6   -0.25    0.67
   2  -7   6   -0.73    1.02
  -3   7  -6   99.21    8.14
  -4  -6   6    0.24    1.05
  -4  -6   6    2.42    1.70
  -3  -6   6   69.29    6.15
  -3  -6   6   62.30    3.95
  -2  -6   6    3.12    1.10
  -2  -6   6    3.68    0.85
  -1  -6   6  101.98    7.89
  -1  -6   6   97.07    5.48
   0  -6   6   23.67    2.06
   0   6  -6   22.79    2.33
   1  -6   6    9.17    1.83
  -1   6  -6   10.30    1.59
   2  -6   6  135.04    8.76
  -2   6  -6  122.05    9.89
  -3   6  -6    4.81    1.55
  -4  -5   6   13.28    1.94
  -3  -5   6   65.77    4.01
  -2  -5   6   48.47    3.02
  -1  -5   6  140.38    7.42
  -1  -5   6  143.32   10.78
   0   5  -6   71.19    5.29
   0  -5   6   62.63    4.10
  -1   5  -6   94.26    7.17
   1  -5   6   86.97    5.80
  -2   5  -6   31.79    3.18
   2  -5   6   29.09    3.42
  -3   5  -6    9.27    1.57
  -4  -4   6   12.72    1.82
  -3  -4   6   12.00    1.61
  -2  -4   6   95.05    5.23
  -1  -4   6   16.66    1.46
   0  -4   6   76.52    4.57
   1  -4   6   -0.23    0.45
   1  -4   6   -0.41    0.75
   2  -4   6    0.21    1.14
   2  -4   6    0.77    0.78
  -3   4  -6    5.57    1.38
  -4   4  -6    1.93    0.93
  -4  -3   6    2.81    1.02
  -3  -3   6  149.67    7.98
  -2  -3   6   48.15    3.05
  -1  -3   6  245.61   12.22
   0  -3   6   96.80    6.96
   0  -3   6   87.79    5.24
   1  -3   6   84.34    5.42
   1  -3   6   80.49    6.33
   2  -3   6    7.29    2.21
   2  -3   6   10.42    1.44
   3  -3   6    5.62    1.42
  -4   3  -6   -0.18    0.51
  -4  -2   6   39.01    2.87
  -3  -2   6    3.73    0.96
  -2  -2   6  291.21   14.45
  -1  -2   6   18.07    1.51
   0  -2   6  623.72   40.85
   0  -2   6  574.99   28.94
   1  -2   6   60.49    4.81
   1  -2   6   60.32    4.28
   2  -2   6  196.97   11.99
   3  -2   6   17.51    2.14
  -4  -1   6    5.03    1.17
  -3  -1   6    2.18    0.80
  -2  -1   6    1.23    0.75
  -1  -1   6    4.52    0.93
   0  -1   6   10.58    1.27
   0  -1   6   11.04    1.23
   1  -1   6    0.60    0.52
   1  -1   6   -0.09    0.73
   2  -1   6   11.08    1.41
   2  -1   6    5.28    1.91
   3  -1   6   -0.10    0.58
   4  -1   6    4.41    1.42
  -4   0   6    1.61    0.82
  -3   0   6   49.73    3.23
  -2   0   6   51.87    3.28
  -1   0   6   36.94    2.47
  -1   0   6   36.66    2.90
   0   0   6  156.35    8.18
   0   0   6  156.57   11.08
   1   0   6   10.78    1.87
   1   0   6   13.74    1.50
   2   0   6   63.10    5.01
   2   0   6   58.08    4.89
   3   0   6   22.12    2.50
   4   0   6    0.70    1.01
  -4   1   6    4.66    1.19
  -3   1   6    0.72    0.62
  -2   1   6   -0.49    0.46
  -1   1   6    3.43    0.95
  -1   1   6    3.51    0.71
   0   1   6    9.78    1.33
   0   1   6    9.19    1.17
   1   1   6    0.96    0.56
   1   1   6    1.18    0.87
   2   1   6   12.11    1.55
   2   1   6    8.81    2.05
   3   1   6   -0.02    0.60
   4   1   6    4.27    1.51
  -4   2   6   34.11    2.65
  -3   2   6    1.77    0.76
  -2   2   6  312.28   15.52
  -1   2   6   15.77    1.56
  -1   2   6   16.78    1.57
   0   2   6  530.54   25.80
   0   2   6  537.87   36.40
   1   2   6   54.93    4.09
   1   2   6   42.66    3.49
   2   2   6  304.18   16.02
   3   2   6   19.22    2.34
   4   2   6   35.98    3.86
  -4   3   6    4.57    1.24
  -3   3   6  140.68    7.66
  -2   3   6   48.64    3.16
  -1   3   6  238.11   16.90
  -1   3   6  248.45   12.29
   0   3   6   74.77    5.74
   0   3   6   76.97    4.38
   1   3   6   65.87    4.58
   1   3   6   74.62    5.52
   2   3   6    9.72    1.44
   3   3   6    6.58    1.60
   4   3   6   -0.03    0.79
  -4   4   6   12.53    1.57
  -3   4   6   10.95    1.57
  -2   4   6   97.59    5.54
  -1   4   6   14.96    1.65
  -1   4   6   14.94    1.61
   0   4   6   69.83    5.42
   0   4   6   69.87    4.10
   1   4   6   -0.29    0.81
   1   4   6    0.91    0.56
   2   4   6    0.34    0.59
   3   4   6    6.22    1.56
   4   4   6    1.75    1.18
  -4   5   6    9.54    1.72
  -3   5   6   60.70    3.99
  -2   5   6   51.05    3.37
  -1   5   6  137.23   10.54
  -1   5   6  152.71    7.82
   0   5   6   64.74    5.09
   0   5   6   61.25    3.78
   1   5   6   69.51    5.55
   2   5   6   26.08    2.72
   3   5   6   10.32    1.72
  -4   6   6    0.38    0.88
  -3   6   6   59.66    4.05
  -2   6   6    2.73    0.91
  -1   6   6  101.11    5.62
  -1   6   6   93.10    7.50
   0   6   6   21.06    1.83
   0   6   6   20.94    2.28
   1   6   6    7.52    1.29
   2   6   6  101.17    7.94
   3   6   6    4.02    1.37
  -4   7   6    1.43    1.10
  -3   7   6    1.84    0.94
  -2   7   6   21.77    2.63
  -2   7   6   20.60    1.95
  -1   7   6   88.93    5.05
  -1   7   6   77.83    6.75
   0   7   6   34.07    3.37
   1   7   6  186.66   13.71
   2   7   6   -0.08    0.54
   3   7   6   95.02    7.90
  -4   8   6    3.35    1.37
  -3   8   6    1.27    0.94
  -2   8   6    0.63    1.14
  -2   8   6   -0.26    0.62
  -1   8   6   87.70    7.37
  -1   8   6   88.39    5.27
   0   8   6    5.13    1.49
   1   8   6  173.90   13.04
   2   8   6   -0.10    0.63
   3   8   6   81.31    7.06
  -4   9   6    0.73    1.16
  -3   9   6   19.75    2.70
  -2   9   6    6.64    1.41
  -2   9   6    5.67    2.06
  -1   9   6   89.98    7.78
   0   9   6   29.82    3.45
   1   9   6   93.64    7.82
   2   9   6   17.44    2.38
   3   9   6   21.16    2.86
  -3  10   6    0.37    1.17
  -2  10   6  121.52   10.30
  -2  10   6  118.19    7.07
  -1  10   6   54.82    5.58
   0  10   6   58.08    5.71
   1  10   6   74.72    6.77
   2  10   6   16.38    2.46
   3  10   6    6.98    2.10
  -3  11   6    0.70    1.14
  -2  11   6   18.96    3.72
  -1  11   6   19.54    3.15
   0  11   6   17.28    2.88
   1  11   6   63.67    6.23
   2  11   6    0.97    1.22
  -2  12   6    2.86    1.97
  -1  12   6    0.06    1.37
   0  12   6    3.24    1.86
   1  12   6   28.57    3.88
   2  12   6    7.73    2.34
  -2  13   6   -0.09    1.62
  -1  13   6    0.41    1.69
   0  13   6   13.38    3.31
   1  13   6    4.16    2.21
   2  13   6   26.64    3.85
  -2  14   6    1.90    2.12
  -1  14   6    0.67    1.58
   0  14   6    0.10    1.53
   1  14   6    4.38    2.42
  -1  15   6   21.81    3.78
   0  15   6    8.10    3.00
   0 -14   7   47.72    3.91
   0 -13   7   19.60    2.30
   1 -13   7   20.81    3.23
  -1 -12   7    3.51    1.15
   0 -12   7  135.06    8.09
   1 -12   7   16.07    2.74
  -1  12  -7   13.75    2.82
  -2  12  -7   43.58    4.97
  -3 -11   7    6.37    2.14
  -1 -11   7   13.32    1.86
   0 -11   7    8.88    1.91
   1 -11   7   24.36    3.32
  -1  11  -7   15.65    2.53
  -2  11  -7    5.79    2.15
  -3 -10   7    1.24    1.34
  -2 -10   7    9.04    1.46
  -1 -10   7    0.47    0.74
   0 -10   7    1.80    1.04
   1 -10   7   21.01    2.51
  -1  10  -7   16.29    2.47
   2 -10   7    0.34    1.39
  -2  10  -7   -0.67    0.99
  -3  -9   7   54.19    5.41
  -2  -9   7  144.04   11.45
  -2  -9   7  140.90    7.66
  -1  -9   7   86.26    5.15
   0  -9   7  112.66    6.76
  -1   9  -7   64.42    6.09
   1  -9   7   76.34    5.31
  -2   9  -7   18.48    2.78
   2  -9   7   19.18    3.36
  -3  -8   7    9.58    1.41
  -3  -8   7    6.29    1.88
  -2  -8   7   26.31    2.90
  -2  -8   7   22.31    1.93
  -1  -8   7    2.11    0.88
   0  -8   7   51.85    3.73
  -1   8  -7    8.01    2.00
   1  -8   7   14.56    2.40
   2  -8   7   38.75    3.94
  -2   8  -7   30.31    3.72
  -3   8  -7   16.84    2.63
  -4  -7   7   13.78    3.31
  -3  -7   7    0.40    0.68
  -3  -7   7    1.36    1.10
  -2  -7   7   32.31    2.39
  -2  -7   7   35.80    3.48
  -1  -7   7   19.76    1.80
   0  -7   7   31.90    2.64
   1  -7   7   32.30    3.10
  -1   7  -7   34.20    3.47
   2  -7   7   16.88    3.09
  -2   7  -7   14.78    2.28
  -3   7  -7    1.88    1.31
  -4  -6   7   -1.02    0.99
  -4  -6   7    1.50    1.55
  -3  -6   7    1.19    1.06
  -3  -6   7    0.97    0.86
  -2  -6   7    6.57    1.12
  -2  -6   7    4.52    1.32
  -1  -6   7   44.29    3.00
   0  -6   7   12.69    1.51
   0   6  -7    9.72    1.44
   1  -6   7  196.30   10.93
  -1   6  -7  187.67   14.13
  -2   6  -7    4.14    1.50
   2  -6   7    2.68    1.56
  -3   6  -7  125.83   10.06
  -4  -5   7   -0.30    0.99
  -3  -5   7    8.77    1.55
  -2  -5   7    4.78    1.00
  -1  -5   7  131.44    7.08
   0  -5   7   22.87    2.09
   0   5  -7   24.49    2.38
   1  -5   7  154.58    9.25
  -1   5  -7  164.45   11.97
  -2   5  -7   36.55    3.73
   2  -5   7   34.17    3.82
  -3   5  -7   11.03    1.91
  -4  -4   7   56.60    3.88
  -3  -4   7   38.24    2.80
  -2  -4   7  105.13    5.81
  -1  -4   7   96.66    5.40
   0  -4   7   82.24    4.97
   1  -4   7   79.36    5.42
   1  -4   7   80.75    6.40
   2  -4   7   34.34    3.80
   2  -4   7   29.47    3.12
  -3   4  -7   22.45    2.71
  -4  -3   7    0.52    0.94
  -3  -3   7    1.66    0.92
  -2  -3   7    7.75    1.31
  -1  -3   7    5.39    1.03
   0  -3   7    3.94    1.01
   0  -3   7    0.59    0.73
   1  -3   7    2.88    1.34
   1  -3   7    4.55    1.16
   2  -3   7    0.34    1.20
   2  -3   7   -0.14    0.56
   3  -3   7    3.69    1.24
  -4  -2   7    0.52    0.94
  -3  -2   7   23.72    2.08
  -2  -2   7   28.85    2.23
  -1  -2   7   29.21    2.16
   0  -2   7   64.40    4.07
   0  -2   7   64.74    5.10
   1  -2   7    0.64    0.95
   1  -2   7    2.94    0.92
   2  -2   7    2.15    1.57
   2  -2   7    7.07    1.21
   3  -2   7   -0.06    0.58
  -4  -1   7    5.27    1.28
  -3  -1   7   31.94    2.52
  -2  -1   7    1.26    0.87
  -1  -1   7   49.04    3.13
   0  -1   7  175.43    9.43
   0  -1   7  181.40   12.74
   1  -1   7   22.75    2.30
   1  -1   7   21.61    2.35
   3  -1   7    3.64    1.22
  -4   0   7   -0.33    0.65
  -3   0   7   -0.39    0.63
  -2   0   7   -0.42    0.73
  -1   0   7   -0.44    0.57
   0   0   7   -0.20    0.48
   0   0   7   -0.03    0.58
   1   0   7    0.09    0.45
   1   0   7    0.05    0.80
   2   0   7    0.77    1.43
   2   0   7   -0.08    0.60
   3   0   7   -0.37    0.58
  -4   1   7    4.70    1.26
  -3   1   7   28.92    2.34
  -2   1   7    1.02    0.86
  -1   1   7   47.01    3.11
   0   1   7  168.50   11.97
   0   1   7  166.87    8.88
   1   1   7   21.49    2.14
   1   1   7   17.74    2.15
   2   1   7  347.58   17.97
   2   1   7  299.90   22.74
   3   1   7    4.15    1.31
  -4   2   7    0.29    0.76
  -3   2   7   23.73    2.10
  -2   2   7   27.41    2.26
  -1   2   7   30.64    2.37
   0   2   7   61.78    3.81
   0   2   7   57.43    4.69
   1   2   7    1.79    1.10
   1   2   7    2.11    0.81
   2   2   7    7.36    1.31
   3   2   7    0.25    0.64
  -4   3   7    1.05    0.82
  -3   3   7    1.92    0.89
  -2   3   7    7.40    1.44
  -1   3   7    4.81    0.87
  -1   3   7    5.49    1.29
   0   3   7    1.69    0.71
   0   3   7    1.73    0.83
   1   3   7    2.42    1.11
   1   3   7    2.05    0.85
   2   3   7    0.05    0.59
   3   3   7    5.97    1.59
  -4   4   7   54.60    3.92
  -3   4   7   33.84    2.69
  -2   4   7  108.93    6.27
  -1   4   7   96.05    7.52
  -1   4   7  106.77    5.91
   0   4   7   76.24    5.94
   0   4   7   76.54    4.63
   1   4   7   68.72    5.53
   2   4   7   30.44    3.08
   3   4   7   22.10    2.71
  -4   5   7   -0.23    0.82
  -3   5   7    6.98    1.43
  -2   5   7    3.15    1.12
  -1   5   7  150.34    7.95
  -1   5   7  136.27   10.45
   0   5   7   20.91    2.21
   0   5   7   20.66    1.95
   1   5   7  118.37    8.94
   2   5   7   24.24    2.67
   3   5   7    9.55    2.07
  -4   6   7    1.04    1.09
  -3   6   7    1.17    0.95
  -2   6   7    3.90    1.19
  -1   6   7   50.14    3.49
  -1   6   7   43.31    4.05
   0   6   7    8.93    1.39
   1   6   7  138.88   10.42
   2   6   7    3.98    1.26
   3   6   7  115.19    9.33
  -4   7   7    9.18    2.01
  -3   7   7   -0.45    0.76
  -2   7   7   36.42    2.93
  -1   7   7   25.12    2.44
  -1   7   7   22.70    2.61
   0   7   7   34.92    3.44
   1   7   7   23.61    2.66
   2   7   7    9.81    1.66
   3   7   7    3.54    1.44
  -3   8   7    8.48    1.83
  -2   8   7   25.72    2.44
  -1   8   7    4.52    1.44
   0   8   7   49.69    4.65
   1   8   7    9.36    1.66
   2   8   7   20.45    2.59
   3   8   7   12.57    2.19
  -2   9   7  167.83    9.45
  -1   9   7   93.11    7.92
   0   9   7  101.80    8.46
   1   9   7   59.05    5.47
   2   9   7   12.70    2.09
  -3  10   7    3.40    1.62
  -1  10   7    2.04    1.48
   0  10   7    1.03    1.10
   1  10   7   14.38    2.34
   2  10   7    0.24    0.92
  -2  11   7   45.21    5.15
  -1  11   7   15.57    2.75
   0  11   7    7.50    2.26
   1  11   7   14.17    2.95
   2  11   7    3.97    1.76
  -2  12   7   62.35    6.67
  -1  12   7    6.14    2.35
   0  12   7  121.69   10.72
   1  12   7   12.57    3.08
  -2  13   7   19.64    4.33
  -1  13   7   14.31    3.59
   0  13   7   20.26    3.53
   1  13   7   10.22    3.02
  -1  14   7   57.29    6.65
   0  14   7   39.99    5.35
  -1 -13   8    2.23    1.24
   0 -13   8   57.07    4.45
  -1 -12   8    9.25    1.66
   0 -12   8   44.15    3.68
   1 -12   8   31.43    3.40
  -2 -11   8    2.61    1.00
  -1 -11   8    0.26    0.91
   0 -11   8    4.85    1.55
   1 -11   8    8.46    2.30
  -2 -10   8    0.85    0.76
  -1 -10   8    1.43    0.94
   0 -10   8    0.41    1.04
   1 -10   8    2.44    1.42
   2 -10   8    3.61    1.93
  -2  10  -8    2.03    1.68
  -3  -9   8   24.39    2.15
  -2  -9   8    9.65    1.54
  -1  -9   8   42.75    3.15
   0  -9   8   14.04    2.18
  -1   9  -8   19.86    2.69
   1  -9   8   24.29    2.76
  -2   9  -8    0.40    1.31
   2  -9   8    0.61    1.51
  -3  -8   8    0.36    0.78
  -3  -8   8    0.22    1.13
  -2  -8   8    3.50    1.08
  -1  -8   8   11.49    1.69
   0  -8   8   15.63    1.90
   1  -8   8   71.37    5.18
  -1   8  -8   63.24    5.87
  -2   8  -8    6.38    2.11
   2  -8   8    7.97    2.35
  -3  -7   8    0.46    0.72
  -3  -7   8    0.08    1.02
  -2  -7   8  111.62    6.26
  -1  -7   8    0.13    0.67
   0  -7   8  206.07   11.14
  -1   7  -8   24.17    2.91
   1  -7   8   24.80    2.75
   2  -7   8  123.96    8.56
  -2   7  -8  117.20    9.94
  -3  -6   8   -0.46    1.06
  -3  -6   8    0.35    0.78
  -2  -6   8    0.14    0.64
  -1  -6   8   11.23    1.63
   0  -6   8   43.51    3.28
   1  -6   8   32.53    3.15
  -1   6  -8   33.11    3.48
   2  -6   8  100.07    7.44
  -2   6  -8   96.94    8.41
  -3   6  -8   14.22    2.94
  -4  -5   8    6.73    1.63
  -3  -5   8    6.77    1.42
  -2  -5   8   31.50    2.37
  -1  -5   8   21.52    1.93
   0  -5   8   69.90    4.55
  -1   5  -8   24.44    2.85
   1  -5   8   23.40    2.61
  -2   5  -8   71.82    6.58
   2  -5   8   72.12    6.03
  -3   5  -8    4.35    1.86
  -4  -4   8   13.14    2.13
  -3  -4   8   31.30    2.53
  -2  -4   8   10.32    1.28
  -1  -4   8   20.57    1.85
   0  -4   8    0.65    0.72
   1  -4   8    0.77    0.96
   1  -4   8   -0.04    0.69
   2  -4   8   13.22    1.88
   2  -4   8   12.14    2.85
  -3   4  -8    1.20    1.35
  -4  -3   8   16.41    2.27
  -3  -3   8   -0.68    0.71
  -2  -3   8   16.64    1.65
  -1  -3   8    0.62    0.71
   0  -3   8    3.41    1.10
   1  -3   8   17.79    2.19
   1  -3   8   15.94    2.05
   2  -3   8    1.64    1.70
   2  -3   8    2.18    1.02
   3  -3   8   10.77    1.81
  -4  -2   8    0.03    1.00
  -3  -2   8   79.11    4.89
  -2  -2   8   19.73    1.85
  -1  -2   8  162.45    8.63
   0  -2   8   34.72    2.74
   1  -2   8   48.72    4.58
   1  -2   8   59.98    4.37
   2  -2   8    2.42    1.77
   2  -2   8    6.73    1.53
   3  -2   8   -0.09    0.73
  -4  -1   8    9.98    1.90
  -3  -1   8   31.84    2.62
  -2  -1   8   23.01    2.06
  -1  -1   8   73.14    4.42
   0  -1   8   17.92    1.96
   0  -1   8   15.84    1.77
   1  -1   8   35.94    3.21
   1  -1   8   33.64    3.28
   2  -1   8    8.89    1.41
   2  -1   8    4.82    2.24
   3  -1   8    3.42    1.29
  -4   0   8    0.05    0.90
  -3   0   8   62.15    4.12
  -2   0   8   32.63    2.60
  -1   0   8  329.95   16.50
   0   0   8   51.27    3.61
   0   0   8   53.29    4.38
   1   0   8  303.26   21.05
   1   0   8  292.49   15.89
   2   0   8    2.99    1.10
   2   0   8    1.00    1.70
   3   0   8   77.34    6.60
  -4   1   8    7.46    1.61
  -3   1   8   33.04    2.70
  -2   1   8   20.89    2.03
  -1   1   8   73.08    4.49
   0   1   8   17.36    1.96
   0   1   8   18.01    1.87
   1   1   8   35.45    3.35
   1   1   8   35.62    3.26
   2   1   8    9.69    1.56
   3   1   8    4.59    1.44
  -4   2   8    0.70    1.00
  -3   2   8   76.63    4.87
  -2   2   8   21.02    2.10
  -1   2   8  166.56    8.96
   0   2   8   35.55    2.82
   0   2   8   36.40    3.24
   1   2   8   50.03    4.37
   1   2   8   50.58    4.08
   2   2   8    4.73    1.33
   3   2   8    0.36    0.76
  -4   3   8   13.23    2.12
  -3   3   8    1.45    1.03
  -2   3   8   18.40    2.00
  -1   3   8    0.33    0.90
   0   3   8    3.08    1.08
   0   3   8    4.95    1.17
   1   3   8   14.97    1.87
   2   3   8    1.33    0.90
   3   3   8   11.16    1.89
  -4   4   8   11.76    2.00
  -3   4   8   29.69    2.63
  -2   4   8   11.86    2.04
  -1   4   8   20.22    2.12
   0   4   8    2.41    0.99
   0   4   8    1.39    0.79
   1   4   8   -0.59    0.50
   2   4   8   10.49    1.68
   3   4   8    1.14    1.04
  -4   5   8    4.11    1.45
  -3   5   8    6.15    1.60
  -2   5   8   34.26    2.94
  -1   5   8   22.61    2.28
   0   5   8   68.72    5.58
   1   5   8   18.02    2.15
   2   5   8   48.91    4.55
   3   5   8    4.15    1.47
  -3   6   8   -0.52    0.86
  -2   6   8   -0.44    0.94
  -1   6   8    8.88    1.96
  -1   6   8   10.09    1.47
   0   6   8   36.53    3.48
   1   6   8   24.96    2.73
   2   6   8   68.68    5.98
  -3   7   8   -0.11    1.01
  -2   7   8  136.04    8.05
  -1   7   8    0.52    0.80
   0   7   8  196.68   14.46
   1   7   8   19.15    2.37
   2   7   8   79.50    6.83
  -3   8   8    0.43    1.22
  -2   8   8    2.63    1.46
  -1   8   8   10.19    2.08
   0   8   8   15.95    2.20
   1   8   8   47.30    4.53
   2   8   8    4.99    1.60
  -1   9   8   46.86    4.64
   0   9   8    9.84    2.16
   1   9   8   15.98    2.40
   2   9   8    0.15    0.97
  -1  10   8    0.87    1.33
   0  10   8   -0.01    1.08
   1  10   8    0.54    1.10
   2  10   8    2.99    1.53
  -1  11   8   -0.80    1.10
   0  11   8    3.87    1.82
   1  11   8    7.59    2.24
  -1  12   8   13.65    3.29
   0  12   8   51.38    5.72
   1  12   8   26.09    3.71
  -1  13   8    2.41    2.09
   0  13   8   57.01    6.41
  -1 -11   9    1.35    1.01
   0 -11   9   53.86    4.29
  -2 -10   9    0.63    0.84
  -1 -10   9   15.10    2.11
   0 -10   9    1.50    1.19
   1 -10   9   17.31    2.88
  -2  -9   9    9.52    1.63
  -1  -9   9    0.14    0.82
   0  -9   9   13.01    2.23
   1  -9   9   16.04    2.78
  -2  -8   9   -0.40    0.69
  -1  -8   9   34.33    2.79
   0  -8   9   19.62    2.26
   1  -8   9   16.85    2.82
  -3  -7   9   16.53    1.80
  -2  -7   9   63.29    4.11
  -1  -7   9   21.57    2.10
   0  -7   9   89.21    5.74
   1  -7   9   14.33    2.60
   2  -7   9   37.00    4.11
  -2   7  -9   33.01    4.25
  -2  -6   9   17.10    1.76
  -1  -6   9   72.96    4.66
   0  -6   9   71.70    4.82
   1  -6   9   85.54    6.05
  -2   6  -9   94.79    8.23
   2  -6   9   79.48    6.75
  -3  -5   9    0.05    0.81
  -2  -5   9   43.26    3.09
  -1  -5   9    0.84    0.75
   0  -5   9   18.31    2.06
  -1   5  -9    0.06    1.16
   1  -5   9    0.51    1.19
   2  -5   9    4.72    2.15
  -2   5  -9   10.38    2.80
  -3  -4   9    0.27    0.89
  -2  -4   9    0.54    0.77
  -1  -4   9    0.57    0.74
   0  -4   9    0.65    0.84
   1  -4   9    0.23    0.83
   1  -4   9    0.86    1.12
   2  -4   9   -0.47    1.41
  -3  -3   9   15.46    1.84
  -2  -3   9    0.99    0.81
  -1  -3   9    1.04    0.86
   0  -3   9    2.57    1.09
   1  -3   9   17.06    2.25
   1  -3   9   19.34    2.86
   2  -3   9   14.80    3.22
   2  -3   9   15.43    2.15
  -3  -2   9    2.02    1.23
  -2  -2   9    2.52    1.03
  -1  -2   9   22.68    2.10
   0  -2   9    0.95    1.02
   1  -2   9   74.55    6.37
   1  -2   9   80.58    5.67
   2  -2   9    2.11    1.93
   2  -2   9    3.19    1.23
  -3  -1   9   -0.81    1.02
  -2  -1   9   15.81    1.75
  -1  -1   9   62.07    4.08
   0  -1   9   14.53    1.81
   1  -1   9  137.47   10.59
   1  -1   9  142.82    8.72
   2  -1   9   10.31    1.64
   2  -1   9    7.45    2.54
  -3   0   9   -1.44    0.83
  -2   0   9   -0.82    0.81
  -1   0   9   -0.53    0.67
   0   0   9   -0.46    0.75
   1   0   9    1.43    1.19
   1   0   9    0.04    0.75
   2   0   9   -0.04    0.67
  -3   1   9   -1.34    0.93
  -2   1   9   15.31    1.85
  -1   1   9   64.80    4.25
   0   1   9   15.18    1.90
   1   1   9  138.85   10.89
   1   1   9  150.88    9.04
   2   1   9   10.85    1.74
  -3   2   9    3.35    1.39
  -2   2   9    2.72    1.28
  -1   2   9   25.66    2.34
   0   2   9    1.27    1.04
   0   2   9    0.75    0.77
   1   2   9   76.38    5.53
   1   2   9   70.80    6.07
   2   2   9    6.09    1.57
  -3   3   9   12.64    2.19
  -2   3   9   -0.44    1.11
  -1   3   9    0.39    0.95
   0   3   9    1.67    1.07
   0   3   9    2.31    1.02
   1   3   9   16.27    2.09
   2   3   9   13.34    1.99
  -3   4   9   -1.61    0.98
  -2   4   9   -1.04    1.10
  -1   4   9    2.45    1.20
   0   4   9    1.11    0.80
   1   4   9   -0.11    0.65
   2   4   9    0.07    0.76
  -3   5   9    0.00    1.24
  -2   5   9   47.27    3.86
  -1   5   9    0.92    1.08
   0   5   9   16.09    2.00
   1   5   9    1.01    0.87
   2   5   9    8.91    1.99
  -3   6   9   31.60    3.12
  -2   6   9   24.31    3.29
   0   6   9   70.31    5.86
   1   6   9   63.99    5.59
   2   6   9   58.72    5.44
  -3   7   9   12.63    2.47
  -2   7   9   82.71    5.78
   0   7   9   83.51    6.88
   1   7   9   10.06    2.03
   2   7   9   24.05    3.00
   0   8   9   20.70    2.60
   1   8   9   11.31    1.90
   0   9   9   12.12    2.04
   1   9   9    8.50    2.11
   0  10   9    0.21    1.06
   1  10   9   12.66    2.66
  -1  11   9    1.21    1.46
   0  11   9   45.09    4.98
  -1  -9  10    2.43    1.14
   0  -9  10    3.31    1.46
  -1  -8  10    0.27    0.94
   0  -8  10   50.60    4.04
  -2  -7  10   15.10    1.79
  -1  -7  10   27.05    2.52
   0  -7  10   11.93    2.25
   1  -7  10    9.77    2.30
  -2  -6  10    1.57    0.96
  -1  -6  10   18.71    2.03
   0  -6  10    1.42    1.19
   1  -6  10   22.35    3.27
  -2  -5  10   12.40    1.91
  -1  -5  10   53.41    3.87
   0  -5  10    7.87    1.71
   1  -5  10   60.32    4.94
  -3  -4  10    2.83    1.21
  -2  -4  10    0.48    0.90
   0  -4  10    1.68    1.16
   1  -4  10   73.31    5.58
  -3  -3  10    0.01    0.88
  -2  -3  10    5.42    1.29
  -1  -3  10    0.02    0.81
   0  -3  10   18.75    2.16
   1  -3  10    9.66    2.25
   2  -3  10    7.66    2.79
   2  -3  10   11.22    2.24
  -3  -2  10    8.66    1.77
  -2  -2  10   11.71    1.86
  -1  -2  10   21.06    2.15
   0  -2  10    2.68    1.18
   1  -2  10    7.34    2.01
   2  -2  10    0.71    0.99
   2  -2  10    1.38    1.97
  -3  -1  10    0.00    1.13
  -2  -1  10    5.61    1.45
  -1  -1  10    0.53    0.90
   0  -1  10   35.68    3.15
   1  -1  10    1.88    1.55
   1  -1  10    1.64    1.07
   2  -1  10   40.33    4.11
  -3   0  10   27.16    2.69
  -1   0  10   40.25    3.21
   0   0  10  152.82    8.93
   1   0  10    9.74    1.91
   1   0  10    6.56    2.02
   2   0  10   24.13    2.93
  -3   1  10   -1.51    0.95
  -2   1  10    7.68    1.71
  -1   1  10   -0.26    0.94
   0   1  10   36.59    3.25
   1   1  10    1.52    1.11
   2   1  10   42.31    4.23
  -3   2  10    5.76    1.85
  -2   2  10   14.82    2.30
  -1   2  10   22.78    2.38
   0   2  10    1.29    1.19
   1   2  10    7.27    1.72
   2   2  10    0.08    0.83
  -3   3  10   -2.52    1.29
  -2   3  10    6.39    1.81
  -1   3  10    0.54    1.14
   0   3  10   23.55    2.58
   1   3  10    9.49    1.66
   2   3  10    8.66    1.97
  -3   4  10    0.97    1.53
  -2   4  10    0.45    1.36
  -1   4  10   53.23    4.10
   1   4  10   56.72    5.14
  -2   5  10   10.04    2.32
  -1   5  10   63.12    4.64
   1   5  10   45.39    4.38
  -2   6  10   -1.46    1.42
   1   6  10   14.99    2.19
   0   7  10    9.91    1.73
   1   7  10    7.90    2.02
   0   8  10   44.36    4.35
   0   9  10    1.41    1.26
  -1  -5  11    1.46    1.18
   0  -5  11    7.13    1.89
  -1  -4  11    1.12    1.01
   0  -4  11   43.52    3.71
  -1  -3  11    1.06    1.21
   0  -3  11   28.29    2.88
  -2  -2  11    3.40    1.28
  -1  -2  11    5.04    1.57
   0  -2  11   22.73    2.56
   1  -2  11    0.37    1.50
  -2  -1  11    4.28    1.41
  -1  -1  11   12.87    2.19
   0  -1  11   20.57    2.93
   1  -1  11   26.85    3.34
  -2   0  11    0.31    1.06
  -1   0  11    0.18    1.04
   0   0  11   -0.05    1.10
  -2   1  11    4.35    1.57
  -1   1  11   12.85    2.26
   0   1  11   14.13    2.47
  -2   2  11    6.15    1.75
  -1   2  11    3.33    1.55
   0   2  11   22.31    2.73
  -2   3  11   15.12    2.56
  -1   3  11    2.94    1.58
  -1   4  11    1.22    1.52
   0   0   0    0.00    0.00
;
_shelx_hkl_checksum              8414
loop_
_space_group_symop_operation_xyz
'x, y, z'
'-x, y+1/2, -z+1/2'
'-x, -y, -z'
'x, -y-1/2, z-1/2'
loop_
_atom_site_label
_atom_site_type_symbol
_atom_site_fract_x
_atom_site_fract_y
_atom_site_fract_z
_atom_site_U_iso_or_equiv
_atom_site_adp_type
_atom_site_occupancy
_atom_site_site_symmetry_order
_atom_site_calc_flag
Cu1 Cu 0.25951(13) 0.45011(4) 0.34265(6) 0.0229(3) Uani 1 1 d
Cl1 Cl 0.3198(3) 0.59852(8) 0.46564(12) 0.0235(4) Uani 1 1 d
Cl3 Cl 0.2265(3) 0.30114(9) 0.23697(13) 0.0266(4) Uani 1 1 d
Cl2 Cl -0.1792(3) 0.50780(9) 0.17829(12) 0.0240(4) Uani 1 1 d
K1 K -0.2821(3) 0.32940(8) -0.05744(12) 0.0307(4) Uani 1 1 d
loop_
_atom_site_aniso_label
_atom_site_aniso_U_11
_atom_site_aniso_U_22
_atom_site_aniso_U_33
_atom_site_aniso_U_23
_atom_site_aniso_U_13
_atom_site_aniso_U_12
Cu1 0.0330(6) 0.0120(5) 0.0224(4) -0.0028(2) -0.0023(3) 0.0038(2)
Cl1 0.0350(8) 0.0116(7) 0.0229(6) -0.0028(4) -0.0008(5) 0.0040(5)
Cl3 0.0355(8) 0.0133(7) 0.0294(7) -0.0043(5) -0.0030(5) 0.0028(5)
Cl2 0.0308(7) 0.0190(7) 0.0216(6) 0.0015(4) 0.0014(4) 0.0042(5)
K1 0.0345(8) 0.0209(7) 0.0354(7) -0.0004(5) -0.0005(5) -0.0031(4)
loop_
_atom_type_symbol
_atom_type_description
_atom_type_scat_dispersion_real
_atom_type_scat_dispersion_imag
_atom_type_scat_source
C C 0.0033 0.0016 'International Tables Vol C Tables 4.2.6.8 and 6.1.1.4'
H H 0.0000 0.0000 'International Tables Vol C Tables 4.2.6.8 and 6.1.1.4'
Cl Cl 0.1484 0.1585 'International Tables Vol C Tables 4.2.6.8 and 6.1.1.4'
K K 0.2009 0.2494 'International Tables Vol C Tables 4.2.6.8 and 6.1.1.4'
Cu Cu 0.3201 1.2651 'International Tables Vol C Tables 4.2.6.8 and 6.1.1.4'
loop_
_geom_angle_atom_site_label_1
_geom_angle_atom_site_label_2
_geom_angle_atom_site_label_3
_geom_angle
_geom_angle_site_symmetry_1
_geom_angle_site_symmetry_3
Cl3 Cu1 Cl2 93.34(4) . .
Cl3 Cu1 Cl1 175.86(4) . .
Cl2 Cu1 Cl1 90.72(4) . .
Cl3 Cu1 Cl1 91.90(4) . 3_666
Cl2 Cu1 Cl1 172.97(4) . 3_666
Cl1 Cu1 Cl1 83.99(4) . 3_666
Cl3 Cu1 K1 116.73(4) . 3_565
Cl2 Cu1 K1 53.76(3) . 3_565
Cl1 Cu1 K1 66.50(3) . 3_565
Cl1 Cu1 K1 127.25(4) 3_666 3_565
Cu1 Cl1 Cu1 96.01(4) . 3_666
Cu1 Cl1 K1 164.76(5) . 2
Cu1 Cl1 K1 98.90(4) 3_666 2
Cu1 Cl1 K1 78.43(4) . 3_565
Cu1 Cl1 K1 135.41(5) 3_666 3_565
K1 Cl1 K1 88.71(3) 2 3_565
Cu1 Cl3 K1 107.03(5) . 4_666
Cu1 Cl3 K1 102.98(5) . .
K1 Cl3 K1 149.92(5) 4_666 .
Cu1 Cl3 K1 105.97(4) . 4_566
K1 Cl3 K1 76.66(4) 4_666 4_566
K1 Cl3 K1 97.15(4) . 4_566
Cu1 Cl3 K1 101.09(5) . 1_655
K1 Cl3 K1 96.51(4) 4_666 1_655
K1 Cl3 K1 75.53(3) . 1_655
K1 Cl3 K1 152.92(4) 4_566 1_655
Cu1 Cl2 K1 90.90(4) . 3_565
Cu1 Cl2 K1 99.54(5) . .
K1 Cl2 K1 111.30(4) 3_565 .
Cu1 Cl2 K1 153.13(5) . 3_465
K1 Cl2 K1 78.26(4) 3_565 3_465
K1 Cl2 K1 107.29(4) . 3_465
Cl3 K1 Cl3 135.97(4) 4_465 .
Cl3 K1 Cl2 125.37(4) 4_465 3_565
Cl3 K1 Cl2 90.60(4) . 3_565
Cl3 K1 Cl2 147.75(5) 4_465 .
Cl3 K1 Cl2 62.90(4) . .
Cl2 K1 Cl2 68.70(4) 3_565 .
Cl3 K1 Cl2 81.78(4) 4_465 3_465
Cl3 K1 Cl2 135.22(5) . 3_465
Cl2 K1 Cl2 78.26(4) 3_565 3_465
Cl2 K1 Cl2 72.71(4) . 3_465
Cl3 K1 Cl1 62.07(4) 4_465 2_545
Cl3 K1 Cl1 73.90(4) . 2_545
Cl2 K1 Cl1 144.19(5) 3_565 2_545
Cl2 K1 Cl1 126.33(4) . 2_545
Cl2 K1 Cl1 134.98(5) 3_465 2_545
Cl3 K1 Cl3 76.66(4) 4_465 4_565
Cl3 K1 Cl3 89.54(4) . 4_565
Cl2 K1 Cl3 77.44(4) 3_565 4_565
Cl2 K1 Cl3 135.02(4) . 4_565
Cl2 K1 Cl3 128.57(4) 3_465 4_565
Cl1 K1 Cl3 70.50(4) 2_545 4_565
Cl3 K1 Cl3 88.95(4) 4_465 1_455
Cl3 K1 Cl3 75.53(3) . 1_455
Cl2 K1 Cl3 137.70(4) 3_565 1_455
Cl2 K1 Cl3 69.42(4) . 1_455
Cl2 K1 Cl3 84.08(4) 3_465 1_455
Cl1 K1 Cl3 70.22(3) 2_545 1_455
Cl3 K1 Cl3 140.46(4) 4_565 1_455
Cl3 K1 Cl1 69.35(3) 4_465 3_565
Cl3 K1 Cl1 141.08(5) . 3_565
Cl2 K1 Cl1 56.21(3) 3_565 3_565
Cl2 K1 Cl1 113.68(4) . 3_565
Cl2 K1 Cl1 63.14(3) 3_465 3_565
Cl1 K1 Cl1 119.92(4) 2_545 3_565
Cl3 K1 Cl1 65.62(3) 4_565 3_565
Cl3 K1 Cl1 142.30(4) 1_455 3_565
Cl3 K1 Cu1 98.36(3) 4_465 3_565
Cl3 K1 Cu1 123.76(4) . 3_565
Cl2 K1 Cu1 35.34(2) 3_565 3_565
Cl2 K1 Cu1 78.63(3) . 3_565
Cl2 K1 Cu1 47.14(3) 3_465 3_565
Cl1 K1 Cu1 154.97(4) 2_545 3_565
Cl3 K1 Cu1 90.66(3) 4_565 3_565
Cl3 K1 Cu1 128.16(4) 1_455 3_565
Cl1 K1 Cu1 35.07(2) 3_565 3_565
Cl3 K1 K1 55.24(3) 4_465 1_455
Cl3 K1 K1 123.84(3) . 1_455
Cl2 K1 K1 128.78(3) 3_565 1_455
Cl2 K1 K1 92.85(3) . 1_455
Cl2 K1 K1 50.52(3) 3_465 1_455
Cl1 K1 K1 85.62(3) 2_545 1_455
Cl3 K1 K1 131.90(3) 4_565 1_455
Cl3 K1 K1 48.31(3) 1_455 1_455
Cl1 K1 K1 94.51(2) 3_565 1_455
Cu1 K1 K1 95.826(17) 3_565 1_455
Cl3 K1 K1 124.76(3) 4_465 1_655
Cl3 K1 K1 56.16(3) . 1_655
Cl2 K1 K1 51.22(3) 3_565 1_655
Cl2 K1 K1 87.15(3) . 1_655
Cl2 K1 K1 129.48(3) 3_465 1_655
Cl1 K1 K1 94.39(3) 2_545 1_655
Cl3 K1 K1 48.10(3) 4_565 1_655
Cl3 K1 K1 131.69(3) 1_455 1_655
Cl1 K1 K1 85.49(2) 3_565 1_655
Cu1 K1 K1 84.173(17) 3_565 1_655
K1 K1 K1 180.0 1_455 1_655
loop_
_geom_bond_atom_site_label_1
_geom_bond_atom_site_label_2
_geom_bond_distance
_geom_bond_site_symmetry_2
Cu1 Cl3 2.2510(13) .
Cu1 Cl2 2.2806(12) .
Cu1 Cl1 2.3118(12) .
Cu1 Cl1 2.3313(12) 3_666
Cu1 K1 3.9422(13) 3_565
Cl1 Cu1 2.3313(12) 3_666
Cl1 K1 3.2936(17) 2
Cl1 K1 3.6903(15) 3_565
Cl3 K1 3.0859(16) 4_666
Cl3 K1 3.1111(16) .
Cl3 K1 3.4059(16) 4_566
Cl3 K1 3.4606(16) 1_655
Cl2 K1 3.1801(16) 3_565
Cl2 K1 3.2046(16) .
Cl2 K1 3.2118(15) 3_465
K1 Cl3 3.0859(16) 4_465
K1 Cl2 3.1801(16) 3_565
K1 Cl2 3.2119(15) 3_465
K1 Cl1 3.2936(17) 2_545
K1 Cl3 3.4059(16) 4_565
K1 Cl3 3.4606(16) 1_455
K1 Cl1 3.6903(15) 3_565
K1 Cu1 3.9422(13) 3_565
K1 K1 4.0340(3) 1_455
K1 K1 4.0340(3) 1_655
