#------------------------------------------------------------------------------
#$Date: 2019-11-10 19:08:34 +0200 (Sun, 10 Nov 2019) $
#$Revision: 225996 $
#$URL: file:///home/coder/svn-repositories/cod/cif/4/51/59/4515916.cif $
#------------------------------------------------------------------------------
#
# This file is available in the Crystallography Open Database (COD),
# http://www.crystallography.net/
#
# All data on this site have been placed in the public domain by the
# contributors.
#
data_4515916
loop_
_publ_author_name
'Yamada, Shigeyuki'
'Mitsuda, Akira'
'Miyano, Kazuya'
'Tanaka, Tsuyoshi'
'Morita, Masato'
'Agou, Tomohiro'
'Kubota, Toshio'
'Konno, Tsutomu'
_publ_section_title
;
 Development of Novel Solid-State Light-Emitting Materials Based on
 Pentafluorinated Tolane Fluorophores.
;
_journal_issue                   8
_journal_name_full               'ACS omega'
_journal_page_first              9105
_journal_page_last               9113
_journal_paper_doi               10.1021/acsomega.8b01490
_journal_volume                  3
_journal_year                    2018
_chemical_formula_moiety         'C16 H9 F5 O'
_chemical_formula_sum            'C16 H9 F5 O'
_chemical_formula_weight         312.23
_space_group_crystal_system      triclinic
_space_group_IT_number           2
_space_group_name_Hall           '-P 1'
_space_group_name_H-M_alt        'P -1'
_atom_sites_solution_hydrogens   geom
_audit_creation_method           SHELXL-2016/6
_cell_angle_alpha                100.475(4)
_cell_angle_beta                 94.555(4)
_cell_angle_gamma                97.516(4)
_cell_formula_units_Z            2
_cell_length_a                   6.4500(3)
_cell_length_b                   7.2271(4)
_cell_length_c                   15.5635(8)
_cell_measurement_reflns_used    2130
_cell_measurement_temperature    293(2)
_cell_measurement_theta_max      32.31
_cell_measurement_theta_min      2.10
_cell_volume                     703.30(6)
_computing_cell_refinement       'CrysAlisPro 1.171.38.41 (Rigaku OD, 2015)'
_computing_data_collection
;
Rigaku CrystalClear-SM Expert 2.0 r1
;
_computing_data_reduction        'CrysAlisPro 1.171.38.41 (Rigaku OD, 2015)'
_computing_molecular_graphics
;
Yadokari-XG 2014 (Wakita, Nemoto, et al., 2016)
;
_computing_publication_material
;
Yadokari-XG 2014 (Wakita, Nemoto, et al., 2016)
;
_computing_structure_refinement  'SHELXL-2016/6 (Sheldrick, 2016)'
_computing_structure_solution    'SHELXTL-2014/5 (Sheldrick, 2016)'
_diffrn_ambient_temperature      293(2)
_diffrn_measured_fraction_theta_full 0.991
_diffrn_measured_fraction_theta_max 0.991
_diffrn_measurement_device_type  ccd
_diffrn_measurement_method       \w
_diffrn_radiation_type           MoK\a
_diffrn_radiation_wavelength     0.71073
_diffrn_reflns_av_R_equivalents  0.0254
_diffrn_reflns_av_unetI/netI     0.0200
_diffrn_reflns_Laue_measured_fraction_full 0.991
_diffrn_reflns_Laue_measured_fraction_max 0.991
_diffrn_reflns_limit_h_max       7
_diffrn_reflns_limit_h_min       -7
_diffrn_reflns_limit_k_max       8
_diffrn_reflns_limit_k_min       -8
_diffrn_reflns_limit_l_max       18
_diffrn_reflns_limit_l_min       -18
_diffrn_reflns_number            9582
_diffrn_reflns_point_group_measured_fraction_full 0.991
_diffrn_reflns_point_group_measured_fraction_max 0.991
_diffrn_reflns_theta_full        25.242
_diffrn_reflns_theta_max         25.498
_diffrn_reflns_theta_min         2.898
_diffrn_source                   'Rigaku VariMax Mo'
_exptl_absorpt_coefficient_mu    0.136
_exptl_absorpt_correction_T_max  0.986
_exptl_absorpt_correction_T_min  0.979
_exptl_absorpt_correction_type   multi-scan
_exptl_absorpt_process_details
;
CrysAlisPro 1.171.38.41 (Rigaku Oxford Diffraction, 2015)
Empirical absorption correction using spherical harmonics,
 implemented in SCALE3 ABSPACK scaling algorithm.
;
_exptl_crystal_colour            colourless
_exptl_crystal_density_diffrn    1.474
_exptl_crystal_description       block
_exptl_crystal_F_000             316
_exptl_crystal_size_max          0.200
_exptl_crystal_size_mid          0.130
_exptl_crystal_size_min          0.100
_refine_diff_density_max         0.131
_refine_diff_density_min         -0.122
_refine_diff_density_rms         0.024
_refine_ls_extinction_method     none
_refine_ls_goodness_of_fit_ref   1.022
_refine_ls_hydrogen_treatment    constr
_refine_ls_matrix_type           full
_refine_ls_number_parameters     200
_refine_ls_number_reflns         2591
_refine_ls_number_restraints     0
_refine_ls_restrained_S_all      1.022
_refine_ls_R_factor_all          0.0593
_refine_ls_R_factor_gt           0.0417
_refine_ls_shift/su_max          0.000
_refine_ls_shift/su_mean         0.000
_refine_ls_structure_factor_coef Fsqd
_refine_ls_weighting_details
'w=1/[\s^2^(Fo^2^)+(0.0526P)^2^+0.0941P] where P=(Fo^2^+2Fc^2^)/3'
_refine_ls_weighting_scheme      calc
_refine_ls_wR_factor_gt          0.1026
_refine_ls_wR_factor_ref         0.1138
_reflns_Friedel_coverage         0.000
_reflns_number_gt                1921
_reflns_number_total             2591
_reflns_threshold_expression     'I > 2\s(I)'
_cod_data_source_file            ao8b01490_si_003.cif
_cod_data_source_block           SY146
_cod_database_code               4515916
_shelx_shelxl_version_number     2016/6
_shelx_space_group_comment
;
The symmetry employed for this shelxl refinement is uniquely defined
by the following loop, which should always be used as a source of
symmetry information in preference to the above space-group names.
They are only intended as comments.
;
_shelx_estimated_absorpt_t_min   0.973
_shelx_estimated_absorpt_t_max   0.986
_oxdiff_exptl_absorpt_empirical_full_min 0.777
_oxdiff_exptl_absorpt_empirical_full_max 1.311
_oxdiff_exptl_absorpt_empirical_details
;
Empirical correction (ABSPACK) includes:
- Absorption correction using spherical harmonics
- Frame scaling
- Detector area scaling
;
_shelx_res_file
;
TITL SY146_a.res in P-1
    SY146.res
    created by SHELXL-2016/6 at 10:05:21 on 02-Jun-2017
REM  Yadorkari-X generated
CELL 0.71073 6.4500 7.2271 15.5635 100.4750 94.5550 97.5160
ZERR 2.0 0.0003 0.0004 0.0008 0.0040 0.0040 0.0040
LATT 1
REM  SPGR P-1 triclinic
SFAC C H F O
UNIT 32 18 10 2
SIZE 0.20 0.10 0.13
TEMP 20.0
L.S. 50
FMAP 2
PLAN -20
ACTA
CONF
LIST 4
BOND $H
OMIT -10.000000 51.000000
OMIT 0 0 6

WGHT    0.052600    0.094100
FVAR      21.22223
F1    3    0.217007    0.550279    0.295214    11.00000    0.07105    0.09262 =
         0.10314    0.02977    0.02184   -0.00005
F2    3    0.913001    0.850682    0.378821    11.00000    0.08139    0.09373 =
         0.08053    0.01590   -0.00136   -0.00345
F3    3    0.670858    0.637754    0.081593    11.00000    0.12505    0.11148 =
         0.05993    0.02359    0.02763    0.02573
F4    3    0.980147    0.811277    0.208377    11.00000    0.07698    0.10820 =
         0.10053    0.03970    0.03297    0.00717
F5    3    0.289134    0.502959    0.125679    11.00000    0.10265    0.11016 =
         0.07972    0.01069   -0.01289   -0.00679
O1    4    0.363290    0.855819    0.861858    11.00000    0.07639    0.10200 =
         0.05916    0.01596    0.01593    0.00853
C1    1    0.562613    0.703221    0.342713    11.00000    0.07259    0.04675 =
         0.05975    0.01614    0.01492    0.01313
C2    1    0.756914    0.766406    0.317272    11.00000    0.06739    0.05404 =
         0.06447    0.01318    0.00540    0.00728
C3    1    0.450018    0.777194    0.597679    11.00000    0.07539    0.04987 =
         0.06055    0.01461    0.01637    0.01329
C4    1    0.378927    0.826290    0.773804    11.00000    0.06705    0.05847 =
         0.05667    0.01595    0.01596    0.01220
C5    1    0.251997    0.725276    0.621953    11.00000    0.07357    0.06196 =
         0.06191    0.00807    0.00776    0.00422
AFIX  43
H5    2    0.141438    0.673070    0.578708    11.00000   -1.20000
AFIX   0
C6    1    0.215896    0.749771    0.709452    11.00000    0.05964    0.06271 =
         0.06844    0.01250    0.01454    0.00289
AFIX  43
H6    2    0.081927    0.714653    0.724736    11.00000   -1.20000
AFIX   0
C7    1    0.635240    0.658359    0.165996    11.00000    0.08814    0.06466 =
         0.05691    0.01859    0.01680    0.01912
C8    1    0.407734    0.614909    0.275166    11.00000    0.06484    0.05457 =
         0.07602    0.02090    0.01538    0.00792
C9    1    0.792198    0.745127    0.230642    11.00000    0.06787    0.06184 =
         0.07323    0.02536    0.02219    0.01187
C10   1    0.611555    0.856221    0.663539    11.00000    0.06403    0.06760 =
         0.07423    0.02230    0.02142    0.01124
AFIX  43
H10   2    0.745292    0.893173    0.648484    11.00000   -1.20000
AFIX   0
C11   1    0.487798    0.749828    0.507192    11.00000    0.08673    0.05424 =
         0.06788    0.01620    0.01963    0.01450
C12   1    0.442668    0.591387    0.188422    11.00000    0.07698    0.06207 =
         0.06394    0.01243    0.00213    0.00587
C13   1    0.577454    0.880763    0.750370    11.00000    0.06094    0.07180 =
         0.06506    0.01558    0.00692    0.00511
AFIX  43
H13   2    0.687603    0.934029    0.793655    11.00000   -1.20000
AFIX   0
C14   1    0.523481    0.728143    0.431975    11.00000    0.08473    0.05487 =
         0.06564    0.01677    0.01900    0.01571
C15   1    0.165860    0.799869    0.892081    11.00000    0.07937    0.09057 =
         0.07276    0.02791    0.03048    0.02129
AFIX  23
H15   2    0.116461    0.666057    0.868957    11.00000   -1.20000
H15A  2    0.061725    0.873382    0.872974    11.00000   -1.20000
AFIX   0
C16   1    0.200649    0.836215    0.990450    11.00000    0.11847    0.15373 =
         0.07240    0.04175    0.03591    0.04266
AFIX 137
H16   2    0.304711    0.763427    1.008430    11.00000   -1.50000
H16A  2    0.071096    0.799327    1.013464    11.00000   -1.50000
H16B  2    0.248419    0.969167    1.012454    11.00000   -1.50000

AFIX   0
HKLF 4 1 1 0 0 0 1 0 0 0 1




REM  SY146_a.res in P-1
REM R1 =  0.0417 for    1921 Fo > 4sig(Fo)  and  0.0593 for all    2591 data
REM    200 parameters refined using      0 restraints

END

WGHT      0.0530      0.0909

REM Highest difference peak  0.131,  deepest hole -0.122,  1-sigma level  0.024
Q1    1   0.7345  0.9512  0.8041  11.00000  0.05    0.13
Q2    1   0.5094  0.6447  0.3134  11.00000  0.05    0.13
Q3    1   0.7336  0.6819  0.2035  11.00000  0.05    0.11
Q4    1   0.6317  0.7789  0.3219  11.00000  0.05    0.10
Q5    1   0.2864  0.8121  0.7441  11.00000  0.05    0.09
Q6    1   0.3743  0.6858  0.4558  11.00000  0.05    0.09
Q7    1   0.1209  0.7186  0.5735  11.00000  0.05    0.08
Q8    1   0.0639  0.7959  0.7225  11.00000  0.05    0.08
Q9    1   0.0808  0.8265  1.0324  11.00000  0.05    0.08
Q10   1   0.4289  0.5439  0.1663  11.00000  0.05    0.07
Q11   1   0.5343  0.7661  0.6184  11.00000  0.05    0.07
Q12   1   0.7409  0.8244  0.2750  11.00000  0.05    0.07
Q13   1   0.5121  0.8157  0.4770  11.00000  0.05    0.07
Q14   1   0.6231  0.6321  0.1440  11.00000  0.05    0.07
Q15   1   0.6731  0.6877  0.3260  11.00000  0.05    0.07
Q16   1   0.0686  0.6463  0.7232  11.00000  0.05    0.07
Q17   1   0.8262  0.7214  0.1353  11.00000  0.05    0.07
Q18   1   0.5316  0.5055  0.0761  11.00000  0.05    0.07
Q19   1   0.8064  0.7945  0.3381  11.00000  0.05    0.07
Q20   1   0.5055  0.5050  0.2215  11.00000  0.05    0.07
;
_shelx_res_checksum              99405
_shelx_hkl_file
;
   0   0  -3 16058.3 443.245
   0   0  -3 16084.3 411.108
   0   0  -3 16091.3 333.352
   0   0   3 15784.5 457.162
   0   0   3 16220.4 333.861
   0   0  -3 16155.8 380.124
   0   0   3 16270.5 380.951
   0   0   3 16277.6 424.601
   0   0   4 213329. 1739.54
   0   0   4 218015. 1948.52
   0   0  -4 218450. 1589.84
   0   0  -4 213296. 1833.73
   0   0  -4 213086. 1685.55
   0   0  -4 220215. 1405.45
   0   0  -5 8440.25 323.262
   0   0   5 8582.24 415.514
   0   0   5 8556.52 316.323
   0   0  -5 8618.80 434.959
   0   0  -5 8552.64 364.944
   0   0   5 8112.12 356.273
   0   0   5 8036.65 445.419
   0   0  -5 8590.77 398.914
   0   0   6 1601.65 185.118
   0   0   6 1685.67 248.723
   0   0  -6 1560.03 184.163
   0   0  -6 1776.55 274.146
   0   0   6 1808.71 226.592
   0   0  -6 1437.21 238.650
   0   0   6 1117.60 257.353
   0   0  -6 1540.03 210.654
   0   0   7 1822.53 325.463
   0   0  -7 2722.07 334.614
   0   0   7 1973.86 216.161
   0   0   7 1980.16 279.944
   0   0  -7 2111.08 283.964
   0   0  -7 2216.66 249.216
   0   0   7 2214.59 266.479
   0   0  -7 1925.16 223.461
   0   0   8 107448. 1383.24
   0   0  -8 105290. 1453.51
   0   0   8 107519. 1559.84
   0   0   8 104783. 1746.81
   0   0  -8 107207. 1801.08
   0   0  -8 107372. 1713.38
   0   0  -9 10400.3 604.173
   0   0   9 10925.1 559.392
   0   0   9 11551.7 498.346
   0   0  -9 10286.2 504.761
   0   0  -9 11378.1 646.933
   0   0 -10 67684.3 1547.79
   0   0  10 68439.1 1411.67
   0   0 -10 69567.7 1635.58
   0   0  10 64109.3 1213.00
   0   0 -11 2617.38 383.560
   0   0  11 3376.81 399.134
   0   0  11 3326.04 325.458
   0   0 -11 3628.42 447.944
   0   0 -12 577.261 262.201
   0   0 -12 567.536 276.761
   0   0  12 942.944 247.276
   0   0  12 1379.61 330.439
   0   0 -13 4245.41 535.955
   0   0 -13 3475.54 485.555
   0   0  13 4694.76 503.409
   0   0  13 3683.78 386.868
   0   0 -14 8635.25 744.893
   0   0 -14 7832.67 687.593
   0   0  14 8049.08 556.481
   0   0  14 7802.32 643.771
   0   0 -15 173.334 322.506
   0   0  15 293.760 336.906
   0   0  15 105.178 243.716
   0   0 -15-408.406 334.949
   0   0  16 845.253 297.568
   0   0 -16 253.836 359.286
   0   0  16 830.984 386.858
   0   0 -16 967.951 378.419
   0   0  17 518.362 358.255
   0   0  17 44.3695 264.676
   0   0 -17 41.5403 329.840
   0   0 -17-151.144 334.140
   0   0  18 19.4396 396.194
   0   0 -18 395.323 400.197
   0   0  18 877.997 371.309
   0   0 -18 690.840 439.902
   0   0  19 3060.37 594.342
   0   0 -19 3597.15 666.973
   0   0 -19 3075.51 602.752
   0   0 -20 1238.33 529.559
   0   0 -20 269.572 419.844
   0   0  20 21.3043 398.193
   0   0 -21 689.258 515.029
   0   1 -21 3236.46 737.596
   0  -1  21 1215.95 507.837
   0  -1  20 258.238 420.021
   0   1 -20 414.428 490.336
   0  -1  19-58.4611 370.320
   0   1 -19-561.730 462.828
   0   1 -18 809.452 449.687
   0  -1  18 2243.09 505.720
   0  -1  18 1695.78 379.738
   0   1 -18 1690.05 420.139
   0   1 -17 653.461 415.964
   0  -1  17 728.569 297.002
   0  -1  17 1293.55 435.409
   0   1 -17 215.087 323.615
   0   1 -16 531.389 332.460
   0   1 -16-189.241 349.067
   0  -1  16 185.829 241.756
   0  -1  16-28.3086 294.304
   0   1 -15 286.193 280.548
   0   1 -15 738.957 368.055
   0  -1  15-171.645 284.211
   0  -1  15 519.260 260.046
   0   1 -14 8342.21 638.818
   0  -1  14 7667.84 546.929
   0  -1  14 8115.53 632.084
   0   1 -14 8720.50 784.366
   0   1 -13 8293.53 726.428
   0  -1  13 7885.06 601.000
   0  -1  13 7396.46 503.643
   0   1 -13 7696.72 592.540
   0  -1  12 4844.09 409.383
   0   1 -12 5163.92 553.420
   0  -1  12 4340.59 437.554
   0   1 -12 4957.29 463.177
   0   1 -11 41.4847 183.059
   0  -1  11 177.384 167.576
   0  -1  11 29.5939 198.695
   0   1 -11-174.223 274.032
   0  -1  10 453.564 209.289
   0   1 -10 792.095 318.806
   0   1 -10 522.426 201.678
   0  -1  10 239.401 174.267
   0  -1  10 105.005 185.739
   0  -1   9 357085. 2690.82
   0  -1   9 352628. 3008.42
   0   1  -9 364657. 3653.41
   0   1  -9 355797. 2969.69
   0  -1   9 361084. 3085.80
   0   1  -9 362679. 3024.19
   0  -1   8 400101. 2713.14
   0   1  -8 405521. 3651.52
   0  -1   8 397933. 2942.62
   0   1  -8 403323. 2928.33
   0   1  -8 410735. 2915.74
   0   1  -7 489098. 3335.03
   0   1  -7 495832. 3864.27
   0   1  -6 102151. 1183.40
   0   1  -6 105808. 1296.54
   0  -1   6 101062. 1353.80
   0   1  -6 102441. 1400.66
   0  -1   6 103009. 1706.21
   0   1  -6 100955. 1609.87
   0  -1   6 105366. 1277.41
   0  -1   6 101285. 1204.15
   0  -1   5 370885. 2963.89
   0  -1   4 81940.6 1187.99
   0  -1   4 78092.0 746.742
   0  -1   4 78651.5 959.361
   0   1  -4 74936.6 711.658
   0  -1   4 76811.9 1008.17
   0  -1   4 78365.6 1234.87
   0   1  -4 78443.5 1214.76
   0   1  -4 80308.8 988.743
   0  -1   3 249022. 1930.31
   0  -1   3 253546. 1818.10
   0  -1   2 55204.1 776.971
   0   1  -2 54108.2 713.739
   0   1  -2 56928.2 773.331
   0  -1   2 55717.9 780.341
   0  -1   2 55093.2 686.214
   0   1  -2 56242.7 764.177
   0   1   0 67445.2 689.734
   0  -1   0 68386.7 755.133
   0  -1   0 67597.1 687.010
   0  -1   0 65731.6 707.759
   0  -1  -1 30782.8 537.670
   0   1   1 29701.8 502.238
   0   1   1 28420.6 566.587
   0  -1  -1 29148.4 544.449
   0  -1  -1 29831.9 499.628
   0  -1  -2 19323.9 355.398
   0  -1  -2 19755.2 529.145
   0  -1  -2 19553.2 434.965
   0   1   2 18923.5 445.174
   0   1   2 18570.2 439.276
   0   1   2 19210.3 545.494
   0  -1  -2 19553.0 451.465
   0   1   2 19502.0 377.582
   0  -1  -3 481.297 124.632
   0   1   3 429.713 124.142
   0   1   3 582.228 155.276
   0  -1  -3 512.459 120.056
   0   1   3 568.658 142.236
   0  -1  -3 844.054 173.120
   0   1   3 460.028 117.633
   0  -1  -3 607.248 118.009
   0   1   4 3104.05 280.506
   0   1   4 3346.48 247.313
   0   1   4 3728.73 242.153
   0   1   4 3404.46 253.972
   0  -1  -4 4188.47 267.802
   0  -1  -4 3464.73 220.518
   0  -1  -4 3496.96 304.740
   0  -1  -4 4326.03 266.978
   0  -1  -5 494517. 3400.77
   0  -1  -6 142478. 1508.53
   0   1   6 141046. 2041.67
   0   1   6 139898. 1633.59
   0   1   6 138653. 1510.88
   0  -1  -6 141234. 1959.09
   0   1   6 143279. 1894.00
   0  -1  -6 136891. 1701.22
   0  -1  -6 138077. 1653.13
   0   1   7 10631.6 510.467
   0  -1  -7 10593.7 600.886
   0   1   7 10397.2 459.454
   0   1   7 10166.5 586.043
   0  -1  -7 10369.5 534.819
   0  -1  -7 10512.7 458.608
   0   1   8 2531.32 319.847
   0  -1  -8 2702.27 265.583
   0   1   8 2631.81 283.465
   0  -1  -8 2569.19 345.947
   0  -1  -8 2615.88 335.930
   0  -1  -9 27534.5 1056.60
   0   1   9 27951.5 821.960
   0  -1  -9 29938.2 999.383
   0   1   9 27492.2 890.650
   0  -1 -10 42569.0 1369.40
   0  -1 -10 46810.3 1314.55
   0   1  10 44229.9 1078.46
   0   1  10 46236.6 1208.26
   0  -1 -11 55702.3 1512.37
   0   1  11 54293.9 1254.91
   0   1  11 50880.4 1348.39
   0  -1 -11 55712.5 1607.63
   0   1  12 9610.65 655.566
   0   1  12 8277.33 547.782
   0  -1 -12 8460.67 718.650
   0  -1 -12 8832.74 687.666
   0  -1 -13 849.697 341.173
   0   1  13 775.073 328.891
   0   1  13 940.493 285.268
   0  -1 -13 1071.66 356.825
   0  -1 -14 367.869 316.154
   0   1  14 295.605 232.480
   0   1  14 1297.69 374.850
   0  -1 -14 544.142 336.484
   0  -1 -15-53.0870 284.848
   0  -1 -15 101.426 284.088
   0   1  15 95.8873 311.652
   0   1  15 169.252 267.612
   0  -1 -16 219.404 374.824
   0  -1 -16 212.467 347.638
   0   1  16 424.971 327.940
   0   1  16 137.653 280.592
   0   1  17 266.947 368.841
   0  -1 -17 316.055 351.919
   0  -1 -17 268.574 356.698
   0   1  17 153.019 289.468
   0  -1 -18 476.316 423.346
   0   1  18 978.809 418.524
   0  -1 -18 670.446 443.299
   0  -1 -19 364.757 443.887
   0  -1 -19-11.3899 413.332
   0  -1 -20 376.265 496.828
   0  -1 -20-389.036 470.919
   0   1  20 347.007 472.736
   0  -1 -21 923.231 564.691
   0  -1 -21-81.5673 487.913
   0  -2  21 586.255 505.676
   0   2 -20 402.698 493.067
   0  -2  20 259.898 414.508
   0  -2  19 200.135 380.257
   0   2 -19 854.736 534.051
   0  -2  18 541.429 331.279
   0   2 -18 382.995 411.919
   0  -2  18 737.582 425.495
   0  -2  17 390.164 279.393
   0   2 -17 74.2394 373.937
   0   2 -16 2659.67 563.037
   0   2 -16 1776.34 389.919
   0  -2  16 2338.42 442.584
   0  -2  16 2210.32 413.120
   0  -2  15 23801.0 965.634
   0   2 -15 23810.8 1298.19
   0   2 -15 25074.9 1027.07
   0  -2  15 25571.0 1132.01
   0   2 -14 2271.93 359.043
   0   2 -14 2757.82 509.169
   0  -2  14 3318.61 465.303
   0  -2  14 3041.30 391.210
   0  -2  13 1421.57 339.439
   0  -2  13 1228.10 290.181
   0   2 -13 1418.66 404.266
   0   2 -13 1192.34 269.389
   0  -2  12 3054.71 396.043
   0   2 -12 4588.48 395.400
   0  -2  12 3373.74 375.180
   0  -2  12 3390.12 378.299
   0   2 -12 4265.31 537.323
   0  -2  11 15441.2 654.189
   0   2 -11 16794.5 940.648
   0  -2  11 16319.2 774.697
   0   2 -11 18441.9 684.850
   0  -2  11 16428.3 701.110
   0  -2  10 5828.72 378.489
   0  -2  10 6196.00 439.785
   0  -2  10 6160.44 475.298
   0   2 -10 5862.67 555.638
   0   2 -10 6941.36 398.060
   0   2  -9 18046.6 876.857
   0  -2   9 19208.5 704.600
   0  -2   9 18956.0 755.834
   0   2  -9 18706.7 576.045
   0  -2   9 18008.0 580.646
   0  -2   8 2130.10 302.588
   0  -2   8 2760.19 295.638
   0   2  -8 2917.23 386.219
   0  -2   8 3030.93 240.731
   0   2  -8 2665.83 227.128
   0  -2   7 197585. 1457.57
   0   2  -7 194156. 1431.96
   0   2  -7 200275. 2165.22
   0  -2   7 196362. 2157.57
   0   2  -7 193809. 2522.57
   0  -2   7 196728. 2049.41
   0  -2   6 213018. 2540.18
   0   2  -6 207158. 1168.57
   0   2  -6 202735. 1186.05
   0   2  -6 211032. 2480.18
   0  -2   6 217774. 2149.47
   0  -2   6 213856. 2046.24
   0   2  -6 212568. 2123.90
   0  -2   6 213318. 2415.13
   0  -2   5 145750. 1899.60
   0   2  -5 150862. 1888.09
   0   2  -5 143149. 1910.83
   0  -2   5 144749. 1938.79
   0  -2   5 143246. 1622.72
   0   2  -5 149160. 1720.53
   0  -2   4 99992.6 1490.24
   0   2  -4 97337.3 1434.34
   0   2  -4 101115. 1379.11
   0  -2   4 100569. 1485.06
   0  -2   4 101311. 1334.22
   0   2  -4 99380.9 1430.28
   0   2  -3 75608.0 1213.87
   0   2  -3 74294.4 1144.53
   0  -2   3 76190.9 1200.41
   0  -2   3 75410.4 1234.02
   0   2  -3 70682.8 1104.55
   0  -2   3 72018.9 1086.53
   0  -2  -1 252283. 2013.25
   0  -2  -1 247478. 2110.14
   0   2   1 248872. 2048.60
   0  -2  -1 253152. 2109.05
   0   2   1 250675. 2115.20
   0  -2  -2 315260. 2525.08
   0  -2  -2 307214. 2361.67
   0   2   2 302378. 1504.41
   0   2   2 312251. 2562.66
   0   2   3 7770.03 461.857
   0  -2  -3 7632.75 460.549
   0  -2  -3 8963.55 422.210
   0   2   3 9309.05 455.561
   0   2   3 8240.48 313.798
   0  -2  -3 8529.02 401.553
   0  -2  -3 8720.57 288.204
   0   2   3 7069.49 389.589
   0  -2  -4 90773.5 1299.77
   0   2   4 92492.7 1147.98
   0   2   4 90998.8 1613.64
   0   2   4 93051.8 1413.52
   0   2   4 88030.1 1362.21
   0  -2  -4 90357.0 1576.57
   0  -2  -4 88209.3 1024.36
   0  -2  -4 86034.4 1310.50
   0   2   5 132024. 1727.44
   0  -2  -5 128582. 1393.41
   0  -2  -5 126130. 1967.81
   0   2   5 132745. 1583.24
   0   2   5 127770. 1685.94
   0  -2  -5 132333. 1608.07
   0   2   6 141757. 1878.46
   0  -2  -6 150672. 2284.43
   0  -2  -6 136709. 1694.88
   0   2   6 141585. 1834.24
   0  -2  -6 143225. 1641.76
   0   2   6 147858. 1860.10
   0  -2  -7 39025.2 1233.08
   0  -2  -7 38444.9 921.744
   0   2   7 38457.3 1036.78
   0   2   7 38735.2 1013.76
   0   2   8 504.792 201.745
   0  -2  -8 404.153 233.518
   0  -2  -8 586.509 206.762
   0   2   8 700.910 223.716
   0   2   9 62.5844 215.239
   0   2   9 516.641 213.461
   0  -2  -9 544.961 207.681
   0  -2  -9 527.141 271.763
   0   2  10 10913.3 631.025
   0  -2 -10 11451.2 642.990
   0  -2 -10 10253.9 742.100
   0   2  10 10554.4 652.163
   0  -2 -11 48698.8 1643.33
   0   2  11 48605.1 1406.01
   0   2  11 47387.4 1305.72
   0  -2 -11 49221.8 1377.36
   0  -2 -12 10282.4 818.215
   0  -2 -12 10182.9 687.655
   0   2  12 10273.7 727.421
   0   2  12 10031.5 671.000
   0   2  13 13954.1 849.039
   0   2  13 12248.1 750.899
   0  -2 -13 13411.2 966.971
   0  -2 -13 14409.9 852.433
   0   2  14-211.067 291.948
   0  -2 -14 275.171 277.502
   0   2  14 444.866 336.831
   0  -2 -14 227.515 370.371
   0   2  15 1027.32 365.893
   0   2  15 255.516 296.301
   0  -2 -15-0.58346 294.867
   0  -2 -15 71.0519 349.592
   0  -2 -16 518.880 402.815
   0  -2 -16 350.549 345.892
   0   2  16-270.256 357.136
   0   2  16 406.203 329.167
   0   2  17 1113.73 461.692
   0   2  17 425.709 405.252
   0  -2 -17 423.516 475.435
   0  -2 -17 485.390 374.402
   0  -2 -18 5623.37 718.233
   0   2  18 5529.22 729.833
   0  -2 -18 5063.00 815.267
   0   2  19-108.751 420.969
   0  -2 -19-441.698 500.075
   0  -2 -19 755.305 435.877
   0  -2 -20 305.780 550.246
   0  -3  20-422.130 427.197
   0   3 -20 363.479 504.086
   0   3 -19-168.658 477.996
   0  -3  19 77.1206 313.729
   0  -3  19 363.331 379.117
   0   3 -18 1814.95 593.158
   0  -3  18 1607.17 460.428
   0  -3  18 1020.00 348.875
   0  -3  17-20.9606 258.557
   0   3 -17 182.180 381.703
   0  -3  17 138.864 354.090
   0   3 -16 1338.71 472.327
   0  -3  16 1363.43 334.220
   0  -3  16 757.032 345.061
   0  -3  15 6873.75 636.769
   0   3 -15 7569.48 805.892
   0  -3  15 7078.46 583.766
   0  -3  14-165.963 236.424
   0   3 -14 115.156 363.956
   0  -3  14 334.592 272.930
   0   3 -14 226.129 196.235
   0   3 -13 26.1937 153.104
   0  -3  13-326.866 229.025
   0  -3  13-240.122 285.381
   0   3 -13 109.610 325.556
   0  -3  12 35731.9 1154.99
   0   3 -12 31553.6 756.642
   0   3 -12 35029.7 1425.12
   0  -3  12 36529.1 1234.15
   0   3 -12 35288.0 810.139
   0   3 -11 2007.63 417.049
   0   3 -11 2306.48 212.223
   0  -3  11 2012.31 349.938
   0   3 -11 1922.00 186.575
   0  -3  11 1795.31 318.191
   0  -3  10 96197.7 1833.34
   0  -3  10 96569.2 1751.87
   0   3 -10 84562.0 962.222
   0   3 -10 95320.9 2113.66
   0   3  -9 3816.64 163.461
   0  -3   9 4475.84 412.242
   0   3  -9 3810.10 160.135
   0  -3   9 4959.02 446.393
   0   3  -9 5018.52 524.740
   0  -3   8 539619. 4005.46
   0   3  -8 533671. 4638.48
   0  -3   8 545413. 3915.16
   0  -3   7 3886.36 364.812
   0   3  -7 3276.68 407.452
   0   3  -7 3985.00 432.245
   0   3  -6 2699.39 378.200
   0  -3   6 2972.47 319.672
   0   3  -6 3140.43 371.204
   0   3  -5 24115.8 841.337
   0  -3   5 24864.3 804.244
   0  -3   5 23584.0 862.308
   0   3  -5 25249.8 891.981
   0  -3   4 17267.9 680.297
   0  -3   4 17292.1 669.728
   0   3  -4 17358.6 661.631
   0   3  -4 16087.1 325.374
   0   3  -4 17312.0 690.571
   0   3  -4 17767.6 741.869
   0  -3   3 26925.6 832.928
   0  -3   3 27052.8 530.509
   0  -3   3 25745.8 761.559
   0  -3   3 23954.5 831.323
   0   3  -3 25987.9 522.358
   0   3  -3 25333.1 736.173
   0   3  -3 26714.9 893.327
   0   3  -3 24465.0 789.796
   0  -3   2 156492. 1660.42
   0   3  -2 154607. 1915.64
   0   3  -2 159758. 1499.68
   0  -3   2 153395. 2011.05
   0   3  -2 158911. 2101.69
   0  -3   2 159813. 1992.13
   0  -3   2 158622. 1485.60
   0   3  -2 155055. 1608.19
   0   3  -1 80055.5 1062.48
   0  -3   1 81008.3 1062.58
   0  -3   1 78524.8 1385.33
   0   3  -1 79249.3 1193.25
   0  -3   1 78053.3 1416.54
   0   3  -1 78981.2 1454.30
   0  -3   1 78384.2 1158.35
   0  -3   0 564366. 3735.84
   0   3   0 582244. 3558.13
   0   3   1 4577.27 221.344
   0  -3  -1 4532.05 373.096
   0   3   1 5577.34 409.359
   0  -3  -1 4423.51 217.327
   0  -3  -1 4883.19 382.284
   0   3   1 4316.83 382.503
   0  -3  -1 4926.52 382.120
   0  -3  -1 4849.25 397.634
   0   3   2 49074.9 1137.03
   0   3   2 48519.0 687.984
   0  -3  -2 50076.1 1179.00
   0   3   2 51144.2 671.859
   0   3   3 28001.9 563.761
   0   3   3 26967.8 871.950
   0  -3  -3 27750.4 944.419
   0   3   3 28453.2 569.626
   0   3   4 54917.6 1278.96
   0   3   4 55351.4 867.384
   0  -3  -4 56862.2 1389.56
   0   3   4 56585.5 908.078
   0   3   5 3372.59 399.723
   0  -3  -5 3928.99 272.989
   0   3   5 3207.40 366.921
   0  -3  -5 3642.33 423.920
   0   3   5 3640.31 288.498
   0   3   6 6287.01 401.021
   0   3   6 5779.55 467.797
   0  -3  -6 5587.72 338.451
   0  -3  -6 6329.98 553.705
   0   3   6 7155.59 530.886
   0  -3  -7 25742.1 736.916
   0   3   7 25371.4 954.242
   0   3   7 25459.5 966.376
   0   3   7 25195.4 862.533
   0  -3  -7 24591.2 1078.23
   0  -3  -8 4221.45 505.887
   0  -3  -8 4265.74 352.524
   0   3   8 4371.57 465.101
   0   3   8 4014.86 451.384
   0  -3  -9 61744.0 1308.59
   0   3   9 65635.5 1640.91
   0   3   9 64725.4 1630.97
   0   3  10 91008.7 1982.99
   0  -3 -10 93948.6 1716.54
   0   3  10 95979.0 2032.68
   0  -3 -10 92012.0 2272.68
   0  -3 -11 107241. 1956.41
   0   3  11 102872. 2220.17
   0   3  11 104681. 2192.20
   0  -3 -11 100692. 2470.97
   0   3  12 15655.3 927.292
   0   3  12 15394.1 917.108
   0  -3 -12 12736.7 963.434
   0  -3 -13 773.368 400.854
   0  -3 -13 815.163 316.300
   0   3  13 1141.18 382.248
   0   3  13 1208.27 387.024
   0  -3 -14 430.234 392.403
   0  -3 -14 555.380 318.218
   0   3  14 422.463 356.903
   0   3  14 408.806 306.890
   0  -3 -15 53.2758 401.664
   0  -3 -15 265.722 304.752
   0   3  15-278.714 387.088
   0   3  15-177.258 333.644
   0   3  16 960.581 436.088
   0  -3 -16 370.690 339.402
   0  -3 -16 1621.26 534.190
   0   3  16 370.609 420.054
   0   3  17-41.1479 394.816
   0  -3 -17 631.977 494.266
   0   3  18 595.094 500.433
   0  -3 -18 1275.29 606.149
   0  -4  20-54.4875 397.895
   0   4 -20-54.3981 477.347
   0  -4  19 599.051 357.586
   0  -4  19-223.811 371.758
   0   4 -19 649.730 547.960
   0   4 -18 516.112 468.743
   0  -4  18 191.474 318.528
   0  -4  18 22.8925 339.098
   0   4 -17 7100.24 873.918
   0  -4  17 6744.30 702.714
   0  -4  17 6672.58 655.482
   0  -4  16 2347.26 485.143
   0  -4  16 2813.70 469.849
   0   4 -16 2656.59 565.494
   0  -4  15 20536.6 1018.53
   0  -4  15 18855.3 1052.05
   0   4 -15 18018.8 1182.05
   0   4 -14-176.968 350.189
   0  -4  14-89.4820 264.477
   0  -4  14 271.943 285.775
   0  -4  13 25635.2 1083.18
   0   4 -13 24548.5 1258.78
   0  -4  13 25393.6 1132.13
   0  -4  12 9598.28 711.549
   0   4 -12 9934.81 819.848
   0  -4  12 8207.85 640.772
   0  -4  11 66.0016 234.386
   0  -4  11-219.827 267.910
   0   4 -11 459.738 290.600
   0  -4  10 143.421 243.320
   0   4 -10 278.782 276.836
   0  -4  10 197.116 234.634
   0   4  -9 432.434 264.136
   0  -4   9 1015.48 290.089
   0   4  -9 1266.20 356.440
   0   4  -8 5142.14 501.194
   0  -4   8 5123.52 471.331
   0   4  -8 5103.57 523.586
   0   4  -7 26908.3 1050.57
   0   4  -7 24060.2 999.390
   0  -4   7 26701.8 967.125
   0   4  -6 8607.23 618.740
   0   4  -6 7860.13 566.169
   0  -4   6 6955.13 514.496
   0  -4   5 4529.01 203.307
   0   4  -5 5370.08 492.371
   0   4  -5 5575.77 442.280
   0   4  -5 5326.20 220.779
   0  -4   5 5743.42 479.142
   0   4  -4 6021.26 521.916
   0   4  -4 6695.28 311.775
   0  -4   4 6778.44 309.543
   0  -4   4 6952.47 528.302
   0  -4   4 6153.48 449.401
   0   4  -4 6346.13 444.747
   0   4  -3 76647.9 1681.06
   0  -4   3 78230.8 1161.04
   0   4  -3 80207.7 1200.90
   0  -4   3 79328.3 1615.13
   0   4  -3 80143.6 1389.46
   0  -4   3 77672.8 1396.13
   0   4  -2 753.964 278.500
   0  -4   2 672.018 190.739
   0  -4   2 750.531 198.773
   0   4  -2 502.605 158.578
   0  -4   2 472.968 246.793
   0   4  -2 951.195 202.186
   0   4  -1 51021.3 1355.84
   0  -4   1 49646.9 1101.35
   0  -4   1 51959.6 937.658
   0   4  -1 51010.8 1155.92
   0   4  -1 50545.0 938.999
   0  -4   1 52464.8 1323.30
   0   4   0 1208.70 179.041
   0   4   0 1945.02 301.969
   0  -4   0 1187.13 250.646
   0  -4   0 1647.13 310.866
   0  -4   0 1118.09 164.123
   0   4   0 1667.10 337.921
   0  -4  -1 137500. 2075.38
   0   4   1 136306. 1323.16
   0   4   1 132971. 2155.32
   0  -4  -1 134345. 2007.81
   0   4   2 43170.0 670.348
   0   4   2 45813.3 746.992
   0   4   2 45172.3 1293.85
   0  -4  -2 49669.1 1275.70
   0  -4  -2 48562.1 1288.26
   0  -4  -3 50471.3 1290.67
   0   4   3 50996.9 1394.37
   0  -4  -3 51721.5 1395.00
   0   4   3 50907.4 796.479
   0   4   3 49403.3 766.640
   0   4   4 601.070 139.640
   0   4   4 594.813 256.302
   0  -4  -4 934.452 304.157
   0   4   4 502.725 134.534
   0  -4  -5 11111.7 734.255
   0   4   5 11447.7 796.309
   0   4   5 10591.4 428.615
   0   4   5 10039.5 669.501
   0   4   5 10700.6 461.648
   0   4   6 599.180 312.434
   0  -4  -6 564.784 275.570
   0   4   6 217.189 255.533
   0   4   6 419.712 178.136
   0   4   6 741.817 168.840
   0   4   7 1954.82 369.591
   0   4   7 1622.14 239.314
   0   4   7 1148.30 375.410
   0   4   7 1156.01 249.901
   0  -4  -8 2408.12 468.171
   0   4   8 3824.98 541.209
   0   4   8 2818.46 438.527
   0   4   9 9747.03 810.742
   0  -4  -9 8441.36 789.542
   0  -4  -9 9215.60 531.816
   0   4   9 7849.53 667.715
   0  -4 -10 34746.0 1075.89
   0   4  10 35071.9 1445.37
   0   4  11 35154.6 1456.25
   0  -4 -11 34929.3 1121.75
   0   4  11 31638.7 1348.80
   0  -4 -11 34354.2 1553.13
   0   4  12 2660.53 498.919
   0   4  12 2228.51 511.394
   0  -4 -12 2608.74 396.149
   0  -4 -12 1900.79 525.897
   0   4  13 223.374 331.521
   0  -4 -13 660.726 434.827
   0   4  13 816.095 412.490
   0   4  14 93.9936 376.465
   0   4  14-328.394 360.682
   0  -4 -14-193.665 387.394
   0   4  15-10.5452 373.731
   0  -4 -15 218.304 425.276
   0   4  15 191.664 462.897
   0   4  16 555.925 480.976
   0   4  16 429.752 430.830
   0  -4 -16 43.2996 430.048
   0   4  17 172.168 414.543
   0  -4 -17-276.210 514.275
   0  -5  19 916.318 444.329
   0   5 -19 120.416 481.404
   0  -5  19 822.568 405.628
   0  -5  18-61.5092 329.811
   0   5 -18 1055.62 544.477
   0  -5  18 77.0947 366.428
   0  -5  17 518.241 371.627
   0  -5  17 197.644 347.438
   0   5 -17 856.051 522.403
   0   5 -16 278.127 422.583
   0  -5  16 220.487 323.677
   0  -5  16 807.946 363.769
   0   5 -15 1419.00 494.658
   0  -5  15 1606.74 422.264
   0  -5  15 1872.28 458.013
   0  -5  14-380.849 330.114
   0  -5  14 14.4429 286.219
   0   5 -14-285.734 359.903
   0  -5  13 1316.50 383.452
   0  -5  13 704.225 329.601
   0   5 -13 1861.65 507.180
   0   5 -12 420.279 336.343
   0  -5  12-15.4410 291.910
   0  -5  12 480.584 303.654
   0  -5  11 11468.9 787.282
   0  -5  11 11847.8 788.452
   0   5 -11 10137.4 824.685
   0   5 -10 11793.8 840.119
   0   5 -10 12422.7 950.132
   0  -5  10 11045.3 767.460
   0   5  -9 6493.07 639.553
   0  -5   9 6146.01 591.497
   0   5  -9 6408.54 642.282
   0   5  -8 489.166 303.472
   0  -5   8 697.937 280.768
   0   5  -8 96.2241 257.390
   0   5  -7 27609.5 1192.21
   0   5  -7 27237.7 1110.79
   0  -5   7 27608.4 1105.57
   0  -5   6 4330.45 476.320
   0   5  -6 4502.72 217.848
   0  -5   6 3418.01 189.777
   0   5  -6 4626.21 540.429
   0   5  -6 5091.20 498.745
   0   5  -5 1737.45 198.719
   0  -5   5 1734.17 192.247
   0   5  -5 1411.79 388.632
   0   5  -5 1562.21 313.880
   0  -5   5 2210.15 380.679
   0   5  -4 11641.3 511.975
   0   5  -4 12383.3 780.478
   0   5  -4 13538.5 672.840
   0  -5   4 13137.0 794.374
   0  -5   4 12970.2 520.131
   0  -5   3 20563.8 714.975
   0  -5   3 18785.9 924.405
   0  -5   3 18209.0 725.705
   0   5  -3 18686.4 714.818
   0   5  -3 19962.3 1002.91
   0   5  -3 21564.0 784.874
   0   5  -2 10032.8 514.103
   0  -5   2 8679.27 473.884
   0   5  -2 8303.06 530.685
   0   5  -2 10190.3 723.734
   0  -5   2 9735.45 534.860
   0  -5   2 7080.28 610.733
   0  -5   1 348.605 164.665
   0   5  -1 187.983 148.979
   0  -5   1-54.5590 192.941
   0   5  -1 38.4909 250.403
   0  -5   1-100.803 234.739
   0   5   0 2584.37 431.876
   0  -5   0 2008.84 328.998
   0  -5   0 2415.66 407.675
   0  -5   0 2230.32 222.146
   0   5   0 2682.74 242.243
   0  -5  -1 24589.3 971.965
   0  -5  -1 23046.1 985.590
   0   5   1 26271.8 632.860
   0   5   1 23640.5 1059.76
   0   5   1 22504.8 541.035
   0   5   2 2128.00 415.924
   0  -5  -2 1680.64 347.977
   0  -5  -2 1696.51 332.567
   0   5   2 1274.59 159.867
   0   5   2 1048.98 132.615
   0  -5  -3 36471.3 1279.58
   0   5   3 36924.8 690.991
   0   5   3 40193.0 1395.97
   0  -5  -3 40262.7 1306.84
   0   5   4 15743.4 911.887
   0   5   4 16419.1 478.282
   0  -5  -4 16344.1 907.877
   0  -5  -4 17286.7 901.825
   0   5   4 14060.6 441.600
   0  -5  -5 3511.97 498.791
   0  -5  -5 3646.12 470.887
   0   5   5 4633.24 558.054
   0   5   5 3560.02 255.913
   0   5   5 3473.23 263.573
   0   5   6 12445.0 866.020
   0  -5  -6 11327.3 749.079
   0   5   6 11782.3 470.173
   0  -5  -6 12563.2 872.201
   0  -5  -7 1438.93 407.291
   0   5   7 624.388 307.489
   0   5   7 1160.80 210.456
   0  -5  -8 17103.1 1086.28
   0   5   8 15108.3 966.851
   0   5   8 15481.0 625.924
   0   5   8 17355.3 1116.65
   0   5   9-11.9682 443.508
   0   5   9 292.756 372.525
   0  -5  -9 551.246 398.648
   0   5  10 57282.1 1924.36
   0  -5 -10 57114.1 2062.57
   0  -5 -11 1995.86 549.337
   0   5  11 2580.48 585.877
   0   5  11 1426.91 523.818
   0   5  12-376.083 453.650
   0   5  12 839.581 420.760
   0  -5 -12-437.011 483.128
   0   5  13 169.811 402.196
   0   5  13 1345.89 556.625
   0  -5 -13 74.7341 412.576
   0   5  14 1029.76 498.768
   0   5  14-195.705 479.569
   0  -5 -14 670.234 530.899
   0   5  15-16.0038 412.491
   0  -5 -15 333.743 479.410
   0   5  15 358.131 490.752
   0  -6  19 434.526 395.250
   0   6 -18 1260.47 556.556
   0  -6  18 1236.76 451.701
   0  -6  18 682.352 445.883
   0  -6  17 812.204 456.980
   0  -6  17 885.790 422.669
   0   6 -17 744.771 512.755
   0  -6  16 9378.91 834.249
   0  -6  16 8356.28 850.305
   0   6 -16 9596.41 997.712
   0  -6  15 863.282 447.289
   0   6 -15 1410.09 520.374
   0  -6  15 1178.17 412.186
   0  -6  14 552.702 343.214
   0  -6  14-186.451 339.265
   0   6 -14 570.287 444.276
   0  -6  13 894.786 383.215
   0   6 -13 384.779 424.885
   0  -6  13 182.696 313.385
   0  -6  12-186.887 315.025
   0   6 -12 382.571 343.267
   0   6 -11 2840.41 592.549
   0   6 -11 2991.17 540.371
   0  -6  11 3191.30 503.689
   0   6 -10 361.778 347.864
   0  -6  10 115.558 291.465
   0   6 -10 319.048 322.942
   0   6  -9 3284.83 510.549
   0   6  -9 3557.56 555.912
   0  -6   9 3172.45 491.187
   0   6  -8 6790.99 697.047
   0   6  -8 5831.09 618.747
   0  -6   8 4890.08 594.712
   0   6  -7 5113.23 621.573
   0  -6   7 3210.63 489.765
   0   6  -7 4475.17 514.109
   0  -6   6 656.853 344.583
   0   6  -6 331.299 312.718
   0   6  -6 626.941 298.518
   0  -6   6 373.736 135.361
   0   6  -5 1792.76 257.198
   0   6  -5 1526.72 328.252
   0  -6   5 2307.67 274.445
   0   6  -5 1817.36 423.244
   0  -6   5 1887.79 417.501
   0  -6   4 30006.3 890.793
   0   6  -4 27204.1 1270.60
   0   6  -4 31412.3 1074.76
   0  -6   4 28653.3 1259.40
   0   6  -3 2644.74 352.381
   0   6  -3 2931.65 511.441
   0  -6   3 2013.61 411.046
   0  -6   3 2420.36 321.729
   0  -6   2 7983.73 487.500
   0   6  -2 10465.3 822.593
   0  -6   2 10888.4 638.733
   0   6  -2 10034.9 544.617
   0  -6   2 8452.42 694.452
   0   6  -1 12565.7 553.933
   0  -6   1 11285.7 800.482
   0   6  -1 10733.3 817.323
   0  -6   1 11614.8 690.388
   0   6   0 920.954 184.085
   0  -6   0 954.258 307.016
   0   6   1 31071.5 1352.68
   0  -6  -1 30418.4 1259.77
   0   6   1 28314.0 659.702
   0  -6  -2 9210.28 722.233
   0   6   2 9108.77 796.722
   0  -6  -2 9359.19 729.731
   0  -6  -3 11478.1 816.125
   0  -6  -3 11642.6 823.574
   0   6   3 12154.8 897.219
   0   6   4 4813.59 620.051
   0  -6  -4 4713.63 573.559
   0  -6  -4 4971.04 610.754
   0  -6  -5 998.939 388.765
   0  -6  -5 1155.73 367.371
   0   6   5 569.967 373.426
   0  -6  -6 202.557 295.298
   0  -6  -6-322.812 343.982
   0   6   6-96.5680 329.134
   0   6   7 92.1379 341.910
   0  -6  -7-421.031 372.500
   0  -6  -7 63.4123 305.106
   0  -6  -8 868.831 441.529
   0   6   8 2017.73 523.993
   0  -6  -8 902.407 388.759
   0   6   9 3172.26 612.413
   0  -6  -9 2842.29 536.164
   0  -6  -9 3448.88 652.146
   0   6  10 4821.88 739.423
   0  -6 -10 3692.68 582.301
   0  -6 -11 694.718 442.291
   0   6  11-272.660 418.316
   0  -6 -11 1032.24 529.747
   0  -6 -12 749.219 518.667
   0  -6 -12 375.777 415.413
   0   6  12 207.658 408.715
   0  -6 -13 95.5543 384.467
   0  -6 -13 839.133 551.585
   0   6  13 864.410 521.513
   0  -6 -14 89.5480 412.095
   0  -7  18 233.955 425.429
   0   7 -17 164.990 487.621
   0  -7  17 125.769 404.413
   0  -7  16 653.143 422.609
   0  -7  16 1333.60 479.655
   0   7 -16 40.0357 487.582
   0   7 -15 690.549 529.586
   0  -7  15 534.075 414.255
   0  -7  15 319.321 391.733
   0  -7  14 2345.03 587.297
   0   7 -14 1880.71 607.321
   0  -7  14 1301.58 485.262
   0  -7  13 20.3039 345.639
   0  -7  13 818.541 425.391
   0   7 -13 376.043 437.592
   0  -7  12 829.894 436.935
   0   7 -12 6.04540 386.135
   0   7 -12 1080.87 541.096
   0  -7  11 135.355 325.713
   0   7 -11 868.283 469.780
   0   7 -11-170.151 427.724
   0   7 -10-181.358 338.329
   0   7 -10-130.759 332.976
   0  -7  10-207.904 334.839
   0   7  -9 551.936 405.457
   0  -7   9-137.082 334.580
   0   7  -9 505.020 354.715
   0  -7   8 440.679 373.195
   0   7  -8 639.318 372.858
   0   7  -8 212.235 329.740
   0   7  -7 3284.28 607.418
   0   7  -7 2219.63 458.622
   0  -7   7 2149.06 494.086
   0  -7   6 1763.66 485.376
   0   7  -6 2113.93 484.275
   0   7  -5 8556.59 830.922
   0  -7   5 7818.09 786.268
   0   7  -5 9408.69 671.500
   0   7  -4 683.762 261.621
   0  -7   4 819.698 269.166
   0   7  -4 735.518 402.762
   0  -7   4 585.117 362.538
   0  -7   3 1502.50 440.798
   0   7  -3 721.362 388.806
   0   7  -3 1856.85 315.435
   0  -7   3 1473.11 312.481
   0  -7   2-50.7926 248.903
   0   7  -2 167.308 365.856
   0  -7   2 173.997 314.109
   0  -7   1 5150.35 545.685
   0   7  -1 6102.94 721.611
   0  -7   0 3147.74 538.769
   0   7   0 2355.89 529.734
   0  -7   0 2844.64 456.593
   0   7   1 4548.95 663.835
   0  -7  -1 4678.76 631.583
   0  -7  -1 4703.30 576.764
   0  -7  -2 3265.73 580.220
   0   7   2 3738.23 633.736
   0  -7  -2 3260.95 523.730
   0  -7  -3 2982.69 536.828
   0   7   3 4716.26 684.469
   0  -7  -3 3161.17 533.119
   0   7   4 34.4860 358.733
   0  -7  -4 362.879 321.549
   0  -7  -4-5.44169 353.448
   0  -7  -5 258.746 337.024
   0  -7  -5 28.0969 328.950
   0   7   5 684.843 435.364
   0   7   6 892.490 454.740
   0  -7  -6 203.446 386.521
   0  -7  -6 251.327 420.604
   0  -7  -7 800.817 443.572
   0   7   7 356.951 449.425
   0  -7  -7 1264.69 488.639
   0   7   8 761.704 460.700
   0  -7  -8 1641.17 506.928
   0  -7  -8 1780.74 567.078
   0  -7  -9 1351.61 531.407
   0  -7  -9 865.414 471.283
   0   7   9 495.676 464.509
   0  -7 -10 2453.94 562.675
   0   7  10 3526.36 760.605
   0  -7 -10 2240.54 658.329
   0  -7 -11 115.153 406.730
   0   7  11-318.941 539.520
   0  -7 -11 133.670 539.118
   0  -7 -12 486.660 463.250
   0  -8  16-171.930 426.164
   0   8 -16 97.8870 525.400
   0   8 -15-94.5705 479.387
   0  -8  15-197.009 423.869
   0  -8  14 1494.75 559.319
   0   8 -14 1009.97 554.867
   0  -8  14 1850.50 584.878
   0   8 -13 319.478 447.661
   0  -8  13 439.165 401.577
   0   8 -13-790.740 533.840
   0  -8  12 287.838 411.969
   0   8 -12 342.613 475.575
   0   8 -12 607.846 474.543
   0  -8  11 573.983 427.193
   0   8 -11 325.954 433.656
   0   8 -11-202.031 431.935
   0   8 -10-451.894 437.716
   0   8 -10 1.76368 406.245
   0  -8  10 343.804 401.971
   0   8  -9 1156.44 519.111
   0   8  -9 1530.45 462.011
   0  -8   9 1543.64 502.971
   0  -8   8 461.020 397.409
   0   8  -8 305.613 392.060
   0  -8   7 2636.67 593.305
   0   8  -7 4516.41 745.080
   0  -8   6 1241.61 473.077
   0   8  -6 1641.08 532.480
   0   8  -5 6822.36 841.590
   0  -8   5 6305.80 765.964
   0  -8   4 2642.90 577.065
   0   8  -4 4166.70 677.733
   0  -8   3 969.412 429.882
   0   8  -3 539.588 440.722
   0  -8   2 1022.20 466.405
   0   8  -2 432.052 414.183
   0  -8   1 551.325 393.785
   0   8  -1 810.288 475.859
   0  -8   1 1302.67 387.239
   0  -8   0 5105.24 723.940
   0  -8   0 4587.25 599.045
   0   8   0 4096.47 687.206
   0  -8  -1 1181.25 455.176
   0  -8  -1 501.355 372.218
   0   8   1 664.758 488.365
   0   8   2 1272.66 523.807
   0  -8  -2 470.786 398.662
   0  -8  -2 977.776 400.828
   0  -8  -3 972.580 434.245
   0  -8  -3-570.570 426.818
   0   8   3-0.91927 442.117
   0  -8  -4-32.9322 373.384
   0   8   4 249.235 462.519
   0  -8  -4 560.599 419.198
   0   8   5-200.591 443.711
   0  -8  -5 770.244 428.667
   0  -8  -5-172.863 395.987
   0  -8  -6 70.8822 411.001
   0  -8  -6 178.017 426.373
   0   8   6 495.890 483.452
   0   8   7-44.1504 494.468
   0  -8  -7-180.947 457.556
   0  -8  -7-95.1883 400.592
   0   8   8 161.858 485.877
   0  -8  -8 84.5597 487.096
   0  -8  -8 769.476 470.347
   0  -8  -9 341.969 438.488
   0  -9  11 159.134 441.902
   0   9 -10-1005.06 578.804
   0  -9  10-331.082 449.820
   0  -9   9 875.840 491.504
   0   9  -9 743.234 493.608
   0   9  -8-228.196 463.779
   0  -9   8 587.297 483.248
   0  -9   7 2369.30 626.075
   0   9  -7 4189.40 769.319
   0  -9   6-455.759 444.408
   0   9  -6 691.747 488.546
   0  -9   5 2115.50 610.719
   0   9  -5 580.150 515.822
   0   9  -4 794.492 544.664
   0  -9   4 335.398 455.511
   0  -9   3-506.521 462.678
   0   9  -3 272.134 483.426
   0   9  -2 300.605 463.382
   0  -9   2-416.348 472.073
   0   9  -1 355.955 522.676
   0  -9   1 551.417 479.614
   0  -9   0 1642.32 569.242
   0   9   0 435.710 541.032
   0  -9  -1-514.878 508.733
   0   9   1 687.017 553.435
   0   9   2 147.039 480.264
   0  -9  -2 752.366 453.770
   0  -9  -2 334.132 461.888
   0  -9  -3 112.263 488.858
   0  -9  -3 0.84736 401.680
   0   9   3 645.128 517.915
   0  -9  -4 495.606 461.345
   0  -9  -5 232.044 448.120
   0  -9  -6-37.8927 498.444
   1  -9  -6 1203.58 557.242
   1  -9  -5 845.715 531.215
   1  -9  -5 224.947 456.222
   1  -9  -4 877.199 502.134
   1  -9  -4 482.359 463.759
   1  -9  -3-253.048 413.996
   1  -9  -3 79.1106 420.512
   1  -9  -2 1961.15 547.098
  -1   9   2 1029.64 581.962
   1  -9  -2 2018.56 591.625
   1  -9  -1 457.840 468.694
  -1   9   1-266.023 473.467
   1  -9  -1-234.744 398.355
   1  -9   0 1263.56 534.760
  -1   9   0 370.141 497.267
  -1   9  -1-120.638 483.526
   1  -9   1 150.831 414.338
   1  -9   2 184.098 398.619
  -1   9  -2 1708.77 602.290
  -1   9  -3 410.339 476.828
   1  -9   3 367.502 390.252
  -1   9  -4-567.466 506.856
   1  -9   4-337.853 409.737
  -1   9  -5-816.684 550.758
   1  -9   5 419.671 412.949
   1  -9   6 1396.21 558.902
  -1   9  -6 737.154 471.551
   1  -9   7 937.593 501.286
  -1   9  -7 658.014 505.885
  -1   9  -8 300.896 489.555
   1  -9   8 61.7932 413.605
  -1   9  -9 349.631 480.323
   1  -9   9 377.965 431.787
  -1   9 -10-373.197 534.395
   1  -9  10 1282.02 551.159
   1  -9  11 68.6419 443.194
  -1   9 -11-5.11956 455.540
   1  -8 -10-275.727 472.064
   1  -8  -9 1560.07 585.301
   1  -8  -8 1342.90 554.004
  -1   8   8 31.1048 508.832
   1  -8  -8 724.452 530.164
   1  -8  -7 793.763 511.328
  -1   8   7 970.182 562.011
   1  -8  -7 434.878 455.767
   1  -8  -6-416.248 431.131
  -1   8   6 29.1456 424.282
  -1   8   5-22.8335 455.773
   1  -8  -5-32.6941 387.626
   1  -8  -5 833.425 460.957
   1  -8  -4 401.280 425.562
   1  -8  -4 983.367 452.025
  -1   8   4 513.824 461.408
  -1   8   3 33.3814 439.402
   1  -8  -3 857.968 477.476
   1  -8  -3 904.385 437.452
   1  -8  -2 1771.69 506.669
   1  -8  -2 3107.93 562.472
  -1   8   2 1505.51 558.934
   1  -8  -1 1036.09 399.667
  -1   8   1 726.416 450.125
   1  -8  -1 1204.10 486.222
  -1   8   0 3565.28 676.702
   1  -8   0 4388.03 598.153
   1  -8   0 3403.75 616.773
   1  -8   1 1175.94 404.605
   1  -8   1 1340.86 483.543
  -1   8  -1 670.562 433.067
   1  -8   2 4255.85 542.227
   1  -8   2 4198.88 654.338
  -1   8  -2 3181.03 649.383
   1  -8   3 2248.68 529.322
  -1   8  -3 2963.94 653.048
  -1   8  -4 1044.95 465.672
   1  -8   4 1362.57 433.900
  -1   8  -5 2850.02 605.941
   1  -8   5 2057.03 534.209
  -1   8  -5 3256.22 542.266
   1  -8   6 386.410 378.551
  -1   8  -6 154.993 361.236
  -1   8  -6-225.508 405.630
  -1   8  -7 654.499 433.959
   1  -8   7-22.5899 369.456
  -1   8  -7 447.602 375.620
   1  -8   8 1076.75 448.708
  -1   8  -8 255.327 388.705
  -1   8  -8 255.822 404.085
  -1   8  -9-124.930 412.844
   1  -8   9 798.414 408.307
  -1   8  -9 446.429 424.790
  -1   8 -10 393.891 432.586
  -1   8 -10 857.584 475.531
   1  -8  10 696.813 416.974
   1  -8  11 597.575 418.092
  -1   8 -11 1152.94 525.417
  -1   8 -11-195.174 402.111
  -1   8 -12 378.795 454.131
  -1   8 -12 264.989 473.598
   1  -8  12 110.411 402.309
   1  -8  13 464.501 426.412
  -1   8 -13 502.754 474.245
  -1   8 -13 17.8672 476.739
   1  -8  14 670.298 462.630
   1  -8  14-98.0359 416.751
  -1   8 -14 555.809 534.987
  -1   8 -15-133.194 554.946
   1  -8  15 160.789 432.144
  -1   8 -16-382.152 580.539
   1  -7 -12 400.117 415.596
   1  -7 -11-458.236 443.927
  -1   7  11-135.052 495.941
   1  -7 -11 156.385 480.333
   1  -7 -10 325.340 384.129
   1  -7 -10 721.313 559.567
  -1   7  10 762.084 519.620
   1  -7  -9 18095.6 1187.72
  -1   7   9 21412.6 1443.37
   1  -7  -9 21417.2 1487.93
   1  -7  -8 1174.17 518.174
  -1   7   8 890.747 496.245
   1  -7  -8 660.656 421.928
  -1   7   7 4140.14 706.306
   1  -7  -7 2500.23 552.368
   1  -7  -7 4393.80 705.887
   1  -7  -6 268.395 357.730
   1  -7  -6 848.157 448.596
  -1   7   6 527.438 396.452
   1  -7  -5 2137.64 499.013
  -1   7   5 2123.43 513.285
   1  -7  -5 2414.18 527.863
  -1   7   4 578.936 379.251
   1  -7  -4 357.533 353.538
   1  -7  -4 483.127 369.099
  -1   7   3 2040.80 503.357
   1  -7  -3 801.412 413.116
   1  -7  -3 1004.02 395.351
  -1   7   2 2974.49 567.088
   1  -7  -2 3811.45 536.807
   1  -7  -2 3546.15 566.195
   1  -7  -1 641.612 358.913
  -1   7   1 571.934 361.457
   1  -7  -1 1499.25 401.709
   1  -7   0 2860.55 534.249
   1  -7   0 2804.49 468.006
  -1   7   0 2641.09 392.779
  -1   7   0 2741.54 529.938
   1  -7   1 4809.07 641.760
  -1   7  -1 4200.41 461.708
   1  -7   1 4578.40 522.291
  -1   7  -1 3912.25 599.823
  -1   7  -2 546.492 377.893
  -1   7  -2 1027.55 313.643
   1  -7   2 931.742 330.133
   1  -7   2-21.5154 347.771
   1  -7   3 5005.33 642.116
  -1   7  -3 4851.55 675.381
  -1   7  -3 3271.37 451.156
   1  -7   3 3763.43 448.142
   1  -7   4 4977.91 476.759
   1  -7   4 4554.52 629.177
  -1   7  -4 5352.64 555.696
  -1   7  -4 3278.01 581.790
  -1   7  -5-20.8245 341.689
  -1   7  -5-32.2050 292.262
   1  -7   5 267.371 219.542
   1  -7   5 288.059 341.432
  -1   7  -6-231.264 315.575
  -1   7  -6 19.2932 341.111
   1  -7   6 99.7940 322.990
  -1   7  -7 231.712 359.563
  -1   7  -7-232.739 336.774
   1  -7   7 537.105 357.937
  -1   7  -8 1416.69 463.998
   1  -7   8 403.917 362.408
  -1   7  -8 666.710 392.232
   1  -7   9 3818.83 611.864
  -1   7  -9 3878.21 633.245
  -1   7  -9 2563.87 540.042
   1  -7  10 3660.29 585.354
  -1   7 -10 2951.54 593.791
  -1   7 -10 1606.08 483.193
  -1   7 -11 4091.71 661.826
   1  -7  11 2103.42 513.791
  -1   7 -11 3391.64 623.293
   1  -7  12 1761.18 508.906
  -1   7 -12 3110.63 680.601
  -1   7 -12 1956.25 570.054
   1  -7  13 594.844 412.239
  -1   7 -13 689.167 518.407
  -1   7 -14-206.200 470.139
   1  -7  14 315.785 372.456
   1  -7  14 589.298 414.390
   1  -7  15 84.9074 404.423
  -1   7 -15-299.241 512.417
   1  -7  15 316.352 370.989
   1  -7  16 285.936 430.832
   1  -7  16 680.845 438.957
  -1   7 -16 503.721 566.508
   1  -7  17 531.512 440.378
   1  -7  17 51.5598 393.625
  -1   7 -17 531.016 532.801
   1  -7  18 52.9650 417.592
   1  -6 -13 174.529 339.140
   1  -6 -13 217.678 463.165
  -1   6  13 55.3097 421.469
  -1   6  12 25.8288 411.705
   1  -6 -12 822.135 404.971
   1  -6 -12 404.905 490.976
   1  -6 -11-105.578 353.353
   1  -6 -11 242.612 456.552
  -1   6  11 317.778 407.284
   1  -6 -10 11032.6 1065.95
  -1   6  10 11287.5 997.439
   1  -6 -10 11582.6 876.727
   1  -6  -9 7200.83 708.932
   1  -6  -9 6712.32 841.389
  -1   6   9 6148.06 772.163
   1  -6  -8 709.733 369.052
   1  -6  -8 1239.48 473.781
  -1   6   8 1118.17 469.168
   1  -6  -7 812.386 420.053
   1  -6  -7 397.618 317.105
  -1   6   7-15.2889 357.449
  -1   6   6 723.452 357.813
   1  -6  -6-96.8564 264.003
   1  -6  -6 739.911 326.024
  -1   6   6 48.6499 186.401
  -1   6   5 225.082 192.203
   1  -6  -5 131.153 270.450
   1  -6  -5 239.371 333.162
  -1   6   5 365.618 332.134
   1  -6  -4 188.023 304.447
   1  -6  -4 82.3816 286.382
  -1   6   4-90.5758 196.928
  -1   6   4 364.450 342.023
   1  -6  -3-372.211 274.255
   1  -6  -3 146.522 297.775
  -1   6   3-163.063 326.356
  -1   6   3 341.442 213.089
   1  -6  -2 5909.20 603.143
   1  -6  -2 5690.67 601.580
  -1   6   2 5748.15 448.282
  -1   6   2 5459.05 621.037
  -1   6   1 5808.30 635.184
   1  -6  -1 7548.90 673.047
  -1   6   1 5984.42 483.030
   1  -6  -1 6753.18 603.675
  -1   6   0 7747.05 535.211
  -1   6   0 7969.31 723.912
   1  -6   0 8493.50 705.796
   1  -6   0 8469.81 632.792
  -1   6  -1 2927.47 496.970
   1  -6   1 4086.45 529.754
  -1   6  -1 3160.87 392.698
   1  -6   1 2949.15 398.166
  -1   6  -2 60950.6 1529.44
   1  -6   2 60629.4 1470.10
   1  -6   2 58373.3 1735.34
   1  -6   3 5750.01 469.286
  -1   6  -3 5315.47 621.815
  -1   6  -3 5187.96 513.201
   1  -6   3 5631.28 595.395
   1  -6   4 1519.23 273.311
   1  -6   4 1710.50 389.768
  -1   6  -4 1340.15 337.742
  -1   6  -4 1807.52 431.091
  -1   6  -5 428.822 314.785
  -1   6  -5-204.679 319.634
   1  -6   5-50.8129 284.123
   1  -6   5 701.831 228.563
   1  -6   6-51.1309 158.214
  -1   6  -6-314.689 337.336
   1  -6   6 305.248 296.064
  -1   6  -6-204.308 337.048
  -1   6  -7-108.883 308.197
   1  -6   7 304.046 141.571
   1  -6   7 536.801 300.016
  -1   6  -7 701.134 367.576
  -1   6  -8-171.361 308.501
   1  -6   8 193.684 276.409
  -1   6  -8-353.882 332.893
   1  -6   9 2689.99 467.371
  -1   6  -9 2082.43 471.932
  -1   6  -9 2122.33 455.974
   1  -6  10-93.5372 286.757
  -1   6 -10 337.458 320.091
  -1   6 -10-348.950 404.690
  -1   6 -11 712.692 432.529
   1  -6  11 263.190 283.091
  -1   6 -11 364.097 378.274
  -1   6 -12 539.430 434.536
   1  -6  12-180.857 352.778
  -1   6 -13 808.581 484.863
   1  -6  13 581.194 370.727
   1  -6  13 265.881 312.948
   1  -6  14 3890.20 580.290
  -1   6 -14 3338.01 664.292
   1  -6  14 3577.27 544.195
   1  -6  15 285.837 342.717
   1  -6  15 370.667 369.220
  -1   6 -15-61.3732 425.996
   1  -6  16 5237.63 706.270
   1  -6  16 5283.39 697.752
  -1   6 -16 5672.92 855.348
   1  -6  17 1362.36 501.514
   1  -6  17 792.872 441.360
  -1   6 -17 812.418 538.417
   1  -6  18 730.044 456.114
   1  -6  18 1380.80 475.149
  -1   6 -18 785.057 581.505
   1  -6  19 293.794 456.869
  -1   5  15 716.578 498.488
   1  -5 -15 35.1543 464.117
  -1   5  14-268.936 417.065
   1  -5 -14-236.864 343.014
  -1   5  13-357.612 408.728
   1  -5 -13-182.899 302.707
   1  -5 -13 213.456 431.338
   1  -5 -12 343.470 325.525
  -1   5  12 795.527 410.536
   1  -5 -12 279.429 405.401
  -1   5  11 3525.18 619.742
   1  -5 -11 3476.63 488.030
   1  -5 -11 3360.33 672.557
  -1   5  10 33543.5 1516.85
   1  -5 -10 33162.5 1292.75
   1  -5 -10 36934.3 1664.62
  -1   5  10 33823.8 1181.66
  -1   5   9 23547.3 957.191
   1  -5  -9 22670.9 1064.76
  -1   5   9 24005.3 1249.86
  -1   5   8 9753.19 607.303
   1  -5  -8 11267.8 899.648
  -1   5   8 9374.46 775.127
  -1   5   7 663.593 342.536
  -1   5   7 1143.39 283.315
   1  -5  -7 1163.80 405.992
   1  -5  -7 737.961 298.976
   1  -5  -6 2128.15 432.364
  -1   5   6 2748.88 332.074
   1  -5  -6 2304.11 388.915
   1  -5  -5 1200.88 376.996
  -1   5   5 1236.71 254.629
  -1   5   5 1063.82 342.082
  -1   5   5 1235.68 265.443
   1  -5  -5 1190.44 323.902
  -1   5   4 2314.30 286.018
  -1   5   4 2151.89 287.316
  -1   5   4 2233.74 438.663
   1  -5  -4 3054.00 468.583
   1  -5  -4 1988.40 370.902
  -1   5   3 12155.1 787.183
   1  -5  -3 12949.2 763.375
  -1   5   3 12072.9 551.750
   1  -5  -3 12042.8 784.966
  -1   5   3 11784.0 565.923
  -1   5   2 863.256 298.509
  -1   5   2 881.895 210.899
  -1   5   2 1075.48 240.167
   1  -5  -2 1456.96 340.041
   1  -5  -2 1200.22 333.996
   1  -5  -1 4818.95 388.265
   1  -5  -1 5600.21 507.730
  -1   5   1 5854.90 430.482
  -1   5   1 4715.67 514.098
   1  -5  -1 5255.66 525.906
  -1   5   0 4682.69 393.264
  -1   5   0 5043.39 534.486
   1  -5   0 5128.27 466.848
   1  -5   0 4205.98 383.040
   1  -5   0 5609.61 545.079
  -1   5  -1 49631.6 1240.61
   1  -5   1 43298.4 1123.96
   1  -5   1 49530.4 1482.30
   1  -5   1 48790.1 1258.05
  -1   5  -1 45024.8 1437.77
   1  -5   2 1925.24 388.268
  -1   5  -2 1975.41 315.711
  -1   5  -2 2334.20 419.443
   1  -5   2 2123.92 303.134
   1  -5   3 5944.39 422.167
  -1   5  -3 5831.38 458.267
  -1   5  -3 5604.32 562.769
  -1   5  -3 5741.60 511.449
   1  -5   3 5510.49 534.238
   1  -5   4 5910.19 399.457
  -1   5  -4 6043.18 564.868
  -1   5  -4 6279.57 533.984
  -1   5  -4 6964.78 455.486
   1  -5   4 6171.64 549.680
   1  -5   5 2262.48 394.076
  -1   5  -5 2067.42 384.219
  -1   5  -5 1927.53 336.053
  -1   5  -5 2302.94 264.988
   1  -5   5 2508.25 260.051
   1  -5   6 4577.30 302.604
  -1   5  -6 4836.55 525.281
  -1   5  -6 5071.53 334.312
   1  -5   6 4608.17 485.903
  -1   5  -6 4589.31 528.721
  -1   5  -7 16655.6 935.614
   1  -5   7 17370.9 900.510
  -1   5  -7 15954.4 503.472
   1  -5   7 15563.3 463.480
  -1   5  -7 17195.0 936.255
  -1   5  -8 3119.01 193.110
  -1   5  -8 3181.71 522.833
  -1   5  -8 2949.77 191.548
  -1   5  -8 4342.43 542.782
   1  -5   8 4386.03 513.753
  -1   5  -9 133454. 2586.95
   1  -5   9 132087. 2463.12
  -1   5  -9 130221. 2709.54
   1  -5  10 2522.41 449.897
  -1   5 -10 2512.82 510.860
  -1   5 -10 3305.34 550.909
  -1   5 -11 18062.0 1149.57
   1  -5  11 16160.4 937.288
  -1   5 -12 168.816 391.154
   1  -5  12 221.024 289.068
   1  -5  12 880.647 325.904
   1  -5  13 4263.74 546.175
  -1   5 -13 3250.85 608.910
   1  -5  13 4603.36 562.575
  -1   5 -14-123.851 366.894
   1  -5  14 682.894 341.798
   1  -5  14 682.731 343.477
  -1   5 -15 1885.13 537.416
   1  -5  15 1714.15 430.764
   1  -5  15 711.463 345.217
  -1   5 -16 559.482 449.686
   1  -5  16 1430.59 416.293
   1  -5  16 1048.07 411.083
   1  -5  17-500.347 403.013
   1  -5  17 59.2294 334.849
  -1   5 -17 342.204 476.238
   1  -5  18-216.294 333.241
  -1   5 -18 531.615 536.059
   1  -5  18 14.9132 364.161
  -1   5 -19 177.721 476.574
   1  -5  19-86.6112 424.628
   1  -5  19 915.093 424.959
   1  -5  20 54.9314 387.659
   1  -4 -17 2609.58 684.143
  -1   4  17 3848.69 685.175
  -1   4  16 347.100 453.052
   1  -4 -16 409.449 461.602
   1  -4 -15 430.541 430.024
  -1   4  15 457.635 389.269
   1  -4 -14 280.410 425.916
  -1   4  14 300.758 353.549
   1  -4 -14-73.5573 300.173
  -1   4  14-407.834 422.362
  -1   4  13-184.157 372.378
   1  -4 -13 340.583 279.493
  -1   4  13 738.275 399.961
   1  -4 -13 174.375 387.675
  -1   4  12 2793.68 530.502
   1  -4 -12 2186.46 400.281
  -1   4  12 2330.96 484.834
   1  -4 -12 2298.35 549.305
  -1   4  11 2646.56 483.539
   1  -4 -11 2828.41 557.701
  -1   4  11 4594.73 599.716
   1  -4 -11 3966.95 465.788
  -1   4  10 7354.01 686.615
  -1   4  10 8089.14 718.833
   1  -4 -10 7460.53 759.734
  -1   4   9 5524.18 499.611
  -1   4   9 4819.40 562.384
   1  -4  -9 5584.34 634.852
  -1   4   8 259.228 287.624
   1  -4  -8-28.2912 286.655
  -1   4   8 235.433 206.887
   1  -4  -7 2389.99 344.112
  -1   4   7 2481.69 330.184
   1  -4  -7 2137.45 441.435
  -1   4   7 1793.64 369.284
   1  -4  -6 25999.9 957.643
  -1   4   6 25812.8 854.481
   1  -4  -6 26400.6 1150.11
  -1   4   6 25059.6 1037.21
  -1   4   5 38741.3 1004.73
  -1   4   5 35045.9 1182.46
   1  -4  -5 37967.8 1118.71
   1  -4  -5 36226.6 1289.68
  -1   4   5 34511.7 957.092
   1  -4  -4 25328.3 1045.18
  -1   4   4 26096.3 1013.84
  -1   4   4 23631.8 751.700
  -1   4   4 25055.5 790.941
   1  -4  -4 26747.1 947.820
   1  -4  -3 13047.9 736.020
   1  -4  -3 14278.6 698.211
  -1   4   3 14757.1 756.826
  -1   4   3 14304.6 596.382
  -1   4   3 14157.8 560.400
  -1   4   2 5316.77 372.027
   1  -4  -2 6099.68 499.964
  -1   4   2 5398.58 476.937
  -1   4   1 2816.68 377.830
   1  -4  -1 2045.22 342.509
   1  -4  -1 2314.89 264.157
   1  -4  -1 2962.42 372.553
  -1   4   1 2571.08 289.307
   1  -4   0 153873. 2095.52
   1  -4   0 148999. 1848.58
  -1   4   0 151994. 2287.53
   1  -4   0 155334. 2303.50
  -1   4   0 151768. 1912.62
   1  -4   3 147065. 1729.41
  -1   4  -3 147540. 2133.73
  -1   4  -3 151860. 1804.72
  -1   4  -3 157824. 2421.54
   1  -4   3 148729. 2190.83
   1  -4   3 140378. 2080.41
   1  -4   4 32497.0 1054.45
  -1   4  -4 32563.3 794.898
   1  -4   4 32957.1 764.889
  -1   4  -4 32857.0 1069.68
  -1   4  -4 33345.1 1111.03
  -1   4  -5 29478.6 1058.36
   1  -4   5 30845.7 1022.65
  -1   4  -5 30649.6 1079.60
   1  -4   5 31048.9 693.451
  -1   4  -5 32616.3 740.705
   1  -4   6 35743.4 1121.91
   1  -4   6 37329.8 714.361
  -1   4  -6 36839.7 728.400
  -1   4  -6 34989.1 1170.14
  -1   4  -6 34697.1 1184.47
  -1   4  -7 44938.8 1423.54
  -1   4  -7 43392.7 1311.97
   1  -4   7 41895.5 1223.08
  -1   4  -7 41169.0 727.200
  -1   4  -8 34323.4 635.407
  -1   4  -8 33083.7 631.241
   1  -4   8 37697.2 1176.88
  -1   4  -8 37320.9 1348.51
  -1   4  -8 36514.6 1235.72
  -1   4  -9 159.372 93.5132
  -1   4  -9 245.833 100.814
   1  -4   9 311.499 239.616
  -1   4  -9 495.207 335.163
  -1   4  -9 17.7115 271.745
   1  -4  10 3609.36 440.836
   1  -4  10 3323.42 422.837
  -1   4 -10 3373.98 223.568
  -1   4 -10 3653.98 227.198
  -1   4 -11 2506.46 214.520
   1  -4  11 2922.35 426.531
  -1   4 -11 2521.24 212.471
   1  -4  11 2773.56 423.728
  -1   4 -11 2676.94 512.197
   1  -4  12 357.228 259.547
   1  -4  12 423.655 270.769
  -1   4 -12 395.429 143.349
  -1   4 -12 209.699 323.984
   1  -4  13 1328.69 373.185
   1  -4  13 415.292 280.330
  -1   4 -13 900.284 382.287
   1  -4  14-241.741 276.799
   1  -4  14 53.8388 279.951
  -1   4 -14-64.7548 350.332
  -1   4 -15 374.615 412.999
   1  -4  15 593.057 324.889
   1  -4  15 240.142 285.778
   1  -4  16 5534.31 636.864
   1  -4  16 4493.94 591.705
  -1   4 -16 5080.76 752.040
  -1   4 -17-400.421 459.641
   1  -4  17 362.347 333.994
   1  -4  18 720.749 409.277
   1  -4  18 587.205 352.437
  -1   4 -18 134.878 472.805
   1  -4  19 243.200 364.960
  -1   4 -19-38.4806 501.808
   1  -4  19-541.064 422.760
   1  -4  20-54.4894 411.422
   1  -4  20 532.385 389.130
  -1   3  18-79.2012 438.590
   1  -3 -18-32.8937 488.229
   1  -3 -18 748.623 414.887
   1  -3 -17 339.168 455.666
   1  -3 -17 483.816 364.452
  -1   3  17 1480.48 506.851
   1  -3 -16 250.810 420.967
  -1   3  16 431.750 394.477
   1  -3 -16 27.9479 339.544
   1  -3 -15-489.615 405.631
  -1   3  15-64.5814 337.123
  -1   3  15 92.9564 315.458
   1  -3 -15-66.8748 279.095
  -1   3  14 7.45493 298.409
  -1   3  14-214.871 325.423
   1  -3 -14-36.3560 357.748
   1  -3 -14 728.463 342.079
  -1   3  13 1351.93 380.511
   1  -3 -13 1301.06 440.931
  -1   3  13 1047.10 372.990
   1  -3 -13 1125.48 333.463
  -1   3  12 462.226 289.838
  -1   3  12 601.382 314.574
   1  -3 -12 532.626 286.955
   1  -3 -12 290.796 330.081
  -1   3  11 4500.43 510.683
   1  -3 -11 3126.30 403.808
   1  -3 -11 3275.02 550.974
  -1   3  11 3458.10 485.717
   1  -3 -10 12762.8 693.613
   1  -3 -10 13930.2 923.361
  -1   3  10 12080.1 757.533
  -1   3  10 14592.4 810.060
   1  -3  -9 9233.67 732.082
   1  -3  -9 9396.05 566.484
  -1   3   9 11084.6 711.293
  -1   3   9 12209.2 743.450
  -1   3   8 35235.2 1155.90
   1  -3  -8 36817.0 1345.75
   1  -3  -8 36211.8 1035.48
  -1   3   7 1976.85 338.064
   1  -3  -7 1495.67 249.196
   1  -3  -7 1424.88 325.071
  -1   3   7 1484.79 315.890
  -1   3   6 28544.6 912.582
  -1   3   6 27778.1 957.982
  -1   3   6 30214.2 1039.99
   1  -3  -6 27999.2 1098.76
   1  -3  -5 881.537 286.689
  -1   3   5 880.210 211.079
   1  -3  -5 758.230 199.836
  -1   3   5 856.865 204.440
  -1   3   5 1576.10 293.440
  -1   3   4 18119.2 742.262
   1  -3  -4 21021.0 886.734
   1  -3  -4 18470.8 710.391
  -1   3   4 19428.3 656.522
   1  -3  -4 19659.6 702.237
  -1   3   4 18598.8 636.235
  -1   3   3 3339.25 276.973
   1  -3  -3 3541.44 389.422
  -1   3   3 3700.91 354.968
  -1   3   3 3812.59 306.726
   1  -3  -3 3495.34 325.923
   1  -3  -3 3487.42 337.645
  -1   3   2 272.391 169.881
  -1   3   2 40.7803 154.618
   1  -3  -2-70.1975 191.620
   1  -3  -2 240.274 211.340
  -1   3   2 100.245 170.365
   1  -3  -2 249.432 161.785
  -1   3   1 31544.9 908.662
   1  -3  -1 32442.9 898.970
   1  -3  -1 31484.6 763.952
   1  -3  -1 30982.5 924.526
   1  -3  -1 29116.0 839.097
  -1   3   1 31755.2 783.987
  -1   3   1 32061.0 942.006
  -1   3   1 31787.9 862.425
   1  -3   0 137198. 1812.97
   1  -3   0 133817. 1608.79
  -1   3   0 129917. 1592.89
  -1   3   0 127404. 1753.25
  -1   3   0 134452. 1756.53
   1  -3   0 133056. 1720.47
   1  -3   0 132776. 1772.49
  -1   3   0 128968. 1804.69
  -1   3  -1 45121.6 971.754
   1  -3   1 42453.4 923.403
  -1   3  -1 44609.4 1084.70
  -1   3  -1 41276.1 965.198
   1  -3   1 43108.4 971.617
   1  -3   1 43171.9 1048.87
  -1   3  -1 43838.7 1046.98
   1  -3   1 46797.0 1072.79
  -1   3  -2 375392. 2579.68
   1  -3   2 368341. 2938.51
   1  -3   2 370543. 2489.57
   1  -3   2 372501. 2996.48
  -1   3  -2 365177. 3112.69
  -1   3  -2 376852. 3119.23
   1  -3   2 362649. 3061.44
   1  -3   3 2150.81 273.289
   1  -3   3 2445.35 233.901
  -1   3  -3 2667.91 333.232
   1  -3   3 2441.53 303.679
  -1   3  -3 2263.66 293.398
  -1   3  -3 2377.82 230.238
   1  -3   3 2393.70 302.145
   1  -3   4 23966.9 583.684
  -1   3  -4 23900.4 589.247
  -1   3  -4 25123.6 881.194
   1  -3   4 24123.8 798.254
   1  -3   4 22852.1 817.704
   1  -3   4 23485.3 867.602
  -1   3  -4 25488.3 855.126
   1  -3   5 3358.63 344.204
  -1   3  -5 3416.33 386.267
   1  -3   5 3519.96 234.232
  -1   3  -5 3427.92 355.353
  -1   3  -5 3671.46 243.193
  -1   3  -6 42866.4 769.863
   1  -3   6 40157.6 1065.92
  -1   3  -6 41618.5 1231.52
  -1   3  -7 10112.0 395.168
  -1   3  -7 9238.61 585.015
   1  -3   7 10376.0 583.935
  -1   3  -7 9838.42 387.408
  -1   3  -7 10658.8 698.879
  -1   3  -8 49390.0 890.452
   1  -3   8 48633.0 1250.28
  -1   3  -8 48131.5 863.342
  -1   3  -8 48339.1 1461.36
  -1   3  -9 61993.2 1051.52
  -1   3  -9 66306.5 1771.87
   1  -3   9 68228.6 1491.17
   1  -3   9 67136.3 1474.93
  -1   3  -9 62399.5 1035.41
  -1   3 -10 87734.6 1306.81
   1  -3  10 88879.8 1761.10
   1  -3  10 88812.9 1754.58
  -1   3 -10 85911.1 2098.38
  -1   3 -10 84880.4 1303.78
  -1   3 -11 2887.42 295.702
   1  -3  11 2678.08 412.368
  -1   3 -11 3633.30 309.474
  -1   3 -11 2803.15 505.322
   1  -3  11 3705.23 428.402
  -1   3 -12 527.085 197.364
   1  -3  12-147.057 242.508
  -1   3 -12-6.06822 314.665
   1  -3  12 170.327 226.027
  -1   3 -12 338.454 188.342
   1  -3  13 6650.55 579.753
  -1   3 -13 6406.52 454.853
   1  -3  13 5821.21 545.041
  -1   3 -13 5398.30 666.123
   1  -3  14 8013.53 643.155
  -1   3 -14 6902.87 516.026
  -1   3 -14 7022.79 772.135
   1  -3  14 6173.57 598.821
  -1   3 -15 1805.76 490.193
  -1   3 -15 1851.76 331.310
   1  -3  15 1925.29 397.452
   1  -3  15 1599.17 373.976
  -1   3 -16-542.030 420.005
   1  -3  16 92.7458 292.208
   1  -3  16-422.982 318.765
   1  -3  17 64.9916 281.976
   1  -3  17 161.253 305.004
  -1   3 -17-442.685 486.783
   1  -3  18 509.246 331.932
  -1   3 -18 335.139 443.705
  -1   3 -19 497.747 478.551
   1  -3  19 855.232 421.379
   1  -3  19 910.234 393.294
   1  -3  20-723.911 458.908
   1  -3  20 312.807 380.145
  -1   3 -20-31.1032 508.246
   1  -3  21 404.571 452.743
   1  -2 -20 54.9289 501.569
   1  -2 -20 781.470 486.994
  -1   2  19-394.906 459.947
   1  -2 -19 341.038 419.021
   1  -2 -19 1135.91 515.467
  -1   2  18 1594.85 482.386
   1  -2 -18 2081.56 527.573
   1  -2 -18 2483.90 650.754
  -1   2  17 243.758 365.556
   1  -2 -17 147.182 355.394
   1  -2 -17 337.214 447.975
   1  -2 -16 1167.12 433.420
   1  -2 -16 505.424 438.303
  -1   2  16 609.085 341.029
  -1   2  15 149.819 309.634
   1  -2 -15-312.191 336.663
  -1   2  15 278.431 271.934
   1  -2 -15 23.6793 337.901
  -1   2  14 703.787 290.605
  -1   2  14-41.9821 304.431
   1  -2 -14 445.172 353.193
   1  -2 -14 153.808 261.900
   1  -2 -13 15017.4 877.370
  -1   2  13 16400.5 941.781
  -1   2  13 14192.7 747.864
   1  -2 -13 14845.2 1009.94
  -1   2  12 824.623 258.961
   1  -2 -12 302.408 307.854
   1  -2 -12 809.503 298.640
  -1   2  12 870.889 344.482
  -1   2  11-80.8951 195.949
  -1   2  11-154.994 288.124
   1  -2 -11 218.380 253.366
   1  -2 -11-30.6688 305.522
   1  -2 -10 223.007 220.213
  -1   2  10 343.816 246.105
   1  -2 -10 133.084 282.352
  -1   2  10 145.019 183.446
  -1   2   9 17866.6 800.096
   1  -2  -9 17947.7 924.924
   1  -2  -9 16903.7 747.949
  -1   2   9 18409.1 717.622
  -1   2   8 2561.48 362.376
   1  -2  -8 2473.21 386.440
   1  -2  -8 2268.29 299.572
   1  -2  -8 2656.81 260.722
  -1   2   8 2460.39 292.071
   1  -2  -7 19974.9 720.731
  -1   2   7 21754.8 794.119
   1  -2  -7 22792.9 952.668
   1  -2  -7 23202.3 652.840
  -1   2   7 22486.8 723.148
   1  -2  -6 12174.0 465.984
   1  -2  -6 12446.9 542.362
  -1   2   6 12922.7 562.836
  -1   2   6 13104.2 587.338
   1  -2  -6 12119.8 693.062
  -1   2   6 11827.3 589.650
  -1   2   5 69556.2 1272.73
  -1   2   5 71426.5 1302.96
   1  -2  -5 67900.0 1476.04
   1  -2  -5 70383.3 1180.33
   1  -2  -4 6103.50 350.649
  -1   2   4 5860.90 388.006
   1  -2  -4 5085.25 432.606
   1  -2  -4 5833.39 332.618
   1  -2  -4 6695.02 389.638
  -1   2   4 5553.24 356.601
  -1   2   3 194742. 1814.20
   1  -2  -3 191844. 2179.35
  -1   2   3 190645. 2209.44
   1  -2  -3 196686. 1878.26
  -1   2   3 193428. 1902.21
   1  -2  -3 192787. 1723.82
  -1   2   3 191522. 1811.20
  -1   2   2 17261.0 628.764
   1  -2  -2 18049.4 552.547
  -1   2   2 17754.6 568.313
   1  -2  -2 17416.4 526.221
  -1   2   2 17680.4 531.683
   1  -2  -2 17086.7 632.869
  -1   2   2 17845.9 552.520
   1  -2  -2 18090.2 602.662
   1  -2   0 13937.1 489.289
   1  -2   0 15490.1 515.626
  -1   2   0 14604.3 518.480
   1  -2   0 13099.4 479.293
  -1   2   0 13891.2 501.655
  -1   2   0 16064.1 541.873
  -1   2   0 15079.4 517.505
   1  -2   0 13274.9 492.112
   1  -2   2 1647.75 204.157
  -1   2  -2 1332.37 213.449
  -1   2  -2 1685.79 251.811
  -1   2  -2 1752.87 265.547
  -1   2  -2 921.000 180.692
   1  -2   2 1595.52 254.969
   1  -2   2 1404.32 229.372
   1  -2   2 1395.39 224.236
  -1   2  -3 362801. 2645.46
   1  -2   3 352492. 2519.54
   1  -2   3 356644. 2599.45
   1  -2   3 353413. 2831.30
  -1   2  -3 353727. 2124.11
   1  -2   4 4558.86 256.176
  -1   2  -4 4505.05 326.762
   1  -2   4 4284.24 320.145
  -1   2  -4 5378.04 419.321
   1  -2   4 4330.27 326.938
  -1   2  -4 4931.33 271.556
   1  -2   4 4514.71 372.278
  -1   2  -4 4151.75 327.110
  -1   2  -5 19319.9 534.277
  -1   2  -5 19361.2 665.189
  -1   2  -5 19226.7 515.996
   1  -2   5 20181.1 708.719
  -1   2  -5 19413.0 691.444
  -1   2  -5 19815.7 780.535
   1  -2   5 19976.3 787.681
   1  -2   5 20685.6 678.621
   1  -2   6 3793.58 311.590
   1  -2   6 4608.18 380.460
  -1   2  -6 3885.92 263.609
   1  -2   6 3722.64 351.051
  -1   2  -6 4459.16 287.578
  -1   2  -6 3400.17 387.537
   1  -2   7 66706.2 1234.02
  -1   2  -7 65756.3 1082.76
   1  -2   7 66251.6 1283.13
  -1   2  -7 67030.1 1098.28
  -1   2  -8 2128.69 250.311
   1  -2   8 1840.11 264.196
  -1   2  -8 1923.45 235.862
  -1   2  -8 1650.79 351.788
   1  -2   8 1987.18 293.261
   1  -2   9 45774.8 1169.70
  -1   2  -9 44267.5 1008.21
   1  -2   9 42942.8 1100.91
  -1   2  -9 43212.8 1388.02
  -1   2  -9 43517.5 1035.03
  -1   2 -10 6971.79 464.994
   1  -2  10 7796.67 515.323
   1  -2  10 7336.54 513.584
  -1   2 -10 7977.70 468.200
  -1   2 -10 7917.28 702.939
   1  -2  11 42929.3 1206.51
   1  -2  11 41903.8 1186.72
  -1   2 -11 41615.1 1105.54
  -1   2 -11 43357.9 1526.63
  -1   2 -12 12492.9 881.607
   1  -2  12 12133.9 696.667
   1  -2  12 12646.1 686.665
  -1   2 -12 12414.7 662.885
   1  -2  13 2236.26 371.309
  -1   2 -13 1779.34 479.758
   1  -2  13 1930.35 374.382
  -1   2 -13 1900.02 352.409
  -1   2 -14 4053.70 457.401
   1  -2  14 3583.60 454.625
   1  -2  14 4509.35 519.036
  -1   2 -14 3490.65 553.485
   1  -2  15 413.032 301.043
  -1   2 -15 351.132 254.791
  -1   2 -15-82.8358 349.652
   1  -2  15 622.350 297.341
   1  -2  16-135.838 304.419
  -1   2 -16 93.8337 342.896
   1  -2  16 149.989 277.841
  -1   2 -16 242.750 289.092
   1  -2  17 664.162 337.365
  -1   2 -17 481.926 411.459
   1  -2  17 220.081 303.867
  -1   2 -17 344.938 327.134
  -1   2 -18 514.176 471.996
   1  -2  18 518.487 373.346
   1  -2  18 458.291 330.565
   1  -2  19 2968.25 581.018
   1  -2  19 1965.78 450.682
  -1   2 -19 2615.22 668.758
  -1   2 -20 2408.95 689.707
   1  -2  20 1875.51 486.577
   1  -2  20 2489.23 571.598
   1  -2  21 1482.02 540.190
   1  -1 -21-108.349 515.729
   1  -1 -20 58.4805 494.606
   1  -1 -20 1344.00 534.070
  -1   1  20 802.092 526.315
   1  -1 -19 398.675 439.600
   1  -1 -19 126.878 412.641
  -1   1  19 269.673 421.061
   1  -1 -18-307.838 403.279
   1  -1 -18-313.188 411.028
  -1   1  18 365.902 375.393
  -1   1  17 1726.78 470.536
   1  -1 -17 1906.67 494.368
   1  -1 -17 2544.42 567.387
  -1   1  16 754.525 390.517
   1  -1 -16 1020.00 399.932
   1  -1 -16 758.785 409.639
  -1   1  16 1310.98 321.800
  -1   1  15 429.505 353.416
  -1   1  15 422.198 264.467
   1  -1 -15 188.997 316.002
   1  -1 -15 151.127 321.851
  -1   1  14 555.218 250.676
   1  -1 -14 1387.29 409.078
  -1   1  14 771.035 321.153
   1  -1 -14 1191.97 355.730
   1  -1 -13 9324.67 720.901
   1  -1 -13 9895.40 774.930
  -1   1  13 10749.4 713.575
  -1   1  13 10731.7 590.250
   1  -1 -12 1265.78 364.917
   1  -1 -12 1429.95 361.343
  -1   1  12 1326.38 319.033
  -1   1  12 931.833 228.829
   1  -1 -11 6377.03 562.545
  -1   1  11 5997.31 401.024
  -1   1  11 6258.90 520.038
   1  -1 -11 6826.59 612.431
  -1   1  10 5588.75 363.049
  -1   1  10 6063.26 470.841
   1  -1 -10 6965.05 577.402
   1  -1 -10 5852.70 364.205
   1  -1 -10 5819.79 503.001
   1  -1  -9 5217.09 481.060
  -1   1   9 4668.22 422.341
  -1   1   9 4375.97 310.646
   1  -1  -9 3984.11 404.195
   1  -1  -9 5053.77 317.281
   1  -1  -8 428106. 2495.26
  -1   1   8 428475. 2592.24
   1  -1  -8 426803. 3566.45
   1  -1  -8 430905. 3847.05
   1  -1  -7 547058. 4128.64
   1  -1  -7 571355. 3836.98
  -1   1   6 777442. 4816.00
   1  -1  -5 107617. 973.323
   1  -1  -5 104405. 1435.49
  -1   1   5 105788. 1651.68
  -1   1   5 105357. 1067.37
   1  -1  -5 104718. 1611.36
  -1   1   5 104111. 1354.06
  -1   1   5 106838. 1551.32
   1  -1  -5 106220. 1364.10
  -1   1   4 425150. 2766.35
   1  -1  -4 429781. 3030.43
   1  -1  -3 96402.5 1154.07
   1  -1  -3 105289. 887.989
  -1   1   3 101897. 1137.20
  -1   1   3 100221. 1374.47
   1  -1  -3 101965. 858.458
   1  -1  -3 100426. 1377.55
   1  -1  -3 102330. 1128.81
  -1   1   3 104848. 1254.39
   1  -1  -2 238263. 1906.62
  -1   1   2 245536. 1952.02
   1  -1  -1 55351.8 682.209
  -1   1   1 56367.1 698.008
   1  -1  -1 55694.7 813.402
   1  -1  -1 54934.9 845.244
  -1   1   1 55595.6 674.679
  -1   1   1 53078.5 793.903
   1  -1  -1 55532.3 641.462
  -1   1   0 54602.8 705.644
   1  -1   0 53018.4 800.284
   1  -1   0 53833.3 689.075
  -1   1   0 56389.0 663.335
  -1   1   0 53371.2 814.920
   1  -1   0 55060.5 803.242
   1  -1   0 53872.5 641.290
  -1   1   0 55158.1 818.514
  -1   1  -1 21678.7 545.210
   1  -1   1 22185.7 436.127
  -1   1  -1 22154.1 493.606
   1  -1   1 20567.2 483.455
  -1   1  -1 21735.3 515.472
   1  -1   1 19996.0 448.457
   1  -1   1 21816.5 551.695
  -1   1  -1 22542.5 441.911
   1  -1   2 33491.5 579.124
   1  -1   2 33509.9 625.301
   1  -1   2 33136.7 628.892
  -1   1  -2 33950.9 650.642
  -1   1  -2 33898.6 622.432
  -1   1  -2 35707.3 755.683
   1  -1   2 35314.5 756.305
  -1   1  -2 33279.7 571.723
  -1   1  -3 7920.34 329.759
  -1   1  -3 7216.79 336.472
   1  -1   3 7790.49 325.073
  -1   1  -3 7587.12 321.520
  -1   1  -3 8095.53 416.946
   1  -1   3 7202.14 389.988
   1  -1   3 8175.21 327.483
   1  -1   3 7393.47 330.504
   1  -1   4 8061.48 323.948
  -1   1  -4 8907.48 393.922
   1  -1   4 8864.18 473.489
   1  -1   4 8446.92 365.025
  -1   1  -4 7941.37 362.347
  -1   1  -4 9326.35 482.299
   1  -1   4 8570.85 384.691
  -1   1  -4 8699.40 374.440
  -1   1  -5 1449.77 209.142
  -1   1  -5 1057.41 190.486
  -1   1  -5 1537.20 254.947
   1  -1   5 1940.95 282.837
  -1   1  -5 1326.18 187.702
   1  -1   5 1507.84 206.268
   1  -1   5 1653.88 184.250
   1  -1   5 1527.82 217.108
   1  -1   6 732704. 4789.99
   1  -1   6 759888. 4084.79
  -1   1  -7 214831. 2211.35
   1  -1   7 224156. 2066.02
   1  -1   7 214674. 2139.31
  -1   1  -7 221765. 2161.66
  -1   1  -7 226539. 2699.14
   1  -1   7 222151. 2346.02
   1  -1   8 1325.32 234.918
   1  -1   8 1106.20 203.426
  -1   1  -8 1110.85 310.025
   1  -1   8 1386.34 260.798
  -1   1  -8 1099.26 221.887
  -1   1  -9 1842.16 348.786
  -1   1  -9 1615.31 279.359
   1  -1   9 1456.95 257.026
   1  -1   9 1789.65 275.789
  -1   1 -10 761.111 231.976
  -1   1 -10 899.409 286.468
   1  -1  10 775.245 228.802
   1  -1  10 1037.66 253.257
  -1   1 -11 38269.8 1368.60
   1  -1  11 35994.7 1067.25
  -1   1 -11 37303.8 1165.58
   1  -1  11 38293.6 1115.33
   1  -1  12 118324. 1988.25
   1  -1  12 120004. 2050.21
  -1   1 -12 121257. 2186.91
  -1   1 -12 119387. 2475.17
   1  -1  13 7348.71 568.942
  -1   1 -13 7765.55 642.416
  -1   1 -13 7284.81 704.404
   1  -1  13 8060.05 607.354
   1  -1  14 5442.17 520.982
  -1   1 -14 5847.44 587.342
  -1   1 -14 5923.90 681.874
   1  -1  14 6575.58 595.865
   1  -1  15 266.510 241.010
  -1   1 -15-490.315 329.948
   1  -1  15 397.366 304.807
  -1   1 -15 323.572 329.462
  -1   1 -16 497.762 325.927
  -1   1 -16 713.751 352.361
   1  -1  16 888.842 328.310
  -1   1 -17 1146.51 440.092
  -1   1 -17 733.160 354.308
   1  -1  17 245.366 306.285
   1  -1  17 206.416 316.844
  -1   1 -18 233.529 413.106
  -1   1 -18 559.907 413.728
   1  -1  18 698.093 324.313
   1  -1  18 389.581 356.805
  -1   1 -19 628.026 441.413
  -1   1 -19 1438.61 563.498
   1  -1  19 460.544 340.129
   1  -1  19 386.106 427.040
  -1   1 -20 563.318 499.442
   1  -1  20 987.078 456.168
   1  -1  20 386.910 363.191
   1  -1  21 161.401 435.399
   1   0 -21 510.564 553.982
   1   0 -20-334.563 500.680
  -1   0  20-433.617 434.823
   1   0 -19 1037.87 479.681
   1   0 -19 92.5121 424.555
  -1   0  19 1663.53 492.378
   1   0 -18-16.4712 376.391
  -1   0  18 309.416 360.252
   1   0 -18 103.953 375.822
  -1   0  17 132.756 323.449
   1   0 -17-201.694 355.568
   1   0 -17-56.2321 368.889
  -1   0  16 386.256 304.998
   1   0 -16-183.540 338.833
   1   0 -16 157.660 307.656
  -1   0  16 644.896 253.104
   1   0 -15 8827.49 782.216
  -1   0  15 7281.24 512.888
   1   0 -15 8366.14 745.437
  -1   0  15 8657.84 693.619
  -1   0  14 43481.1 1393.56
  -1   0  14 44506.9 1113.27
   1   0 -14 44147.5 1529.94
   1   0 -14 46946.7 1622.12
   1   0 -13 2263.02 418.034
  -1   0  13 1787.22 345.582
  -1   0  13 2769.27 306.750
   1   0 -13 2144.85 396.977
  -1   0  12 21992.1 922.608
   1   0 -12 21463.6 1026.58
  -1   0  12 20849.6 688.850
   1   0 -12 22702.8 1008.61
  -1   0  11 8327.90 564.439
  -1   0  11 8801.14 434.744
   1   0 -11 7540.94 441.253
   1   0 -11 8471.25 649.581
   1   0 -11 9686.70 648.434
   1   0 -10 65219.0 1136.89
   1   0 -10 66934.8 1607.08
  -1   0  10 65016.3 1038.22
  -1   0  10 66930.9 1426.09
   1   0 -10 63389.4 1510.29
   1   0  -9 7719.21 547.522
   1   0  -9 7212.43 366.153
   1   0  -9 7600.47 523.504
  -1   0   9 7855.32 355.076
  -1   0   9 7597.45 491.265
   1   0  -8 42484.2 1151.81
  -1   0   8 42334.2 723.777
  -1   0   8 44704.2 1040.11
  -1   0   8 41413.6 1120.28
   1   0  -8 41620.0 765.009
   1   0  -8 43718.8 1128.29
   1   0  -7 15608.4 647.892
  -1   0   7 15122.4 397.741
   1   0  -7 14347.7 650.613
   1   0  -7 13538.7 403.149
  -1   0   7 16243.0 669.330
  -1   0   7 14541.4 571.185
   1   0  -6 214707. 2134.62
  -1   0   6 215757. 1973.75
   1   0  -6 207923. 1971.67
   1   0  -6 213211. 2252.11
  -1   0   6 209295. 2348.68
  -1   0   5 152038. 1670.75
   1   0  -5 148727. 966.971
   1   0  -5 149686. 1643.76
  -1   0   5 146414. 1523.88
   1   0  -5 145042. 1517.07
  -1   0   5 151668. 1846.68
   1   0  -5 147569. 1706.21
  -1   0   4 34013.2 652.373
  -1   0   4 37534.1 834.503
  -1   0   4 35063.7 338.049
   1   0  -4 32830.5 364.776
   1   0  -4 32958.6 710.958
   1   0  -4 33646.3 664.832
   1   0  -4 35115.4 770.947
  -1   0   4 36498.7 759.685
  -1   0   3 66642.3 979.256
  -1   0   3 65402.8 914.060
  -1   0   3 65082.5 804.234
   1   0  -3 65968.2 904.017
   1   0  -3 65687.8 959.039
   1   0  -3 66784.1 810.886
   1   0  -2 3745.54 181.276
  -1   0   2 3365.66 211.899
   1   0  -2 3008.02 206.243
  -1   0   2 3379.31 220.500
   1   0  -2 3206.75 210.548
  -1   0  -2 12377.8 244.939
  -1   0  -2 12667.8 405.211
   1   0   2 12460.9 235.421
  -1   0  -2 11782.3 354.011
  -1   0  -2 12694.6 431.076
   1   0   2 12802.0 409.620
  -1   0  -2 12660.2 429.625
  -1   0  -4 1084.62 137.582
  -1   0  -4 704.239 150.014
  -1   0  -4 919.807 200.224
  -1   0  -4 1026.78 199.869
   1   0   4 777.397 189.359
   1   0   4 935.791 140.173
   1   0   4 890.684 189.320
   1   0   4 1072.02 178.175
   1   0   5 66648.2 1037.98
   1   0   5 67759.5 1251.03
   1   0   5 66283.1 1251.34
  -1   0  -5 67454.6 1213.90
   1   0   5 65023.5 908.161
  -1   0  -5 68067.4 963.290
  -1   0  -5 66137.5 1074.56
  -1   0  -5 67258.1 1230.68
   1   0   6 107578. 1747.96
   1   0   6 108505. 1408.96
  -1   0  -6 110002. 1468.40
   1   0   6 106202. 1288.51
   1   0   6 107359. 1723.87
  -1   0  -6 110210. 1355.93
  -1   0  -6 109217. 1685.25
  -1   0  -6 111577. 1653.54
   1   0   7 69300.8 1211.53
   1   0   7 73614.2 1163.94
  -1   0  -7 72692.6 1437.76
   1   0   7 69745.0 1530.68
   1   0   7 73406.7 1490.15
  -1   0  -7 76874.3 1536.56
  -1   0  -7 72428.6 1189.87
   1   0   8 5993.05 409.601
  -1   0  -8 5851.97 468.639
   1   0   8 5941.79 382.831
  -1   0  -8 6584.50 505.340
   1   0   9 357.341 182.712
  -1   0  -9 607.321 237.378
   1   0   9 657.527 201.008
  -1   0  -9 464.589 226.264
   1   0  10 10852.4 575.907
  -1   0 -10 11176.7 715.718
   1   0  10 10827.2 580.427
  -1   0 -10 11749.6 697.756
  -1   0 -11 3654.27 476.118
   1   0  11 3388.36 370.557
  -1   0 -11 4664.68 494.276
   1   0  11 3778.81 403.586
  -1   0 -12 126214. 2412.85
  -1   0 -12 123686. 2439.07
   1   0  12 121885. 2058.65
   1   0  12 124926. 2051.17
  -1   0 -13 15089.0 922.908
  -1   0 -13 14482.1 905.529
   1   0  13 15092.3 800.519
   1   0  13 15442.1 781.036
   1   0  14 19243.4 902.832
  -1   0 -14 19681.3 1079.16
   1   0  14 17760.8 918.411
  -1   0 -15-300.193 342.799
   1   0  15 157.241 263.668
  -1   0 -15 64.6170 306.910
   1   0  15 82.5309 279.076
  -1   0 -16 652.364 343.385
  -1   0 -16 544.769 388.562
   1   0  16 623.702 364.053
   1   0  16 494.963 297.051
   1   0  17 489.888 347.142
  -1   0 -17 465.252 438.326
   1   0  17 42.2376 297.883
  -1   0 -17-144.700 357.508
   1   0  18 12.6355 320.715
  -1   0 -18 303.853 418.851
  -1   0 -18 12.1397 384.753
   1   0  18-101.662 357.459
   1   0  19 4048.73 605.127
   1   0  19 5255.53 688.918
  -1   0 -19 3956.53 718.573
  -1   0 -19 3551.78 675.388
   1   0  20 55.0549 435.242
  -1   0 -20 212.287 442.080
  -1   0 -20-56.8695 460.682
  -1   0 -21-294.643 484.081
   1   1 -21 60.5885 458.681
   1   1 -20 330.776 453.838
  -1  -1  20-314.309 401.928
   1   1 -19 348.543 427.326
  -1  -1  19 596.268 428.133
  -1  -1  18 304.554 375.248
   1   1 -18 372.938 329.721
   1   1 -18 622.320 444.779
   1   1 -17 145.867 389.267
   1   1 -17 245.605 327.363
  -1  -1  17-212.395 335.926
   1   1 -16 448.731 364.163
   1   1 -16-139.994 303.863
  -1  -1  16 324.055 357.395
  -1  -1  16-153.589 229.273
  -1  -1  15 1920.80 297.106
   1   1 -15 1889.73 460.386
   1   1 -15 2208.20 418.403
  -1  -1  15 1927.69 413.186
   1   1 -14 17523.0 912.792
   1   1 -14 18858.9 1082.34
  -1  -1  14 16534.5 892.137
  -1  -1  14 17278.0 695.749
  -1  -1  13 5980.37 549.088
  -1  -1  13 6631.60 425.914
   1   1 -13 7265.95 683.667
   1   1 -13 7323.78 582.549
   1   1 -12 307.277 280.616
   1   1 -12 306.557 231.633
  -1  -1  12 962.194 301.166
  -1  -1  12 721.431 208.145
  -1  -1  11 65631.7 1490.10
  -1  -1  11 68616.3 1151.95
   1   1 -11 63249.1 1295.50
   1   1 -11 64398.6 1437.35
  -1  -1  10 3624.79 367.687
   1   1 -10 3795.28 371.308
  -1  -1  10 3523.48 272.010
   1   1 -10 3982.32 459.557
   1   1 -10 4297.40 337.047
  -1  -1  10 3280.85 350.618
   1   1  -9 231324. 2889.41
  -1  -1   9 221859. 1868.00
  -1  -1   9 219458. 2442.42
   1   1  -9 222657. 2382.88
  -1  -1   9 219824. 2348.26
   1   1  -9 227523. 2080.40
  -1  -1   8 8073.66 351.623
   1   1  -8 7844.13 438.346
  -1  -1   8 7728.44 431.284
   1   1  -8 7882.78 381.235
  -1  -1   8 8449.22 489.436
   1   1  -8 8140.85 565.293
  -1  -1   6-64.6553 127.053
   1   1  -6 6.25373 185.930
   1   1  -6-57.7227 97.7173
   1   1  -6 119.695 140.452
  -1  -1   6 8.32995 147.572
  -1  -1   6 174.714 111.530
  -1  -1   6-65.5878 165.519
   1   1  -6-36.3160 143.767
   1   1  -5 163513. 1888.03
   1   1  -5 157102. 1352.44
   1   1  -5 162549. 1336.06
  -1  -1   5 160582. 1904.75
  -1  -1   5 161160. 1393.80
  -1  -1   5 164558. 1288.21
  -1  -1   5 154644. 1621.40
  -1  -1   4 64421.9 1124.61
   1   1  -4 67908.0 816.540
   1   1  -4 58821.7 1050.34
   1   1  -4 65478.8 800.569
  -1  -1   4 65742.3 795.739
  -1  -1   4 67891.4 783.330
  -1  -1   4 64961.2 956.224
  -1  -1   4 74658.5 1220.12
  -1  -1   3 80605.3 1090.20
   1   1  -3 81235.7 837.035
  -1  -1   3 80854.4 850.544
  -1  -1   3 79364.9 1097.90
   1   1  -3 78398.6 1058.02
   1   1  -3 79703.3 835.623
  -1  -1   3 80252.8 840.980
  -1  -1   2 73961.6 911.762
  -1  -1   2 75195.7 809.025
   1   1  -2 72661.4 883.631
   1   1  -2 75466.3 933.697
   1   1  -2 71407.1 767.643
  -1  -1   2 73324.1 906.426
  -1  -1   2 74337.3 817.829
  -1  -1   2 76186.9 980.781
   1   1   2 27196.8 476.764
   1   1   2 25871.1 700.480
  -1  -1  -2 26821.6 596.547
   1   1   2 27304.1 522.703
   1   1   2 27606.8 620.298
  -1  -1  -2 27512.6 505.743
  -1  -1  -2 26953.9 478.210
  -1  -1  -2 26688.4 701.331
   1   1   3 145232. 1310.87
  -1  -1  -3 144781. 1460.70
  -1  -1  -3 150137. 1272.03
   1   1   3 144911. 1304.74
  -1  -1  -3 147947. 1298.82
  -1  -1  -3 149360. 1756.48
   1   1   3 150537. 1523.73
   1   1   3 145548. 1765.35
  -1  -1  -4 116611. 1318.53
  -1  -1  -4 117293. 1252.08
  -1  -1  -4 114400. 1400.76
   1   1   4 115543. 1262.36
   1   1   4 114005. 1335.25
  -1  -1  -4 116283. 1664.01
   1   1   4 117215. 1701.26
   1   1   4 114673. 1407.21
   1   1   5 2876.07 347.229
  -1  -1  -5 2975.89 276.175
  -1  -1  -5 2239.58 251.497
   1   1   5 2948.25 285.073
  -1  -1  -5 2840.30 239.840
   1   1   5 3624.36 306.577
   1   1   5 2895.40 257.424
  -1  -1  -5 2863.44 333.345
   1   1   6 1130.37 223.557
  -1  -1  -6 707.962 198.878
   1   1   6 935.256 220.565
  -1  -1  -6 783.708 263.062
  -1  -1  -6 1153.19 192.627
   1   1   6 1206.57 219.645
  -1  -1  -7 1379.03 251.665
   1   1   7 1710.09 259.605
  -1  -1  -7 1395.76 288.340
   1   1   7 1235.07 248.381
   1   1   7 1516.61 238.091
   1   1   8 70229.8 1303.03
   1   1   8 70330.7 1360.22
  -1  -1  -8 70670.5 1637.03
  -1  -1  -8 66485.8 1413.26
  -1  -1  -9 5264.63 516.030
   1   1   9 4846.69 401.148
  -1  -1  -9 5505.96 468.336
   1   1   9 5033.41 416.559
   1   1  10 137217. 2038.31
  -1  -1 -10 140082. 2496.86
  -1  -1 -10 136224. 2206.79
   1   1  10 140036. 2100.59
   1   1  11 181361. 2501.65
  -1  -1 -11 189715. 3041.05
   1   1  11 183154. 2490.35
  -1  -1 -11 190382. 2745.61
  -1  -1 -12 144386. 2775.47
  -1  -1 -12 144518. 2545.92
   1   1  12 139279. 2292.90
   1   1  12 139256. 2283.34
  -1  -1 -13 24480.9 1224.15
  -1  -1 -13 22624.0 1101.10
   1   1  13 20768.0 958.136
   1   1  13 22299.4 979.450
  -1  -1 -14-472.303 333.941
   1   1  14-148.559 262.586
  -1  -1 -14-167.467 311.601
   1   1  14-34.3626 269.738
   1   1  15 994.267 352.980
  -1  -1 -15 695.322 344.383
  -1  -1 -15 1611.91 465.291
   1   1  15 875.821 343.820
  -1  -1 -16 833.695 449.761
   1   1  16 903.162 367.611
   1   1  16 576.989 326.535
  -1  -1 -16 1084.89 422.817
  -1  -1 -17 838.851 420.003
   1   1  17 1133.55 398.302
   1   1  17 987.465 397.481
  -1  -1 -17 1068.37 490.789
   1   1  18 277.948 369.325
  -1  -1 -18 810.615 461.812
  -1  -1 -18 17.8386 416.921
  -1  -1 -19 171.748 442.505
   1   1  19 218.905 385.994
  -1  -1 -19-83.9171 424.343
   1   1  19-64.2620 389.599
  -1  -1 -20-204.126 410.274
   1   1  20 413.922 466.303
  -1  -1 -20-280.262 467.184
  -1  -2  20 1025.53 454.658
   1   2 -20 351.603 504.215
   1   2 -19-181.017 442.261
  -1  -2  19-448.837 398.000
   1   2 -18 1474.57 499.361
  -1  -2  18 1573.04 431.248
  -1  -2  17 214.454 243.976
   1   2 -17 28.1028 388.446
  -1  -2  17 329.047 310.686
   1   2 -16 20700.2 958.463
  -1  -2  16 19630.7 1050.75
  -1  -2  16 20310.6 849.641
   1   2 -15 3271.43 585.299
  -1  -2  15 2731.27 421.710
   1   2 -15 2919.84 386.296
  -1  -2  15 3834.06 393.298
  -1  -2  14 39965.7 1072.34
   1   2 -14 40480.2 1584.14
   1   2 -14 42083.0 1222.78
  -1  -2  14 39631.4 1351.36
   1   2 -13 220.639 290.588
   1   2 -13 1068.00 257.152
  -1  -2  13 950.720 230.143
  -1  -2  13 661.358 298.542
   1   2 -12 65967.1 1861.06
   1   2 -12 73256.5 1403.80
  -1  -2  12 62126.0 1295.53
  -1  -2  12 69532.9 1637.72
  -1  -2  12 70284.3 1341.32
   1   2 -11 26572.5 789.032
   1   2 -11 25444.0 1130.13
  -1  -2  11 24526.7 760.981
  -1  -2  11 24547.0 941.526
  -1  -2  11 25966.3 817.941
   1   2 -10 6469.64 573.895
  -1  -2  10 6769.81 386.307
   1   2 -10 6114.55 360.875
  -1  -2  10 6460.05 415.404
  -1  -2  10 5921.23 463.507
   1   2 -10 6217.45 428.599
  -1  -2   9 412.046 143.757
   1   2  -9 409.296 248.286
   1   2  -9 342.536 167.819
  -1  -2   9 253.962 170.007
   1   2  -9 287.574 128.968
  -1  -2   9 356.232 185.473
  -1  -2   8 26815.4 858.354
   1   2  -8 28717.0 1031.39
  -1  -2   8 27572.9 594.353
  -1  -2   8 28124.7 773.402
   1   2  -8 27572.7 592.926
   1   2  -8 29096.8 825.845
  -1  -2   7 265.669 145.334
   1   2  -7 109.912 126.774
   1   2  -7 79.1734 82.0030
  -1  -2   7-1.43927 92.4880
   1   2  -7-69.3742 223.160
  -1  -2   7 326.897 203.457
   1   2  -6 315145. 2941.57
  -1  -2   6 312852. 2678.33
  -1  -2   6 319452. 1570.23
   1   2  -6 321619. 2491.76
  -1  -2   6 319420. 3144.63
   1   2  -5 43824.7 879.845
   1   2  -5 40777.1 997.279
  -1  -2   5 41249.7 847.683
  -1  -2   5 36953.0 498.320
   1   2  -5 44915.3 1082.64
   1   2  -5 37791.1 482.502
  -1  -2   5 42212.5 1078.74
  -1  -2   5 40238.9 1021.78
   1   2  -4 73017.4 1264.52
  -1  -2   4 73939.0 745.974
   1   2  -4 78829.7 1154.29
  -1  -2   4 75880.1 1267.78
  -1  -2   4 76361.2 1140.45
   1   2  -4 77282.0 1243.55
  -1  -2   4 79308.1 1393.50
  -1  -2   4 74971.5 737.153
   1   2  -3 90199.3 1200.32
  -1  -2   3 88833.0 900.173
  -1  -2   3 88419.2 885.688
  -1  -2   3 91229.4 1234.67
  -1  -2   3 88998.5 1388.64
  -1  -2   3 86899.5 1221.64
  -1  -2   1 75253.1 1180.07
  -1  -2   1 75514.8 1195.92
   1   2  -1 77844.3 1233.71
  -1  -2   1 73895.7 1017.61
   1   2  -1 73543.5 745.825
   1   2  -1 74902.1 1068.68
  -1  -2   1 74802.3 803.108
  -1  -2   0 50527.0 977.153
   1   2   0 47980.0 938.454
  -1  -2   0 51385.8 947.805
  -1  -2   0 48630.0 916.371
   1   2   0 48890.1 954.053
   1   2   1 3490.67 305.798
   1   2   1 3834.66 294.713
  -1  -2  -1 3260.61 288.933
   1   2   1 3611.47 303.571
  -1  -2  -1 3438.46 279.736
  -1  -2  -1 3604.21 269.084
  -1  -2  -2 497101. 3116.26
  -1  -2  -2 494331. 3406.78
   1   2   2 498939. 3481.97
  -1  -2  -3 131184. 1516.41
   1   2   3 128450. 1594.10
   1   2   3 135228. 1939.96
   1   2   3 129779. 1016.32
  -1  -2  -3 131720. 1655.25
  -1  -2  -3 128378. 1864.30
   1   2   3 135767. 1769.26
  -1  -2  -3 124215. 932.988
  -1  -2  -4 260878. 1668.80
   1   2   4 260176. 2337.79
   1   2   4 265434. 1821.23
  -1  -2  -4 264668. 2765.59
  -1  -2  -4 259348. 2236.98
  -1  -2  -5 2684.98 231.121
  -1  -2  -5 2742.34 278.516
   1   2   5 2281.51 237.770
   1   2   5 3063.60 338.360
   1   2   5 2453.38 273.122
  -1  -2  -5 2793.64 377.887
  -1  -2  -6 159643. 1736.25
   1   2   6 159631. 1994.36
  -1  -2  -6 154733. 2379.44
   1   2   6 156500. 2100.52
   1   2   6 161938. 1885.06
   1   2   7 4380.19 404.619
   1   2   7 5560.92 421.226
  -1  -2  -7 5193.00 368.798
  -1  -2  -7 5385.33 515.451
   1   2   7 5154.97 408.963
  -1  -2  -8 5500.35 412.707
   1   2   8 6147.36 494.876
   1   2   8 5466.02 462.437
  -1  -2  -8 6357.69 568.215
   1   2   8 5448.47 432.650
  -1  -2  -9 7853.53 514.301
  -1  -2  -9 6538.19 605.537
   1   2   9 7401.56 526.356
   1   2   9 6362.17 512.625
  -1  -2 -10 30618.4 1288.09
  -1  -2 -10 32658.6 1065.75
   1   2  10 32307.3 1136.97
  -1  -2 -11 65561.5 1593.29
  -1  -2 -11 61834.1 1881.44
   1   2  11 61897.4 1611.98
   1   2  11 62961.5 1582.38
  -1  -2 -12 40175.4 1599.73
   1   2  12 39529.5 1347.16
   1   2  12 39829.5 1325.99
  -1  -2 -12 41654.3 1365.25
  -1  -2 -13 4017.05 491.361
   1   2  13 4781.09 530.078
   1   2  13 4077.33 495.395
  -1  -2 -13 4249.09 623.963
  -1  -2 -14 1115.93 360.064
   1   2  14 564.873 349.324
   1   2  14 382.148 294.095
  -1  -2 -15 490.221 358.205
   1   2  15 735.839 363.698
   1   2  15-279.706 323.576
  -1  -2 -15 423.859 370.769
  -1  -2 -16 106.868 306.133
   1   2  16 289.140 330.262
   1   2  16-323.948 341.220
  -1  -2 -16-122.061 395.175
   1   2  17-204.122 358.662
  -1  -2 -17-238.324 354.465
  -1  -2 -17-20.6806 420.586
   1   2  17 27.8259 363.538
  -1  -2 -18-227.890 454.880
   1   2  18-326.963 429.553
   1   2  18-3.73605 415.684
  -1  -2 -19 1443.43 630.379
   1   2  19 1094.62 500.575
  -1  -3  20 1078.36 502.844
   1   3 -20 654.181 551.804
  -1  -3  19 1168.55 421.072
   1   3 -19 294.120 455.450
   1   3 -18 1233.02 514.075
  -1  -3  18 976.095 418.183
  -1  -3  17 666.610 267.012
   1   3 -17 1771.92 525.454
  -1  -3  17 1848.17 426.094
   1   3 -16 1851.50 490.932
  -1  -3  16 1470.80 405.597
  -1  -3  16 1463.36 323.227
   1   3 -15 2888.23 543.289
  -1  -3  15 3697.03 508.692
  -1  -3  15 3108.57 406.026
  -1  -3  14 2472.47 414.112
   1   3 -14 2505.05 506.366
   1   3 -14 2962.98 280.992
  -1  -3  14 2373.39 359.715
  -1  -3  13 1226.65 305.371
   1   3 -13 1451.84 389.791
  -1  -3  13 1156.53 296.067
   1   3 -13 714.718 158.628
  -1  -3  12 2057.13 199.924
   1   3 -12 2623.56 482.151
   1   3 -12 2443.30 201.988
  -1  -3  12 2944.01 368.039
  -1  -3  11 4193.08 222.364
  -1  -3  11 5340.49 503.873
  -1  -3  11 5374.69 437.260
   1   3 -11 4082.10 217.081
   1   3 -10 33726.4 1253.92
  -1  -3  10 35171.3 1151.63
  -1  -3  10 34317.5 1004.37
   1   3  -9 17041.4 859.517
  -1  -3   9 17244.8 787.611
  -1  -3   9 18555.1 742.296
  -1  -3   8 2350.51 333.991
   1   3  -8 2821.05 386.798
  -1  -3   8 2484.16 322.511
   1   3  -7 85976.1 1786.95
   1   3  -7 81369.5 1637.95
   1   3  -6 207490. 2594.09
   1   3  -6 202219. 2411.23
  -1  -3   6 204782. 2284.45
  -1  -3   5 7556.51 479.966
   1   3  -5 7047.75 452.920
  -1  -3   5 6797.91 200.474
  -1  -3   5 5993.74 201.794
  -1  -3   5 7211.61 483.308
   1   3  -5 7798.35 469.899
   1   3  -5 7227.24 506.785
   1   3  -4 11820.0 514.541
   1   3  -4 11109.2 615.249
  -1  -3   4 11011.4 553.639
   1   3  -4 10538.5 529.047
  -1  -3   4 11090.8 328.683
  -1  -3   4 11338.1 349.911
  -1  -3   4 11451.3 548.787
   1   3  -3 88622.8 1139.57
   1   3  -3 90103.1 1606.75
  -1  -3   3 87840.1 1478.14
   1   3  -3 88062.1 1228.51
  -1  -3   3 86682.8 1045.62
  -1  -3   3 86464.9 1295.96
  -1  -3   2 11551.3 423.931
   1   3  -2 11443.1 462.809
  -1  -3   2 10947.5 428.897
  -1  -3   2 11239.2 540.629
  -1  -3   2 10501.0 570.124
   1   3  -2 11244.5 582.941
   1   3  -2 12843.2 427.822
   1   3  -1 11041.4 311.407
  -1  -3   1 10451.2 323.260
  -1  -3   1 10644.0 535.271
  -1  -3   1 11232.7 565.173
  -1  -3   1 10142.8 460.130
   1   3  -1 10291.8 556.638
   1   3  -1 11784.4 515.189
  -1  -3   0 63453.1 1191.51
   1   3   0 64702.9 1355.17
  -1  -3   0 60282.0 1249.53
   1   3   0 61979.4 1467.52
   1   3   0 63033.7 1245.24
   1   3   1 25326.1 851.161
  -1  -3  -1 26880.1 838.120
   1   3   1 25869.7 851.224
  -1  -3  -1 26347.1 831.579
  -1  -3  -2 104379. 1742.99
   1   3   2 105767. 1710.02
   1   3   3 4805.43 458.537
   1   3   3 5278.60 425.613
  -1  -3  -3 6049.55 485.596
   1   3   4 218876. 2516.50
   1   3   4 203838. 1306.47
  -1  -3  -4 225795. 2822.49
   1   3   4 224584. 2734.90
  -1  -3  -5 74394.8 880.784
  -1  -3  -5 75737.9 1734.68
   1   3   5 77504.0 1561.42
   1   3   5 79803.0 1689.56
   1   3   5 76707.5 1025.41
  -1  -3  -6 17552.0 901.710
  -1  -3  -6 17561.6 520.129
   1   3   6 17081.7 782.460
   1   3   6 17630.1 593.100
   1   3   6 17596.7 831.216
  -1  -3  -7 31455.0 771.987
   1   3   7 28871.7 1090.86
   1   3   7 30959.2 1070.14
   1   3   7 28562.4 855.466
  -1  -3  -7 31530.0 1237.67
   1   3   8 1576.33 357.276
  -1  -3  -8 1759.89 249.183
   1   3   8 1801.29 288.803
   1   3   8 1972.41 336.995
  -1  -3  -8 2802.84 468.201
  -1  -3  -9 32225.9 924.102
  -1  -3  -9 31004.3 1332.79
   1   3   9 28805.1 1098.72
   1   3   9 29097.6 1163.31
   1   3  10 617.059 333.492
  -1  -3 -10 147.905 235.392
  -1  -3 -10 1298.96 457.297
   1   3  10 616.886 315.293
  -1  -3 -11 79224.1 1650.80
   1   3  11 73787.3 1858.21
  -1  -3 -11 81134.3 2323.14
   1   3  11 72915.0 1930.99
  -1  -3 -12 2799.03 406.561
   1   3  12 3300.33 482.560
  -1  -3 -12 2918.54 561.036
   1   3  12 2674.04 467.326
   1   3  13 372.856 336.071
   1   3  13 519.904 301.319
  -1  -3 -13 599.507 285.447
  -1  -3 -13 341.928 412.872
   1   3  14-147.261 336.394
  -1  -3 -14-82.2429 386.787
  -1  -3 -14-17.4100 269.185
   1   3  14 560.093 388.158
   1   3  15 467.521 408.703
   1   3  15 576.904 384.711
  -1  -3 -15 125.787 400.398
   1   3  16-135.717 373.454
  -1  -3 -16-395.828 447.072
   1   3  16 478.132 382.441
   1   3  17-423.596 449.915
  -1  -3 -17 962.986 571.117
   1   3  17-111.292 426.026
   1   3  18 238.199 413.332
   1   3  18-224.984 454.284
  -1  -3 -18 49.4565 466.399
   1   4 -20 288.339 532.235
  -1  -4  20 652.288 462.361
   1   4 -19-303.753 483.307
  -1  -4  19 272.615 370.410
   1   4 -18 689.754 488.449
  -1  -4  18 286.470 368.019
   1   4 -17 1538.76 519.467
  -1  -4  17 470.545 394.057
  -1  -4  17 677.544 313.578
  -1  -4  16 2141.81 449.424
   1   4 -16 3508.97 611.047
  -1  -4  16 2878.84 444.918
   1   4 -15 27160.9 1434.40
  -1  -4  15 26668.2 1237.42
  -1  -4  15 27104.5 1107.89
  -1  -4  14 1183.55 331.953
   1   4 -14 1196.40 443.412
  -1  -4  14 1569.49 387.406
  -1  -4  13 2861.98 450.714
  -1  -4  13 3506.77 457.865
   1   4 -13 2440.31 521.568
   1   4 -12 4342.93 564.688
  -1  -4  12 4541.17 479.011
  -1  -4  12 4683.33 516.079
  -1  -4  11 1601.58 307.843
  -1  -4  11 647.399 293.561
   1   4 -11 700.370 319.264
   1   4 -10 9880.79 720.638
  -1  -4  10 8766.35 606.157
  -1  -4  10 9679.64 678.083
   1   4  -9-221.231 260.251
  -1  -4   9 185.418 209.250
   1   4  -8 8601.66 626.237
   1   4  -8 9239.13 689.957
  -1  -4   8 8474.56 581.924
   1   4  -7 16022.8 830.946
  -1  -4   7 16098.4 760.778
   1   4  -7 16662.0 794.663
  -1  -4   6 4112.46 419.748
   1   4  -6 3185.45 428.269
   1   4  -5 32975.8 956.405
  -1  -4   5 31866.1 576.064
  -1  -4   5 33442.6 1076.62
  -1  -4   5 30567.5 581.943
   1   4  -5 33484.9 1174.99
  -1  -4   5 32746.0 1036.24
   1   4  -4 14218.4 589.808
  -1  -4   4 14391.1 727.019
  -1  -4   4 14900.8 486.258
   1   4  -4 14232.0 778.578
  -1  -4   4 14716.7 645.022
   1   4  -3 164945. 1742.40
  -1  -4   3 167956. 2372.66
  -1  -4   3 162071. 1732.19
   1   4  -3 164003. 2498.67
  -1  -4   3 164497. 1851.88
  -1  -4   2-38.2584 124.681
   1   4  -2 51.0623 230.735
   1   4  -2 380.610 144.449
   1   4  -2 347.309 173.760
  -1  -4   2 43.7143 148.729
  -1  -4   2-221.525 209.190
   1   4  -1 99563.0 1907.00
   1   4  -1 94728.0 943.697
  -1  -4   1 102570. 1823.46
  -1  -4   1 98960.6 1589.75
   1   4  -1 98432.6 1674.76
  -1  -4   1 91657.2 947.664
   1   4   0 38822.1 1213.94
  -1  -4   0 38934.7 1153.61
  -1  -4   0 36007.7 1029.23
   1   4   1 1624.91 321.132
  -1  -4  -1 1749.54 300.906
   1   4   2 150743. 2368.69
  -1  -4  -2 156012. 2353.63
  -1  -4  -3 55097.9 1479.43
   1   4   3 52436.5 1425.89
   1   4   4 30155.0 1245.78
   1   4   4 27361.9 1053.96
  -1  -4  -4 28011.2 1119.40
  -1  -4  -5 12225.3 795.635
   1   4   5 11212.7 715.338
   1   4   5 10507.0 765.043
   1   4   6 668.341 272.378
   1   4   6 328.320 108.038
   1   4   6 555.995 339.358
   1   4   6 445.839 103.492
  -1  -4  -6 567.592 297.903
  -1  -4  -7 717.335 334.065
   1   4   7 396.649 151.294
   1   4   7 671.075 326.002
   1   4   7 952.123 303.694
  -1  -4  -8 344.420 326.286
  -1  -4  -8 684.057 193.389
   1   4   8 215.242 301.388
   1   4   8 752.571 307.590
   1   4   9 3249.26 522.868
  -1  -4  -9 2704.97 290.714
   1   4   9 2232.70 447.099
  -1  -4  -9 2076.49 501.044
   1   4  10 8832.18 761.027
   1   4  10 9943.62 820.339
  -1  -4 -10 8296.91 831.821
  -1  -4 -11 4017.71 649.422
   1   4  11 3102.70 537.023
   1   4  11 3637.93 554.821
   1   4  12 1200.67 414.196
   1   4  12-265.279 381.065
  -1  -4 -12 852.221 433.879
   1   4  13 2059.21 510.787
  -1  -4 -13 1469.42 504.305
   1   4  13 1395.29 450.908
  -1  -4 -14 639.738 470.764
   1   4  14 498.983 450.759
   1   4  14-87.9901 370.801
  -1  -4 -15 1006.92 567.128
   1   4  15 422.361 430.943
   1   4  15 363.812 370.650
  -1  -4 -16 648.273 549.078
   1   4  16 805.231 495.675
   1   4  16 336.646 414.995
   1   4  17 75.6636 466.390
   1   4  17 63.8471 417.114
   1   5 -19-386.978 560.658
  -1  -5  19 484.204 423.934
   1   5 -18-186.652 474.691
  -1  -5  18 356.961 367.603
  -1  -5  17-2.74062 300.799
  -1  -5  17-104.149 327.891
  -1  -5  16-245.718 353.236
   1   5 -16 144.328 407.127
  -1  -5  16 553.846 309.633
   1   5 -15 3005.17 617.427
  -1  -5  15 1693.75 368.544
  -1  -5  15 2308.26 483.631
  -1  -5  14 15.8635 291.881
   1   5 -14 151.824 416.573
  -1  -5  14 861.964 385.332
   1   5 -13 20660.0 1216.99
  -1  -5  13 18751.7 1048.09
  -1  -5  13 18580.0 976.721
   1   5 -12 2297.83 492.522
  -1  -5  12 1877.93 430.199
  -1  -5  12 2977.89 467.765
   1   5 -11 2426.04 475.856
  -1  -5  11 2259.90 423.734
  -1  -5  11 2620.76 433.754
   1   5 -10-20.4605 309.616
  -1  -5  10 11.7834 234.584
   1   5 -10-169.317 287.920
   1   5  -9 882.947 306.902
   1   5  -9 1042.00 372.674
  -1  -5   9 1014.25 321.258
   1   5  -8 3019.11 477.641
   1   5  -8 2262.88 399.324
  -1  -5   8 2187.75 386.481
   1   5  -7 338.578 246.247
  -1  -5   7-209.860 269.016
   1   5  -7-194.044 289.892
  -1  -5   6 25481.4 499.107
  -1  -5   6 32230.2 1204.61
   1   5  -6 31342.6 1041.31
  -1  -5   6 26405.7 528.402
   1   5  -6 33439.2 1315.66
   1   5  -5 29025.1 937.636
  -1  -5   5 27451.5 704.499
  -1  -5   5 27725.4 1109.45
  -1  -5   5 27967.4 684.734
   1   5  -5 28139.1 1191.12
   1   5  -4 47406.3 1085.50
   1   5  -4 47325.7 1071.17
  -1  -5   4 47665.7 1443.06
  -1  -5   4 45666.1 1148.95
   1   5  -4 48232.1 1531.75
  -1  -5   4 47038.8 985.637
  -1  -5   3 5597.26 547.703
   1   5  -3 5862.62 366.509
   1   5  -3 5259.25 413.243
  -1  -5   3 5805.30 408.921
   1   5  -3 5485.14 561.968
  -1  -5   3 5672.17 387.926
   1   5  -2 41936.8 803.173
  -1  -5   2 39096.1 1061.24
  -1  -5   2 40576.7 1319.12
  -1  -5   2 37968.1 785.589
   1   5  -2 42358.1 1426.56
  -1  -5   1 647.778 274.078
   1   5  -1 225.577 80.9213
  -1  -5   1 741.740 261.609
  -1  -5   1 121.734 75.6769
   1   5  -1 767.583 298.924
   1   5   0 32271.4 1258.73
  -1  -5   0 35385.0 1147.43
  -1  -5   0 33819.9 1207.07
  -1  -5  -1 12583.9 768.028
  -1  -5  -1 11784.9 731.023
   1   5   1 11216.1 775.564
  -1  -5  -2 18083.8 908.420
  -1  -5  -2 20898.9 982.248
   1   5   2 19454.6 1009.95
  -1  -5  -3 15790.7 856.322
   1   5   3 14533.7 881.277
  -1  -5  -3 17262.0 935.293
   1   5   4 2213.17 439.963
   1   5   4 1792.96 466.305
  -1  -5  -4 1832.41 409.963
   1   5   5 311.308 292.262
   1   5   5-56.8165 357.367
  -1  -5  -5 736.779 359.581
   1   5   6 4496.46 656.454
   1   5   6 3167.93 502.755
  -1  -5  -6 4238.82 601.175
   1   5   7 665.745 352.890
   1   5   7 463.322 396.085
  -1  -5  -7 897.159 403.442
  -1  -5  -8-58.6808 329.843
   1   5   8-234.605 327.488
   1   5   8 404.975 404.133
   1   5   9 2401.14 487.176
   1   5   9 2254.09 572.390
  -1  -5  -9 2514.74 558.465
   1   5  10 181.556 345.149
   1   5  10 903.729 481.998
  -1  -5 -10 381.496 383.630
   1   5  11 2604.90 533.052
  -1  -5 -11 2736.70 635.666
   1   5  11 3494.54 697.037
   1   5  12 395.625 470.236
   1   5  12 879.208 418.548
  -1  -5 -12 779.712 503.563
  -1  -5 -13 1363.31 551.677
   1   5  13 657.262 520.815
   1   5  13-143.234 432.031
  -1  -5 -14-618.239 548.560
   1   5  14 608.841 523.508
   1   5  14-280.563 415.104
   1   5  15-430.016 549.761
   1   5  15 703.841 493.907
   1   5  16 96.9249 627.194
   1   6 -18 759.023 534.387
  -1  -6  18 125.158 423.787
   1   6 -17 612.238 490.122
  -1  -6  17 87.2574 400.752
  -1  -6  17-20.3894 320.107
   1   6 -16 488.453 437.517
  -1  -6  16 103.479 367.968
  -1  -6  16 534.546 378.231
  -1  -6  15 2093.01 535.872
   1   6 -15 1975.34 575.598
  -1  -6  15 647.956 376.522
   1   6 -14-405.156 430.025
  -1  -6  14 275.796 398.152
  -1  -6  14-59.9967 335.635
   1   6 -13 15927.7 1121.23
  -1  -6  13 14453.0 1014.79
  -1  -6  13 14090.5 931.856
   1   6 -12 333.188 389.385
  -1  -6  12-255.397 341.624
  -1  -6  12 368.746 345.651
   1   6 -11 1865.64 460.721
  -1  -6  11 2878.92 480.216
   1   6 -11 2161.37 521.059
  -1  -6  10 718.966 329.037
   1   6 -10 934.864 353.032
   1   6 -10 199.092 335.284
  -1  -6   9 1242.06 377.389
   1   6  -9 1883.14 428.467
   1   6  -9 2077.45 439.344
   1   6  -8 5186.80 544.518
  -1  -6   8 3685.02 557.752
  -1  -6   7 9085.39 748.229
   1   6  -7 10026.0 823.952
   1   6  -6 23611.7 940.954
  -1  -6   6 24630.0 1184.36
   1   6  -6 23907.6 1224.39
   1   6  -5 11481.9 631.656
  -1  -6   5 11774.0 536.680
  -1  -6   5 11766.1 828.432
   1   6  -5 11017.2 853.683
  -1  -6   4 33691.1 970.326
  -1  -6   4 34461.6 1378.92
   1   6  -4 36594.1 1004.18
   1   6  -4 32150.3 1380.31
   1   6  -3 11259.2 501.791
  -1  -6   3 11845.9 849.922
   1   6  -3 10024.7 813.675
  -1  -6   3 10551.5 595.445
   1   6  -2 1516.12 175.706
   1   6  -2 1612.72 428.402
  -1  -6   2 1321.26 277.702
  -1  -6   2 1932.76 442.250
  -1  -6   1 1366.14 323.998
  -1  -6   1 836.840 350.156
   1   6  -1 1559.50 390.233
   1   6   0 1921.05 444.388
  -1  -6   0 1941.87 374.121
  -1  -6   0 1892.54 414.265
  -1  -6  -1 20889.4 1012.64
   1   6   1 21844.2 1188.58
  -1  -6  -1 19748.7 1042.50
  -1  -6  -2 2850.91 461.332
  -1  -6  -2 3846.05 518.501
   1   6   2 2989.86 504.064
   1   6   3-96.1637 347.253
  -1  -6  -3-386.107 333.124
  -1  -6  -3-154.553 279.372
   1   6   4 2074.66 472.884
  -1  -6  -4 2233.60 450.769
  -1  -6  -4 3265.63 532.516
   1   6   5 4721.04 628.516
  -1  -6  -5 3657.96 528.439
  -1  -6  -5 3949.43 584.094
   1   6   6 509.984 336.354
  -1  -6  -6 916.275 415.775
  -1  -6  -6 845.634 383.680
   1   6   7-327.160 372.685
  -1  -6  -7 882.251 442.246
   1   6   8-153.412 386.044
  -1  -6  -8 664.319 421.235
   1   6   9 119.204 482.827
   1   6   9 1661.90 503.522
  -1  -6  -9 677.822 481.405
   1   6  10 842.456 477.043
  -1  -6 -10 681.591 432.414
   1   6  10 116.149 502.298
   1   6  11-75.4269 445.288
   1   6  11-239.824 499.883
  -1  -6 -11 71.3766 405.472
   1   6  12 575.859 568.354
   1   6  12 1497.20 557.361
  -1  -6 -12-6.16490 469.568
   1   6  13 1830.90 601.972
   1   6  13 538.889 603.279
   1   6  14-560.151 608.226
   1   7 -17 796.238 554.544
  -1  -7  17-503.393 411.375
   1   7 -16-136.589 435.154
  -1  -7  16 165.493 381.964
  -1  -7  16 374.252 431.352
  -1  -7  15 792.984 422.193
   1   7 -15 964.529 532.249
  -1  -7  15 2242.48 583.043
   1   7 -14 412.073 490.115
  -1  -7  14 386.674 473.549
  -1  -7  14 1221.96 464.919
  -1  -7  13 38943.9 1725.68
   1   7 -13 37350.6 1747.41
  -1  -7  13 33603.3 1554.10
  -1  -7  12 1573.14 479.745
   1   7 -12 898.141 480.961
   1   7 -12 454.415 520.458
   1   7 -11 10165.7 893.408
   1   7 -11 11652.6 1062.97
  -1  -7  11 10134.0 880.241
  -1  -7  10 1834.90 480.471
   1   7 -10 1121.16 476.361
   1   7 -10 1181.59 397.672
  -1  -7   9 47.8765 318.075
   1   7  -9 629.546 368.725
   1   7  -9 834.609 428.411
   1   7  -8 938.638 366.298
   1   7  -8 258.208 361.364
  -1  -7   8 490.194 321.148
   1   7  -7 1406.49 333.400
   1   7  -7 1570.97 481.582
  -1  -7   7 1273.65 441.434
   1   7  -6 11509.0 699.601
  -1  -7   6 9931.00 892.457
   1   7  -6 11024.2 932.149
   1   7  -5 239.412 352.969
  -1  -7   5 452.446 380.493
  -1  -7   4 6320.15 695.769
  -1  -7   4 7486.43 540.554
   1   7  -4 6916.59 771.158
   1   7  -3 503.522 362.066
  -1  -7   3 52.1158 339.023
  -1  -7   3 402.322 239.443
   1   7  -2-202.867 337.154
  -1  -7   2 187.277 271.709
  -1  -7   2-7.89948 336.070
   1   7  -1 830.485 431.116
  -1  -7   1 278.957 289.757
  -1  -7   1 571.902 369.570
   1   7   0-458.557 344.343
  -1  -7   0 311.501 281.207
  -1  -7   0-86.2629 329.296
  -1  -7  -1 867.630 342.039
   1   7   1 1537.07 479.228
  -1  -7  -1 1067.11 418.248
   1   7   2 697.935 424.284
  -1  -7  -2 585.401 334.942
  -1  -7  -2 707.413 379.008
   1   7   3 106.106 360.520
  -1  -7  -3-176.197 341.284
  -1  -7  -3 52.2137 316.589
   1   7   4 338.515 377.114
  -1  -7  -4 359.946 328.064
  -1  -7  -4-35.3341 314.113
   1   7   5 585.751 415.543
  -1  -7  -5-437.872 413.452
  -1  -7  -5 104.128 332.454
  -1  -7  -6 733.676 383.153
   1   7   6 596.457 452.956
  -1  -7  -6 258.335 352.666
   1   7   7 1845.45 580.141
  -1  -7  -7 1115.48 509.137
  -1  -7  -7 1255.50 462.369
   1   7   8 785.650 486.433
  -1  -7  -8 1157.94 512.440
  -1  -7  -8 642.636 451.173
   1   7   9 610.966 485.275
  -1  -7  -9 190.974 409.761
  -1  -7  -9 191.827 445.629
   1   7  10 284.801 479.328
  -1  -7 -10-107.153 468.803
  -1  -7 -10-744.650 475.745
   1   7  11 143.531 473.036
  -1  -7 -11-291.508 454.722
  -1  -8  16-638.928 472.869
   1   8 -16 415.602 535.729
  -1  -8  15-184.567 416.085
   1   8 -15 630.342 533.478
   1   8 -14 4146.78 776.049
  -1  -8  14 5055.60 764.613
  -1  -8  13 5513.22 765.267
   1   8 -13 5770.49 802.342
  -1  -8  12 3514.85 637.551
   1   8 -12 2600.02 699.624
   1   8 -11 987.714 515.329
  -1  -8  11 225.773 388.462
  -1  -8  10 196.672 368.442
   1   8 -10-829.909 469.991
   1   8  -9 802.496 479.148
  -1  -8   9-608.639 439.371
  -1  -8   8 654.712 405.555
   1   8  -8 801.532 497.494
  -1  -8   7 588.832 388.543
   1   8  -7 731.933 503.594
   1   8  -6 1012.78 479.914
  -1  -8   6 1238.98 484.254
   1   8  -5 2268.00 576.846
  -1  -8   5 1335.74 510.332
   1   8  -4 2437.04 627.563
  -1  -8   4 2675.22 583.189
   1   8  -3 909.081 492.803
  -1  -8   3 328.870 406.600
  -1  -8   2 1038.91 464.175
   1   8  -2 1421.78 509.640
  -1  -8   1 433.513 426.604
   1   8  -1 346.706 435.456
  -1  -8   1 477.663 357.526
  -1  -8   0 405.458 349.573
  -1  -8   0-343.651 408.643
   1   8   0 433.675 423.948
  -1  -8  -1 319.817 346.373
  -1  -8  -1-229.829 399.123
   1   8   2-139.267 464.543
  -1  -8  -2 12.9354 342.143
  -1  -8  -2 419.925 411.110
   1   8   3-131.104 426.290
  -1  -8  -3 889.537 441.515
  -1  -8  -3 17.0965 386.766
  -1  -8  -4 379.915 434.786
   1   8   4 171.563 454.289
  -1  -8  -4 66.9702 397.281
  -1  -8  -5 669.418 464.954
  -1  -8  -5 778.520 483.299
   1   8   5-79.7122 466.972
   1   8   6 152.186 490.292
  -1  -8  -6 1024.40 527.189
  -1  -8  -6 73.4771 394.338
   1   8   7-81.9154 512.301
  -1  -8  -7 5.41467 425.151
  -1  -8  -7 253.441 461.414
   1   8   8-36.1294 546.508
  -1  -9  11 712.765 473.536
  -1  -9  10-40.5081 437.649
  -1  -9   9 996.093 492.443
   1   9  -9 71.7064 490.789
  -1  -9   8 697.790 463.047
   1   9  -8 725.627 562.080
  -1  -9   7-505.753 453.877
   1   9  -7 13.2781 470.218
  -1  -9   6 759.492 503.114
   1   9  -6-35.7418 487.671
  -1  -9   5 162.746 485.719
   1   9  -5-186.257 475.995
   1   9  -4-182.834 462.326
  -1  -9   4 199.524 474.960
   1   9  -3 12.0794 448.921
  -1  -9   3-371.685 470.497
   1   9  -2 71.4334 505.729
  -1  -9   2 602.846 507.041
   1   9  -1 1493.32 589.634
  -1  -9   1 500.088 476.006
   1   9   0-181.010 523.916
  -1  -9   0 1278.45 553.466
   1   9   1 695.902 617.506
  -1  -9  -1 473.576 494.344
   1   9   2-564.473 577.136
  -1  -9  -3-191.051 428.514
  -1  -9  -4-124.224 454.321
  -1  -9  -5 990.450 544.411
   2  -9  -6 924.322 558.281
   2  -9  -6 327.834 481.474
   2  -9  -5-71.0124 426.738
   2  -9  -5-465.429 483.831
   2  -9  -4 414.491 453.408
   2  -9  -4 827.339 524.966
   2  -9  -3-342.253 418.472
  -2   9   3 604.977 535.596
   2  -9  -3 1256.51 521.419
   2  -9  -2 223.878 435.196
  -2   9   2-220.505 507.452
   2  -9  -2 277.611 416.528
   2  -9  -1 738.426 455.859
  -2   9   1-216.425 499.238
   2  -9  -1 1124.48 463.385
   2  -9   0 577.093 439.745
  -2   9   0 342.996 492.313
   2  -9   1 1080.25 493.720
  -2   9  -1-563.890 514.417
   2  -9   2 731.338 491.668
  -2   9  -2 1448.06 570.082
   2  -9   3 432.072 448.833
  -2   9  -3-468.015 498.862
   2  -9   4 1060.88 509.782
  -2   9  -4 150.837 484.150
  -2   9  -5-226.034 447.740
   2  -9   5 339.374 413.399
  -2   9  -6 179.220 447.873
   2  -9   6-786.477 493.710
  -2   9  -7 255.541 474.295
   2  -9   7-190.724 451.182
  -2   9  -8 1306.26 579.636
   2  -9   8 274.971 427.898
  -2   9  -9-175.350 445.315
   2  -9   9-572.111 481.392
  -2   9 -10 1384.74 608.693
  -2   9 -10 1094.23 550.772
   2  -9  10 1379.89 556.159
  -2   9 -11 375.775 535.237
  -2   9 -11 1067.49 559.632
  -2   9 -12 242.945 529.443
  -2   9 -13-72.5458 569.531
   2  -8  -9 965.510 535.656
   2  -8  -8 869.839 479.210
  -2   8   8 1042.88 590.323
   2  -8  -8 830.729 511.487
  -2   8   7 353.893 486.192
   2  -8  -7 69.9894 393.519
   2  -8  -7 272.526 447.944
  -2   8   6-12.5841 433.319
   2  -8  -6-138.645 420.833
   2  -8  -6 53.5778 396.228
   2  -8  -5 81.4733 420.285
   2  -8  -5-245.370 398.415
  -2   8   4 361.174 433.823
   2  -8  -4 556.929 407.534
   2  -8  -4-93.8905 369.061
  -2   8   3 220.262 427.235
   2  -8  -3-9.19396 366.325
   2  -8  -3 342.088 403.511
   2  -8  -2-165.992 408.546
  -2   8   2 456.576 462.922
   2  -8  -2 507.455 395.337
  -2   8   1 320.357 372.285
   2  -8  -1 526.142 399.814
   2  -8  -1 1039.74 427.751
   2  -8   0 199.181 379.527
  -2   8   0 813.114 463.506
   2  -8   0 529.747 330.037
  -2   8  -1 587.345 432.179
   2  -8   1-72.4983 319.942
   2  -8   1 106.851 357.777
   2  -8   2 1441.80 502.285
  -2   8  -2 1390.85 435.745
  -2   8  -2 1390.76 524.319
   2  -8   2 1821.50 430.559
   2  -8   3 27485.8 1437.62
   2  -8   3 27253.0 1210.03
  -2   8  -3 27291.2 1335.42
   2  -8   4 5398.82 736.134
  -2   8  -4 3456.99 626.719
  -2   8  -4 4663.51 646.157
  -2   8  -5 20.6009 375.187
   2  -8   5 265.279 387.438
  -2   8  -5-214.479 364.704
  -2   8  -6 1462.06 510.831
  -2   8  -6 1102.65 500.211
   2  -8   6-47.5392 380.972
  -2   8  -7 275.728 387.456
  -2   8  -7 308.361 381.230
   2  -8   7 229.791 392.882
  -2   8  -8-256.359 453.532
  -2   8  -8-71.8433 411.793
   2  -8   8 428.505 407.737
  -2   8  -9 463.971 472.373
   2  -8   9-368.234 445.363
  -2   8  -9 267.736 424.681
  -2   8 -10-239.077 412.331
   2  -8  10 558.084 396.106
  -2   8 -10 1212.54 544.728
  -2   8 -11 357.259 488.447
   2  -8  11-356.237 473.616
  -2   8 -11 49.8353 414.645
  -2   8 -12 36.2409 466.002
  -2   8 -12 1002.07 581.369
   2  -8  12-434.665 402.034
  -2   8 -13-413.364 532.004
   2  -8  13-280.337 439.845
  -2   8 -13-7.71066 432.594
   2  -8  14 66.2822 412.381
  -2   8 -14 51.0153 518.818
   2  -8  14-370.626 378.467
  -2   8 -15 448.168 599.656
  -2   7  11 18.9696 473.152
   2  -7 -11 319.287 507.181
  -2   7  10 995.446 496.795
   2  -7 -10 1630.90 604.441
   2  -7 -10-94.7956 408.586
   2  -7  -9 5611.22 876.286
   2  -7  -9 5370.71 717.186
  -2   7   9 6692.89 909.807
  -2   7   8 3739.33 710.392
   2  -7  -8 4155.34 655.098
   2  -7  -8 4849.01 759.029
   2  -7  -7 765.112 471.435
  -2   7   7 726.091 458.477
   2  -7  -7 430.262 369.058
  -2   7   6 769.202 457.589
   2  -7  -6 273.402 382.963
   2  -7  -6 1538.30 445.126
   2  -7  -5 690.043 436.442
   2  -7  -5 1063.07 419.783
  -2   7   5 204.648 432.865
  -2   7   4 114.852 382.974
   2  -7  -4-52.8783 318.465
   2  -7  -4 1091.58 449.917
  -2   7   3 470.602 285.279
  -2   7   3 394.515 370.792
   2  -7  -3 655.148 388.605
   2  -7  -3 761.851 401.136
  -2   7   2 786.623 327.192
   2  -7  -2 1278.30 396.351
  -2   7   2 351.863 359.722
   2  -7  -2 871.687 416.346
   2  -7  -1-70.7703 305.623
  -2   7   1-261.570 252.802
  -2   7   1 336.956 347.194
   2  -7  -1 627.388 353.122
   2  -7   0 136.611 298.800
  -2   7   0 152.629 293.032
   2  -7   0-365.097 344.426
  -2   7   0 63.8855 334.399
   2  -7   1 210.170 297.665
   2  -7   1-271.710 353.045
  -2   7  -1 820.166 336.218
  -2   7  -1 274.394 342.349
   2  -7   2 398.690 292.677
  -2   7  -2 989.498 360.726
  -2   7  -2 370.316 380.747
   2  -7   2 481.785 338.463
  -2   7  -3 413.815 405.336
   2  -7   3-195.421 321.419
   2  -7   3 143.696 260.858
  -2   7  -3 125.771 311.864
   2  -7   4 495.800 364.561
  -2   7  -4-79.7729 342.353
  -2   7  -4 616.496 404.172
   2  -7   4 363.536 291.757
   2  -7   5 1644.03 325.935
  -2   7  -5 475.670 348.491
   2  -7   5 811.589 372.481
  -2   7  -5 846.217 394.965
  -2   7  -6 400.712 367.409
  -2   7  -6-135.167 327.958
   2  -7   6 259.035 358.836
  -2   7  -7 253.917 364.252
  -2   7  -7 230.269 348.393
   2  -7   7 226.962 313.062
   2  -7   8 3509.55 584.681
  -2   7  -8 3786.93 619.869
  -2   7  -8 3835.24 630.174
   2  -7   9 1027.56 432.744
  -2   7  -9 1193.83 495.395
  -2   7  -9 591.911 407.648
  -2   7 -10 15930.8 1197.03
   2  -7  10 19588.4 1179.91
  -2   7 -10 17860.0 1169.04
  -2   7 -11 543.323 474.243
   2  -7  11 673.542 406.067
  -2   7 -11 1249.87 480.569
  -2   7 -12 1946.35 563.253
  -2   7 -12 2551.58 602.176
   2  -7  12 1817.95 471.470
  -2   7 -13-60.8667 463.458
   2  -7  13 5.82525 365.776
   2  -7  13-20.0049 334.528
   2  -7  14 658.325 414.465
  -2   7 -14-193.593 534.015
   2  -7  14 798.743 457.591
  -2   7 -15 1261.30 553.446
   2  -7  15 459.439 413.504
   2  -7  15 906.533 478.699
  -2   7 -16 117.454 515.968
   2  -7  16 1513.22 528.423
   2  -7  16 154.545 396.169
   2  -7  17 269.447 403.032
   2  -6 -13 214.494 450.217
  -2   6  13 0.91816 446.420
  -2   6  12 87.5282 434.501
   2  -6 -12 177.151 467.902
  -2   6  11 370.836 403.103
   2  -6 -11 67.3454 438.207
   2  -6 -11 265.602 310.878
  -2   6  10 610.980 401.126
   2  -6 -10 1533.81 528.936
   2  -6 -10 2102.59 481.822
  -2   6   9 508.615 431.276
   2  -6  -9 816.450 490.818
   2  -6  -9 786.469 377.116
  -2   6   8 77.3284 360.575
   2  -6  -8 1124.33 408.395
   2  -6  -8-52.1934 372.132
  -2   6   8 809.577 331.544
  -2   6   7-604.815 380.612
  -2   6   7-24.1550 237.374
   2  -6  -7-383.248 384.384
  -2   6   6 21.3941 346.992
  -2   6   6 996.383 321.825
   2  -6  -6 836.139 402.730
   2  -6  -6 1072.39 367.160
   2  -6  -5 4772.49 623.962
  -2   6   5 3909.68 480.752
   2  -6  -5 4141.57 567.143
  -2   6   5 4721.01 616.069
  -2   6   4 1886.95 464.182
   2  -6  -4 1044.65 390.230
   2  -6  -4 1575.62 420.775
  -2   6   4 662.516 293.638
  -2   6   3 443.406 249.360
   2  -6  -3 1019.08 365.723
  -2   6   3 751.415 360.836
   2  -6  -3 78.4739 269.479
  -2   6   2 512.886 256.485
  -2   6   2 376.003 321.151
   2  -6  -2 483.161 303.869
   2  -6  -2 479.904 325.127
  -2   6   1 549.609 251.702
  -2   6   1 497.351 324.612
   2  -6  -1 658.914 327.283
   2  -6  -1 580.463 310.313
   2  -6   0 4657.75 531.837
   2  -6   0 3259.50 482.898
  -2   6   0 4151.69 551.647
  -2   6   0 4715.78 508.867
   2  -6   1 35542.2 1255.05
  -2   6  -1 34678.2 1428.23
   2  -6   1 38806.1 1411.18
  -2   6  -1 37112.4 1299.66
  -2   6  -2 213892. 3149.64
  -2   6  -2 209403. 3362.70
  -2   6  -3 225375. 3293.51
   2  -6   3 234346. 2924.77
   2  -6   3 227723. 3434.26
  -2   6  -3 230320. 3609.42
   2  -6   4 18809.3 838.868
  -2   6  -4 17934.8 1030.20
   2  -6   4 16981.2 1000.15
  -2   6  -4 17987.4 1025.67
  -2   6  -5 4778.49 578.450
   2  -6   5 5394.49 457.754
   2  -6   5 5766.06 622.131
  -2   6  -5 5337.95 605.289
   2  -6   6 2320.33 452.301
  -2   6  -6 2291.01 492.637
   2  -6   6 1668.01 282.429
  -2   6  -6 2517.69 482.252
   2  -6   7 3003.78 474.862
   2  -6   7 2342.96 302.246
  -2   6  -7 2361.37 474.563
  -2   6  -7 3525.46 532.779
  -2   6  -8 2156.49 519.247
  -2   6  -8 2493.91 471.224
   2  -6   8 2436.11 306.820
   2  -6   8 2869.11 486.529
  -2   6  -9 1631.03 462.379
  -2   6  -9 1664.70 433.059
   2  -6   9 1323.31 395.201
  -2   6 -10 161.093 414.744
  -2   6 -10 763.638 380.385
   2  -6  10-321.080 318.130
  -2   6 -11 1010.08 435.054
   2  -6  11 297.050 329.135
  -2   6 -11 1304.03 516.494
  -2   6 -12-404.325 462.307
   2  -6  12 338.576 350.045
   2  -6  12-64.1212 301.898
   2  -6  13 1789.27 456.803
   2  -6  13 1924.16 470.960
  -2   6 -14 696.392 483.831
   2  -6  14 609.362 367.894
   2  -6  14 1366.49 426.270
   2  -6  15 378.695 371.323
   2  -6  15 255.543 346.619
  -2   6 -15 47.0368 444.310
   2  -6  16 292.241 348.338
  -2   6 -16 114.544 481.289
   2  -6  16 38.3925 389.155
  -2   6 -17-388.108 543.997
   2  -6  17 603.600 394.089
   2  -6  17 528.315 396.719
   2  -6  18 740.805 470.167
   2  -6  18 407.863 449.967
   2  -5 -15-44.8722 474.854
  -2   5  15 773.042 510.634
   2  -5 -14 331.951 427.439
  -2   5  14 527.396 437.833
  -2   5  13 579.695 346.557
   2  -5 -13 787.113 468.667
  -2   5  13 626.370 428.884
   2  -5 -12 856.205 324.866
  -2   5  12 385.840 322.510
  -2   5  12 754.301 384.930
  -2   5  11 103.401 288.150
   2  -5 -11 691.796 309.926
  -2   5  11 435.600 360.847
   2  -5 -10 1008.38 427.674
   2  -5 -10 1026.32 343.370
  -2   5  10 1038.20 350.732
  -2   5  10 940.990 417.573
  -2   5   9 3137.26 525.861
   2  -5  -9 2312.87 409.868
   2  -5  -9 3188.55 573.394
  -2   5   9 2871.13 451.485
   2  -5  -8 81.2474 257.694
   2  -5  -8 386.623 375.768
  -2   5   8-310.341 297.813
  -2   5   8-215.598 330.235
   2  -5  -7 19272.4 948.720
  -2   5   7 18576.2 897.944
   2  -5  -7 18232.4 1114.33
  -2   5   7 17373.0 1014.72
   2  -5  -6 2081.70 462.038
  -2   5   6 1338.80 379.645
  -2   5   6 1664.96 326.732
   2  -5  -6 1591.93 359.006
   2  -5  -5 25884.3 1222.92
   2  -5  -5 25748.8 1070.64
  -2   5   5 26857.7 1188.28
  -2   5   5 23899.0 977.450
   2  -5  -4 4070.91 538.586
   2  -5  -4 3338.88 463.442
  -2   5   4 3935.65 438.459
  -2   5   4 2774.62 454.973
  -2   5   3 748.496 294.466
   2  -5  -3 1742.28 386.350
   2  -5  -3 767.297 297.408
  -2   5   3 997.048 284.497
  -2   5   2 818.895 304.918
   2  -5  -2 842.685 313.812
   2  -5  -2 1018.85 321.795
  -2   5   2 822.628 238.140
   2  -5  -1 68.9048 233.386
  -2   5   1 320.827 233.488
  -2   5   1 141.702 247.535
   2  -5  -1 382.991 257.750
   2  -5   0 5548.84 514.108
   2  -5   0 6380.92 573.445
  -2   5   0 5661.18 578.392
  -2   5   0 5190.70 477.460
   2  -5   1 45988.3 1293.69
   2  -5   1 43766.9 1355.87
  -2   5  -1 45850.1 1347.74
   2  -5   2 3364.64 441.302
   2  -5   2 3614.97 410.163
  -2   5  -2 4001.49 497.152
  -2   5  -2 3183.40 442.129
   2  -5   3 53499.6 1525.47
  -2   5  -3 55789.6 1589.84
   2  -5   3 53384.0 1292.06
  -2   5  -3 53772.6 1592.90
  -2   5  -4 1162.28 355.206
   2  -5   4 637.298 315.991
  -2   5  -4 1187.43 340.509
   2  -5   4 535.178 218.733
  -2   5  -5 2513.12 330.797
   2  -5   5 2719.28 403.550
   2  -5   5 2968.12 327.609
  -2   5  -5 2523.18 421.844
  -2   5  -5 2839.70 430.363
  -2   5  -6-191.793 303.711
  -2   5  -6-264.145 271.470
   2  -5   6-65.2072 231.199
  -2   5  -6 123.489 185.351
   2  -5   6 252.742 175.211
   2  -5   7 282.695 175.284
  -2   5  -7 126.796 266.864
  -2   5  -7 430.011 339.087
   2  -5   7 509.953 278.374
  -2   5  -7 236.448 183.478
  -2   5  -8 12.8327 282.306
   2  -5   8-72.4960 179.475
  -2   5  -8 290.644 180.042
  -2   5  -8 256.107 340.582
   2  -5   8-207.884 263.595
  -2   5  -9 2444.09 292.208
  -2   5  -9 2224.91 459.733
   2  -5   9 2573.66 427.124
  -2   5  -9 2767.07 457.286
   2  -5  10 4530.36 537.545
  -2   5 -10 4365.94 663.386
  -2   5 -10 5758.02 684.640
  -2   5 -10 4723.29 361.020
  -2   5 -11 9407.61 480.301
   2  -5  11 9268.56 700.497
   2  -5  11 9152.60 732.859
  -2   5 -11 10873.0 956.135
   2  -5  12 4532.46 538.697
   2  -5  12 3320.89 510.145
  -2   5 -12 3339.42 659.448
  -2   5 -13 821.826 447.785
   2  -5  13 122.790 295.743
   2  -5  13 70.5156 308.893
   2  -5  14 6534.89 702.817
   2  -5  14 5042.29 604.626
  -2   5 -14 6255.68 874.828
  -2   5 -15 1859.38 623.139
   2  -5  15 1739.77 426.282
   2  -5  15 900.967 409.134
  -2   5 -16 459.768 514.920
   2  -5  16 429.694 350.259
   2  -5  16 194.773 352.650
   2  -5  17 612.132 407.991
  -2   5 -17 1024.68 594.878
   2  -5  17 356.958 371.168
   2  -5  18-120.489 358.650
  -2   5 -18 710.253 530.058
   2  -5  18-200.542 389.166
   2  -5  19-16.2192 368.329
   2  -5  19 436.650 416.770
   2  -4 -17-410.404 555.293
   2  -4 -16 18.7661 446.211
  -2   4  16 286.679 447.165
   2  -4 -15 544.006 466.863
  -2   4  15 329.212 386.800
   2  -4 -14 1142.23 500.116
  -2   4  14 884.924 412.547
   2  -4 -13 594.494 282.506
   2  -4 -13 905.551 453.844
  -2   4  13 763.175 374.783
  -2   4  13 485.439 338.841
   2  -4 -12 8914.44 905.377
  -2   4  12 9633.95 815.202
   2  -4 -12 7419.04 576.946
  -2   4  12 9931.20 776.797
   2  -4 -11 337.655 255.326
   2  -4 -11 321.642 378.542
  -2   4  11 898.850 367.430
  -2   4  11 251.326 272.011
   2  -4 -10 1169.67 286.158
   2  -4 -10 243.686 349.160
  -2   4  10 452.891 298.460
  -2   4  10 855.802 350.561
   2  -4  -9 789.956 262.161
   2  -4  -9 911.282 387.196
  -2   4   9 717.284 299.873
  -2   4   9 742.176 295.036
   2  -4  -8 919.458 259.625
   2  -4  -8 1037.19 389.998
  -2   4   8 700.806 281.155
  -2   4   8 1268.81 365.700
  -2   4   7 819.149 276.782
   2  -4  -7 324.842 297.622
   2  -4  -7 904.140 253.569
  -2   4   7 260.891 258.809
   2  -4  -6-203.247 213.982
   2  -4  -6 88.5077 287.941
  -2   4   6-140.532 207.723
  -2   4   6 214.097 262.179
   2  -4  -5 14809.1 730.534
  -2   4   5 12796.5 690.665
  -2   4   5 13278.1 764.203
   2  -4  -5 13913.6 856.757
   2  -4  -4 41053.3 1362.26
   2  -4  -4 39134.3 1170.50
  -2   4   4 38694.0 1223.73
  -2   4   4 39791.6 1166.52
  -2   4   3 170.479 230.759
   2  -4  -3 371.847 258.941
   2  -4  -3 1004.13 264.438
  -2   4   3 518.570 248.179
   2  -4  -2 32746.6 1058.36
   2  -4  -2 29030.1 1073.93
  -2   4   2 30110.9 1047.98
  -2   4   2 30157.2 1004.35
  -2   4   1 912.919 296.213
   2  -4  -1 1323.90 299.863
   2  -4  -1 1123.78 290.462
  -2   4   1 1280.31 278.906
   2  -4   0 222686. 2680.38
   2  -4   0 214293. 2660.71
  -2   4   0 224727. 2736.99
  -2   4   0 212244. 2646.30
   2  -4   1 10044.2 619.054
  -2   4  -1 11687.4 685.432
  -2   4  -1 10943.8 671.627
   2  -4   1 12270.9 661.062
  -2   4  -3 478.374 324.115
   2  -4   3-30.1089 228.125
  -2   4  -3 139.900 287.754
   2  -4   3-1.72849 278.398
  -2   4  -3-251.510 242.910
   2  -4   4 6651.16 440.093
  -2   4  -4 6889.05 468.481
   2  -4   4 7778.65 551.079
  -2   4  -4 6831.60 574.999
  -2   4  -4 6681.22 530.703
   2  -4   5 8932.17 603.612
  -2   4  -5 8221.38 491.350
   2  -4   5 9001.59 485.698
  -2   4  -5 9259.62 611.018
  -2   4  -5 8085.96 630.060
  -2   4  -6 398.172 183.922
  -2   4  -6 468.812 242.387
   2  -4   6 407.831 229.902
   2  -4   6 611.478 184.667
  -2   4  -7-183.466 294.764
  -2   4  -7 98.1632 211.910
   2  -4   7 139.455 247.768
   2  -4   7 76.9040 172.675
  -2   4  -7 81.8623 167.690
  -2   4  -8 32806.5 1163.57
   2  -4   8 31412.9 1140.23
  -2   4  -8 31029.2 915.112
  -2   4  -8 32699.5 1335.95
  -2   4  -8 31981.8 932.078
  -2   4  -9 240.183 188.501
  -2   4  -9 324.309 356.518
  -2   4  -9 286.206 264.377
  -2   4  -9 129.293 168.661
   2  -4   9-12.2974 229.285
   2  -4  10 5534.70 515.105
  -2   4 -10 6324.73 445.533
   2  -4  10 5779.90 569.657
  -2   4 -10 5430.81 426.955
  -2   4 -10 4682.91 621.376
   2  -4  11 4683.86 527.823
   2  -4  11 4234.54 470.372
  -2   4 -11 3690.09 365.236
  -2   4 -11 3670.26 591.913
   2  -4  12 4439.77 549.738
   2  -4  12 5738.48 555.879
  -2   4 -12 4630.83 404.294
  -2   4 -13 10671.4 604.906
  -2   4 -13 11941.3 1017.51
   2  -4  13 11136.5 816.527
   2  -4  13 10989.0 751.910
   2  -4  14 9862.99 748.902
   2  -4  14 8556.41 724.156
  -2   4 -14 9419.33 963.208
   2  -4  15 705.405 367.527
  -2   4 -15 1359.50 515.388
   2  -4  15 1481.87 376.414
   2  -4  16 360.034 304.142
  -2   4 -16-328.433 450.317
   2  -4  16 376.910 338.688
   2  -4  17-48.0108 330.895
  -2   4 -17-63.4570 448.009
   2  -4  17-58.9608 308.514
  -2   4 -18 713.635 489.574
   2  -4  18-79.8772 366.535
   2  -4  18 670.960 422.193
   2  -4  19-234.948 390.895
  -2   4 -19 216.157 529.030
   2  -4  19-247.246 393.544
   2  -4  20 1718.04 527.907
   2  -4  20 1125.88 486.882
   2  -3 -19-100.898 432.762
   2  -3 -18 648.749 410.843
   2  -3 -18 1178.96 559.028
   2  -3 -17 167.833 366.599
   2  -3 -17 303.572 492.394
  -2   3  17 504.866 441.047
   2  -3 -16 212.299 368.932
   2  -3 -16 532.256 430.160
  -2   3  16 543.270 429.886
   2  -3 -15 478.729 376.354
   2  -3 -15-30.7490 429.386
  -2   3  15 255.041 341.735
   2  -3 -14 550.242 401.013
   2  -3 -14 29.9076 294.897
  -2   3  14 50.3682 307.299
   2  -3 -13 2330.23 550.589
   2  -3 -13 1374.03 378.748
  -2   3  13 1573.04 400.233
   2  -3 -12 4994.67 675.750
   2  -3 -12 4448.08 544.104
  -2   3  12 3965.47 521.438
   2  -3 -11 405.117 311.046
   2  -3 -11-46.5080 176.399
  -2   3  11 277.505 282.053
   2  -3 -11 217.586 335.937
   2  -3 -10 4999.23 504.037
  -2   3  10 4633.80 511.090
   2  -3 -10 4809.20 396.052
   2  -3 -10 5208.52 617.084
  -2   3   9 5441.12 533.575
   2  -3  -9 4126.30 564.465
   2  -3  -9 3944.06 360.612
   2  -3  -9 4725.01 468.262
   2  -3  -8 16822.3 964.700
  -2   3   8 15619.7 802.278
  -2   3   8 14810.8 771.930
   2  -3  -8 16239.6 648.624
   2  -3  -7 155135. 1914.77
  -2   3   7 148938. 2316.29
   2  -3  -7 157400. 2736.15
   2  -3  -7 144667. 1809.60
  -2   3   7 150031. 2291.65
  -2   3   6 176653. 2400.87
  -2   3   6 173554. 2385.41
   2  -3  -6 179994. 2821.05
   2  -3  -6 181510. 2053.21
   2  -3  -6 169417. 1996.10
  -2   3   5 212840. 2579.68
   2  -3  -5 221545. 2300.59
   2  -3  -5 223661. 2995.96
  -2   3   5 215129. 2577.01
   2  -3  -5 216011. 2299.42
   2  -3  -4 13765.1 634.352
  -2   3   4 14185.4 665.965
  -2   3   4 13706.2 668.779
   2  -3  -4 12839.9 733.686
   2  -3  -4 13368.3 596.461
   2  -3  -3 79340.1 1391.47
  -2   3   3 81472.8 1514.08
  -2   3   3 74680.2 1481.33
   2  -3  -3 77752.9 1648.55
   2  -3  -3 85140.2 1554.31
  -2   3   2 7686.37 495.568
   2  -3  -2 6925.95 518.889
   2  -3  -2 7406.05 480.530
  -2   3   2 7437.90 447.509
   2  -3  -2 7716.72 464.269
  -2   3   2 7688.14 472.438
  -2   3   1 17972.9 687.799
   2  -3  -1 18576.3 678.279
   2  -3  -1 18852.1 735.918
   2  -3  -1 17469.0 739.764
  -2   3   1 19012.1 738.679
  -2   3   1 19364.4 723.550
  -2   3   0 709.228 217.208
   2  -3   0 1007.24 207.088
  -2   3   0 527.715 209.141
  -2   3   0 1113.21 233.253
   2  -3   0 476.289 212.972
   2  -3   0 564.908 197.870
   2  -3   0 1192.79 248.362
  -2   3   0 924.927 247.052
   2  -3   1 7.46838 146.309
  -2   3  -1 158.836 203.312
  -2   3  -1 292.483 194.251
   2  -3   1 206.548 183.017
   2  -3   1 89.1712 196.006
  -2   3  -1 84.0036 182.716
   2  -3   1 151.841 189.738
  -2   3  -1 625.509 233.515
  -2   3  -2-121.160 223.468
  -2   3  -2-15.7425 164.735
   2  -3   2-77.9494 172.821
  -2   3  -2 176.394 189.721
   2  -3   2 100.381 175.396
   2  -3   3 36074.0 933.197
   2  -3   3 33220.5 955.112
  -2   3  -3 33259.5 1064.13
   2  -3   3 32732.7 932.686
  -2   3  -3 33062.7 945.873
  -2   3  -3 34252.2 934.983
   2  -3   4 25093.0 770.183
   2  -3   4 22611.9 809.990
   2  -3   4 22366.0 803.811
  -2   3  -4 25690.9 1010.74
  -2   3  -4 23717.5 814.528
  -2   3  -4 25061.9 800.706
   2  -3   5 10280.2 505.954
  -2   3  -5 11338.3 546.620
   2  -3   5 9883.09 563.948
  -2   3  -5 10411.4 666.393
  -2   3  -5 10656.7 568.097
  -2   3  -6 254.090 259.519
   2  -3   6-59.2570 195.794
  -2   3  -6 118.416 160.860
   2  -3   6 230.336 179.023
  -2   3  -6 418.457 190.527
  -2   3  -7 134157. 1876.31
   2  -3   7 132525. 2087.92
   2  -3   8 44014.2 1132.38
  -2   3  -8 38602.2 1045.23
  -2   3  -8 41954.0 1453.84
   2  -3   8 39253.7 1191.92
  -2   3  -8 40697.1 1072.27
  -2   3  -9 1343.52 259.588
  -2   3  -9 1437.44 396.213
   2  -3   9 1590.07 322.463
   2  -3   9 1860.66 289.731
  -2   3  -9 1269.42 252.260
   2  -3  10 1010.55 263.798
   2  -3  10 825.552 288.810
  -2   3 -10 514.161 208.572
  -2   3 -10 1093.39 375.952
  -2   3 -11 8151.31 549.280
   2  -3  11 8785.45 604.501
   2  -3  11 6829.15 580.146
  -2   3 -11 7134.50 731.560
   2  -3  12 7337.55 576.443
   2  -3  12 7445.16 628.504
  -2   3 -12 7081.87 531.305
  -2   3 -12 8449.50 809.758
   2  -3  13 102179. 2052.95
  -2   3 -13 95142.3 1908.47
   2  -3  13 99748.3 2142.21
  -2   3 -13 101403. 2671.74
   2  -3  14 2692.87 428.010
  -2   3 -14 2423.08 403.244
   2  -3  14 2820.76 458.721
  -2   3 -14 3736.88 675.174
   2  -3  15 4458.53 550.912
  -2   3 -15 3157.74 454.645
   2  -3  15 3920.74 508.058
  -2   3 -15 4128.09 699.214
  -2   3 -16 169.389 424.238
   2  -3  16-206.116 314.262
   2  -3  16 1041.53 388.777
  -2   3 -17 722.996 446.102
   2  -3  17 804.326 407.209
   2  -3  17 879.254 375.252
   2  -3  18 292.397 365.709
  -2   3 -18 1075.44 579.932
   2  -3  18 34.4128 369.280
  -2   3 -19 14.5086 499.712
   2  -3  19 460.915 394.178
   2  -3  19-76.2503 369.167
   2  -3  20-43.7274 387.941
   2  -3  20 465.394 430.916
   2  -3  21 39.1427 431.727
   2  -3  21-265.837 426.120
   2  -2 -20 291.750 431.472
   2  -2 -20 20.2693 526.651
   2  -2 -19 161.002 412.339
   2  -2 -19-102.054 437.281
  -2   2  19-449.497 489.260
  -2   2  18-87.4195 377.891
   2  -2 -18 591.342 430.300
   2  -2 -18 586.709 472.014
   2  -2 -17-143.215 363.580
   2  -2 -17 537.953 435.361
  -2   2  17-245.015 358.661
  -2   2  16 136.986 340.200
   2  -2 -16 192.280 319.262
   2  -2 -16 175.911 394.557
   2  -2 -15 971.430 407.230
  -2   2  15 819.299 387.022
   2  -2 -15 76.4142 395.362
   2  -2 -14 8477.80 741.106
  -2   2  14 8439.44 743.316
   2  -2 -14 9355.24 883.353
   2  -2 -13 37617.5 1385.35
  -2   2  13 33197.9 1096.69
  -2   2  13 35534.0 1360.55
   2  -2 -13 37232.3 1570.20
   2  -2 -12 1334.76 355.036
  -2   2  12 1273.72 297.737
   2  -2 -12 745.013 362.366
  -2   2  12 1374.37 359.480
  -2   2  11 27302.9 1087.78
   2  -2 -11 27416.9 1098.72
  -2   2  11 28926.8 938.534
   2  -2 -11 26591.4 724.018
   2  -2 -10 6467.70 356.202
   2  -2 -10 6771.60 560.471
  -2   2  10 6500.87 464.511
   2  -2 -10 6589.18 638.134
  -2   2  10 6756.92 564.171
   2  -2  -9 31761.6 710.076
   2  -2  -9 32401.5 1085.88
   2  -2  -9 33249.2 1276.59
   2  -2  -8 3818.33 269.508
   2  -2  -8 3339.04 378.800
   2  -2  -8 3936.88 256.236
   2  -2  -8 4001.66 495.894
  -2   2   8 4276.78 422.165
   2  -2  -7 20575.7 837.250
   2  -2  -7 18455.3 539.615
   2  -2  -7 19945.9 929.784
  -2   2   7 18695.5 750.893
   2  -2  -7 19148.4 514.181
   2  -2  -6 4929.03 423.140
   2  -2  -6 5590.32 308.548
   2  -2  -6 5436.11 288.399
   2  -2  -6 5366.74 502.120
  -2   2   6 4774.02 395.518
  -2   2   5 33139.4 903.684
  -2   2   5 32843.7 972.199
   2  -2  -5 33282.8 724.553
   2  -2  -5 33769.5 699.034
   2  -2  -5 33530.6 1095.59
   2  -2  -4 7901.00 395.430
  -2   2   4 6678.45 450.177
  -2   2   4 6468.37 457.388
   2  -2  -4 6370.34 330.300
  -2   2   4 6802.21 412.807
   2  -2  -3 183.130 120.125
   2  -2  -3-206.561 162.290
  -2   2   3 58.3153 158.866
  -2   2   3 141.594 118.020
   2  -2  -3 17.3549 194.526
  -2   2   3 64.1716 173.569
  -2   2   3-0.20424 155.928
   2  -2  -2-50.8094 179.323
  -2   2   2 320.216 205.177
   2  -2  -2 146.747 116.523
   2  -2  -2 125.943 156.267
   2  -2  -2 44.0917 129.609
  -2   2   2 97.8258 114.542
  -2   2   2 367.933 187.512
  -2   2   2 255.039 153.645
   2  -2  -1 124341. 1718.34
  -2   2   1 126913. 1518.74
  -2   2   1 122443. 1714.15
  -2   2   1 124649. 1816.70
  -2   2   1 128026. 1464.98
   2  -2  -1 121355. 1742.92
   2  -2  -1 121988. 1385.23
   2  -2  -1 124639. 1395.56
  -2   2   0 2935.38 318.157
  -2   2   0 3000.19 264.968
   2  -2   0 2896.93 300.474
   2  -2   0 2381.19 240.908
   2  -2   0 2649.25 221.328
  -2   2   0 2465.19 232.293
  -2   2   0 3435.47 338.382
   2  -2   0 2717.58 301.995
   2  -2   1 47493.5 1042.69
   2  -2   1 46601.5 1089.09
   2  -2   1 45888.1 831.991
   2  -2   1 46125.4 916.939
  -2   2  -1 47716.6 894.234
  -2   2  -1 46150.8 1076.22
  -2   2  -1 49138.2 1015.46
  -2   2  -1 47135.1 1064.47
  -2   2  -2 32195.6 877.232
  -2   2  -2 34376.4 784.811
   2  -2   2 31703.4 849.120
   2  -2   2 34160.7 753.207
   2  -2   2 30780.8 928.131
   2  -2   2 33828.7 819.404
  -2   2  -2 35931.3 992.878
  -2   2  -2 31321.9 847.502
  -2   2  -3 24881.7 770.878
   2  -2   3 23966.4 668.017
  -2   2  -3 24039.0 766.500
   2  -2   3 25094.3 727.922
   2  -2   3 24286.3 851.065
  -2   2  -3 24160.6 854.319
   2  -2   3 23706.1 727.698
  -2   2  -3 24890.5 676.661
   2  -2   4 457764. 3001.94
  -2   2  -4 462675. 3268.08
   2  -2   4 462671. 3156.99
   2  -2   4 450766. 3175.26
  -2   2  -4 449107. 2877.04
  -2   2  -5-43.3410 227.501
   2  -2   5 47.3844 135.529
   2  -2   5-25.7478 169.325
  -2   2  -5 106.173 159.784
  -2   2  -5-62.8354 163.405
   2  -2   5-106.680 186.144
  -2   2  -6 4333.59 380.189
  -2   2  -6 4887.59 387.070
   2  -2   6 5302.23 429.894
  -2   2  -6 4971.55 512.826
   2  -2   6 4885.69 373.704
   2  -2   6 4629.26 334.213
   2  -2   7 10934.2 502.112
   2  -2   7 10703.7 592.022
  -2   2  -7 10944.2 565.444
  -2   2  -7 12313.4 613.670
  -2   2  -7 11235.3 725.892
   2  -2   7 11273.5 582.688
  -2   2  -8 1857.68 299.440
   2  -2   8 2096.44 268.176
   2  -2   8 1521.02 300.112
  -2   2  -8 1684.42 354.435
   2  -2   9 222.247 173.281
  -2   2  -9-24.9778 273.071
   2  -2   9 657.719 253.551
  -2   2  -9 441.107 217.757
  -2   2 -10 414.580 232.562
   2  -2  10 341.031 238.780
  -2   2 -10 229.008 310.523
   2  -2  10 685.878 213.760
  -2   2 -11 26109.8 1006.66
   2  -2  11 24946.7 911.696
  -2   2 -11 24660.5 1216.79
  -2   2 -12 966.974 342.022
   2  -2  12-262.990 249.423
   2  -2  12 354.736 284.056
  -2   2 -12 764.886 410.503
   2  -2  13 100691. 2094.54
  -2   2 -13 99638.1 2109.80
   2  -2  13 101287. 1964.88
  -2   2 -13 103532. 2643.71
   2  -2  14 8717.58 655.830
   2  -2  14 6963.67 637.250
  -2   2 -14 7124.90 648.959
  -2   2 -14 8491.89 871.348
   2  -2  15 7070.83 660.832
  -2   2 -15 7223.08 672.065
   2  -2  15 8274.06 650.307
  -2   2 -15 7412.05 820.520
  -2   2 -16 210.354 409.184
   2  -2  16 530.291 334.408
   2  -2  16 254.220 282.723
  -2   2 -16-39.3500 294.175
  -2   2 -17 1050.04 493.514
   2  -2  17-113.008 313.753
   2  -2  17 1525.04 417.396
  -2   2 -17 672.145 355.919
  -2   2 -18 2.77304 458.351
   2  -2  18 554.007 396.077
   2  -2  18 200.429 359.974
   2  -2  19 522.011 392.544
  -2   2 -19 1026.62 533.532
   2  -2  19-355.521 380.656
  -2   2 -20 2212.92 705.016
   2  -2  20 1688.14 513.450
   2  -2  20 1679.69 506.810
   2  -2  21 510.981 485.907
   2  -2  21-494.069 443.885
   2  -1 -20 204.158 449.820
   2  -1 -20 1969.44 599.254
   2  -1 -19-325.287 432.325
   2  -1 -19-269.085 489.780
  -2   1  19 331.030 425.227
   2  -1 -18 244.580 401.009
  -2   1  18 977.111 467.956
   2  -1 -17-25.5375 369.127
  -2   1  17 417.852 378.506
   2  -1 -17 430.312 395.407
   2  -1 -16 75.2888 324.378
  -2   1  16 537.578 386.874
   2  -1 -16 1279.25 479.048
   2  -1 -15-428.979 372.171
   2  -1 -15 319.705 278.179
  -2   1  15-49.9628 336.155
   2  -1 -14 699.206 346.043
  -2   1  14 530.314 197.960
   2  -1 -14 938.014 361.836
  -2   1  14 572.248 304.774
   2  -1 -13 14961.5 966.106
  -2   1  13 14344.6 843.408
  -2   1  13 12626.6 567.826
   2  -1 -12 5088.98 340.976
   2  -1 -12 6476.01 651.754
  -2   1  12 7021.08 590.658
   2  -1 -12 6955.91 624.044
  -2   1  12 5429.28 360.847
   2  -1 -11 3756.19 455.676
  -2   1  11 2822.97 394.826
   2  -1 -11 3490.69 480.968
   2  -1 -11 2810.93 248.933
  -2   1  11 2574.72 264.403
   2  -1 -10 25106.7 1079.77
   2  -1 -10 24495.1 1008.26
   2  -1 -10 23984.8 570.539
  -2   1  10 25339.6 949.068
  -2   1  10 22974.5 593.727
  -2   1   9 722.288 260.150
   2  -1  -9 400.248 216.422
   2  -1  -9 290.275 232.019
   2  -1  -9 566.124 114.884
  -2   1   9 575.709 133.466
   2  -1  -8 167905. 2372.67
  -2   1   8 161568. 1483.07
  -2   1   8 165977. 2134.72
   2  -1  -8 165895. 1186.70
   2  -1  -7-5.32167 63.3175
   2  -1  -7 11.3099 53.7192
   2  -1  -7 79.2338 192.274
   2  -1  -7 112.246 213.550
   2  -1  -6 61321.9 542.871
   2  -1  -6 64061.4 1317.30
   2  -1  -6 65339.2 1433.72
  -2   1   6 65636.5 1177.78
   2  -1  -5 103.389 54.0683
   2  -1  -5 60.2768 48.2784
   2  -1  -5 46.8887 190.971
  -2   1   5 170.614 179.059
  -2   1   5 96.0082 167.466
   2  -1  -5 114.593 196.703
   2  -1  -5-5.64920 128.749
  -2   1   4 371668. 3042.67
   2  -1  -4 363040. 2434.07
  -2   1   4 366951. 3151.46
   2  -1  -4 365979. 3094.28
   2  -1  -3 76346.1 712.022
  -2   1   3 79192.5 1306.79
  -2   1   3 78414.6 1316.74
   2  -1  -3 76298.4 1023.37
  -2   1   3 78249.9 1057.36
  -2   1   3 80561.4 1410.09
   2  -1  -3 74440.3 1337.87
  -2   1   3 78898.2 761.130
  -2   1   2 60393.6 758.230
   2  -1  -2 62558.9 835.808
   2  -1  -2 60217.7 697.159
  -2   1   2 61487.9 1188.47
   2  -1  -2 64240.9 1201.52
  -2   1   2 62127.6 845.057
  -2   1   2 61594.9 1130.08
  -2   1   1 10192.3 323.625
  -2   1   1 8692.87 457.061
   2  -1  -1 9262.83 296.511
  -2   1   1 9695.53 352.412
   2  -1  -1 9765.80 315.113
   2  -1  -1 9770.78 482.287
   2  -1  -1 10070.5 457.350
  -2   1   1 9276.65 454.154
  -2   1   0 137882. 1681.87
   2  -1   0 141967. 1666.29
  -2   1   0 138205. 1361.18
  -2   1   0 143436. 1079.79
   2  -1   0 138269. 1000.20
   2  -1   0 139866. 1711.61
  -2   1   0 132599. 1687.37
   2  -1   0 137355. 1264.39
  -2   1  -1 132825. 1410.54
  -2   1  -1 128128. 1646.27
  -2   1  -1 131161. 1671.18
   2  -1   1 129483. 1623.49
  -2   1  -1 129296. 990.552
   2  -1   1 127815. 932.367
   2  -1   1 128213. 1637.95
   2  -1   1 129287. 1333.15
   2  -1   2 355994. 2691.72
  -2   1  -2 362420. 2767.85
   2  -1   2 360651. 2848.43
  -2   1  -3 81480.0 1430.24
  -2   1  -3 78022.2 1328.47
   2  -1   3 81945.9 1343.27
  -2   1  -3 78739.9 1227.99
   2  -1   3 82347.9 1448.44
   2  -1   3 77567.1 897.918
   2  -1   3 80355.9 1191.03
  -2   1  -4 125233. 1631.53
   2  -1   4 127807. 1724.82
   2  -1   4 128179. 1898.94
  -2   1  -4 128549. 1751.64
  -2   1  -4 138475. 1963.67
   2  -1   4 127608. 1297.79
   2  -1   4 127622. 1586.13
   2  -1   4 135041. 1148.85
  -2   1  -5 98988.6 1632.35
  -2   1  -5 99849.6 1611.26
  -2   1  -5 105640. 1816.56
   2  -1   5 104213. 1124.24
   2  -1   5 94406.0 1446.09
   2  -1   5 103085. 1294.84
   2  -1   6 68803.0 1267.19
   2  -1   6 68194.5 1171.23
   2  -1   6 71760.3 1044.02
  -2   1  -6 74015.8 1479.38
  -2   1  -6 74133.6 1616.17
  -2   1  -6 70946.4 1430.74
  -2   1  -7 451.263 287.616
   2  -1   7-98.5875 188.293
   2  -1   7 565.817 190.311
   2  -1   7 474.180 153.517
  -2   1  -7 730.830 225.949
   2  -1   8 30457.4 799.590
  -2   1  -8 32579.6 1175.85
  -2   1  -8 31199.0 1046.66
   2  -1   9 38626.2 1112.17
  -2   1  -9 40563.9 1221.56
   2  -1   9 38134.9 951.376
  -2   1  -9 41409.4 1375.88
  -2   1 -10-150.460 289.984
  -2   1 -10-395.966 261.940
   2  -1  10-233.867 242.136
   2  -1  10 35.4201 176.235
   2  -1  11 105130. 1971.02
  -2   1 -11 113082. 2431.19
  -2   1 -11 107436. 2151.83
   2  -1  11 109305. 1798.79
   2  -1  12 135004. 2288.57
  -2   1 -12 142364. 2571.29
   2  -1  12 138382. 2136.54
  -2   1 -12 143700. 2848.80
   2  -1  13 76300.9 1816.06
  -2   1 -13 72310.9 1918.72
   2  -1  13 73921.5 1662.14
  -2   1 -13 76662.8 2195.67
   2  -1  14 8648.85 687.471
   2  -1  14 9235.77 648.503
  -2   1 -14 7854.96 720.791
  -2   1 -14 8163.90 783.481
  -2   1 -15 471.866 379.859
   2  -1  15-218.249 317.500
   2  -1  15 17.5004 275.841
  -2   1 -15-303.026 316.211
   2  -1  16 1191.33 374.929
  -2   1 -16 698.474 400.237
  -2   1 -16 617.190 400.040
   2  -1  16-13.7725 278.135
   2  -1  17 56.3135 307.536
  -2   1 -17-158.577 418.691
  -2   1 -17 690.704 367.764
   2  -1  17 332.143 329.016
  -2   1 -18 425.507 427.943
   2  -1  18 138.174 336.295
   2  -1  18 305.732 367.222
  -2   1 -18 379.695 435.612
   2  -1  19 1285.24 456.966
  -2   1 -19 341.817 441.837
  -2   1 -19 323.210 425.766
   2  -1  19 1503.97 497.881
  -2   1 -20 913.680 543.582
   2  -1  20-294.043 423.404
   2  -1  20 540.155 407.037
   2  -1  21-1183.31 531.074
   2   0 -20 1202.32 565.875
  -2   0  20 923.730 495.210
   2   0 -19 818.310 472.149
   2   0 -19 1163.85 522.437
  -2   0  19 224.674 397.663
   2   0 -18 460.114 409.488
   2   0 -18 302.237 382.974
  -2   0  18 973.769 428.052
   2   0 -17 1743.23 490.606
   2   0 -17 1924.48 515.987
  -2   0  17 1561.34 453.926
   2   0 -16-291.678 344.305
  -2   0  16 486.368 376.700
   2   0 -16-123.883 338.652
   2   0 -15 24582.2 1259.56
  -2   0  15 25997.1 1172.89
   2   0 -14 3680.51 546.679
  -2   0  14 3706.81 308.648
   2   0 -14 3742.63 508.180
  -2   0  14 4157.85 497.881
   2   0 -13 47311.0 1596.10
  -2   0  13 46544.2 1407.80
   2   0 -13 48342.4 1563.86
  -2   0  13 44066.7 890.567
   2   0 -12 6774.11 613.257
  -2   0  12 6737.92 559.717
   2   0 -12 7700.57 632.343
   2   0 -12 5429.24 352.995
  -2   0  12 6337.93 331.754
   2   0 -11 49538.9 1514.32
  -2   0  11 48502.0 1301.17
   2   0 -11 51712.2 1480.02
   2   0 -11 45041.2 835.647
  -2   0  11 45668.1 768.969
   2   0 -10 8095.46 618.691
  -2   0  10 9812.36 589.830
   2   0 -10 9233.41 631.877
  -2   0  10 9268.81 316.666
   2   0 -10 8680.63 328.837
  -2   0   9 34460.0 514.532
   2   0  -9 35282.9 1158.78
  -2   0   9 33777.6 984.258
   2   0  -9 36396.8 1131.71
   2   0  -8 1392.43 293.350
   2   0  -8 1099.31 258.838
  -2   0   8 1138.02 88.0322
   2   0  -8 692.543 85.6985
   2   0  -7 54537.2 1237.48
   2   0  -7 54224.0 1297.35
  -2   0   7 53364.7 1254.87
  -2   0   7 54804.5 1108.72
  -2   0   6 19485.3 631.926
  -2   0   6 19813.4 742.113
   2   0  -6 18063.9 693.057
   2   0  -6 18614.0 643.510
   2   0  -6 19333.9 744.442
  -2   0   5 423068. 3365.46
  -2   0   5 423185. 3166.03
   2   0  -5 415076. 2718.29
   2   0  -4 9024.86 382.888
  -2   0   4 9143.43 472.521
   2   0  -4 7798.38 432.285
  -2   0   4 8933.78 368.690
  -2   0   4 8022.73 445.873
   2   0  -4 8983.60 459.024
   2   0  -3 70954.2 920.791
  -2   0   3 76052.0 1253.31
   2   0  -3 69208.3 1173.02
   2   0  -3 69205.6 556.279
  -2   0   3 70129.6 881.768
   2   0  -3 71761.5 1220.29
  -2   0   3 68173.3 543.857
  -2   0   3 74197.7 1240.87
  -2   0   2 244681. 2084.69
  -2   0   2 240810. 2187.66
  -2   0   0 62270.9 854.311
   2   0   0 65696.1 843.031
  -2   0   0 66952.2 1083.03
  -2   0   0 64964.0 1134.41
   2   0   0 65179.8 1137.08
   2   0   0 66245.5 1050.18
  -2   0  -1 111474. 1211.01
   2   0   1 109848. 1185.81
  -2   0  -1 109785. 1515.26
   2   0   1 111466. 1385.85
   2   0   2 34854.6 893.000
   2   0   2 34426.6 723.309
   2   0   2 35755.6 833.080
  -2   0  -2 34744.3 885.399
  -2   0  -2 35892.9 847.980
  -2   0  -2 35039.5 751.635
  -2   0  -3 495706. 3540.61
  -2   0  -3 500974. 3539.52
  -2   0  -4 76539.5 1364.00
  -2   0  -4 76668.7 1442.25
  -2   0  -4 79099.3 857.022
   2   0   4 76207.5 809.921
   2   0   4 76588.0 1221.20
   2   0   4 75737.3 1385.61
  -2   0  -4 77039.5 1491.81
  -2   0  -4 76281.6 1253.03
   2   0   5 393889. 2932.30
  -2   0  -5 394757. 3412.64
   2   0   5 389326. 3277.11
   2   0   6 1877.11 269.966
  -2   0  -6 1535.40 193.237
   2   0   6 2028.71 213.363
  -2   0  -6 1727.82 307.036
   2   0   6 1810.96 292.238
  -2   0  -6 1539.72 304.781
   2   0   7 218711. 2399.67
  -2   0  -7 227187. 2063.69
   2   0   7 221694. 1946.87
  -2   0  -7 217387. 2769.33
  -2   0  -7 225363. 2744.78
   2   0   8 6032.12 452.450
  -2   0  -8 5528.89 504.825
   2   0   8 5560.66 362.526
  -2   0  -8 5785.31 518.657
  -2   0  -9 45.3151 257.870
   2   0   9 335.072 237.206
   2   0   9 344.851 170.176
  -2   0  -9 7.26545 224.705
   2   0  10 6210.12 508.491
  -2   0 -10 6513.08 593.335
   2   0  10 7361.36 483.799
  -2   0 -10 6181.32 589.362
   2   0  11 24413.7 975.955
  -2   0 -11 24811.7 1130.10
   2   0  11 26589.2 919.186
  -2   0 -11 26077.9 1143.76
   2   0  12 45345.0 1367.54
  -2   0 -12 45101.0 1549.16
   2   0  12 44874.4 1254.42
  -2   0 -12 49360.2 1631.67
  -2   0 -13 12229.4 877.962
   2   0  13 13263.3 796.788
   2   0  13 14592.3 786.049
  -2   0 -13 13808.5 924.390
  -2   0 -14 1260.60 407.957
   2   0  14 2255.29 392.733
   2   0  14 1889.57 387.781
  -2   0 -14 2625.29 494.704
  -2   0 -15 5153.95 666.724
  -2   0 -15 4120.43 620.578
   2   0  15 4743.62 550.970
   2   0  15 4006.05 509.624
  -2   0 -16 381.309 352.440
  -2   0 -16 165.680 378.822
   2   0  16 1031.11 385.119
   2   0  16-11.3513 297.193
   2   0  17-380.611 356.198
  -2   0 -17 170.386 385.436
   2   0  17 382.535 319.165
  -2   0 -18 357.759 443.991
   2   0  18 33.6804 356.132
  -2   0 -18 340.671 447.383
   2   0  18 374.325 380.430
   2   0  19-3.57236 370.567
  -2   0 -19 742.299 481.794
  -2   0 -19 55.4757 444.090
   2   0  19 592.126 409.990
   2   0  20 110.384 401.610
  -2   0 -20 1168.56 561.449
   2   0  20 526.264 440.102
  -2   0 -20-147.180 480.043
   2   1 -20-217.841 438.150
  -2  -1  20 261.074 377.250
  -2  -1  19 1224.76 458.707
   2   1 -19 430.042 441.660
   2   1 -18 179.147 383.103
  -2  -1  18 41.0800 348.683
   2   1 -17 556.658 414.488
   2   1 -17 812.366 378.243
  -2  -1  17 571.979 416.570
   2   1 -16 1668.51 458.774
   2   1 -16 1136.32 371.456
  -2  -1  16 2084.06 457.793
   2   1 -15 2009.92 459.949
   2   1 -15 2914.18 460.094
  -2  -1  15 2581.20 467.559
   2   1 -14 8910.28 787.735
  -2  -1  14 8594.66 677.762
   2   1 -14 8095.66 648.092
  -2  -1  14 8204.05 428.883
   2   1 -13 3885.86 538.783
  -2  -1  13 4135.76 313.325
   2   1 -13 3492.97 445.489
  -2  -1  13 3608.14 462.537
   2   1 -12 13102.4 721.892
  -2  -1  12 13032.7 472.009
   2   1 -12 13673.7 548.362
   2   1 -12 13482.9 861.521
  -2  -1  12 12670.2 735.301
  -2  -1  11 3611.82 256.539
   2   1 -11 3871.44 486.104
  -2  -1  11 3972.89 421.692
   2   1 -11 3994.40 303.640
   2   1 -11 4704.48 434.391
   2   1 -10 34161.7 1208.62
   2   1 -10 35313.9 744.657
  -2  -1  10 33702.2 1038.61
  -2  -1  10 35472.9 644.673
   2   1  -9 32778.0 1139.18
   2   1  -9 33393.9 962.619
   2   1  -9 34319.9 681.413
  -2  -1   9 31301.4 970.805
  -2  -1   9 32761.7 971.739
  -2  -1   9 34929.5 609.703
   2   1  -8 3318.65 402.880
   2   1  -8 3789.80 219.928
  -2  -1   8 3692.69 335.753
   2   1  -8 3279.39 316.868
  -2  -1   8 3617.33 336.162
  -2  -1   8 3934.01 209.095
   2   1  -7 398.341 229.867
  -2  -1   7 399.974 95.2411
   2   1  -7 104.420 145.771
  -2  -1   7 324.458 186.357
  -2  -1   7 429.376 174.884
   2   1  -7 382.254 97.0103
   2   1  -6 231997. 2543.34
  -2  -1   6 232224. 2176.94
  -2  -1   6 233344. 2214.00
  -2  -1   6 234161. 1467.11
   2   1  -6 233302. 2184.35
  -2  -1   5 359205. 3100.32
  -2  -1   5 363655. 2684.20
  -2  -1   4 65227.6 816.169
  -2  -1   4 63447.0 1111.68
   2   1  -4 59884.4 1140.22
  -2  -1   4 64124.9 1156.16
  -2  -1   4 60207.8 981.401
  -2  -1   4 61623.8 784.663
  -2  -1   4 59654.4 1185.76
   2   1  -4 61858.7 1090.09
  -2  -1   3 2323.00 200.510
  -2  -1   3 2513.93 247.113
   2   1  -3 2348.45 241.160
   2   1  -3 2323.30 220.417
   2   1  -3 2676.27 260.216
  -2  -1   3 2949.19 195.758
  -2  -1   3 2684.40 251.467
  -2  -1   3 2381.18 220.791
  -2  -1   2 164024. 1672.59
  -2  -1   2 162425. 1762.00
  -2  -1   2 160082. 1348.22
   2   1  -2 157897. 1459.27
  -2  -1   2 161319. 1531.73
  -2  -1   1 18748.3 532.935
  -2  -1   1 19548.0 506.984
  -2  -1   1 18277.6 619.752
   2   1  -1 18379.2 625.059
   2   1  -1 19796.2 538.807
  -2  -1   1 19015.9 544.219
  -2  -1   1 19312.4 494.769
   2   1  -1 18239.8 448.351
  -2  -1   0 280456. 1634.40
   2   1   0 275453. 1953.96
  -2  -1   0 281063. 2445.48
  -2  -1  -1 353101. 2933.16
   2   1   1 349854. 2209.09
  -2  -1  -2 178996. 2146.57
  -2  -1  -2 178247. 1813.72
   2   1   2 172045. 1803.82
  -2  -1  -2 176441. 2177.28
  -2  -1  -2 177664. 1221.71
   2   1   2 174419. 1627.13
  -2  -1  -2 180018. 1671.20
   2   1   2 170482. 1327.90
  -2  -1  -3 153531. 1774.99
  -2  -1  -3 162735. 2143.72
   2   1   3 160086. 1816.29
  -2  -1  -3 163536. 1272.37
   2   1   3 157354. 1368.03
   2   1   3 158077. 1675.77
  -2  -1  -3 161054. 1684.65
  -2  -1  -4 28246.6 772.533
  -2  -1  -4 27032.7 584.063
   2   1   4 27221.1 620.325
   2   1   4 21601.4 718.155
  -2  -1  -4 22039.2 845.613
   2   1   4 28671.0 778.015
   2   1   5 410158. 3126.97
   2   1   5 406535. 3164.79
  -2  -1  -5 415190. 2475.25
  -2  -1  -5 420342. 3068.24
  -2  -1  -5 427173. 3782.11
   2   1   6 73052.4 1413.62
  -2  -1  -6 77467.2 1165.76
   2   1   6 76320.7 1200.90
  -2  -1  -6 78731.2 1694.75
   2   1   6 74330.4 1451.60
  -2  -1  -6 78353.1 1441.05
   2   1   7 12877.2 641.202
  -2  -1  -7 14143.9 776.776
   2   1   7 12950.2 542.740
  -2  -1  -7 12690.6 524.107
  -2  -1  -7 13985.6 661.309
  -2  -1  -8 12983.9 785.641
   2   1   8 13159.9 676.684
   2   1   8 13249.0 586.888
  -2  -1  -8 14886.3 729.763
  -2  -1  -9 2603.96 425.821
   2   1   9 2107.49 304.187
  -2  -1  -9 2152.06 365.376
   2   1   9 1728.44 306.996
  -2  -1 -10 24320.9 1137.92
   2   1  10 22574.3 871.197
   2   1  10 22734.8 959.010
  -2  -1 -10 20910.2 934.969
  -2  -1 -11 3079.27 457.471
  -2  -1 -11 3972.27 558.196
   2   1  11 3564.10 461.400
   2   1  11 3567.24 441.316
  -2  -1 -12 35223.3 1457.84
   2   1  12 33244.2 1169.34
   2   1  12 34038.5 1265.43
  -2  -1 -12 34314.6 1300.18
  -2  -1 -13 3039.16 482.073
   2   1  13 3288.51 465.108
   2   1  13 3395.12 486.534
  -2  -1 -13 2443.12 511.393
   2   1  14 1980.04 427.879
  -2  -1 -14 2449.84 467.301
  -2  -1 -14 2450.32 530.836
   2   1  14 2401.74 425.147
   2   1  15 161.489 309.224
  -2  -1 -15 759.585 385.088
  -2  -1 -15 277.675 374.850
   2   1  15 708.316 338.269
   2   1  16-240.444 346.001
  -2  -1 -16-101.308 352.716
  -2  -1 -16-22.2080 406.121
   2   1  16-87.5919 305.246
  -2  -1 -17-108.576 368.505
   2   1  17 425.701 374.462
   2   1  17 22.0499 364.963
  -2  -1 -17 737.951 458.761
  -2  -1 -18 888.355 467.594
   2   1  18-414.552 389.240
  -2  -1 -18 989.556 531.983
   2   1  18 46.9157 366.812
  -2  -1 -19-24.9382 437.069
   2   1  19 506.958 417.126
   2   1  19 6.30920 414.650
  -2  -1 -19-241.651 491.091
   2   1  20 282.065 451.126
   2   1  20 394.082 479.992
   2   2 -20 211.916 470.987
  -2  -2  20 170.122 414.262
   2   2 -19 1844.52 581.579
  -2  -2  19 2408.64 539.117
   2   2 -18 850.616 467.546
  -2  -2  18 508.618 394.086
  -2  -2  17 621.052 396.938
   2   2 -17 624.506 425.637
   2   2 -16 200.877 363.795
  -2  -2  16-92.3980 303.467
  -2  -2  15 4851.93 391.586
   2   2 -15 5180.90 656.162
  -2  -2  15 5642.02 601.913
   2   2 -15 5040.87 495.999
   2   2 -14 39322.3 1566.16
  -2  -2  14 40137.7 965.344
  -2  -2  14 41724.1 1411.04
   2   2 -14 41435.2 1218.13
  -2  -2  13-208.975 188.670
   2   2 -13 676.450 337.257
   2   2 -13 110.819 200.742
  -2  -2  13 127.216 267.470
   2   2 -12 12076.9 831.928
  -2  -2  12 12190.5 743.473
   2   2 -12 11034.9 574.967
  -2  -2  12 12851.7 530.140
   2   2 -12 13128.4 638.576
   2   2 -11 21226.0 744.491
   2   2 -11 22854.6 1084.42
  -2  -2  11 24007.4 812.646
  -2  -2  11 22957.4 933.626
   2   2 -11 22925.8 763.124
  -2  -2  11 24461.9 708.289
   2   2 -10 3256.23 299.230
   2   2 -10 3731.33 460.226
  -2  -2  10 3465.67 292.517
  -2  -2  10 3735.46 336.115
   2   2 -10 3661.73 308.323
  -2  -2  10 3352.28 366.538
   2   2  -9 19959.9 921.631
  -2  -2   9 19855.7 807.194
   2   2  -9 20339.7 649.121
   2   2  -9 20493.0 657.126
  -2  -2   9 20183.2 641.661
  -2  -2   9 20166.7 673.281
   2   2  -8 4848.65 316.502
   2   2  -8 4698.32 452.339
  -2  -2   8 4670.32 409.821
  -2  -2   8 4937.24 334.295
  -2  -2   8 4311.61 309.500
   2   2  -8 5186.92 333.350
   2   2  -7 3316.07 367.301
  -2  -2   7 3091.78 265.184
   2   2  -7 2838.05 258.038
  -2  -2   7 3277.53 266.682
  -2  -2   7 2784.64 319.941
  -2  -2   6 4390.59 359.976
   2   2  -6 4944.10 431.026
  -2  -2   6 5081.90 319.652
  -2  -2   6 3873.22 338.007
   2   2  -6 5140.34 313.228
  -2  -2   6 5602.78 327.924
   2   2  -5 142.023 123.431
  -2  -2   5 46.7318 170.015
  -2  -2   5 56.9287 174.618
  -2  -2   5-16.4041 177.334
   2   2  -5 35.2103 202.613
  -2  -2   5 11.5458 130.229
  -2  -2   5 84.1800 132.043
  -2  -2   5 211.545 180.898
  -2  -2   4 397261. 3084.52
   2   2  -4 401062. 2987.82
  -2  -2   4 410199. 3319.22
  -2  -2   4 407341. 2713.75
  -2  -2   3 74768.5 1212.80
   2   2  -3 70415.3 1135.56
  -2  -2   3 74360.8 1152.27
  -2  -2   3 71982.6 1188.24
  -2  -2   3 73802.5 1208.83
  -2  -2   3 74361.2 1345.54
   2   2  -3 71612.3 1236.87
  -2  -2   2 290399. 2158.26
   2   2  -2 296203. 2158.08
   2   2  -2 273740. 2619.44
  -2  -2   2 280162. 2410.77
  -2  -2   2 292850. 2500.03
  -2  -2   2 286981. 2380.30
  -2  -2   2 287200. 2472.86
   2   2  -2 279027. 2401.21
  -2  -2   1 669.719 155.682
   2   2  -1 407.381 156.542
  -2  -2   1 905.765 148.421
  -2  -2   1 772.806 189.722
   2   2  -1 606.595 198.865
  -2  -2   1 718.459 199.211
  -2  -2   1 944.518 147.855
  -2  -2   1 739.630 199.180
  -2  -2   0 417422. 3211.19
  -2  -2   0 416445. 2971.46
  -2  -2   0 420802. 3368.25
  -2  -2   0 427793. 2764.84
   2   2   0 423328. 3160.34
  -2  -2  -1 50893.2 720.259
  -2  -2  -1 46547.8 713.365
  -2  -2  -1 48593.1 907.969
   2   2   1 48544.0 976.621
   2   2   1 47884.9 1097.95
  -2  -2  -1 47079.8 1152.55
  -2  -2  -2 694.921 144.627
   2   2   2 797.395 176.440
  -2  -2  -2 326.852 212.795
  -2  -2  -2 1138.64 192.218
   2   2   2 788.408 238.682
   2   2   2 672.840 122.003
  -2  -2  -3 317767. 2330.69
  -2  -2  -3 317358. 3217.42
   2   2   3 312583. 2522.27
   2   2   3 316916. 1971.22
  -2  -2  -3 313555. 2009.34
  -2  -2  -4 108731. 1970.76
   2   2   4 106638. 1757.46
   2   2   4 106419. 1499.89
  -2  -2  -4 109386. 1421.17
   2   2   4 109832. 1321.62
  -2  -2  -4 108984. 1315.82
  -2  -2  -5 16692.6 831.881
  -2  -2  -5 14867.1 566.563
   2   2   5 15195.2 610.497
   2   2   5 15968.1 733.511
   2   2   5 17090.7 597.291
  -2  -2  -5 16022.6 562.660
   2   2   6 1070.44 212.698
   2   2   6 288.265 230.340
  -2  -2  -6 655.219 198.030
  -2  -2  -6 151.171 238.390
   2   2   6 796.611 204.863
   2   2   7 608.265 212.958
  -2  -2  -7 670.462 218.545
  -2  -2  -7 616.646 279.260
   2   2   7 503.012 242.851
   2   2   7 624.152 207.226
  -2  -2  -8 9517.25 545.575
  -2  -2  -8 9568.02 720.455
   2   2   8 9430.24 642.510
   2   2   8 10092.7 588.047
  -2  -2  -9 791.895 241.871
   2   2   9 1091.01 321.744
  -2  -2  -9 875.289 324.416
   2   2   9 905.790 273.611
  -2  -2 -10 6.29259 221.381
  -2  -2 -10 551.191 375.268
   2   2  10-8.79058 266.390
   2   2  10 552.295 276.829
  -2  -2 -11 11078.9 692.488
   2   2  11 11633.9 720.073
  -2  -2 -11 10356.9 845.492
   2   2  11 12342.2 816.986
  -2  -2 -12 385.078 287.820
   2   2  12-55.6606 286.535
  -2  -2 -12-683.006 398.574
   2   2  12-165.095 261.925
  -2  -2 -13 842.833 394.241
  -2  -2 -13 152.444 281.715
   2   2  13 801.095 332.500
   2   2  14 5482.46 646.940
  -2  -2 -14 6308.18 639.395
  -2  -2 -14 5781.40 769.131
   2   2  14 5415.55 598.050
  -2  -2 -15 502.172 350.517
   2   2  15-708.703 404.396
   2   2  15 514.501 356.012
  -2  -2 -15-263.730 423.977
  -2  -2 -16 1500.76 540.579
   2   2  16 1397.28 461.111
   2   2  16 447.141 382.019
  -2  -2 -17 792.914 568.629
   2   2  17 881.571 460.904
   2   2  17 186.788 386.488
  -2  -2 -18 537.555 506.559
   2   2  18-756.592 503.918
   2   2  18 521.910 413.021
   2   2  19 262.420 452.488
   2   2  19 35.3437 440.930
   2   3 -20-661.105 504.647
  -2  -3  20 313.361 409.024
   2   3 -19 421.130 458.379
  -2  -3  19-520.945 410.318
   2   3 -18-41.2108 384.622
  -2  -3  18-99.3831 346.103
   2   3 -17 2603.10 574.260
  -2  -3  17 3070.53 524.411
   2   3 -16 444.764 422.848
  -2  -3  16-233.051 335.014
   2   3 -15 597.760 397.967
  -2  -3  15 60.3019 282.059
  -2  -3  15 241.791 199.296
   2   3 -14 3762.20 589.354
  -2  -3  14 4696.82 436.521
  -2  -3  14 4134.26 530.663
  -2  -3  13 338.775 250.177
   2   3 -13 319.650 153.075
  -2  -3  13 477.985 233.259
   2   3 -13 895.019 388.634
   2   3 -12 88915.7 2195.11
  -2  -3  12 87130.5 1915.60
   2   3 -12 83676.0 1182.70
  -2  -3  12 92574.2 1639.58
  -2  -3  11 17377.2 530.445
  -2  -3  11 17497.4 880.310
   2   3 -11 18814.9 536.695
  -2  -3  11 20718.8 775.965
   2   3 -11 20280.0 1044.20
   2   3 -10 25776.2 1105.80
  -2  -3  10 25028.0 985.105
  -2  -3  10 23247.0 588.987
  -2  -3  10 23888.5 827.083
   2   3 -10 21562.6 542.978
  -2  -3   9 1729.96 299.965
   2   3  -9 1372.95 336.212
  -2  -3   9 1495.39 177.692
   2   3  -9 1617.24 163.772
  -2  -3   9 1374.53 247.962
   2   3  -8 14198.7 762.235
  -2  -3   8 13729.7 442.735
  -2  -3   8 12023.1 599.031
   2   3  -8 13727.5 424.170
  -2  -3   8 14110.7 708.387
   2   3  -7 40687.3 1195.62
  -2  -3   7 38916.2 742.804
  -2  -3   7 39284.3 750.554
  -2  -3   7 38567.3 1102.81
   2   3  -6 6511.98 558.193
   2   3  -6 5208.12 430.574
  -2  -3   6 5798.26 327.131
  -2  -3   6 5130.77 305.619
  -2  -3   6 5511.97 404.567
   2   3  -5 193443. 2489.44
  -2  -3   5 194769. 1814.71
   2   3  -5 199504. 2276.89
  -2  -3   5 185587. 2199.54
  -2  -3   5 197096. 1870.29
  -2  -3   5 189840. 2360.82
   2   3  -4 139300. 1749.55
  -2  -3   4 135654. 1860.14
  -2  -3   4 136189. 1616.17
  -2  -3   4 135390. 1650.79
   2   3  -4 142416. 2098.37
  -2  -3   4 136685. 1843.57
  -2  -3   3 179391. 2163.52
   2   3  -3 179320. 1787.14
  -2  -3   3 177730. 1941.09
  -2  -3   3 180280. 2021.56
   2   3  -3 177808. 2298.23
  -2  -3   3 180384. 1916.13
   2   3  -2 8344.72 352.792
  -2  -3   2 8585.36 503.487
  -2  -3   2 8198.04 459.283
   2   3  -2 8521.44 522.723
  -2  -3   2 8224.15 388.100
   2   3  -1 117959. 2086.34
  -2  -3   1 115480. 1820.38
  -2  -3   1 118928. 1764.72
  -2  -3   1 115766. 1129.26
   2   3  -1 119676. 1859.88
  -2  -3   1 115622. 1189.14
  -2  -3   0 304.038 176.144
   2   3   0 405.451 204.308
  -2  -3   0 433.001 88.8072
   2   3   0 357.553 231.940
  -2  -3   0 225.055 194.123
  -2  -3   0 433.551 84.4688
   2   3   1 27938.3 1006.41
   2   3   1 28510.3 927.800
  -2  -3  -1 28574.5 865.206
  -2  -3  -2 20309.0 864.522
   2   3   2 19694.9 767.316
   2   3   2 20957.2 898.387
  -2  -3  -3 45668.5 1346.85
   2   3   3 43106.3 1135.58
   2   3   3 46637.3 1346.94
   2   3   4 23893.7 876.395
  -2  -3  -4 24885.2 1041.79
   2   3   4 23916.5 988.491
  -2  -3  -5 6681.18 290.540
  -2  -3  -5 7646.21 636.180
   2   3   5 7558.15 599.644
   2   3   5 8082.38 546.845
   2   3   5 6988.32 305.095
   2   3   6 780.687 163.400
   2   3   6 686.476 254.675
  -2  -3  -6 666.140 158.515
  -2  -3  -6 762.543 342.622
   2   3   6 979.944 330.843
  -2  -3  -7 20400.9 648.626
  -2  -3  -7 20840.0 1062.94
   2   3   7 22031.9 921.658
   2   3   7 21358.1 999.133
   2   3   7 21469.5 721.014
  -2  -3  -8 1344.27 232.975
   2   3   8 1666.36 327.968
   2   3   8 1853.72 294.743
  -2  -3  -8 1916.61 437.093
   2   3   8 1443.03 367.518
  -2  -3  -9 6322.34 452.598
  -2  -3  -9 5466.08 654.557
   2   3   9 5800.86 547.307
   2   3   9 5505.65 615.267
  -2  -3 -10 2309.27 338.079
  -2  -3 -10 2210.38 491.457
   2   3  10 1344.32 403.364
   2   3  10 1548.20 362.577
  -2  -3 -11 1230.60 297.035
  -2  -3 -11 1151.22 445.153
   2   3  11 1117.61 390.259
   2   3  11 2045.61 413.582
  -2  -3 -12 1489.55 458.843
   2   3  12 1648.88 448.160
   2   3  12 1139.08 359.447
   2   3  13 381.643 375.335
  -2  -3 -13 575.803 437.724
   2   3  13-207.427 323.180
  -2  -3 -14 1826.97 591.051
   2   3  14 1366.18 475.253
   2   3  14 1394.37 443.607
  -2  -3 -15 1263.98 559.857
   2   3  15 193.375 355.049
  -2  -3 -16 627.652 564.024
   2   3  16 527.664 449.430
   2   3  16-42.2730 433.945
   2   3  17 709.676 520.639
  -2  -3 -17 91.5272 520.748
   2   3  17-68.9033 411.745
   2   3  18 338.946 505.712
   2   3  18-252.891 445.637
  -2  -4  19 478.980 432.980
   2   4 -19 870.220 550.944
   2   4 -18 637.344 477.361
  -2  -4  18 681.999 426.837
   2   4 -17 1744.97 556.636
  -2  -4  17 1537.39 440.226
   2   4 -16 75.2748 410.735
  -2  -4  16 349.893 314.639
   2   4 -15-147.252 393.961
  -2  -4  15 342.843 324.265
  -2  -4  15 43.0700 231.139
   2   4 -14 143.028 342.558
  -2  -4  14 588.161 280.247
  -2  -4  14 17.1556 267.554
  -2  -4  13 719.347 286.038
   2   4 -13 1259.97 447.820
  -2  -4  13 638.508 339.041
   2   4 -12 78373.2 2124.87
  -2  -4  12 79623.6 1965.55
  -2  -4  12 75264.7 1702.97
   2   4 -11 1384.78 419.879
  -2  -4  11 811.334 285.396
  -2  -4  11 1066.06 366.534
   2   4 -10 10976.1 770.109
  -2  -4  10 10323.4 704.704
  -2  -4  10 10523.7 633.750
  -2  -4   9 1059.04 268.914
   2   4  -9 356.999 266.718
  -2  -4   9 576.029 274.445
   2   4  -8 15264.7 869.399
   2   4  -8 14974.7 802.276
  -2  -4   8 11344.1 278.434
  -2  -4   8 14681.7 735.528
   2   4  -7 27622.1 1118.19
   2   4  -7 27830.2 1014.75
  -2  -4   7 25795.2 965.497
  -2  -4   7 26613.0 556.238
   2   4  -6 71544.7 1722.36
   2   4  -6 75149.8 1532.89
  -2  -4   6 72806.5 1054.88
  -2  -4   6 70820.8 1574.59
  -2  -4   6 68219.8 1079.14
   2   4  -5 109470. 1712.67
  -2  -4   5 103781. 1392.83
  -2  -4   5 104314. 1461.63
  -2  -4   5 106233. 1926.16
  -2  -4   5 100185. 1799.02
   2   4  -5 104545. 2067.28
   2   4  -4 40619.9 958.277
  -2  -4   4 37995.4 919.194
  -2  -4   4 36860.2 1142.98
  -2  -4   4 37072.6 953.231
  -2  -4   4 37294.9 1020.71
   2   4  -4 39252.7 1259.83
   2   4  -3 130786. 1504.16
  -2  -4   3 126258. 1778.83
  -2  -4   3 126955. 1916.55
  -2  -4   3 128305. 2101.75
   2   4  -3 130585. 2270.39
  -2  -4   3 127050. 1674.36
   2   4  -2 22495.5 542.984
  -2  -4   2 22709.1 910.593
  -2  -4   2 22344.5 802.529
   2   4  -2 22605.3 964.678
  -2  -4   2 22531.8 601.022
  -2  -4   1 2808.07 160.225
  -2  -4   1 3355.66 363.900
  -2  -4   1 3221.04 382.337
   2   4  -1 3568.33 419.530
  -2  -4   1 2981.41 175.596
   2   4   0 175.404 201.992
  -2  -4   0-19.8839 206.867
   2   4   0 57.9469 261.563
   2   4   1 5790.58 606.734
  -2  -4  -1 5894.60 514.349
   2   4   1 5755.50 518.018
   2   4   2 65065.6 1612.73
  -2  -4  -2 68377.3 1669.79
   2   4   3 4119.90 518.297
   2   4   3 5726.85 514.840
  -2  -4  -3 5593.64 540.551
   2   4   4 3687.38 514.052
  -2  -4  -4 4330.60 506.595
   2   4   4 4105.55 454.336
   2   4   5 8681.55 721.570
   2   4   5 8469.21 633.466
  -2  -4  -5 9522.37 757.348
  -2  -4  -6 19476.3 1086.04
   2   4   6 18799.0 951.650
   2   4   6 18273.0 1031.74
  -2  -4  -7 3375.68 531.680
   2   4   7 2550.50 481.302
   2   4   7 3165.91 446.830
   2   4   8 374.413 281.820
   2   4   8 29.9674 336.113
  -2  -4  -8 81.5320 332.258
   2   4   9 717.046 335.645
   2   4   9 710.140 377.150
  -2  -4  -9 337.225 340.775
   2   4  10 273.388 356.031
  -2  -4 -10 1161.75 469.122
   2   4  10 524.341 323.942
   2   4  11-127.404 348.284
  -2  -4 -11 568.357 423.484
   2   4  11 563.619 350.883
   2   4  12 549.703 478.539
  -2  -4 -12 523.262 462.686
   2   4  12 178.232 378.438
   2   4  13 1430.29 545.908
  -2  -4 -13 2461.58 679.948
   2   4  13 1312.71 465.310
  -2  -4 -14 1507.71 604.607
   2   4  14 2650.00 629.051
   2   4  14 2303.25 560.336
   2   4  15 1698.59 598.248
  -2  -4 -15 1253.67 589.378
   2   4  15 323.979 417.702
   2   4  16 1189.18 615.629
   2   4  16 1922.94 586.191
   2   5 -19-504.909 548.506
   2   5 -18 257.324 454.361
  -2  -5  18 422.768 381.528
   2   5 -17-374.200 487.565
  -2  -5  17-121.667 350.309
   2   5 -16 177.882 397.221
  -2  -5  16 229.340 337.290
   2   5 -15 1250.90 463.121
  -2  -5  15 951.753 387.881
  -2  -5  15 215.961 279.697
   2   5 -14 8138.20 819.379
  -2  -5  14 6998.56 718.035
  -2  -5  14 6296.66 620.918
   2   5 -13 1183.90 447.017
  -2  -5  13 1225.51 390.639
  -2  -5  13 1674.02 377.094
   2   5 -12 175114. 3273.26
  -2  -5  12 181126. 3139.30
  -2  -5  12 184574. 2858.81
  -2  -5  11 1842.91 406.352
   2   5 -11 1388.52 424.400
  -2  -5  11 2010.53 445.958
   2   5 -10 40604.9 1449.95
  -2  -5  10 38656.9 1331.60
  -2  -5  10 38315.4 1398.21
   2   5  -9 5407.13 629.024
   2   5  -9 5040.78 541.692
  -2  -5   9 4655.23 495.870
   2   5  -8 4620.48 555.212
   2   5  -8 5471.05 523.131
  -2  -5   8 3938.24 472.649
   2   5  -7 387.477 246.785
   2   5  -7-257.840 301.788
  -2  -5   7 326.248 120.867
  -2  -5   7 494.891 280.631
   2   5  -6 464.517 212.667
   2   5  -6 358.675 298.337
  -2  -5   6 249.912 164.615
  -2  -5   6 19.3734 241.128
  -2  -5   6 295.896 143.083
   2   5  -5 26359.3 855.454
  -2  -5   5 25217.4 815.452
  -2  -5   5 27097.5 794.211
  -2  -5   5 23628.7 1054.32
   2   5  -5 25541.5 1160.37
  -2  -5   4 154.108 196.935
   2   5  -4 553.378 313.735
   2   5  -4 446.489 191.624
  -2  -5   4 468.475 201.554
  -2  -5   4 186.127 204.116
  -2  -5   4 390.187 288.399
   2   5  -3 21262.5 596.135
  -2  -5   3 20292.4 790.935
  -2  -5   3 21695.3 982.007
  -2  -5   3 19961.0 650.332
   2   5  -3 19089.5 1011.22
  -2  -5   2 17407.3 906.892
  -2  -5   2 15973.1 449.650
   2   5  -1 954.854 321.944
  -2  -5   1 1004.36 332.246
  -2  -5   1 1171.43 296.440
  -2  -5   0 7686.08 629.103
  -2  -5   0 7491.89 588.858
   2   5   0 8899.41 709.755
  -2  -5  -1 2427.14 421.303
   2   5   1 2272.82 418.612
  -2  -5  -2 1697.65 357.235
   2   5   2 1849.84 416.506
   2   5   2 1475.99 451.739
  -2  -5  -3-233.202 312.306
   2   5   3 127.973 270.258
   2   5   3 435.995 404.841
   2   5   4 1409.13 386.579
   2   5   4 1716.39 492.853
  -2  -5  -4 1679.17 414.912
   2   5   5 862.575 337.796
   2   5   5 247.658 408.954
  -2  -5  -5 44.5404 378.215
   2   5   6 1065.47 377.099
   2   5   6 735.451 418.201
  -2  -5  -6 726.035 364.165
   2   5   7 3982.94 683.884
  -2  -5  -7 4262.20 638.119
   2   5   7 4095.37 584.856
   2   5   8 5138.39 734.790
  -2  -5  -8 4627.43 681.279
   2   5   8 4290.84 593.129
   2   5   9 3941.52 649.294
  -2  -5  -9 3972.15 676.061
   2   5   9 3577.42 577.609
   2   5  10-63.6176 348.699
   2   5  10 456.378 483.426
  -2  -5 -10 129.742 374.608
   2   5  11 1095.61 455.226
   2   5  11 1578.01 585.411
   2   5  12-280.196 405.895
   2   5  12 639.541 522.256
  -2  -5 -12 494.031 498.679
   2   5  13 811.226 494.467
   2   5  13-186.525 512.825
  -2  -5 -13 326.848 519.348
   2   5  14-62.7731 427.793
   2   5  14 628.272 573.427
   2   5  15-229.451 490.225
   2   6 -18 698.056 511.864
   2   6 -17 464.982 498.492
  -2  -6  17-106.166 373.076
   2   6 -16 889.482 497.426
  -2  -6  16-321.987 368.027
   2   6 -15 837.087 464.251
  -2  -6  15 695.333 380.077
  -2  -6  15 324.074 345.269
   2   6 -14 1910.44 500.798
  -2  -6  14 1742.54 421.306
  -2  -6  14 2534.16 552.326
   2   6 -13 18925.5 1189.04
  -2  -6  13 17208.5 1011.31
  -2  -6  13 18160.3 1127.65
   2   6 -12 19236.0 1152.55
  -2  -6  12 17406.3 1108.90
  -2  -6  12 17808.1 1039.67
   2   6 -11 7324.00 726.241
  -2  -6  11 9332.22 757.884
  -2  -6  11 8319.43 766.244
  -2  -6  10 149.902 296.049
   2   6 -10-136.029 353.197
   2   6 -10 949.673 442.650
  -2  -6   9 508.409 309.726
   2   6  -9 974.396 335.515
   2   6  -9 855.357 398.398
  -2  -6   8-158.428 300.810
   2   6  -8 354.362 248.350
   2   6  -8 281.142 364.490
   2   6  -7 1049.07 302.236
  -2  -6   7 726.205 329.982
   2   6  -6 1294.00 272.082
  -2  -6   6 2191.29 438.180
   2   6  -6 2662.74 515.327
  -2  -6   5 335.183 217.141
   2   6  -5 224.289 319.974
   2   6  -5 78.5764 180.150
  -2  -6   5-37.4182 290.723
   2   6  -4 9368.20 453.952
  -2  -6   4 9270.07 572.917
  -2  -6   4 7989.95 734.688
   2   6  -4 9572.24 811.808
  -2  -6   3 4927.74 475.870
  -2  -6   3 4553.96 564.857
   2   6  -3 4530.56 599.407
   2   6  -2 1510.81 417.484
  -2  -6   2 2083.49 367.665
  -2  -6   2 2421.61 468.335
  -2  -6   1 8452.05 727.300
  -2  -6   1 11242.3 746.655
   2   6  -1 9657.67 803.470
  -2  -6   0 2194.76 474.085
  -2  -6   0 2515.89 449.503
   2   6   0 2415.67 508.085
  -2  -6  -1 213.664 304.089
   2   6   1 614.236 345.466
  -2  -6  -1 61.9063 290.239
   2   6   2-73.4792 295.525
  -2  -6  -2-39.4636 301.879
  -2  -6  -2-17.5173 305.590
  -2  -6  -3 407.334 344.349
   2   6   3 1162.62 403.559
  -2  -6  -3 578.345 336.216
   2   6   4 491.639 361.315
  -2  -6  -4 326.985 331.136
   2   6   5 126.322 365.264
  -2  -6  -5-86.4471 365.481
   2   6   5 844.278 477.538
   2   6   6 717.512 449.879
  -2  -6  -6 1013.42 452.187
   2   6   6 631.012 516.654
   2   6   7 824.785 419.283
   2   6   7 140.459 483.259
  -2  -6  -7 117.348 391.848
   2   6   8 170.551 388.518
  -2  -6  -8 546.029 472.557
   2   6   8 43.9385 454.258
   2   6   9 457.962 452.941
  -2  -6  -9 843.280 509.235
   2   6   9-9.44722 491.740
   2   6  10 103.550 432.473
   2   6  10-168.212 526.974
  -2  -6 -10 13.9246 445.269
   2   6  11 769.232 513.983
  -2  -6 -11 576.682 522.529
   2   6  11-357.295 573.002
   2   6  12 315.746 479.287
   2   6  12 962.017 689.708
   2   6  13 1170.29 611.118
   2   7 -17 85.3657 507.728
   2   7 -16 222.008 470.246
   2   7 -15 409.776 457.128
  -2  -7  15 202.173 371.728
  -2  -7  15 803.961 475.363
  -2  -7  14-151.111 407.699
   2   7 -14 436.685 492.347
  -2  -7  14-289.466 390.397
   2   7 -13 17697.8 1191.15
  -2  -7  13 16763.8 1203.79
  -2  -7  13 18800.3 1144.68
   2   7 -12 9145.40 871.406
  -2  -7  12 10532.3 895.080
  -2  -7  12 11123.2 964.056
   2   7 -11 3476.48 565.644
   2   7 -11 2992.42 671.691
  -2  -7  11 3046.59 555.740
  -2  -7  10 1678.43 452.773
   2   7 -10 1753.35 434.321
   2   7 -10 1167.65 518.051
  -2  -7   9 87.3054 329.065
   2   7  -9 386.884 318.880
   2   7  -9 266.617 400.157
  -2  -7   8 413.758 369.895
   2   7  -8 937.658 431.815
   2   7  -7 1264.84 489.980
  -2  -7   7 679.730 393.597
   2   7  -6 1916.77 527.309
  -2  -7   6 1573.71 464.407
   2   7  -5 2201.35 523.448
  -2  -7   5 1260.03 453.104
   2   7  -4 7.41858 350.054
  -2  -7   4-378.539 380.963
   2   7  -3 33.7057 377.494
  -2  -7   3-82.5974 251.661
  -2  -7   3 213.015 359.746
   2   7  -2 187.300 373.503
  -2  -7   2 111.047 279.374
  -2  -7   2 159.390 385.155
  -2  -7   1-141.756 307.756
   2   7  -1 294.633 385.773
  -2  -7   1 36.7313 346.182
   2   7   0 3203.14 600.101
  -2  -7   0 3273.56 572.112
  -2  -7   0 3166.90 515.926
  -2  -7  -1 287.415 350.447
   2   7   1 106.792 418.441
  -2  -7  -1 528.075 375.949
  -2  -7  -2 481.362 412.932
   2   7   2 976.527 451.414
  -2  -7  -2-350.443 370.957
  -2  -7  -3-428.426 379.007
   2   7   3-288.521 396.606
  -2  -7  -3 133.810 347.707
   2   7   4 745.064 446.757
  -2  -7  -4 1042.91 444.169
  -2  -7  -4 1306.47 462.563
   2   7   5 1664.49 568.511
  -2  -7  -5 961.908 472.860
  -2  -7  -5 599.590 445.098
  -2  -7  -6 4923.15 744.260
  -2  -7  -6 5037.96 745.467
   2   7   6 6049.02 839.526
   2   7   7-586.566 467.753
  -2  -7  -7 389.091 462.745
  -2  -7  -7 25.9213 397.750
   2   7   8 1910.62 622.250
  -2  -7  -8 1332.08 563.194
  -2  -7  -8 1389.87 531.476
   2   7   9 522.798 495.010
  -2  -7  -9-695.981 537.765
  -2  -7  -9 492.827 477.359
   2   7  10-193.045 481.068
  -2  -8  14 115.706 445.273
  -2  -8  13 647.093 487.556
  -2  -8  13 1102.35 505.617
  -2  -8  12 1154.14 513.655
  -2  -8  11 721.727 487.547
   2   8 -11 444.331 550.792
  -2  -8  10 374.264 418.289
   2   8 -10 41.1341 442.173
  -2  -8   9 86.5364 383.982
   2   8  -9 314.490 467.383
  -2  -8   8 2.37133 364.430
   2   8  -8-141.456 411.647
   2   8  -7 948.504 520.739
  -2  -8   7 468.631 469.600
   2   8  -6 78.2839 411.814
  -2  -8   6 433.471 401.583
   2   8  -5 574.930 452.140
  -2  -8   5-106.056 361.192
   2   8  -4-243.453 421.318
  -2  -8   4 601.935 416.259
   2   8  -3 1167.60 531.060
  -2  -8   3 1712.89 551.623
   2   8  -2 16646.2 1260.68
  -2  -8   2 15132.1 1176.59
  -2  -8   1 18348.6 1272.61
   2   8  -1 18563.8 1353.17
   2   8   0 1221.71 531.856
  -2  -8   0 993.611 434.848
  -2  -8   0 1843.35 548.332
   2   8   1 3681.82 724.700
  -2  -8  -1 2169.96 515.502
  -2  -8  -1 2144.39 593.444
   2   8   2-103.038 441.513
  -2  -8  -2 239.123 373.352
  -2  -8  -2 344.473 400.539
   2   8   3-289.089 475.956
  -2  -8  -3 150.531 398.558
  -2  -8  -3 487.196 447.814
   2   8   4-537.923 521.175
  -2  -8  -4-125.754 412.573
  -2  -8  -4 926.470 502.190
   2   8   5-115.901 491.654
  -2  -8  -5-185.995 447.061
  -2  -8  -5 387.596 470.304
   2   8   6 228.035 497.527
  -2  -8  -6 463.391 482.500
   2   8   7 530.391 552.457
  -2  -9   9 118.900 456.209
  -2  -9   8 74.5694 464.258
   2   9  -8-187.201 487.115
  -2  -9   7 200.492 444.758
   2   9  -7 314.502 496.330
   2   9  -6 651.837 538.170
  -2  -9   6-363.728 465.284
   2   9  -5-102.138 498.004
  -2  -9   5 364.479 493.654
   2   9  -4 177.854 536.471
  -2  -9   4-327.364 499.607
   2   9  -3 308.150 524.708
  -2  -9   3 871.200 550.469
   2   9  -2-278.186 523.959
   2   9  -1 912.406 605.209
   2   9   0 367.335 565.016
   2   9   1 257.215 493.799
   3  -9  -6 492.807 500.048
   3  -9  -5-147.602 466.308
   3  -9  -5-640.521 523.049
   3  -9  -4-811.954 506.855
   3  -9  -4-176.733 458.657
   3  -9  -3 1093.75 526.833
  -3   9   3 772.959 556.969
   3  -9  -3-50.2932 455.553
   3  -9  -2 444.968 458.879
  -3   9   2-87.0896 481.323
   3  -9  -2 582.894 441.402
   3  -9  -1-545.799 461.609
   3  -9  -1 807.368 499.742
  -3   9   1-13.4794 501.394
   3  -9   0-125.967 405.332
  -3   9   0-36.5732 447.363
   3  -9   0 207.640 391.509
   3  -9   1 476.898 441.771
  -3   9  -1-200.075 489.319
  -3   9  -2 332.256 476.360
   3  -9   2-290.134 407.421
  -3   9  -3 122.322 486.046
   3  -9   3 347.316 484.251
  -3   9  -4-106.135 473.133
   3  -9   4 302.710 465.199
  -3   9  -5 754.879 527.748
   3  -9   5 135.486 456.049
  -3   9  -6-468.712 518.270
  -3   9  -6-12.7154 440.920
   3  -9   6 9.81242 430.224
  -3   9  -7 605.072 502.075
  -3   9  -7 358.938 467.555
   3  -9   7 380.144 441.106
  -3   9  -8 595.992 543.770
  -3   9  -8-493.939 449.649
   3  -9   8 734.020 482.171
  -3   9  -9 190.620 523.445
  -3   9  -9-617.894 492.922
  -3   9 -10 82.6266 522.906
  -3   9 -10 1116.05 567.764
  -3   9 -11 694.296 588.139
  -3   9 -12 262.159 565.819
   3  -8  -8 312.495 532.572
   3  -8  -7 187.642 400.353
  -3   8   7-46.0097 463.229
   3  -8  -7 648.498 493.038
   3  -8  -6 324.069 409.533
  -3   8   6 254.187 454.112
   3  -8  -6 152.734 416.267
   3  -8  -5 279.286 390.627
  -3   8   5 271.230 439.895
   3  -8  -5 29.0507 416.068
   3  -8  -4 646.540 433.231
  -3   8   4 541.813 447.528
   3  -8  -4 332.127 416.559
   3  -8  -3-230.357 365.780
  -3   8   3-500.540 424.864
   3  -8  -3 422.796 429.568
   3  -8  -2 479.655 389.905
  -3   8   2 39.4988 409.005
   3  -8  -2 261.150 414.326
   3  -8  -1 22.1898 351.504
  -3   8   1-83.3677 397.266
   3  -8  -1 407.286 401.299
   3  -8   0-489.689 401.436
  -3   8   0 721.712 409.857
   3  -8   0 73.8671 395.717
  -3   8   0 492.992 431.865
  -3   8  -1 1769.68 546.032
   3  -8   1 1948.13 515.742
  -3   8  -1 2842.65 570.291
   3  -8   1 1617.95 454.461
   3  -8   2 4073.58 660.074
   3  -8   2 3663.07 581.360
  -3   8  -2 4655.33 747.866
  -3   8  -2 4106.00 639.796
  -3   8  -3 30576.6 1535.88
   3  -8   3 30956.2 1369.68
   3  -8   3 34819.9 1640.63
  -3   8  -3 30973.4 1615.01
  -3   8  -4 26151.2 1502.17
  -3   8  -4 26951.0 1492.70
  -3   8  -5 1396.16 529.692
  -3   8  -5 2304.45 611.615
   3  -8   5 1544.95 512.852
  -3   8  -6 778.236 491.112
  -3   8  -6 1596.83 503.416
   3  -8   6 1386.98 512.034
  -3   8  -7-148.111 418.304
  -3   8  -7 84.7874 386.184
   3  -8   7 247.528 400.230
  -3   8  -8 283.684 428.418
  -3   8  -8-236.002 388.764
   3  -8   8 230.908 377.192
  -3   8  -9 144.205 490.281
  -3   8  -9-537.732 450.804
   3  -8   9-533.434 455.863
  -3   8 -10 83.4735 473.728
  -3   8 -10-112.521 427.864
  -3   8 -11 87.8104 503.272
  -3   8 -11-12.1972 415.427
   3  -8  11-136.772 420.748
  -3   8 -12 374.895 566.067
  -3   8 -12-500.293 550.554
   3  -8  12-97.8989 438.914
  -3   8 -13 723.911 631.711
  -3   8 -14 1637.65 702.971
   3  -8  14 234.595 433.314
  -3   7  10-450.877 487.362
   3  -7 -10 1087.40 582.285
  -3   7   9 738.239 478.278
   3  -7  -9 1772.44 593.136
  -3   7   8 969.942 498.349
   3  -7  -8 554.736 468.475
   3  -7  -8 402.947 381.420
  -3   7   7 590.401 434.503
   3  -7  -7 590.248 467.351
   3  -7  -7 628.004 391.322
   3  -7  -6 5282.17 771.817
  -3   7   6 4695.07 719.403
  -3   7   6 4204.41 605.923
   3  -7  -6 3205.97 567.678
  -3   7   5 744.757 333.604
   3  -7  -5 796.688 384.070
  -3   7   5 901.148 465.810
   3  -7  -5 851.663 470.412
   3  -7  -4 6304.26 717.679
   3  -7  -4 7685.63 838.118
  -3   7   4 8017.76 860.271
  -3   7   4 6560.66 680.899
  -3   7   3 2320.67 480.444
   3  -7  -3 1658.90 468.407
  -3   7   3 2261.37 531.797
   3  -7  -3 1557.37 477.256
  -3   7   2 1565.86 426.000
   3  -7  -2 922.167 372.479
  -3   7   2 757.328 414.185
   3  -7  -2 780.089 416.892
  -3   7   1-79.7593 300.138
   3  -7  -1-219.377 335.985
  -3   7   1 259.882 337.466
   3  -7  -1-104.022 342.326
  -3   7   0 478.977 347.865
   3  -7   0 515.825 364.133
  -3   7   0 816.632 396.127
   3  -7   0 486.127 334.988
  -3   7  -1 406.983 343.812
  -3   7  -1 3.46946 324.314
   3  -7   1 462.857 377.423
   3  -7   1 301.023 341.840
   3  -7   2 7653.26 692.819
   3  -7   2 8553.15 789.987
  -3   7  -2 7300.95 771.680
  -3   7  -2 6681.24 708.686
  -3   7  -3-124.819 356.354
  -3   7  -3 223.555 359.917
   3  -7   3-100.028 350.962
   3  -7   3-173.293 331.823
   3  -7   4 5352.37 658.989
   3  -7   4 4494.76 534.423
  -3   7  -4 4727.01 669.165
  -3   7  -4 5332.18 676.213
  -3   7  -5 258.707 330.847
   3  -7   5-232.299 341.155
   3  -7   5 694.483 319.310
  -3   7  -6 573.433 411.676
  -3   7  -6 649.891 375.347
   3  -7   6-204.528 338.395
   3  -7   6 101.758 268.798
  -3   7  -7-258.386 390.319
  -3   7  -7 626.962 378.377
   3  -7   7 238.449 372.927
  -3   7  -8 153.877 394.861
  -3   7  -8 459.545 381.644
   3  -7   8 652.387 394.018
  -3   7  -9-411.118 447.219
  -3   7  -9 63.6777 341.879
   3  -7   9-97.5816 313.887
  -3   7 -10 1313.97 540.148
  -3   7 -10 580.747 403.011
   3  -7  10 85.8208 358.394
  -3   7 -11 844.221 520.675
  -3   7 -11 357.495 434.072
   3  -7  11 831.859 419.148
  -3   7 -12-220.749 475.223
   3  -7  12 809.505 439.276
  -3   7 -12 267.850 398.839
  -3   7 -13 1146.23 601.639
   3  -7  13 1456.48 450.336
   3  -7  13 1746.65 532.485
  -3   7 -14 2014.52 724.124
   3  -7  14 446.508 452.048
   3  -7  14 1504.39 484.411
   3  -7  15 1922.24 532.513
  -3   7 -15 3325.12 812.852
   3  -7  15 2915.85 638.772
   3  -7  16 505.063 427.133
   3  -7  17 156.404 369.505
   3  -6 -13 1791.93 632.840
  -3   6  13 544.493 503.405
   3  -6 -12 82.2721 448.957
  -3   6  12-118.130 415.295
  -3   6  11 2280.94 580.827
   3  -6 -11 2440.68 659.290
  -3   6  10 849.133 447.104
  -3   6  10 479.951 382.753
   3  -6 -10 955.443 478.558
  -3   6   9 964.225 452.104
   3  -6  -9 319.301 425.273
   3  -6  -9 1443.76 406.727
  -3   6   9 754.692 385.064
  -3   6   8 260.498 369.340
   3  -6  -8-0.54546 305.742
   3  -6  -8 829.562 428.150
  -3   6   8 206.516 315.144
  -3   6   7 202.092 360.253
   3  -6  -7 136.821 345.073
  -3   6   7-425.449 309.323
   3  -6  -7 149.284 286.117
  -3   6   6 299.201 355.230
   3  -6  -6 425.358 379.018
  -3   6   6 306.313 299.128
   3  -6  -6 435.214 301.114
   3  -6  -5-234.330 310.051
  -3   6   5-44.9886 331.687
   3  -6  -5 226.485 355.173
  -3   6   5 329.916 312.697
   3  -6  -4 4426.36 637.442
   3  -6  -4 4163.01 544.080
  -3   6   4 3995.13 588.698
  -3   6   4 4051.41 540.067
   3  -6  -3 3642.02 522.065
   3  -6  -3 4565.34 628.721
  -3   6   3 4462.43 561.895
  -3   6   3 4037.51 561.340
  -3   6   2 199.582 287.194
   3  -6  -2 152.992 277.663
  -3   6   2-165.975 308.248
   3  -6  -2-168.274 308.418
  -3   6   1 380.403 285.879
   3  -6  -1 862.047 324.579
   3  -6  -1 667.017 341.455
  -3   6   0-171.802 294.933
  -3   6   0-77.1148 278.973
   3  -6   0 57.2151 265.551
   3  -6   0 883.043 344.320
   3  -6   1 13669.6 875.232
   3  -6   1 12274.3 815.781
  -3   6  -1 13853.9 918.834
  -3   6  -1 12886.5 879.986
  -3   6  -2 2378.38 489.409
  -3   6  -2 2419.82 471.486
   3  -6   2 1660.88 421.688
   3  -6   2 2091.17 429.273
   3  -6   3 131388. 2405.37
   3  -6   3 130951. 2627.20
  -3   6  -3 127091. 2684.57
  -3   6  -3 127885. 2718.17
  -3   6  -4 442.080 385.996
  -3   6  -4 453.425 334.151
   3  -6   4-136.630 348.805
   3  -6   4 291.795 291.391
  -3   6  -5-233.341 339.928
  -3   6  -5 792.833 367.443
   3  -6   5-424.769 351.648
   3  -6   5 202.870 257.349
   3  -6   6 4233.69 457.932
   3  -6   6 2552.85 454.605
  -3   6  -6 3809.89 604.889
  -3   6  -6 4211.36 563.327
  -3   6  -7 741.170 389.469
  -3   6  -7 601.985 368.046
   3  -6   7 105.234 295.494
   3  -6   7 825.951 279.306
  -3   6  -8 927.484 414.590
  -3   6  -8 516.102 328.108
   3  -6   8 649.262 343.912
   3  -6   8 573.961 263.870
  -3   6  -9 1941.50 538.971
  -3   6  -9 1997.24 438.575
   3  -6   9 3418.26 530.072
  -3   6 -10 215.753 402.402
  -3   6 -10 185.140 353.420
   3  -6  10 35.0007 307.106
  -3   6 -11-6.87603 426.693
   3  -6  11 182.093 326.045
  -3   6 -11 756.025 393.539
  -3   6 -12 773.680 518.942
   3  -6  12 616.988 310.491
   3  -6  12 1569.90 450.348
  -3   6 -13 422.619 531.798
   3  -6  13 461.271 341.992
   3  -6  13-711.162 420.179
  -3   6 -14 3023.13 723.319
   3  -6  14 4245.28 602.171
   3  -6  14 3514.68 627.021
  -3   6 -15 4006.07 838.496
   3  -6  15 4917.94 654.160
   3  -6  15 4737.19 708.059
  -3   6 -16-426.168 635.869
   3  -6  16 680.277 420.281
   3  -6  16 797.389 444.386
   3  -6  17-34.4942 397.909
   3  -6  17 341.534 391.975
   3  -6  18-575.950 431.119
   3  -5 -15 726.173 569.177
  -3   5  15-937.083 542.686
   3  -5 -14 471.978 505.977
  -3   5  14-216.027 425.651
  -3   5  14-245.044 423.765
   3  -5 -13-669.163 505.186
  -3   5  13 167.257 362.585
  -3   5  13 564.524 453.684
  -3   5  12-84.0385 399.086
  -3   5  12 623.026 411.231
   3  -5 -11 864.376 505.868
  -3   5  11 2151.63 477.256
  -3   5  11 1777.60 494.979
   3  -5 -10 1089.97 469.746
   3  -5 -10 925.185 321.961
  -3   5  10-207.330 335.614
  -3   5  10 304.830 360.381
  -3   5   9 358.454 300.690
   3  -5  -9 688.924 287.040
  -3   5   9 946.351 404.254
   3  -5  -8 1330.41 387.311
  -3   5   8 1297.41 399.837
   3  -5  -8 562.260 285.541
  -3   5   8 1491.22 424.515
  -3   5   7 6460.42 651.331
  -3   5   7 7804.84 684.670
   3  -5  -7 7280.69 782.610
   3  -5  -7 6927.30 592.060
   3  -5  -6 25934.8 1071.64
  -3   5   6 24077.7 1154.57
   3  -5  -6 25629.4 1319.77
  -3   5   6 24840.2 1138.18
  -3   5   5 20928.4 1070.98
   3  -5  -5 19450.0 1117.39
  -3   5   5 20537.9 1035.07
   3  -5  -5 21512.7 983.059
   3  -5  -4 27750.9 1288.58
  -3   5   4 26660.9 1176.36
  -3   5   4 26516.2 1143.72
   3  -5  -4 26621.2 1077.78
  -3   5   3-164.257 274.265
   3  -5  -3 59.0610 219.936
   3  -5  -3-301.091 306.313
  -3   5   3 582.956 320.720
   3  -5  -2 6109.01 611.204
   3  -5  -2 5843.30 539.785
  -3   5   2 5591.37 572.186
  -3   5   2 7232.59 615.309
  -3   5   1 180.795 269.335
  -3   5   1 445.428 272.666
   3  -5  -1 70.3563 237.934
   3  -5  -1 186.753 280.244
  -3   5   0 1284.51 364.556
  -3   5   0 1731.22 366.548
   3  -5   0 1718.88 348.062
   3  -5   0 1453.39 349.920
  -3   5  -1 541.242 314.263
  -3   5  -1 248.019 265.156
   3  -5   1-233.904 278.867
   3  -5   1 617.251 304.237
  -3   5  -2 747.223 349.369
  -3   5  -2 1231.27 330.782
   3  -5   2 1344.53 336.222
   3  -5   2 708.549 277.912
  -3   5  -3 491.990 328.548
  -3   5  -3-121.226 300.695
   3  -5   3 239.258 238.167
   3  -5   3-363.746 262.875
   3  -5   4 3156.10 404.159
   3  -5   4 3401.38 472.990
  -3   5  -4 2543.16 473.056
  -3   5  -4 2371.96 398.692
   3  -5   5 9352.44 611.674
   3  -5   5 9806.13 703.345
  -3   5  -5 7809.47 724.850
  -3   5  -5 8266.82 657.594
  -3   5  -6 287.729 313.265
  -3   5  -6 627.205 291.492
   3  -5   6 1007.40 275.741
   3  -5   6 1069.26 354.126
  -3   5  -7 2623.07 523.138
   3  -5   7 2878.09 455.176
   3  -5   7 1796.94 314.767
  -3   5  -7 2865.36 429.229
  -3   5  -8 6296.12 591.769
   3  -5   8 6828.43 543.519
   3  -5   8 4858.74 559.540
  -3   5  -8 5243.21 705.534
  -3   5  -9 2743.82 459.114
   3  -5   9 1945.17 410.068
  -3   5  -9 3106.16 599.058
  -3   5 -10 741.375 410.283
  -3   5 -10 935.641 287.217
   3  -5  10 1241.14 375.410
  -3   5 -11 176.280 245.082
  -3   5 -11 608.012 432.415
   3  -5  11-527.582 308.872
   3  -5  11 74.8143 296.330
   3  -5  12 8121.49 677.656
   3  -5  12 8007.82 768.659
  -3   5 -12 6961.96 879.847
  -3   5 -13 697.519 506.150
   3  -5  13-127.993 330.432
   3  -5  13 1288.37 440.440
   3  -5  14 32888.8 1342.28
   3  -5  14 35193.9 1520.57
  -3   5 -14 33314.2 1806.22
   3  -5  15 1071.40 469.486
  -3   5 -15 408.990 523.029
   3  -5  15 621.769 370.307
   3  -5  16 923.098 420.770
  -3   5 -16 1653.75 614.997
   3  -5  16 1741.51 463.270
   3  -5  17 286.611 416.620
   3  -5  17-496.085 391.379
   3  -5  18-16.9213 406.425
   3  -5  18 9.45873 353.255
   3  -5  19 64.7710 392.920
  -3   4  17 1137.68 531.572
   3  -4 -16 327.856 516.290
  -3   4  16 1158.80 492.146
  -3   4  16-282.268 425.559
   3  -4 -15 168.503 470.388
  -3   4  15 358.551 445.505
  -3   4  15 566.552 452.338
   3  -4 -14 1154.29 518.290
  -3   4  14 1867.48 530.070
  -3   4  14 684.607 424.547
   3  -4 -13 2119.77 593.084
  -3   4  13 3820.06 593.039
  -3   4  13 2990.15 552.696
   3  -4 -12 12843.5 1080.26
  -3   4  12 12124.7 913.748
  -3   4  12 14511.9 1000.91
   3  -4 -11 841.575 434.735
  -3   4  11 1002.83 372.977
  -3   4  11 1376.31 419.306
  -3   4  10 8835.20 742.227
   3  -4 -10 8357.10 560.530
  -3   4  10 9328.02 753.634
   3  -4 -10 8963.95 859.086
   3  -4  -9 1575.99 291.839
   3  -4  -9 3023.73 583.514
  -3   4   9 2546.74 439.091
  -3   4   9 1550.56 382.633
   3  -4  -8 2704.50 512.735
   3  -4  -8 2169.59 315.974
  -3   4   8 1713.10 398.542
  -3   4   8 2111.14 382.555
   3  -4  -7 1241.97 398.428
  -3   4   7 1244.29 342.870
  -3   4   7 1100.31 326.766
   3  -4  -7 901.327 250.047
   3  -4  -6 3245.57 398.645
   3  -4  -6 4020.87 551.360
  -3   4   6 3058.53 421.639
  -3   4   6 2705.98 433.623
  -3   4   5 2244.82 412.225
   3  -4  -5 1824.34 405.931
   3  -4  -5 1585.40 287.103
  -3   4   5 1491.60 333.003
  -3   4   4-159.711 239.785
   3  -4  -4 532.798 226.571
   3  -4  -4 345.143 304.883
  -3   4   4 434.079 294.362
  -3   4   3 1313.64 295.796
   3  -4  -3 1342.65 269.179
   3  -4  -3 1757.37 383.611
  -3   4   3 1434.63 330.186
  -3   4   2 121.568 212.397
   3  -4  -2 423.583 212.465
   3  -4  -2 431.965 267.177
  -3   4   2 661.858 295.219
   3  -4  -1 1767.66 364.548
   3  -4  -1 2319.06 322.739
  -3   4   1 2411.91 349.582
  -3   4   1 2750.96 418.135
   3  -4   0 65263.3 1601.11
   3  -4   0 66402.7 1481.71
  -3   4   0 59943.5 1441.15
  -3   4   0 58211.4 1579.49
  -3   4  -1 2019.34 370.572
  -3   4  -1 1643.00 305.806
   3  -4   1 1558.49 295.645
   3  -4   1 2130.90 365.913
  -3   4  -2-59.8053 241.977
  -3   4  -2 398.654 226.320
   3  -4   2 137.955 234.767
   3  -4   2 348.481 241.986
  -3   4  -3 367.906 254.057
   3  -4   3 199.452 227.503
  -3   4  -3 285.075 233.308
   3  -4   3 509.150 244.045
   3  -4   4 9518.51 602.229
   3  -4   4 10013.1 638.920
  -3   4  -4 8850.72 694.606
  -3   4  -4 9880.55 615.350
   3  -4   5 89916.5 1848.78
   3  -4   5 89869.0 1719.34
  -3   4  -5 90899.4 2163.97
  -3   4  -5 90422.9 1772.04
  -3   4  -6 919.995 337.870
  -3   4  -6 1019.24 285.836
   3  -4   6 816.001 297.534
   3  -4   6 1267.59 284.451
  -3   4  -7 1653.21 436.009
  -3   4  -7 1736.63 312.079
   3  -4   7 2480.09 359.731
   3  -4   7 1877.24 368.119
  -3   4  -8 1064.35 404.065
  -3   4  -8 445.493 274.192
   3  -4   8 233.711 248.294
   3  -4   8 640.500 252.163
  -3   4  -9 747.213 440.862
  -3   4  -9 692.550 274.282
   3  -4   9 935.185 274.659
   3  -4   9 449.302 279.097
  -3   4 -10 806.620 381.063
  -3   4 -10 715.626 268.471
   3  -4  10 541.710 267.488
   3  -4  10 717.723 328.527
  -3   4 -11-4.38200 376.001
  -3   4 -11 237.493 250.882
   3  -4  11-26.7983 239.317
   3  -4  11-78.3556 282.221
  -3   4 -12 11131.8 727.919
   3  -4  12 13819.4 807.971
   3  -4  12 12792.7 863.930
  -3   4 -12 11629.8 1029.17
   3  -4  13-119.991 330.259
  -3   4 -13-783.925 534.914
   3  -4  13-186.614 277.970
   3  -4  14 30129.7 1220.91
  -3   4 -14 30480.1 1700.73
   3  -4  14 31109.7 1374.56
   3  -4  15 1118.17 451.363
  -3   4 -15 476.061 491.002
   3  -4  15 1972.58 431.902
  -3   4 -16 1421.75 583.508
   3  -4  16 1549.71 478.647
   3  -4  16 1610.09 419.489
  -3   4 -17 176.796 509.158
   3  -4  17-175.259 383.970
   3  -4  17 45.8517 314.917
   3  -4  18 1091.32 450.539
   3  -4  18 848.550 427.950
   3  -4  19-312.336 403.757
   3  -4  19 245.143 402.119
   3  -3 -19 1441.56 592.572
   3  -3 -18 1313.89 514.694
   3  -3 -18 108.796 469.395
   3  -3 -17-54.1359 378.830
   3  -3 -17 161.255 460.564
  -3   3  17 664.605 473.853
   3  -3 -16 295.134 373.346
   3  -3 -16-320.177 428.846
  -3   3  16-133.328 401.548
   3  -3 -15 1200.32 437.022
   3  -3 -15 565.191 464.325
  -3   3  15 461.836 396.712
   3  -3 -14 406.568 433.915
  -3   3  14-375.253 373.225
   3  -3 -14 975.764 395.787
   3  -3 -13 190.124 431.010
  -3   3  13 169.915 324.045
   3  -3 -12 5638.04 715.215
  -3   3  12 7436.16 680.750
   3  -3 -11-118.828 345.444
   3  -3 -11 224.775 160.899
  -3   3  11-138.527 300.720
  -3   3  11-176.454 280.564
   3  -3 -10 7428.87 807.391
   3  -3 -10 4709.74 360.333
  -3   3  10 5589.66 578.858
  -3   3  10 7140.86 641.626
   3  -3  -9 2463.72 267.615
   3  -3  -9 2383.53 462.203
  -3   3   9 2672.96 451.640
  -3   3   9 3276.17 452.892
   3  -3  -8-2.14136 135.808
   3  -3  -8 773.004 369.202
  -3   3   8 129.934 296.016
  -3   3   8-36.9039 244.784
   3  -3  -8 38.7766 135.789
   3  -3  -7 35950.9 895.932
   3  -3  -7 36860.0 1414.33
  -3   3   7 35424.0 1166.08
   3  -3  -7 34567.3 834.317
  -3   3   7 36749.3 1268.30
   3  -3  -6 469.753 172.800
   3  -3  -6 105.180 149.173
  -3   3   6 168.454 221.980
   3  -3  -6 811.876 335.833
  -3   3   6 658.060 296.968
   3  -3  -5 1648.72 275.033
  -3   3   5 1809.74 321.915
   3  -3  -5 1219.24 214.033
   3  -3  -5 2179.06 432.332
  -3   3   5 926.687 314.952
   3  -3  -4 295.140 165.564
  -3   3   4 290.262 167.723
  -3   3   4 526.162 276.193
   3  -3  -4 513.216 279.554
  -3   3   4 652.972 243.826
  -3   3   3 91065.0 1490.26
   3  -3  -3 97165.8 1977.01
   3  -3  -3 92411.4 1467.89
  -3   3   3 95328.7 1645.15
  -3   3   3 97535.8 1898.38
  -3   3   2 31003.2 927.678
   3  -3  -2 29618.6 1083.81
   3  -3  -2 31099.2 874.061
  -3   3   2 29344.3 899.599
  -3   3   2 30914.4 1092.21
  -3   3   1 11705.6 575.521
  -3   3   1 11797.5 605.417
   3  -3  -1 11847.4 691.255
   3  -3  -1 12440.6 576.540
  -3   3   1 10557.2 654.800
  -3   3   0 314.903 195.086
   3  -3   0 178.162 163.809
   3  -3   0-77.9800 226.075
   3  -3   0 168.706 143.850
  -3   3   0 314.950 260.203
   3  -3   1 4750.67 452.579
   3  -3   1 4752.76 349.686
   3  -3   1 5044.55 413.606
  -3   3  -1 4652.14 382.287
  -3   3  -1 4871.42 478.540
   3  -3   2 12253.0 667.437
   3  -3   2 11278.8 525.397
   3  -3   2 11459.4 595.487
  -3   3  -2 11515.7 561.014
  -3   3  -2 10612.3 698.173
   3  -3   3 12190.9 566.566
   3  -3   3 12811.5 635.214
  -3   3  -3 12454.7 760.046
  -3   3  -3 13824.7 612.290
   3  -3   4 36750.2 1082.74
   3  -3   4 34412.6 955.703
   3  -3   4 37436.7 1082.32
  -3   3  -4 36426.0 1254.61
  -3   3  -4 36675.9 978.741
   3  -3   5 52776.9 1301.87
   3  -3   5 49699.0 1192.01
   3  -3   5 49909.5 1280.54
  -3   3  -5 50716.9 1563.67
  -3   3  -5 51283.9 1165.71
  -3   3  -6 31508.1 938.260
   3  -3   6 31565.2 1048.58
   3  -3   6 32300.2 1076.40
   3  -3   7 66834.3 1515.66
   3  -3   7 65275.7 1576.70
  -3   3  -7 66159.4 1857.99
  -3   3  -8 257.236 375.196
  -3   3  -8 555.884 269.893
   3  -3   8 200.316 158.982
   3  -3   8 226.824 254.808
   3  -3   9 12468.7 632.525
  -3   3  -9 12187.5 730.153
   3  -3   9 12016.6 730.994
  -3   3  -9 11304.3 862.135
   3  -3  10 7271.79 517.827
  -3   3 -10 6866.28 592.648
  -3   3 -10 6122.85 708.694
   3  -3  10 5560.60 567.831
   3  -3  11 1429.65 369.017
  -3   3 -11 1654.05 478.403
  -3   3 -11 1333.25 342.847
   3  -3  11 1406.40 292.791
   3  -3  12 34416.0 1135.80
  -3   3 -12 31439.9 1544.16
  -3   3 -12 30951.1 1218.16
   3  -3  12 30042.5 1246.47
   3  -3  13 38710.3 1419.65
  -3   3 -13 39156.0 1413.71
   3  -3  13 39060.8 1261.04
  -3   3 -13 37982.2 1748.70
   3  -3  14 16335.3 987.275
  -3   3 -14 14824.4 937.483
  -3   3 -14 15925.6 1217.91
  -3   3 -15 1464.80 536.881
   3  -3  15 1870.14 468.216
   3  -3  15 1123.72 326.525
  -3   3 -15 649.767 356.705
  -3   3 -16 95.7825 434.403
   3  -3  16 903.127 392.674
  -3   3 -16-124.939 341.021
   3  -3  16-331.197 324.245
   3  -3  17 80.3799 363.418
  -3   3 -17-211.276 463.257
   3  -3  17 443.938 341.019
   3  -3  18-285.926 385.907
   3  -3  18-829.465 410.343
  -3   3 -18 109.837 481.459
  -3   3 -19 30.0141 537.046
   3  -3  19 721.595 418.968
   3  -3  19-207.549 441.031
   3  -2 -20 356.786 498.943
   3  -2 -19 828.261 534.339
   3  -2 -19 1118.39 598.344
   3  -2 -18-299.672 381.409
   3  -2 -18 1140.52 516.572
  -3   2  18 1319.45 528.028
   3  -2 -17-516.167 424.567
  -3   2  17 14.8316 431.340
   3  -2 -16 423.720 421.490
   3  -2 -16-126.266 340.126
  -3   2  16 506.631 398.629
   3  -2 -15 215.340 364.575
   3  -2 -15 234.280 350.188
  -3   2  15 863.254 417.025
   3  -2 -14 12850.7 907.165
   3  -2 -14 11640.7 961.922
  -3   2  14 11600.3 897.985
   3  -2 -13 3192.66 518.805
  -3   2  13 3582.82 510.031
   3  -2 -13 2611.92 546.891
   3  -2 -12 26938.4 1224.66
  -3   2  12 27533.2 1191.39
   3  -2 -12 25568.0 1306.33
   3  -2 -11 9477.95 732.017
  -3   2  11 8576.15 666.515
   3  -2 -11 7505.26 708.944
   3  -2 -10 10650.0 730.001
   3  -2 -10 7107.36 285.582
   3  -2 -10 11850.3 863.477
  -3   2  10 10492.5 699.374
   3  -2 -10 8210.99 288.108
   3  -2  -9 276.327 247.648
   3  -2  -9 732.327 103.338
   3  -2  -9 557.389 107.768
  -3   2   9 514.492 251.160
   3  -2  -8 20191.0 413.892
  -3   2   8 22683.6 887.656
   3  -2  -8 23368.4 1084.43
   3  -2  -7 187.675 76.6869
   3  -2  -7 145.976 84.2806
   3  -2  -7 611.183 282.434
  -3   2   7 108.187 219.169
  -3   2   7 780.985 290.988
   3  -2  -6 16666.9 441.347
   3  -2  -6 18686.8 921.030
  -3   2   6 17690.1 712.241
   3  -2  -6 15492.9 444.803
  -3   2   6 16699.5 819.354
   3  -2  -5 11048.3 444.297
   3  -2  -5 10230.0 678.786
  -3   2   5 10644.6 542.093
   3  -2  -5 11289.3 392.040
  -3   2   5 11096.0 657.836
  -3   2   4 99599.8 1193.78
  -3   2   4 96617.4 1818.34
   3  -2  -4 94759.4 1901.86
  -3   2   4 91656.5 1459.33
   3  -2  -4 94123.9 1141.38
   3  -2  -3 2368.16 254.374
   3  -2  -3 2305.35 366.049
  -3   2   3 2425.06 269.839
   3  -2  -3 1986.92 202.870
  -3   2   3 2118.89 231.477
  -3   2   3 2238.37 345.023
   3  -2  -2 86.6669 133.250
   3  -2  -2-81.7444 214.571
   3  -2  -2 62.4355 142.476
  -3   2   2 54.7641 223.827
  -3   2   2 54.2443 146.382
  -3   2   2 177.561 144.717
   3  -2  -1 164434. 1629.73
  -3   2   1 162294. 1876.90
   3  -2  -1 157056. 1686.32
  -3   2   1 158437. 1663.57
   3  -2  -1 164039. 2324.51
  -3   2   1 159088. 2298.47
  -3   2   0 160893. 1924.87
   3  -2   0 158135. 1510.20
   3  -2   0 163777. 2290.44
  -3   2   0 158792. 1626.79
   3  -2   0 156660. 1747.35
  -3   2   0 159683. 2306.47
  -3   2  -1 240.591 142.762
  -3   2  -1 194.243 173.707
   3  -2   1 328.064 216.727
   3  -2   1 290.926 162.773
   3  -2   1 111.529 104.410
  -3   2  -1 168.400 213.481
   3  -2   2 108375. 1849.14
   3  -2   2 108854. 1239.39
  -3   2  -2 105100. 1907.06
  -3   2  -2 105427. 1292.36
   3  -2   3 19621.2 562.114
   3  -2   3 20179.1 816.261
   3  -2   3 19987.6 734.400
  -3   2  -3 19346.2 874.512
  -3   2  -3 20044.6 571.789
  -3   2  -4 142524. 1544.89
   3  -2   4 146878. 1986.02
   3  -2   4 145369. 2147.45
   3  -2   4 147386. 1609.07
  -3   2  -4 144091. 2376.74
   3  -2   5 18708.6 823.220
   3  -2   5 16864.0 518.185
   3  -2   5 16294.9 586.031
  -3   2  -5 16822.4 905.926
   3  -2   5 16945.1 720.439
   3  -2   6 153859. 2208.01
   3  -2   6 157176. 1937.63
   3  -2   7 810.720 282.320
  -3   2  -7 944.207 327.514
   3  -2   7 677.882 174.555
   3  -2   7 1098.76 231.777
  -3   2  -7 675.434 260.306
  -3   2  -8 54373.4 1490.65
   3  -2   8 52831.5 1077.13
  -3   2  -8 56307.8 1722.26
   3  -2   8 54582.2 1399.80
  -3   2  -9 1432.67 396.867
   3  -2   9 1190.59 330.276
   3  -2   9 1829.54 262.634
  -3   2  -9 1544.84 338.292
  -3   2 -10 930.672 387.054
   3  -2  10 1352.01 317.877
   3  -2  10 1548.61 265.579
  -3   2 -10 785.875 311.244
   3  -2  11 2424.14 333.692
  -3   2 -11 2565.60 515.179
   3  -2  11 1716.76 379.149
  -3   2 -11 1712.95 377.677
   3  -2  12 5380.52 481.374
   3  -2  12 5450.23 580.898
  -3   2 -12 5115.61 586.149
  -3   2 -12 5250.36 699.459
   3  -2  13 12403.4 839.558
   3  -2  13 13616.9 736.224
  -3   2 -13 13193.4 909.492
  -3   2 -13 14662.3 1089.71
  -3   2 -14 922.309 445.292
   3  -2  14 584.748 362.338
  -3   2 -14 366.921 339.937
   3  -2  14 1129.16 320.269
  -3   2 -15-282.688 352.437
  -3   2 -15 534.020 497.124
   3  -2  15 461.770 328.050
   3  -2  15 362.559 302.466
   3  -2  16 3081.09 482.414
   3  -2  16 3008.51 507.999
  -3   2 -16 2637.61 557.424
   3  -2  17-68.7911 326.368
  -3   2 -17 136.997 476.514
   3  -2  17-78.7824 347.746
  -3   2 -17 998.074 423.532
  -3   2 -18-17.8469 495.799
   3  -2  18-678.711 394.376
   3  -2  18 371.229 425.456
  -3   2 -19-95.2613 477.146
   3  -2  19 226.569 434.382
   3  -1 -20 1624.87 641.965
   3  -1 -19 163.175 421.689
   3  -1 -19 809.316 498.789
  -3   1  19 81.4339 406.699
   3  -1 -18 1871.75 553.548
   3  -1 -18 146.237 419.688
  -3   1  18 1258.16 492.121
   3  -1 -17 156.005 365.481
   3  -1 -17 489.045 453.606
  -3   1  17-148.769 367.633
   3  -1 -16 322.495 365.784
  -3   1  16-321.817 360.241
   3  -1 -16 228.503 407.135
   3  -1 -15-59.5279 317.237
   3  -1 -15 461.661 401.978
  -3   1  15-430.051 343.362
   3  -1 -14 2027.09 467.171
   3  -1 -14 1665.25 480.315
  -3   1  14 1670.66 386.758
   3  -1 -13 6972.48 682.916
  -3   1  13 6316.07 594.496
   3  -1 -13 7432.37 729.436
   3  -1 -12 2785.53 468.021
  -3   1  12 2312.58 410.427
   3  -1 -12 2463.62 484.694
  -3   1  11 25007.4 1015.10
   3  -1 -11 22434.3 1057.61
   3  -1 -11 25911.6 1204.58
   3  -1 -10 19893.8 949.286
  -3   1  10 19101.5 836.451
   3  -1 -10 19581.7 998.139
   3  -1  -9 25302.7 1043.97
  -3   1   9 25489.2 916.293
   3  -1  -9 26373.3 1114.01
   3  -1  -8 2471.01 391.915
   3  -1  -8 1937.21 363.378
  -3   1   8 2769.72 337.306
   3  -1  -7 302.387 244.385
  -3   1   7 484.132 186.863
   3  -1  -7 418.656 260.202
  -3   1   6 3968.38 334.173
   3  -1  -6 3801.30 429.826
  -3   1   5 70949.2 1212.45
   3  -1  -5 70205.0 1562.99
  -3   1   5 73546.2 1587.43
   3  -1  -4 61503.7 634.021
   3  -1  -4 62876.0 1076.29
  -3   1   4 61550.7 733.261
  -3   1   4 64601.3 1083.53
   3  -1  -4 63547.2 1460.67
  -3   1   4 63056.7 1417.90
  -3   1   3 177289. 1466.42
   3  -1  -3 170660. 1612.21
  -3   1   3 173693. 1641.44
   3  -1  -3 170326. 2347.19
  -3   1   3 174020. 2285.63
   3  -1  -3 165464. 1205.64
   3  -1  -2 24.5070 104.815
  -3   1   2 164.995 130.361
   3  -1  -2 131.973 108.219
   3  -1  -2 51.8390 209.391
  -3   1   2-27.9523 122.896
  -3   1   2 198.577 213.724
   3  -1  -1 71154.2 822.107
   3  -1  -1 62401.3 1394.31
  -3   1   1 71151.7 855.790
  -3   1   1 73747.0 1108.17
  -3   1   1 64060.7 1379.34
   3  -1  -1 70529.6 979.748
   3  -1   0 59283.6 642.763
   3  -1   0 61976.3 1379.29
  -3   1   0 59040.1 1056.65
  -3   1   0 59452.4 712.351
  -3   1   0 58179.9 1326.85
   3  -1   0 57735.9 959.328
   3  -1   1 223056. 2575.10
  -3   1  -1 219751. 2127.95
  -3   1  -1 203266. 2459.45
   3  -1   1 219429. 1953.62
   3  -1   2 204728. 1994.23
   3  -1   2 210785. 2523.22
  -3   1  -2 205020. 2173.80
  -3   1  -2 211197. 2538.38
   3  -1   3 74656.7 1274.83
   3  -1   3 70654.8 688.930
   3  -1   3 73288.3 1541.54
  -3   1  -3 74181.6 1548.50
   3  -1   4 90145.0 1479.87
   3  -1   4 93313.8 828.375
   3  -1   4 96190.8 1791.59
   3  -1   4 90804.7 970.866
  -3   1  -4 98081.4 1857.31
   3  -1   5 12679.6 618.460
   3  -1   5 12897.5 367.513
  -3   1  -5 13553.9 733.551
  -3   1  -5 13359.1 748.477
   3  -1   5 12368.4 425.217
   3  -1   6 139632. 2038.64
  -3   1  -6 135672. 2287.17
   3  -1   6 143736. 1353.00
  -3   1  -6 145329. 2411.42
   3  -1   6 138209. 1577.99
  -3   1  -7 9727.83 669.981
   3  -1   7 7769.28 548.544
   3  -1   7 8267.44 375.545
  -3   1  -7 8495.35 663.858
   3  -1   7 8393.54 448.627
  -3   1  -8 540.772 301.978
   3  -1   8 116.133 144.631
   3  -1   8 133.800 143.671
   3  -1   8 143.461 234.548
  -3   1  -8 320.323 251.852
  -3   1  -9 884.591 305.871
  -3   1  -9 334.777 265.741
   3  -1   9 840.314 201.515
   3  -1   9 859.734 290.494
  -3   1 -10 813.866 348.011
   3  -1  10 377.467 198.467
   3  -1  10 106.555 239.671
  -3   1 -10 880.507 329.354
   3  -1  11 2465.64 397.033
  -3   1 -11 2283.61 494.908
  -3   1 -11 2759.06 481.015
   3  -1  11 3056.30 352.933
   3  -1  12 4285.45 511.966
  -3   1 -12 3410.45 525.233
   3  -1  12 4740.99 447.480
  -3   1 -12 4817.62 642.073
   3  -1  13 6434.43 642.725
  -3   1 -13 5877.89 664.326
   3  -1  13 4720.90 472.852
  -3   1 -13 5348.91 680.645
  -3   1 -14 1641.88 469.027
  -3   1 -14 842.941 369.090
   3  -1  14 824.193 306.779
   3  -1  14 650.098 328.555
  -3   1 -15 898.308 414.444
  -3   1 -15 1103.74 446.977
   3  -1  15 1999.81 465.981
   3  -1  15 1370.22 351.394
  -3   1 -16 439.485 423.616
  -3   1 -16 842.753 449.220
   3  -1  16 367.446 298.824
   3  -1  16 449.259 368.519
  -3   1 -17 106.899 412.487
  -3   1 -17-299.332 417.486
   3  -1  17-10.5577 310.585
   3  -1  17 348.947 390.527
  -3   1 -18 828.586 530.595
  -3   1 -18-109.340 427.163
   3  -1  18 490.660 375.887
   3  -1  18 799.767 434.473
  -3   1 -19-199.001 475.961
  -3   1 -19-47.4097 472.325
   3  -1  19 91.6671 408.704
   3   0 -20 1166.11 573.186
   3   0 -19 58.9595 446.999
  -3   0  19-178.649 381.899
   3   0 -18 1727.80 546.917
   3   0 -18 2479.83 577.825
  -3   0  18 2792.64 553.815
   3   0 -17 691.428 402.318
   3   0 -17 729.139 404.342
  -3   0  17 249.542 370.656
   3   0 -16 927.240 438.988
   3   0 -16-56.0834 378.055
  -3   0  16 420.944 344.793
   3   0 -15 1323.80 408.438
   3   0 -15 1264.35 442.498
  -3   0  15 2363.32 466.414
   3   0 -14 4142.63 592.796
  -3   0  14 3972.67 509.170
   3   0 -14 4512.42 576.606
   3   0 -13 30263.0 1350.96
  -3   0  13 30172.4 1186.81
   3   0 -13 28704.5 1260.97
   3   0 -12 3339.02 520.083
  -3   0  12 1734.85 354.958
   3   0 -12 2639.45 451.695
   3   0 -11 4476.28 554.577
  -3   0  11 5137.47 493.032
   3   0 -11 4334.93 498.964
   3   0 -10 44520.6 1419.30
   3   0 -10 46724.8 1417.74
  -3   0  10 43871.0 1216.21
   3   0  -9 882.542 296.430
   3   0  -9 587.513 273.299
  -3   0   9 622.945 249.684
   3   0  -8 6584.89 536.015
   3   0  -8 7235.57 551.470
   3   0  -7 13203.6 710.181
   3   0  -7 12539.4 689.787
   3   0  -6 436.440 214.421
  -3   0   6 330.577 175.267
   3   0  -6 518.778 216.381
   3   0  -5 126922. 1588.92
  -3   0   5 127411. 1522.72
   3   0  -5 129213. 2014.41
   3   0  -5 125861. 1997.39
   3   0  -4 616.135 149.017
  -3   0   4 472.834 163.056
   3   0  -4 802.081 102.007
  -3   0   4 752.134 98.1083
   3   0  -4 622.662 218.059
  -3   0   2 94275.7 1610.45
   3   0  -2 93501.3 1024.46
   3   0  -2 92789.0 1052.32
  -3   0   2 94830.9 945.550
   3   0  -2 90742.0 1637.23
  -3   0   2 91899.5 1589.54
  -3   0   2 95506.6 1101.87
  -3   0   1 149155. 1163.12
   3   0  -1 146048. 1429.01
  -3   0   1 147050. 965.156
   3   0  -1 146329. 2037.50
   3   0  -1 145710. 1931.79
  -3   0   1 148754. 1982.21
  -3   0   1 150858. 1510.83
   3   0   0 1193.55 194.619
   3   0   0 1844.63 332.202
  -3   0   0 1374.06 278.350
   3   0   0 1232.05 231.995
  -3   0   0 1416.30 211.372
   3   0   1 360688. 2587.74
   3   0   1 364682. 3076.24
   3   0   1 365314. 3360.16
  -3   0  -1 359576. 3065.68
  -3   0  -1 369505. 2694.99
   3   0   2 9524.47 477.108
   3   0   2 10436.2 620.107
   3   0   2 9565.42 539.183
  -3   0  -2 8871.52 519.604
   3   0   3 9151.77 487.962
  -3   0  -3 8578.80 601.753
   3   0   3 7967.91 517.729
  -3   0  -3 8333.30 535.139
   3   0   4 192634. 1339.12
   3   0   4 196319. 2208.02
   3   0   4 185796. 1147.07
  -3   0  -4 187114. 2405.86
   3   0   5 39829.8 1067.64
  -3   0  -5 41983.3 1286.24
  -3   0  -5 43069.1 682.445
   3   0   5 42590.3 653.193
  -3   0  -5 43113.5 1226.69
  -3   0  -6 42.9888 227.681
  -3   0  -6 66.4886 233.668
  -3   0  -6-53.7016 105.159
   3   0   6-223.993 217.026
   3   0   6 113.642 114.991
   3   0   7 34907.1 1106.40
  -3   0  -7 37362.3 822.725
   3   0   7 37928.2 798.229
  -3   0  -7 36168.6 1220.89
  -3   0  -7 34937.7 1247.15
  -3   0  -8 1948.21 378.361
   3   0   8 2322.19 376.335
  -3   0  -8 2793.31 283.488
  -3   0  -8 2621.48 429.866
   3   0   8 3065.89 281.651
   3   0   9 10087.2 653.876
   3   0   9 10880.2 519.280
  -3   0  -9 9697.62 747.355
  -3   0  -9 10563.2 749.895
  -3   0 -10 1792.30 405.726
  -3   0 -10 1573.91 407.622
   3   0  10 1237.77 338.115
   3   0  10 1124.88 237.702
  -3   0 -11 778.215 331.280
  -3   0 -11 317.652 332.964
   3   0  11 206.332 220.139
   3   0  11 908.254 330.767
   3   0  12 5867.64 582.152
  -3   0 -12 4984.16 626.767
   3   0  12 5220.84 468.618
  -3   0 -12 5047.84 626.723
  -3   0 -13 142.007 337.540
  -3   0 -13 759.278 373.420
   3   0  13 1056.77 290.057
   3   0  13 650.641 291.758
  -3   0 -14 858.615 396.884
  -3   0 -14-34.7059 343.578
   3   0  14 436.803 298.943
   3   0  14-162.841 327.349
  -3   0 -15 5751.18 718.634
   3   0  15 4771.78 615.135
  -3   0 -15 5736.22 749.358
   3   0  15 5973.18 598.751
  -3   0 -16-309.441 443.795
   3   0  16 72.0307 304.082
   3   0  16-26.0045 331.124
   3   0  17 689.618 376.468
  -3   0 -17 475.991 448.665
  -3   0 -17 157.090 404.292
   3   0  17 1259.80 404.812
   3   0  18-309.762 458.194
  -3   0 -18 135.195 421.985
  -3   0 -18 122.859 469.139
   3   0  19 65.2062 449.296
  -3   0 -19-423.393 497.663
  -3   0 -19 547.332 555.845
   3   1 -20 1069.72 541.889
   3   1 -19 265.671 412.786
  -3  -1  19 608.198 437.929
   3   1 -18 597.155 437.029
  -3  -1  18-576.771 444.615
   3   1 -17 26.3398 368.695
   3   1 -17 443.990 351.498
  -3  -1  17-209.958 364.386
   3   1 -16 3166.82 578.480
  -3  -1  16 3378.57 527.047
   3   1 -16 3236.94 526.638
   3   1 -15 229.825 339.242
  -3  -1  15 152.806 314.294
   3   1 -15-35.4954 279.942
   3   1 -14-39.7178 352.036
   3   1 -14 520.613 314.228
  -3  -1  14 493.437 314.678
   3   1 -13 2737.79 490.711
  -3  -1  13 2436.03 394.706
   3   1 -13 2609.56 417.055
   3   1 -12 13590.0 898.674
  -3  -1  12 12584.1 751.180
   3   1 -12 12889.9 758.162
   3   1 -11 217532. 3292.55
  -3  -1  11 213999. 2843.53
   3   1 -11 219199. 2894.65
   3   1 -10 89244.9 2017.56
  -3  -1  10 89096.4 1724.98
   3   1 -10 90515.4 1797.96
   3   1  -9 56958.9 1549.16
   3   1  -9 55680.7 1384.72
  -3  -1   9 54735.9 1284.43
  -3  -1   8 5010.83 402.400
   3   1  -8 5386.82 456.589
  -3  -1   8 4743.25 173.432
  -3  -1   8 5298.46 175.679
  -3  -1   7 42153.8 545.677
   3   1  -7 38962.8 1104.48
   3   1  -7 41689.5 1223.84
  -3  -1   7 39812.9 1002.50
  -3  -1   6 114386. 1105.51
   3   1  -6 114749. 1926.46
  -3  -1   6 123510. 1027.67
  -3  -1   6 121799. 1634.78
   3   1  -6 123059. 1914.30
  -3  -1   5 15538.6 659.097
   3   1  -5 15394.0 724.277
  -3  -1   5 15577.6 409.253
  -3  -1   5 15106.0 554.157
  -3  -1   5 14548.9 681.195
   3   1  -5 14720.5 675.195
  -3  -1   5 15354.8 438.294
  -3  -1   4 252520. 1735.27
  -3  -1   4 253662. 2052.51
  -3  -1   4 247124. 2703.06
   3   1  -4 245227. 2648.05
  -3  -1   4 255022. 2430.74
  -3  -1   3 230916. 2526.16
  -3  -1   3 234886. 1825.66
  -3  -1   3 234608. 2496.99
  -3  -1   3 241207. 1872.56
   3   1  -3 226922. 2556.02
  -3  -1   3 228387. 2612.76
   3   1  -3 231966. 1977.53
  -3  -1   3 241928. 2195.43
  -3  -1   2 253663. 2488.26
  -3  -1   2 252274. 2011.26
   3   1  -2 247713. 2682.61
   3   1  -2 253609. 2154.59
  -3  -1   2 248356. 2480.40
  -3  -1   2 258084. 2061.33
  -3  -1   1 446.623 129.023
  -3  -1   1 388.098 178.617
  -3  -1   1 490.295 154.071
   3   1  -1 405.958 206.743
   3   1  -1 359.063 158.620
  -3  -1   1 443.328 110.104
  -3  -1   1 311.091 179.628
   3   1   0 19404.8 471.419
  -3  -1   0 16034.9 594.853
   3   1   0 17796.6 627.399
   3   1   0 17216.8 751.069
   3   1   0 18434.9 656.882
  -3  -1   0 17227.4 649.459
  -3  -1   0 17975.7 419.188
   3   1   1 138.401 157.774
   3   1   1 51.9110 69.0144
  -3  -1  -1 72.6721 205.506
   3   1   1 198.780 150.276
  -3  -1  -1 187.894 66.2712
  -3  -1  -1 180.544 170.581
  -3  -1  -2 6573.11 522.557
  -3  -1  -2 6078.36 216.264
   3   1   2 6394.83 423.207
   3   1   2 6214.16 397.761
   3   1   2 6017.58 251.854
  -3  -1  -2 6263.40 409.950
  -3  -1  -3 15479.8 799.367
  -3  -1  -3 14612.6 356.827
   3   1   3 14749.9 648.455
   3   1   3 15087.0 412.354
   3   1   3 13414.5 598.462
  -3  -1  -3 15685.0 656.517
  -3  -1  -4 20629.0 921.521
   3   1   4 20363.9 781.299
   3   1   4 21966.4 540.290
  -3  -1  -4 21578.4 479.443
   3   1   4 20556.7 769.886
  -3  -1  -4 22240.8 800.867
   3   1   5 5502.72 439.711
  -3  -1  -5 5375.90 279.843
   3   1   5 5343.31 310.052
  -3  -1  -5 4958.92 499.975
   3   1   5 4704.22 414.970
  -3  -1  -5 5858.69 455.372
  -3  -1  -6 56377.0 1592.98
   3   1   6 51113.9 1308.46
  -3  -1  -6 52043.7 918.081
   3   1   6 56463.4 1024.04
  -3  -1  -6 55783.3 1354.88
   3   1   7 123.062 238.094
  -3  -1  -7 68.9829 217.775
  -3  -1  -7 527.114 317.613
  -3  -1  -7-201.983 149.775
   3   1   7-201.212 170.808
  -3  -1  -8 17073.5 976.905
   3   1   8 16203.7 820.405
   3   1   8 15937.0 651.221
  -3  -1  -8 17864.5 861.172
   3   1   9 1628.27 356.938
  -3  -1  -9 1772.60 361.222
  -3  -1  -9 2289.75 439.246
   3   1   9 2147.62 293.270
  -3  -1 -10 18932.7 1108.07
   3   1  10 20343.6 816.929
   3   1  10 19586.5 960.898
  -3  -1 -10 19878.6 986.496
   3   1  11 597.677 311.583
  -3  -1 -11-133.251 304.023
  -3  -1 -11 148.943 333.682
   3   1  11 259.265 215.366
   3   1  12 436.598 309.244
  -3  -1 -12 783.546 346.248
  -3  -1 -12 691.616 391.564
   3   1  12 474.374 255.243
   3   1  13-160.563 304.690
  -3  -1 -13 693.596 336.844
  -3  -1 -13 288.175 400.296
   3   1  13-37.9990 240.183
   3   1  14-22.4970 338.896
  -3  -1 -14 644.219 362.426
  -3  -1 -14 747.184 454.209
   3   1  14 214.314 298.063
   3   1  15 1443.10 464.436
  -3  -1 -15 963.261 423.249
   3   1  15 1214.65 361.328
  -3  -1 -15 916.186 485.388
  -3  -1 -16 1022.26 540.065
   3   1  16 126.780 391.610
  -3  -1 -16 918.273 450.800
   3   1  16 161.827 311.551
  -3  -1 -17 462.409 415.994
   3   1  17 621.130 462.756
  -3  -1 -17 205.177 443.851
   3   1  18 728.686 494.504
  -3  -1 -18 72.6849 477.112
   3   2 -19 554.345 481.782
  -3  -2  19 1127.77 444.036
   3   2 -18 2333.89 600.895
  -3  -2  18 2224.86 501.025
   3   2 -17 310.893 439.520
  -3  -2  17 164.511 319.110
   3   2 -16 611.827 422.597
  -3  -2  16 894.776 374.647
   3   2 -15-392.747 357.456
  -3  -2  15 602.636 337.154
   3   2 -15 40.1076 243.545
   3   2 -14 619.174 406.725
  -3  -2  14-90.8585 268.501
   3   2 -14 242.821 227.825
   3   2 -13 686.743 369.472
  -3  -2  13 1313.20 351.200
   3   2 -13 1468.22 309.322
  -3  -2  12 326.029 268.776
   3   2 -12 195.157 218.391
  -3  -2  12 296.649 157.683
   3   2 -11 207446. 3260.14
  -3  -2  11 204487. 2820.01
   3   2 -11 203275. 2531.86
  -3  -2  11 203810. 1759.64
   3   2 -10 5779.02 584.796
  -3  -2  10 4766.60 465.459
   3   2 -10 5032.47 434.810
  -3  -2  10 5277.48 317.518
   3   2  -9 27043.3 1108.05
   3   2  -9 26428.5 881.085
  -3  -2   9 27066.2 957.524
  -3  -2   9 26806.4 929.853
  -3  -2   9 27340.8 680.235
  -3  -2   9 25463.8 742.774
  -3  -2   8 403.375 145.883
   3   2  -8 837.907 291.051
  -3  -2   8 719.635 209.432
  -3  -2   8 635.780 223.839
   3   2  -8 238.642 171.962
  -3  -2   8 484.651 165.041
   3   2  -7 15372.4 783.597
  -3  -2   7 16861.3 700.343
  -3  -2   7 16465.1 581.032
  -3  -2   7 16802.1 704.551
   3   2  -7 17019.3 686.199
  -3  -2   7 16836.0 596.128
   3   2  -6 23274.9 882.953
  -3  -2   6 24139.2 694.131
  -3  -2   6 24107.8 844.630
   3   2  -6 23640.4 807.739
  -3  -2   6 22468.9 673.037
  -3  -2   6 22518.3 761.921
   3   2  -5 116641. 1820.47
  -3  -2   5 118571. 1660.38
  -3  -2   5 117292. 1507.39
  -3  -2   5 117167. 1843.69
  -3  -2   5 116818. 1517.75
   3   2  -5 118209. 1793.49
   3   2  -4 182041. 2240.56
  -3  -2   4 181597. 1976.64
  -3  -2   4 177676. 2306.25
  -3  -2   4 174747. 1877.85
   3   2  -4 178059. 2256.42
  -3  -2   4 177037. 2284.76
   3   2  -3 25022.2 782.040
  -3  -2   3 24113.9 809.973
   3   2  -3 24348.2 859.443
   3   2  -3 22978.3 833.360
  -3  -2   3 25109.4 805.080
  -3  -2   3 24712.4 821.712
  -3  -2   3 23606.6 709.250
   3   2  -2 218562. 2104.87
   3   2  -2 211062. 2357.94
  -3  -2   2 221227. 2269.11
  -3  -2   2 208896. 2534.83
  -3  -2   2 216016. 2202.18
  -3  -2   2 218967. 2256.01
  -3  -2   1 27777.2 781.218
  -3  -2   1 28468.1 977.108
  -3  -2   1 27513.2 757.212
  -3  -2   1 27415.6 765.962
   3   2  -1 27687.4 897.226
   3   2  -1 27399.3 746.420
  -3  -2   0 1195.11 196.961
   3   2   0 1029.72 177.751
  -3  -2   0 1047.23 275.100
  -3  -2   0 921.696 173.916
  -3  -2   0 804.616 179.046
   3   2   0 703.121 242.645
  -3  -2  -1 3975.03 296.270
  -3  -2  -1 3573.72 408.029
  -3  -2  -1 4406.33 281.793
   3   2   1 3855.40 383.880
  -3  -2  -1 3744.82 299.132
   3   2   1 3881.90 294.140
  -3  -2  -2 10397.8 669.118
  -3  -2  -2 11461.6 439.444
   3   2   2 10670.5 603.744
   3   2   2 11311.6 474.194
   3   2   2 11132.9 479.370
  -3  -2  -2 11140.4 493.798
  -3  -2  -3 89406.5 1905.21
  -3  -2  -3 91169.1 1227.91
   3   2   3 88821.8 1719.36
   3   2   3 88357.5 1348.98
   3   2   3 87266.6 1344.48
  -3  -2  -3 91919.6 1415.13
  -3  -2  -4 1759.37 356.716
  -3  -2  -4 2028.71 229.317
   3   2   4 1823.60 236.881
   3   2   4 1831.10 237.035
  -3  -2  -4 1633.99 257.896
   3   2   4 1708.40 317.767
   3   2   5 21999.6 927.859
   3   2   5 22602.6 750.326
   3   2   5 21143.7 756.554
  -3  -2  -5 20084.5 634.817
  -3  -2  -5 22816.5 767.629
  -3  -2  -5 23338.9 1056.22
  -3  -2  -6 9520.15 729.182
   3   2   6 8681.62 497.983
   3   2   6 8394.30 524.059
  -3  -2  -6 7416.36 491.738
   3   2   7 18091.2 913.310
   3   2   7 19302.1 759.314
  -3  -2  -7 20209.2 804.079
  -3  -2  -8 1753.98 325.431
   3   2   8 1422.56 339.422
  -3  -2  -8 2131.22 439.294
   3   2   8 2575.13 332.609
  -3  -2  -9 1058.07 309.167
   3   2   9 1175.50 365.344
  -3  -2  -9 885.763 389.060
   3   2   9 1285.42 290.527
  -3  -2 -10 1757.28 352.853
  -3  -2 -10 2297.52 501.119
   3   2  10 2142.82 358.588
   3   2  10 1982.25 446.687
  -3  -2 -11-13.6297 258.500
   3   2  11 46.9595 285.439
  -3  -2 -11-66.4932 380.919
   3   2  11-51.2345 242.016
  -3  -2 -12 662.115 320.341
   3   2  12 212.608 342.383
  -3  -2 -12 34.1388 357.441
   3   2  12-89.0359 277.573
  -3  -2 -13 708.128 354.659
   3   2  13 1031.31 445.506
  -3  -2 -13 1506.04 502.120
   3   2  13 621.708 323.542
  -3  -2 -14 679.987 475.861
   3   2  14 1881.09 491.371
   3   2  14 1363.11 407.846
  -3  -2 -15 3691.76 740.167
   3   2  15 3599.56 613.073
   3   2  15 2631.95 506.961
   3   2  16 584.108 450.122
  -3  -2 -16 473.428 517.530
  -3  -2 -17 472.571 542.432
   3   2  17 930.229 507.652
   3   3 -19 506.242 472.249
  -3  -3  19-547.873 437.116
   3   3 -18 650.919 445.315
  -3  -3  18 905.122 432.764
   3   3 -17-201.500 403.217
  -3  -3  17 310.813 354.015
   3   3 -16 211.290 405.983
  -3  -3  16-19.8108 301.212
   3   3 -15 543.943 383.968
  -3  -3  15 630.753 318.253
   3   3 -14 343.002 348.557
  -3  -3  14 1256.89 354.938
   3   3 -13 23735.0 1234.85
  -3  -3  13 24037.7 1089.96
  -3  -3  13 23807.8 776.841
   3   3 -12 1873.98 468.739
  -3  -3  12 1666.27 387.969
   3   3 -12 1792.93 278.946
  -3  -3  12 1585.84 294.503
   3   3 -11 410368. 4667.96
  -3  -3  11 415466. 4132.43
   3   3 -11 409477. 3103.00
  -3  -3  10 343.948 200.058
   3   3 -10 645.488 356.303
  -3  -3  10 404.442 282.075
   3   3 -10 487.077 181.627
   3   3  -9 64600.6 1711.49
  -3  -3   9 62198.5 1516.03
   3   3  -9 62545.9 1226.80
  -3  -3   9 63490.2 1276.74
  -3  -3   9 58383.0 1236.91
  -3  -3   8 4935.91 448.886
   3   3  -8 4810.32 479.812
  -3  -3   8 5561.35 405.516
  -3  -3   8 4845.35 385.308
   3   3  -8 4778.26 369.920
   3   3  -7 6750.96 539.297
  -3  -3   7 7134.71 521.993
  -3  -3   7 7301.10 466.279
  -3  -3   7 6899.98 458.423
   3   3  -7 8139.98 469.780
   3   3  -6 4146.98 421.523
  -3  -3   6 3283.21 365.332
  -3  -3   6 4011.67 363.679
  -3  -3   6 3893.17 370.904
  -3  -3   6 3060.52 345.501
   3   3  -5 24245.7 850.916
  -3  -3   5 23439.3 834.226
  -3  -3   5 22387.6 792.231
  -3  -3   5 23955.2 857.184
   3   3  -4 17180.4 762.794
   3   3  -4 19535.3 733.755
  -3  -3   4 17824.6 746.114
  -3  -3   4 18337.5 738.962
  -3  -3   3 6194.80 428.308
  -3  -3   3 6157.89 467.222
   3   3  -3 6153.20 543.602
  -3  -3   3 6081.98 414.326
   3   3  -3 6490.27 467.998
  -3  -3   2 42167.6 972.445
   3   3  -2 43208.1 1331.81
  -3  -3   2 45283.9 1239.97
  -3  -3   2 42494.6 945.247
   3   3  -2 39858.7 1099.66
  -3  -3   1 125675. 1554.02
   3   3  -1 123248. 2183.98
  -3  -3   1 123063. 2071.12
  -3  -3   1 123672. 1502.83
   3   3  -1 124052. 1935.19
   3   3   0 13765.5 750.245
  -3  -3   0 14743.7 495.245
  -3  -3   0 14710.3 764.492
  -3  -3   0 12784.9 603.064
  -3  -3   0 13854.0 488.807
   3   3   0 14770.1 667.387
  -3  -3  -1 33648.3 696.325
  -3  -3  -1 36823.6 1223.44
   3   3   1 38041.9 1078.90
  -3  -3  -1 34038.0 721.570
   3   3   1 35982.4 1214.29
  -3  -3  -2 6768.52 309.221
  -3  -3  -2 9170.69 659.134
   3   3   2 8171.74 514.414
  -3  -3  -2 7711.52 350.759
   3   3   2 7888.50 605.589
   3   3   3 154.600 245.454
   3   3   3 468.453 213.197
  -3  -3  -3 332.413 129.493
  -3  -3  -3 131.077 107.174
  -3  -3  -3-19.0546 253.097
   3   3   4 864.570 225.426
  -3  -3  -4 622.148 159.996
  -3  -3  -4 1317.45 355.674
   3   3   4 525.224 132.032
   3   3   4 650.370 302.445
  -3  -3  -5 6018.13 613.315
   3   3   5 5393.02 461.943
   3   3   5 5069.49 314.247
   3   3   5 5725.29 564.992
  -3  -3  -5 5944.59 351.483
   3   3   6 127.173 221.412
  -3  -3  -6 267.464 165.360
  -3  -3  -6 37.1425 303.863
   3   3   6-125.312 250.829
  -3  -3  -7 9706.01 494.537
  -3  -3  -7 8986.33 793.506
   3   3   7 7403.10 577.015
   3   3   7 8310.42 719.819
  -3  -3  -8 15240.0 646.620
   3   3   8 15115.0 818.186
   3   3   8 16073.7 995.193
  -3  -3  -9 8331.43 522.805
  -3  -3  -9 11495.5 925.108
   3   3   9 10929.2 741.119
   3   3   9 10842.9 856.342
  -3  -3 -10 4204.42 643.224
   3   3  10 3499.49 485.035
   3   3  10 5382.71 663.243
  -3  -3 -11 60.0158 387.058
   3   3  11 624.981 395.712
   3   3  11 937.578 330.913
   3   3  12 918.593 434.441
  -3  -3 -12 410.630 447.676
   3   3  12 322.636 328.167
  -3  -3 -13 1018.18 485.480
   3   3  13 2409.21 600.544
   3   3  13 1321.94 435.652
  -3  -3 -14 227.309 507.608
   3   3  14-313.307 436.722
   3   3  14 255.805 381.175
  -3  -3 -15-271.798 511.027
   3   3  15 590.085 511.367
   3   3  16-210.903 453.664
   3   4 -19 2799.19 698.925
  -3  -4  19 3775.92 662.202
   3   4 -18 3787.55 731.488
  -3  -4  18 5153.67 706.939
   3   4 -17 267.773 430.979
  -3  -4  17 284.426 392.545
   3   4 -16 975.597 447.158
  -3  -4  16 902.992 361.373
   3   4 -15-254.310 407.057
  -3  -4  15-321.852 353.492
   3   4 -14 777.867 416.375
  -3  -4  14 557.388 324.469
   3   4 -13 4940.20 649.573
  -3  -4  13 4217.58 545.399
  -3  -4  13 3881.23 437.251
   3   4 -12 27502.2 1323.70
  -3  -4  12 24846.9 1140.17
  -3  -4  12 24885.5 967.099
   3   4 -11 38329.0 1465.00
  -3  -4  11 37608.4 1344.51
  -3  -4  11 37438.8 1160.09
   3   4 -10 10299.7 774.597
  -3  -4  10 10088.3 717.883
  -3  -4  10 12080.4 675.776
  -3  -4   9 1.84151 208.040
  -3  -4   9 104.026 164.342
   3   4  -9 162.420 265.591
  -3  -4   9-126.156 241.996
   3   4  -8 4949.38 511.657
  -3  -4   8 5905.80 539.223
  -3  -4   8 4870.39 359.624
  -3  -4   8 5512.20 499.392
   3   4  -7 370.699 238.907
   3   4  -7-160.682 289.696
  -3  -4   7-104.596 187.905
  -3  -4   7 253.032 198.199
  -3  -4   7 35.2211 222.496
   3   4  -6 36139.6 1279.32
  -3  -4   6 35102.2 982.620
   3   4  -6 36444.1 1113.66
  -3  -4   6 34567.8 1146.05
  -3  -4   6 31843.2 989.621
   3   4  -5 703.681 266.582
   3   4  -5 732.949 223.755
  -3  -4   5 656.811 223.868
  -3  -4   5 1127.36 274.588
   3   4  -4 2464.45 297.468
  -3  -4   4 2799.28 363.194
  -3  -4   4 1641.01 271.702
  -3  -4   4 2705.16 332.842
   3   4  -4 3032.63 409.755
  -3  -4   3 23074.6 900.612
  -3  -4   3 20763.5 909.856
  -3  -4   3 22672.1 726.491
   3   4  -3 21577.9 957.814
  -3  -4   3 22839.8 777.101
  -3  -4   2 501.028 181.241
   3   4  -2 1101.67 311.372
  -3  -4   2 795.239 261.184
  -3  -4   2 948.026 198.231
  -3  -4   1 1010.84 169.764
   3   4  -1 591.147 278.436
  -3  -4   1 1174.20 332.947
  -3  -4   1 1499.77 186.047
   3   4  -1 548.465 327.980
   3   4   0 67095.9 1937.13
  -3  -4   0 72755.1 1748.79
   3   4   0 67392.1 1636.52
   3   4   1 7336.51 692.645
  -3  -4  -1 7027.04 618.360
   3   4   1 7260.86 580.132
   3   4   2 9866.20 785.996
  -3  -4  -2 11210.9 776.093
   3   4   2 9717.98 656.667
   3   4   3 520.626 262.113
  -3  -4  -3 267.455 291.287
   3   4   3 552.754 355.932
   3   4   4 25.0839 232.709
  -3  -4  -4 63.5892 286.450
   3   4   4 753.422 342.265
   3   4   5 884.051 285.046
  -3  -4  -5 1069.99 362.644
   3   4   5 936.364 384.237
  -3  -4  -6 5769.78 663.110
   3   4   6 4249.62 513.593
   3   4   6 4477.63 611.073
   3   4   7 1497.89 382.330
  -3  -4  -7 424.264 377.718
   3   4   7 463.904 380.475
   3   4   8 1283.51 383.670
   3   4   8 1754.53 457.757
  -3  -4  -8 633.414 407.458
   3   4   9 460.540 325.766
   3   4   9 514.033 375.044
  -3  -4  -9 320.430 389.193
   3   4  10 472.712 329.203
   3   4  10 319.718 384.091
  -3  -4 -10 434.091 433.348
   3   4  11 536.463 366.061
   3   4  11 1213.44 514.108
  -3  -4 -11 477.813 473.718
   3   4  12 446.699 393.992
   3   4  12-126.401 440.666
  -3  -4 -12 431.646 483.529
   3   4  13 666.074 434.187
   3   4  13-137.344 449.120
  -3  -4 -13 437.531 526.233
   3   4  14 2691.75 674.661
  -3  -4 -14 2697.24 726.290
   3   5 -18-301.705 507.090
  -3  -5  18-560.664 483.938
   3   5 -17 113.054 432.753
  -3  -5  17 271.140 391.653
   3   5 -16 20.3288 430.199
  -3  -5  16 165.528 352.341
   3   5 -15 1075.92 498.896
  -3  -5  15 1272.49 427.848
   3   5 -14 206.689 378.308
  -3  -5  14 644.956 357.494
   3   5 -13 504.683 394.238
  -3  -5  13 198.436 269.151
  -3  -5  13 202.808 328.245
   3   5 -12 33031.8 1461.02
  -3  -5  12 35567.2 1468.22
  -3  -5  12 33854.6 1250.55
   3   5 -11 8934.61 768.280
  -3  -5  11 8622.76 771.481
  -3  -5  11 9542.28 704.552
   3   5 -10 5217.79 594.418
  -3  -5  10 4171.69 527.452
  -3  -5  10 4052.93 497.861
  -3  -5   9 25.2812 262.018
   3   5  -9 323.940 300.526
  -3  -5   9 63.4494 251.365
   3   5  -8 477.394 311.337
   3   5  -8 787.355 360.429
  -3  -5   8 767.008 315.171
   3   5  -7 4873.69 582.526
   3   5  -7 6139.35 521.631
  -3  -5   7 4929.57 384.916
  -3  -5   7 6542.43 595.853
   3   5  -6 3369.64 488.047
   3   5  -6 2708.88 357.482
  -3  -5   6 2110.53 303.311
  -3  -5   6 2644.79 426.352
   3   5  -5 18662.4 730.912
  -3  -5   5 18509.9 788.285
  -3  -5   5 17573.5 915.404
   3   5  -5 18440.6 1011.70
  -3  -5   4 7905.74 567.646
  -3  -5   4 6832.57 595.592
   3   5  -4 7532.26 671.139
   3   5  -3 183.249 277.908
  -3  -5   3-424.244 288.722
  -3  -5   3 200.726 272.047
  -3  -5   3 191.908 161.606
   3   5  -2 1320.43 374.978
  -3  -5   2 1059.93 351.012
  -3  -5   2 741.730 128.851
  -3  -5   2 1043.84 299.173
   3   5  -1-452.554 349.793
  -3  -5   1-133.896 284.232
   3   5   0 1336.75 401.655
  -3  -5   0 846.837 357.749
  -3  -5  -1 15500.6 940.689
   3   5   1 13705.1 1095.32
   3   5   1 14947.7 925.508
   3   5   2 2962.99 587.436
  -3  -5  -2 3433.47 515.450
   3   5   2 3081.81 472.473
   3   5   3 805.160 360.000
  -3  -5  -3 429.443 341.911
   3   5   3 163.809 416.295
   3   5   4 532.440 471.490
   3   5   4-208.363 310.156
  -3  -5  -4 194.143 337.650
   3   5   5 5828.71 738.916
  -3  -5  -5 8088.38 802.149
   3   5   5 6550.91 671.856
   3   5   6 2024.10 477.457
   3   5   6 2424.99 569.285
  -3  -5  -6 1869.90 520.125
   3   5   7 14387.7 1127.30
  -3  -5  -7 13578.5 1070.61
   3   5   7 13888.5 965.821
   3   5   8 392.079 348.271
  -3  -5  -8 357.742 448.066
   3   5   9 1723.81 487.293
  -3  -5  -9 1121.08 501.653
   3   5   9 1297.82 531.259
   3   5  10-14.0662 390.465
  -3  -5 -10 622.233 482.252
   3   5  10 784.907 526.287
   3   5  11 342.355 430.838
  -3  -5 -11-172.328 463.651
   3   5  11 210.829 493.848
   3   5  12 273.360 428.934
   3   5  12-964.179 582.945
   3   6 -18 414.821 513.162
   3   6 -17-29.2819 506.237
   3   6 -16-106.253 423.401
  -3  -6  16 396.921 390.392
   3   6 -15 732.488 482.291
  -3  -6  15 676.453 406.177
   3   6 -14 352.484 390.073
  -3  -6  14 40.2552 360.124
  -3  -6  13 451.180 396.618
  -3  -6  13 1180.71 405.823
   3   6 -13 1017.52 440.355
  -3  -6  12 556.563 379.698
  -3  -6  12 1444.75 412.447
   3   6 -12 1023.19 436.984
   3   6 -11 3593.61 537.441
  -3  -6  11 5228.99 649.626
  -3  -6  11 4508.65 567.145
  -3  -6  10 95.8346 287.515
   3   6 -10 371.562 342.480
  -3  -6  10-284.691 325.270
  -3  -6   9 340.438 331.116
   3   6  -9 807.482 338.052
   3   6  -9-282.965 383.705
   3   6  -8 488.824 297.646
   3   6  -8 203.417 385.303
  -3  -6   8 315.515 340.992
   3   6  -7-131.125 347.166
   3   6  -7 65.0368 229.902
  -3  -6   7-136.826 304.990
   3   6  -6-223.719 316.939
  -3  -6   6 254.280 343.965
   3   6  -5 481.791 355.505
  -3  -6   5 114.020 223.530
  -3  -6   5-177.487 302.831
   3   6  -4-217.750 337.974
  -3  -6   4 553.160 284.472
  -3  -6   4 122.839 322.772
  -3  -6   3 3084.04 441.120
  -3  -6   3 3806.19 566.418
   3   6  -3 3710.40 566.919
  -3  -6   2 12545.3 812.971
  -3  -6   2 11447.8 871.092
  -3  -6   1 78790.7 2008.51
  -3  -6   1 74495.7 2118.35
   3   6  -1 75025.8 2147.24
  -3  -6   0 70977.9 2074.82
  -3  -6   0 73741.3 2020.01
   3   6   0 73124.1 2139.48
  -3  -6  -1 6828.48 741.554
  -3  -6  -1 8083.70 761.399
   3   6   1 8035.08 794.080
  -3  -6  -2 6310.57 704.782
  -3  -6  -2 6853.54 728.423
   3   6   2 8151.77 782.829
   3   6   3 122.750 473.113
   3   6   3 454.299 338.476
   3   6   4 913.849 451.163
  -3  -6  -4 807.132 430.933
   3   6   4 222.401 449.784
   3   6   5 816.723 557.743
   3   6   5 259.379 368.909
  -3  -6  -5 803.059 448.118
   3   6   6 499.106 439.796
  -3  -6  -6 846.095 476.461
   3   6   7 754.646 445.029
   3   6   7 1071.43 625.153
  -3  -6  -7 854.585 508.022
   3   6   8-46.9215 545.034
   3   6   8 597.857 470.470
  -3  -6  -8 204.565 455.207
   3   6   9 225.855 437.156
  -3  -6  -9 315.823 471.249
   3   6   9 513.313 516.888
   3   6  10 75.4321 437.108
  -3  -6 -10-436.002 526.208
   3   6  10 353.187 623.422
   3   7 -16 394.318 505.911
   3   7 -15 464.741 499.269
  -3  -7  14 1433.43 533.880
  -3  -7  13 1171.89 463.192
  -3  -7  13 1359.00 475.615
  -3  -7  12 676.389 359.937
  -3  -7  12 691.510 435.871
  -3  -7  11-295.467 383.056
  -3  -7  11-61.8785 376.961
   3   7 -10 3176.53 674.224
  -3  -7  10 2029.20 500.369
  -3  -7   9 552.481 414.141
   3   7  -9 224.561 471.606
   3   7  -8 6490.01 779.003
  -3  -7   8 5404.77 710.895
   3   7  -7 473.402 422.658
  -3  -7   7 238.681 410.965
   3   7  -6 1957.11 509.994
  -3  -7   6 885.413 423.573
   3   7  -5 1123.45 464.019
  -3  -7   5 758.401 418.852
   3   7  -4-178.740 382.762
  -3  -7   4 279.742 360.761
   3   7  -3-36.9748 385.832
  -3  -7   3 542.682 407.439
   3   7  -2 803.231 465.596
  -3  -7   2 366.074 337.371
  -3  -7   2-95.0296 363.555
   3   7  -1 54.7681 378.671
  -3  -7   1-610.893 356.991
  -3  -7   1 296.932 378.336
   3   7   0 2107.26 546.494
  -3  -7   0 1536.24 498.919
   3   7   1 125.405 378.473
  -3  -7  -1-465.736 407.812
  -3  -7  -1 45.4787 375.501
   3   7   2 574.762 435.771
  -3  -7  -2 525.150 383.561
  -3  -7  -2 451.429 438.743
   3   7   3 429.953 469.897
  -3  -7  -3 596.994 420.390
  -3  -7  -3-693.830 442.584
   3   7   4 206.104 464.552
  -3  -7  -4 839.142 467.813
  -3  -7  -4 530.794 411.723
   3   7   5 558.576 466.038
  -3  -7  -5 57.4911 458.457
  -3  -7  -5-175.866 396.001
   3   7   6 25.3507 447.297
  -3  -7  -6 538.804 497.800
  -3  -7  -6 827.066 498.951
   3   7   7-259.337 484.067
  -3  -7  -7-13.5035 493.478
   3   7   8 142.387 524.972
  -3  -8  12-208.945 442.952
  -3  -8  11 282.086 422.543
  -3  -8  10 501.912 443.710
   3   8 -10 734.868 589.826
  -3  -8   9-83.2123 409.537
   3   8  -9 744.634 530.323
   3   8  -8 255.269 434.817
  -3  -8   8 1341.05 524.814
   3   8  -7 1278.70 514.762
  -3  -8   7 1331.31 508.207
   3   8  -6-372.846 462.705
  -3  -8   6 489.639 440.891
   3   8  -5 54.6621 428.834
  -3  -8   5 1057.78 492.679
   3   8  -4 397.917 501.696
  -3  -8   4 91.1923 414.006
   3   8  -3 2819.47 650.979
  -3  -8   3 2095.08 574.500
   3   8  -2 1316.74 562.291
  -3  -8   2 851.002 534.906
  -3  -8   1 11003.6 1036.79
   3   8  -1 13946.8 1204.83
   3   8   0 1466.87 580.221
  -3  -8   0 430.719 494.321
   3   8   1 2013.13 617.586
  -3  -8  -1 1241.67 549.225
   3   8   2-191.619 476.645
  -3  -8  -2 245.268 433.474
  -3  -8  -2 124.532 446.401
   3   8   3 674.735 533.804
  -3  -8  -3 465.421 451.166
   3   8   4 491.577 543.070
  -3  -8  -4 851.263 527.809
   3   8   5 652.130 620.057
  -3  -8  -5 925.271 537.375
   3   9  -4-47.9333 526.224
   3   9  -3 163.504 529.274
   3   9  -2 789.960 569.901
   4  -9  -4 283.907 438.589
   4  -9  -4 16.5897 489.136
   4  -9  -3 1169.50 555.124
   4  -9  -3 593.214 547.403
  -4   9   2 1324.15 606.521
   4  -9  -2 373.678 453.356
   4  -9  -2 997.271 532.385
  -4   9   1-19.9304 484.670
   4  -9  -1 269.555 494.251
   4  -9  -1 355.235 465.860
  -4   9   0 979.056 580.853
   4  -9   0 153.354 437.688
   4  -9   0 831.538 483.777
  -4   9  -1 276.241 491.318
   4  -9   1-185.896 425.088
  -4   9  -2-41.4751 463.359
   4  -9   2 554.926 468.603
  -4   9  -3 746.150 554.452
   4  -9   3 1372.04 580.370
  -4   9  -4 212.649 528.646
  -4   9  -4 315.972 495.838
   4  -9   4 1007.35 525.655
  -4   9  -5 903.997 600.855
  -4   9  -5-285.197 501.112
   4  -9   5 330.021 465.032
  -4   9  -6 806.132 558.682
  -4   9  -6 1677.61 626.277
   4  -9   6 600.711 487.225
  -4   9  -7 770.640 539.804
  -4   9  -7-183.362 489.730
  -4   9  -8 568.664 572.112
  -4   9  -8 90.6021 448.346
  -4   9  -9 288.494 559.915
  -4   9  -9 652.196 525.102
  -4   9 -10-423.442 612.071
  -4   9 -10 783.129 547.978
  -4   8   7 55.8750 473.551
   4  -8  -7-38.2704 477.966
  -4   8   6 812.366 542.700
   4  -8  -6 129.260 482.266
  -4   8   5-391.331 478.740
   4  -8  -5 533.040 432.327
   4  -8  -5 237.418 454.754
  -4   8   4 311.116 465.519
   4  -8  -4 248.838 383.431
   4  -8  -4 1327.37 573.819
  -4   8   3 379.108 433.603
   4  -8  -3 601.724 433.497
   4  -8  -3 1651.25 582.338
  -4   8   2-295.096 419.775
  -4   8   2 366.202 428.738
   4  -8  -2-64.6198 368.717
   4  -8  -2 617.046 467.638
  -4   8   1 175.209 400.347
  -4   8   1 1105.64 524.342
   4  -8  -1-37.2837 354.065
   4  -8  -1-36.6781 382.496
  -4   8   0-5.48296 409.411
  -4   8   0 482.241 421.126
   4  -8   0-390.563 381.849
   4  -8   0-32.2121 382.341
  -4   8  -1-531.276 437.722
  -4   8  -1-116.991 423.826
   4  -8   1-16.5732 366.582
   4  -8   1-26.2652 377.683
  -4   8  -2-114.107 405.370
  -4   8  -2 577.527 454.155
   4  -8   2 320.386 389.294
   4  -8   2 233.588 379.939
  -4   8  -3 1559.88 549.991
  -4   8  -3 906.881 496.086
   4  -8   3 225.606 424.493
   4  -8   3 871.910 425.713
   4  -8   4 10858.0 984.079
  -4   8  -4 8907.29 968.132
  -4   8  -4 9731.32 983.119
  -4   8  -5 509.574 481.114
  -4   8  -5-50.5009 401.081
   4  -8   5 1058.64 475.342
  -4   8  -6 427.446 508.563
  -4   8  -6 455.581 445.345
   4  -8   6 605.003 452.125
  -4   8  -7 768.612 529.824
  -4   8  -7 176.729 417.406
   4  -8   7 745.949 448.856
  -4   8  -8-429.033 430.610
   4  -8   8-315.304 403.744
  -4   8  -9 345.133 483.344
  -4   8  -9 260.239 411.702
   4  -8   9-561.921 486.657
  -4   8 -10 372.075 505.218
  -4   8 -10-56.0870 416.672
   4  -8  10 274.487 392.019
  -4   8 -11 686.712 572.488
  -4   8 -11-12.1164 455.507
  -4   8 -12 128.691 610.894
  -4   8 -12 234.333 459.532
   4  -8  13 393.616 414.077
  -4   7  10 564.217 526.763
  -4   7   9 146.987 435.595
   4  -7  -9 178.391 464.777
  -4   7   8 528.274 443.714
   4  -7  -8-895.869 578.277
  -4   7   7 748.280 506.926
   4  -7  -7 373.026 446.052
  -4   7   7 33.8101 383.033
  -4   7   6 1321.52 530.087
   4  -7  -6 1263.96 422.380
  -4   7   6 1075.65 455.152
  -4   7   5 1935.26 511.205
  -4   7   5 1544.94 493.672
   4  -7  -5 1155.42 467.782
  -4   7   4 1091.43 426.153
  -4   7   4 1156.52 435.650
   4  -7  -4 485.029 371.595
   4  -7  -4 1770.17 534.116
  -4   7   3 1917.85 506.183
  -4   7   3 2307.47 565.090
   4  -7  -3 2825.61 524.334
   4  -7  -3 2400.36 563.415
  -4   7   2 83.1409 356.676
  -4   7   2-55.2402 364.414
   4  -7  -2-388.839 363.094
   4  -7  -2-341.302 418.580
  -4   7   1 1213.74 434.086
  -4   7   1 642.795 430.062
   4  -7  -1 1143.26 419.397
   4  -7  -1 577.688 385.519
  -4   7   0-649.367 437.580
  -4   7   0-163.510 318.756
   4  -7   0 242.380 319.901
   4  -7   0-596.100 381.746
  -4   7  -1 302.692 385.024
  -4   7  -1-313.592 377.500
   4  -7   1 509.362 339.146
   4  -7   1 882.683 405.040
  -4   7  -2 555.351 451.531
  -4   7  -2-448.221 375.476
   4  -7   2 219.874 325.304
   4  -7   2-47.6440 322.377
  -4   7  -3-203.429 433.962
  -4   7  -3 329.627 346.871
   4  -7   3-30.7547 314.393
   4  -7   3 180.464 318.951
  -4   7  -4 314.523 405.860
  -4   7  -4 289.401 373.068
   4  -7   4-140.759 329.486
   4  -7   4 60.5216 325.099
  -4   7  -5 261.996 428.617
  -4   7  -5 256.407 352.245
   4  -7   5-84.8628 353.605
   4  -7   5 473.988 335.627
  -4   7  -6 1101.28 486.460
  -4   7  -6 2281.23 525.554
   4  -7   6 1721.41 457.691
   4  -7   6 2004.87 442.258
  -4   7  -7-109.811 417.652
  -4   7  -7 230.039 335.588
   4  -7   7 429.114 414.732
  -4   7  -8 1523.34 566.021
  -4   7  -8 1076.65 449.448
   4  -7   8 633.566 421.862
  -4   7  -9 253.910 418.588
  -4   7  -9 117.655 348.155
   4  -7   9-229.922 411.606
  -4   7 -10-106.739 462.931
  -4   7 -10-241.566 384.766
   4  -7  10 103.783 345.990
  -4   7 -11-268.583 483.728
  -4   7 -11 53.0102 403.321
   4  -7  11 330.158 374.224
   4  -7  12-342.297 351.619
   4  -7  12 369.410 414.824
  -4   7 -13 2809.57 808.079
   4  -7  13 2604.07 531.254
   4  -7  13 2570.60 619.057
  -4   7 -14 279.649 610.302
   4  -7  14 30.5106 370.792
  -4   6  12 1427.09 594.974
   4  -6 -12 1217.84 639.820
  -4   6  12 210.143 424.221
  -4   6  11 3315.99 687.585
   4  -6 -11 2013.98 646.453
  -4   6  11 2478.42 622.049
  -4   6  10-105.688 449.522
   4  -6 -10 210.253 459.591
  -4   6  10 923.071 443.912
  -4   6   9 456.238 415.004
   4  -6  -9 1562.09 563.425
  -4   6   9 1753.50 523.691
  -4   6   8 1810.93 517.640
   4  -6  -8 863.215 495.556
  -4   6   8 817.603 474.916
  -4   6   7 532.320 367.616
   4  -6  -7 465.856 313.441
   4  -6  -7-153.574 400.448
  -4   6   7 281.702 377.138
  -4   6   6-8.44001 343.124
   4  -6  -6 390.795 291.832
   4  -6  -6 177.156 449.935
  -4   6   6 904.444 416.298
  -4   6   5 897.038 409.453
   4  -6  -5 711.841 354.101
   4  -6  -5 505.025 413.238
  -4   6   5 890.869 390.767
  -4   6   4-58.4124 320.111
   4  -6  -4 241.883 278.820
   4  -6  -4 30.6966 347.554
  -4   6   4 337.862 366.358
  -4   6   3 229.508 333.867
   4  -6  -3 307.427 382.222
   4  -6  -3 201.659 279.267
  -4   6   3 281.505 320.859
  -4   6   2 2070.07 492.239
  -4   6   2 1146.11 405.787
   4  -6  -2 2253.94 437.845
   4  -6  -2 2465.72 498.534
  -4   6   1 211.375 323.135
  -4   6   1-171.418 312.113
   4  -6  -1 368.165 302.172
   4  -6  -1-95.9265 321.350
  -4   6   0 1015.14 356.638
  -4   6   0 1092.08 376.032
   4  -6   0 1094.79 369.562
   4  -6   0 1092.94 410.908
   4  -6   1 11275.0 852.860
   4  -6   1 10031.1 792.454
  -4   6  -1 9448.06 768.286
  -4   6  -1 8492.73 784.854
  -4   6  -2 1124.30 404.570
  -4   6  -2 1163.62 370.579
   4  -6   2 1360.55 389.897
   4  -6   2 1285.50 394.745
  -4   6  -3-246.772 345.205
  -4   6  -3 440.137 347.884
   4  -6   3-296.368 317.273
   4  -6   3 435.844 326.301
  -4   6  -4-327.525 401.196
  -4   6  -4 907.443 371.381
   4  -6   4 397.590 326.745
   4  -6   4-177.500 296.977
  -4   6  -5 1565.97 454.604
  -4   6  -5 2510.68 456.130
   4  -6   5 2704.87 487.871
   4  -6   5 2377.68 426.828
   4  -6   6 12280.4 808.315
   4  -6   6 12641.0 903.070
  -4   6  -6 9259.88 903.835
  -4   6  -6 9722.92 791.572
  -4   6  -7 101.633 393.112
  -4   6  -7 560.598 359.321
   4  -6   7 351.837 318.609
   4  -6   7-163.166 281.816
  -4   6  -8 953.801 466.942
  -4   6  -8 1197.89 404.792
   4  -6   8 2400.52 503.060
   4  -6   8 1688.70 381.485
  -4   6  -9 395.990 428.307
  -4   6  -9 10.7234 308.498
   4  -6   9 1129.34 412.664
   4  -6   9 906.450 349.058
  -4   6 -10 525.619 462.389
  -4   6 -10 62.8631 318.447
   4  -6  10-90.8723 337.584
  -4   6 -11 113.143 473.712
   4  -6  11-13.8402 273.445
   4  -6  11-20.9531 339.759
  -4   6 -12 853.665 561.040
   4  -6  12-204.558 298.963
   4  -6  12 376.109 434.207
  -4   6 -13 1513.65 631.473
   4  -6  13 2158.11 458.644
   4  -6  13 2417.76 570.597
  -4   6 -14 840.156 624.884
   4  -6  14-134.243 342.855
   4  -6  14 19.0400 394.362
   4  -6  15 4126.78 603.845
   4  -6  15 5137.57 781.686
  -4   6 -15 5036.00 946.136
  -4   5  15 676.625 500.347
   4  -5 -14 199.433 489.025
  -4   5  14 259.721 438.192
  -4   5  14 81.9371 412.017
   4  -5 -13 82.1430 452.606
  -4   5  13 750.746 451.091
  -4   5  13 578.711 425.885
   4  -5 -12 68.4104 472.636
  -4   5  12-398.722 407.867
  -4   5  12 344.187 394.321
   4  -5 -11 979.046 478.935
  -4   5  11 1290.33 467.780
  -4   5  11 1469.63 458.144
   4  -5 -10 341.786 402.342
  -4   5  10 1245.51 448.846
  -4   5  10 283.880 351.869
  -4   5   9 4072.62 590.905
  -4   5   9 4307.68 638.745
   4  -5  -8 269.611 239.939
   4  -5  -8 698.012 461.842
  -4   5   8 1111.74 405.823
  -4   5   8 903.758 371.814
  -4   5   7-80.7813 299.645
   4  -5  -7 15.9524 221.797
   4  -5  -7 149.075 356.312
  -4   5   7 426.161 355.435
  -4   5   6 2174.21 434.603
   4  -5  -6 1696.47 343.349
   4  -5  -6 1786.99 501.386
  -4   5   6 2429.43 466.046
  -4   5   5 197.569 302.895
   4  -5  -5 102.820 218.691
  -4   5   5-306.242 369.745
  -4   5   4 13.3770 287.197
   4  -5  -4 561.074 383.112
   4  -5  -4 532.146 275.134
  -4   5   4 279.341 295.116
  -4   5   3 1633.88 367.498
   4  -5  -3 1578.18 342.738
   4  -5  -3 1465.75 440.716
   4  -5  -2 3342.55 526.784
   4  -5  -2 3435.93 441.085
  -4   5   2 2306.81 411.953
  -4   5   2 2182.21 473.327
   4  -5  -1 6029.53 653.310
   4  -5  -1 7659.27 602.269
  -4   5   1 7274.98 626.190
  -4   5   1 6890.82 685.618
  -4   5   0 1718.84 407.000
   4  -5   0 1668.78 330.282
   4  -5   0 2182.80 437.221
  -4   5   0 2193.55 408.096
  -4   5  -1 122.031 322.956
  -4   5  -1 87.8960 253.884
   4  -5   1 203.681 256.241
   4  -5   1 222.309 302.009
  -4   5  -2 1548.84 407.313
  -4   5  -2 839.685 307.364
   4  -5   2 911.900 313.460
   4  -5   2 1929.60 397.185
  -4   5  -3 1366.15 431.884
  -4   5  -3 1005.93 318.017
   4  -5   3 456.275 272.867
   4  -5   3 948.308 325.291
  -4   5  -4 49.1495 329.648
  -4   5  -4-65.4946 253.261
   4  -5   4 168.483 291.957
   4  -5   4 748.531 310.916
   4  -5   5 6053.84 586.188
   4  -5   5 5956.92 590.546
  -4   5  -5 7767.58 804.171
  -4   5  -5 6996.08 601.141
   4  -5   6 12916.1 805.516
   4  -5   6 13436.8 847.366
  -4   5  -6 14032.0 1019.76
  -4   5  -6 11935.9 770.998
   4  -5   7 4589.45 552.546
   4  -5   7 5614.01 581.924
  -4   5  -7 4014.39 491.463
  -4   5  -8 15135.7 883.738
   4  -5   8 15248.6 900.179
   4  -5   8 14940.6 940.277
  -4   5  -8 13357.3 1089.86
  -4   5  -9-96.1481 387.431
  -4   5  -9 284.877 311.149
   4  -5   9 449.990 352.257
  -4   5 -10 802.825 437.810
  -4   5 -10 646.133 350.591
   4  -5  10 871.066 313.654
   4  -5  10 1029.06 390.663
  -4   5 -11 988.805 478.971
  -4   5 -11 1404.75 382.759
   4  -5  11 1076.28 321.408
   4  -5  11 1591.54 444.346
  -4   5 -12 1103.57 379.951
   4  -5  12 786.452 314.656
   4  -5  12 467.141 347.487
   4  -5  13 3928.74 513.404
   4  -5  13 4447.55 655.366
   4  -5  14 5352.75 599.046
  -4   5 -14 4402.80 851.257
   4  -5  14 3579.03 638.191
   4  -5  15 1668.83 541.150
  -4   5 -15 1987.09 700.375
   4  -5  15 1923.01 441.521
  -4   5 -16 189.751 520.534
   4  -5  16 58.4828 400.198
  -4   4  17 431.685 553.646
   4  -4 -16 70.6903 487.012
  -4   4  16-44.6663 470.385
   4  -4 -15 771.971 572.086
  -4   4  15 283.832 399.078
  -4   4  15 337.974 411.094
   4  -4 -14 620.361 524.804
  -4   4  14-479.533 440.130
  -4   4  14 864.496 423.494
  -4   4  13 2984.37 573.156
   4  -4 -13 1813.71 557.934
  -4   4  13 2099.85 515.614
   4  -4 -12 1326.81 544.585
  -4   4  12 686.341 374.179
  -4   4  12 1798.25 477.728
  -4   4  11 6515.57 711.057
  -4   4  11 6347.48 735.439
   4  -4 -11 6789.89 847.460
   4  -4 -10 3565.18 642.524
  -4   4  10 3598.34 568.234
  -4   4  10 2954.75 548.413
   4  -4  -9 2992.70 600.099
  -4   4   9 2612.05 451.136
  -4   4   9 2559.67 515.033
   4  -4  -8 3336.84 343.688
  -4   4   8 2706.02 496.069
  -4   4   8 2387.77 425.478
   4  -4  -7 5204.51 682.039
   4  -4  -7 4625.39 412.488
  -4   4   7 5307.79 563.397
  -4   4   7 4896.51 604.502
   4  -4  -6 145.210 184.395
   4  -4  -6 264.971 347.557
  -4   4   6 63.6529 339.918
  -4   4   6-602.524 324.889
   4  -4  -5 641.145 227.334
   4  -4  -5 124.207 296.626
  -4   4   5 591.968 336.185
  -4   4   5 525.463 280.528
  -4   4   4-59.4558 235.264
   4  -4  -4 334.411 325.080
   4  -4  -4 264.877 192.159
  -4   4   4 461.618 320.462
   4  -4  -3 2928.86 476.219
   4  -4  -3 3679.46 389.875
  -4   4   3 3553.36 431.423
  -4   4   3 3396.69 480.594
   4  -4  -2 9428.80 745.960
   4  -4  -2 9256.41 573.726
  -4   4   2 10003.6 654.561
  -4   4   2 10280.9 771.173
  -4   4   1 1838.64 314.359
   4  -4  -1 1582.28 303.366
   4  -4  -1 1537.35 397.004
  -4   4   1 1835.08 421.214
   4  -4   0 28314.1 1190.42
   4  -4   0 29182.2 1021.68
  -4   4   0 28983.6 1032.85
  -4   4   0 28803.5 1219.01
   4  -4   1 17601.6 930.572
   4  -4   1 17947.4 818.519
  -4   4  -1 16899.8 787.483
  -4   4  -1 18893.5 1022.43
  -4   4  -2 1948.21 428.494
  -4   4  -2 1601.20 290.879
   4  -4   2 1961.12 339.323
   4  -4   2 2160.40 391.370
   4  -4   3 20711.2 987.883
   4  -4   3 17954.2 854.816
  -4   4  -3 19438.9 1070.04
  -4   4  -3 19553.7 828.061
  -4   4  -4 461.227 340.993
  -4   4  -4 972.847 287.495
   4  -4   4 1261.65 316.594
   4  -4   4 751.068 311.268
   4  -4   5 28223.3 1141.39
   4  -4   5 29650.8 1118.90
  -4   4  -5 25526.1 1246.83
  -4   4  -5 26209.3 972.683
  -4   4  -6 1657.14 455.565
   4  -4   6 1241.17 333.623
   4  -4   6 2406.76 413.310
  -4   4  -6 1779.55 332.914
  -4   4  -7 19980.7 894.081
   4  -4   7 18623.6 959.083
   4  -4   7 18256.5 955.594
  -4   4  -7 18719.2 1137.90
  -4   4  -8-303.737 366.747
   4  -4   8 233.167 272.544
   4  -4   8 85.6256 272.232
  -4   4  -9 4506.45 558.236
   4  -4   9 3617.34 401.438
   4  -4   9 3375.22 505.393
  -4   4  -9 2994.78 600.292
   4  -4  10-8.02863 302.747
  -4   4 -10-105.410 383.736
  -4   4 -10 195.343 295.636
   4  -4  10 313.082 254.924
   4  -4  11 1163.00 367.856
  -4   4 -11 984.020 468.315
  -4   4 -11 1366.92 378.885
   4  -4  11 1072.24 280.123
   4  -4  12 815.779 385.441
  -4   4 -12-113.322 431.859
  -4   4 -12 581.037 365.810
   4  -4  12 577.590 276.182
  -4   4 -13 330.297 490.859
   4  -4  13 323.085 356.707
  -4   4 -13 984.116 381.018
   4  -4  13 27.1348 255.100
  -4   4 -14 1404.55 576.899
   4  -4  14 1397.94 459.551
  -4   4 -14 1066.76 416.845
   4  -4  14 2091.24 395.979
  -4   4 -15-28.9264 483.641
   4  -4  15 436.949 373.785
  -4   4 -16 472.524 551.435
   4  -4  16-252.400 413.214
  -4   4 -17 605.259 620.575
   4  -4  17 1943.64 586.893
  -4   3  18 547.984 569.410
   4  -3 -17-94.6688 483.399
  -4   3  17 119.678 475.685
  -4   3  17 483.348 461.314
   4  -3 -16 1051.15 567.771
  -4   3  16 649.378 479.706
  -4   3  16-356.022 419.543
   4  -3 -15-613.550 505.822
  -4   3  15 459.275 446.259
  -4   3  15 570.606 412.612
   4  -3 -14 105.571 429.527
  -4   3  14-277.374 396.466
  -4   3  14-180.413 400.749
   4  -3 -13-72.1917 429.987
  -4   3  13 820.336 399.469
  -4   3  13 1146.96 445.976
   4  -3 -12 1720.72 530.820
  -4   3  12 2267.54 458.276
  -4   3  12 1647.74 453.796
   4  -3 -11 76.7147 391.245
  -4   3  11 0.53848 327.893
  -4   3  11-206.904 316.739
   4  -3 -10 15375.5 1071.46
  -4   3  10 15235.5 896.200
  -4   3  10 13595.5 941.799
   4  -3  -9 34717.2 1521.02
  -4   3   9 33145.5 1237.66
  -4   3   9 35248.4 1436.53
  -4   3   8 2150.97 384.317
   4  -3  -8 1665.85 199.465
   4  -3  -8 2032.67 481.023
  -4   3   8 2599.21 485.605
  -4   3   7 2499.33 374.596
   4  -3  -7 1312.03 207.455
   4  -3  -7 2096.29 440.298
  -4   3   7 1851.37 441.109
   4  -3  -6 1585.45 262.022
  -4   3   6 2197.58 339.644
   4  -3  -6 1731.93 223.543
   4  -3  -6 1329.19 408.112
   4  -3  -5 4777.68 569.000
  -4   3   5 4648.31 436.018
   4  -3  -5 5634.17 368.203
  -4   3   5 4378.55 523.217
  -4   3   4 1493.12 256.533
   4  -3  -4 1338.00 226.899
   4  -3  -4 1141.88 358.287
  -4   3   4 1918.58 403.803
  -4   3   4 1590.11 283.892
   4  -3  -3 414.311 181.738
   4  -3  -3 369.323 298.223
  -4   3   3 308.517 200.272
  -4   3   3 404.650 291.931
  -4   3   3 396.645 208.877
   4  -3  -2 78425.3 1916.30
  -4   3   2 74955.0 1451.28
   4  -3  -2 77039.1 1395.30
  -4   3   2 78066.3 1920.28
  -4   3   1 126.402 181.627
   4  -3  -1 524.094 210.637
   4  -3  -1 760.845 332.760
  -4   3   1 475.418 318.243
   4  -3   0 11301.9 515.423
  -4   3   0 12408.0 589.899
   4  -3   0 11715.4 602.520
  -4   3   0 12871.8 818.671
   4  -3   1 13874.6 553.294
   4  -3   1 13310.1 793.642
   4  -3   1 12527.2 644.326
  -4   3  -1 12913.1 589.650
  -4   3  -1 13282.4 822.061
   4  -3   2 31926.5 823.000
   4  -3   2 33174.8 1212.16
   4  -3   2 34444.3 1069.70
  -4   3  -2 32063.6 1267.93
  -4   3  -2 34680.4 941.213
   4  -3   3 29106.4 797.793
   4  -3   3 30454.5 1154.69
   4  -3   3 30515.6 1052.96
  -4   3  -3 29027.3 841.804
   4  -3   4 4215.44 479.414
   4  -3   4 3251.77 294.420
   4  -3   4 3348.63 426.178
  -4   3  -4 2915.02 490.931
  -4   3  -4 3435.64 327.925
  -4   3  -5 22411.5 761.323
   4  -3   5 22969.9 1027.56
   4  -3   5 20584.8 729.584
   4  -3   5 19748.1 926.205
  -4   3  -5 23025.1 1132.69
   4  -3   6 3090.90 449.854
   4  -3   6 2524.31 305.866
  -4   3  -6 3320.88 529.363
   4  -3   6 2207.06 376.322
   4  -3   7 12810.8 557.701
   4  -3   7 13600.5 812.435
  -4   3  -7 12714.9 914.675
   4  -3   7 12501.5 770.361
   4  -3   8 84.0383 154.501
   4  -3   8 172.804 270.110
  -4   3  -8-49.9595 347.415
  -4   3  -8 71.4923 307.222
  -4   3  -9 85.1826 373.969
   4  -3   9 70.9171 260.079
  -4   3  -9 859.765 355.600
   4  -3   9 438.930 200.458
  -4   3 -10-254.785 394.867
   4  -3  10-108.968 259.142
  -4   3 -10-242.832 304.570
   4  -3  10 58.3295 175.123
  -4   3 -11-406.496 387.999
   4  -3  11-14.0406 283.826
  -4   3 -11-153.424 351.446
   4  -3  11 108.336 198.510
  -4   3 -12 5.71124 393.259
   4  -3  12 59.6214 304.913
  -4   3 -12 128.620 329.137
   4  -3  12-30.0917 212.576
  -4   3 -13 1442.20 549.508
   4  -3  13 499.092 343.915
  -4   3 -13 1081.05 441.085
   4  -3  13 534.616 272.618
   4  -3  14 89.5123 356.538
  -4   3 -14 157.573 346.935
   4  -3  14 492.584 278.552
  -4   3 -15-13.7296 465.911
   4  -3  15-447.474 417.751
   4  -3  16 43.1079 373.780
  -4   3 -16 596.732 554.677
  -4   3 -16 749.707 458.729
  -4   3 -17-135.961 493.807
   4  -3  17 211.638 425.381
   4  -2 -19 878.383 567.723
   4  -2 -18 435.984 462.489
   4  -2 -18 225.260 524.830
  -4   2  18 351.534 436.562
   4  -2 -17 941.097 478.257
   4  -2 -17 2188.65 662.784
  -4   2  17 1519.69 513.898
   4  -2 -16-77.0543 380.529
   4  -2 -16 947.921 533.305
  -4   2  16 541.249 420.723
   4  -2 -15-24.7658 358.300
   4  -2 -15 156.300 423.196
  -4   2  15 425.846 382.728
   4  -2 -14 1183.52 500.065
  -4   2  14 1312.45 401.090
   4  -2 -13 462.431 388.311
  -4   2  13 1092.16 374.870
  -4   2  12 6678.21 643.044
  -4   2  12 6233.20 725.810
  -4   2  11 4690.60 546.790
   4  -2 -11 4100.49 620.004
  -4   2  11 4200.36 578.588
   4  -2 -10 498.196 361.723
  -4   2  10 198.753 287.888
  -4   2  10 972.575 395.910
  -4   2   9 34653.6 1170.37
   4  -2  -9 33935.8 1436.76
  -4   2   9 34915.4 1395.80
   4  -2  -8-51.7591 300.488
  -4   2   8 108.395 228.592
  -4   2   8 354.537 305.140
   4  -2  -7 706.758 351.377
  -4   2   7 349.002 222.958
  -4   2   7 700.695 321.298
   4  -2  -6 7082.26 346.197
  -4   2   6 9519.37 565.651
   4  -2  -6 8319.20 708.927
  -4   2   6 11050.6 748.142
   4  -2  -6 8775.12 291.913
   4  -2  -5 229.031 280.597
  -4   2   5 158.477 117.703
  -4   2   5 377.751 205.057
  -4   2   5 718.487 309.600
   4  -2  -5 85.8205 98.1913
  -4   2   4 88998.7 1296.41
   4  -2  -4 82022.7 1933.06
  -4   2   4 85539.5 1454.79
  -4   2   4 84071.3 1911.00
   4  -2  -4 87016.2 1122.30
  -4   2   3 230.115 161.477
   4  -2  -3-75.2929 147.877
   4  -2  -3-42.5589 273.118
  -4   2   3 377.184 284.166
  -4   2   3 82.6764 161.327
   4  -2  -3 139.147 130.501
   4  -2  -2 231007. 2052.69
  -4   2   2 233739. 2394.90
   4  -2  -2 236147. 3156.69
  -4   2   2 232267. 2166.05
  -4   2   2 231973. 3103.10
   4  -2  -2 239501. 2128.57
   4  -2  -1 29863.8 699.729
  -4   2   1 29142.0 896.867
   4  -2  -1 31107.1 1157.47
  -4   2   1 30375.3 759.199
  -4   2   1 30236.9 1147.83
   4  -2  -1 29864.1 811.945
   4  -2   0 35516.5 709.315
   4  -2   0 37196.9 1273.21
  -4   2   0 36005.0 784.491
  -4   2   0 35787.9 1241.61
   4  -2   0 36473.4 941.421
   4  -2   1 179.770 176.861
  -4   2  -1 480.507 153.651
   4  -2   1 329.187 252.338
   4  -2   1 174.554 109.109
   4  -2   2 52095.1 769.155
  -4   2  -2 53252.6 1525.36
  -4   2  -2 53156.5 871.072
   4  -2   2 53285.6 1242.90
  -4   2  -3 1676.79 369.327
   4  -2   3 1197.18 330.035
   4  -2   3 1839.59 165.939
   4  -2   3 1742.19 318.236
  -4   2  -3 1748.62 177.046
   4  -2   4 12272.6 381.040
   4  -2   4 10169.7 368.035
   4  -2   4 12402.4 769.549
  -4   2  -4 12469.6 804.830
   4  -2   4 11545.7 660.542
   4  -2   5 37629.9 683.298
   4  -2   5 39861.4 1344.20
   4  -2   5 35193.9 744.249
  -4   2  -5 39677.3 1406.89
   4  -2   5 36342.2 1146.53
   4  -2   6 1348.09 308.296
   4  -2   6 1613.25 180.215
   4  -2   6 1479.62 206.322
   4  -2   6 1192.90 342.978
  -4   2  -7 1486.95 403.989
   4  -2   7 511.901 249.889
   4  -2   7 1107.68 176.344
  -4   2  -7 1347.27 375.266
   4  -2   7 1473.55 230.077
   4  -2   8 26386.7 1071.98
  -4   2  -8 29321.7 1265.65
   4  -2   8 28103.7 730.853
   4  -2   8 26889.1 876.948
  -4   2  -8 28844.3 1344.91
  -4   2  -9 901.875 395.299
   4  -2   9 571.514 301.909
  -4   2  -9 337.290 316.331
   4  -2   9 162.591 161.517
  -4   2 -10 1464.25 448.603
   4  -2  10 1370.35 359.615
   4  -2  10 1833.41 268.233
  -4   2 -10 2052.64 434.843
  -4   2 -11 1167.71 423.316
  -4   2 -11 739.757 326.321
   4  -2  11 916.275 368.237
   4  -2  11 816.599 238.504
   4  -2  12 83.6218 312.074
  -4   2 -12 78.0954 383.160
  -4   2 -12-381.634 378.147
   4  -2  12 573.157 232.902
  -4   2 -13 1268.28 520.631
  -4   2 -13 888.962 407.389
   4  -2  13 943.275 371.415
   4  -2  13-70.4394 221.958
  -4   2 -14-514.519 483.229
  -4   2 -14 507.719 397.327
   4  -2  14 316.483 343.511
  -4   2 -15-205.606 436.414
  -4   2 -15 622.501 393.429
   4  -2  15-267.797 365.152
  -4   2 -16 2627.03 650.352
  -4   2 -16 2078.85 583.610
   4  -2  16 2078.08 571.676
  -4   2 -17 721.516 539.067
  -4   2 -17 488.557 455.920
   4  -2  17 20.3452 422.795
  -4   2 -18 290.274 537.913
   4  -1 -19 1307.00 594.427
   4  -1 -18-269.626 453.801
   4  -1 -18 150.596 447.744
  -4   1  18 336.730 404.631
   4  -1 -17 115.031 403.114
   4  -1 -17-10.4107 423.913
  -4   1  17-107.275 368.603
   4  -1 -16 44.5811 366.817
   4  -1 -16 620.662 457.118
  -4   1  16 763.522 388.598
   4  -1 -15 1284.45 486.000
   4  -1 -15 1319.23 484.022
  -4   1  15 1153.86 409.004
   4  -1 -14-20.7677 331.541
   4  -1 -14 134.606 366.100
  -4   1  14-416.157 333.192
   4  -1 -13-351.622 347.073
   4  -1 -13 485.571 364.686
  -4   1  13 12.1499 292.411
   4  -1 -12-58.1580 311.145
   4  -1 -12-375.112 409.434
  -4   1  12 172.999 294.258
   4  -1 -11 22045.8 1129.29
  -4   1  11 24177.0 1029.63
   4  -1 -11 23856.7 1203.76
   4  -1 -10 198219. 3181.53
   4  -1 -10 198013. 3307.42
  -4   1  10 188771. 2666.65
  -4   1   9 119929. 2056.53
   4  -1  -9 120464. 2523.45
  -4   1   9 121373. 2543.88
  -4   1   8 39558.3 1111.21
   4  -1  -8 42743.3 1449.82
  -4   1   8 42112.3 1445.76
  -4   1   7 8086.19 508.614
   4  -1  -7 8112.15 653.445
  -4   1   7 8195.91 658.081
  -4   1   6 24133.4 789.066
   4  -1  -6 23885.4 1057.77
  -4   1   6 24813.5 1056.28
   4  -1  -5 52256.1 623.702
  -4   1   5 55797.6 1120.11
   4  -1  -5 57565.5 1590.81
  -4   1   5 55277.2 1526.22
   4  -1  -4 4320.00 233.559
   4  -1  -4 4600.43 326.289
  -4   1   4 4512.88 320.836
  -4   1   4 3890.69 258.877
   4  -1  -4 4183.41 493.479
  -4   1   4 4248.37 460.898
   4  -1  -3 70336.4 990.541
   4  -1  -3 68151.5 1060.76
  -4   1   3 68422.2 1066.15
   4  -1  -3 72032.8 1735.20
  -4   1   3 68035.1 1103.91
  -4   1   3 72172.4 1688.20
   4  -1  -2 76960.4 1125.82
   4  -1  -2 77368.3 1014.00
  -4   1   2 80044.1 1057.37
   4  -1  -2 78318.7 1793.70
  -4   1   2 75137.9 1246.88
  -4   1   2 77999.9 1727.01
   4  -1  -1 105839. 1424.20
   4  -1  -1 104946. 1005.53
   4  -1  -1 112414. 2124.90
  -4   1   1 107139. 1085.02
  -4   1   1 98936.4 1518.11
  -4   1   1 104618. 2004.43
   4  -1   0 3159.35 307.136
   4  -1   0 2751.85 145.364
   4  -1   0 3399.34 433.020
  -4   1   0 2977.62 163.766
  -4   1   0 3876.80 433.913
   4  -1   1 13078.6 591.654
   4  -1   1 13918.5 770.666
  -4   1  -1 13174.8 739.429
  -4   1  -2 228.169 259.247
   4  -1   2 91.9942 184.471
   4  -1   2 445.437 263.839
   4  -1   3 36132.2 1058.44
   4  -1   3 38610.7 1305.78
  -4   1  -3 36339.9 1239.12
  -4   1  -4 1641.08 364.732
   4  -1   4 1521.32 344.283
   4  -1   4 889.424 266.786
   4  -1   5 1407.74 317.907
   4  -1   5 1086.71 88.2873
   4  -1   5 1364.33 102.010
  -4   1  -6 89.0713 280.286
   4  -1   6 56.6880 80.4706
   4  -1   6 99.3639 222.671
  -4   1  -6 365.569 286.044
   4  -1   6 132.666 86.1419
   4  -1   7 27027.2 1041.67
  -4   1  -7 26653.5 1203.97
   4  -1   7 27493.8 594.993
  -4   1  -7 28062.0 1222.60
   4  -1   7 25431.2 677.431
  -4   1  -8-66.5042 323.518
   4  -1   8-5.24698 150.839
  -4   1  -8 419.489 333.648
   4  -1   8-76.6368 263.981
   4  -1   8 26.2315 134.913
  -4   1  -9-55.3239 299.636
  -4   1  -9 859.178 371.469
   4  -1   9 99.2800 256.563
   4  -1   9 526.484 178.185
  -4   1 -10 713.095 393.318
  -4   1 -10 862.652 373.258
   4  -1  10 1437.21 242.660
   4  -1  10 1435.35 367.872
   4  -1  11 16052.8 958.727
  -4   1 -11 15660.0 1036.42
   4  -1  11 16677.2 679.854
  -4   1 -11 15836.8 1067.95
  -4   1 -12 464.396 357.952
  -4   1 -12 499.119 374.886
   4  -1  12 584.111 324.628
   4  -1  12-77.9284 191.962
  -4   1 -13-293.210 400.585
  -4   1 -13 680.774 416.221
   4  -1  13 375.229 380.173
   4  -1  13 15.8492 213.440
  -4   1 -14 250.364 408.613
  -4   1 -14 185.006 389.462
   4  -1  14-15.4383 348.706
  -4   1 -15 430.904 465.846
  -4   1 -15 571.363 445.754
   4  -1  15 644.557 410.641
  -4   1 -16 859.352 527.930
  -4   1 -16 1243.87 529.733
   4  -1  16 296.121 386.307
  -4   1 -17 787.831 542.559
  -4   1 -17-637.757 462.809
   4  -1  17 44.8613 417.604
  -4   1 -18 79.4218 511.132
  -4   1 -18-202.338 472.059
   4   0 -19 694.349 441.913
  -4   0  19 751.719 451.698
   4   0 -18 581.375 442.504
   4   0 -18 694.305 505.899
  -4   0  18 1076.22 450.406
   4   0 -17 3623.90 637.703
  -4   0  17 3414.70 576.998
   4   0 -17 3414.06 630.299
   4   0 -16 385.595 396.312
   4   0 -16 896.161 487.065
  -4   0  16 286.510 322.994
   4   0 -15-157.343 366.945
   4   0 -15 171.906 372.500
  -4   0  15 607.394 368.195
   4   0 -14-313.073 350.137
   4   0 -14-88.1980 332.657
  -4   0  14 221.960 314.056
   4   0 -13 786.299 360.897
   4   0 -13 759.918 326.707
  -4   0  13 728.108 311.400
   4   0 -12 6993.25 694.793
  -4   0  12 6538.58 587.042
   4   0 -12 5818.57 629.949
   4   0 -11 189.579 366.814
   4   0 -11 315.767 328.603
  -4   0  11-17.8144 289.806
   4   0 -10 183138. 3082.46
  -4   0  10 178479. 2555.97
   4   0 -10 183981. 2994.99
   4   0  -9 4392.63 539.521
  -4   0   9 4104.89 433.418
   4   0  -9 5071.76 574.074
   4   0  -8 19082.2 962.089
  -4   0   8 19352.9 769.828
   4   0  -7 1389.91 318.483
  -4   0   7 1025.87 242.918
  -4   0   6 484.885 195.736
   4   0  -6 687.569 309.974
  -4   0   6 694.673 261.350
   4   0  -5 142.159 97.8130
  -4   0   5 90.0829 86.5224
  -4   0   5 129.153 145.754
   4   0  -5-52.4148 244.301
   4   0  -5 264.882 155.010
  -4   0   5-101.282 271.865
   4   0  -4 29161.1 766.640
  -4   0   4 28651.4 696.161
   4   0  -4 28734.1 1090.10
   4   0  -4 29206.3 633.731
  -4   0   4 28066.9 644.313
  -4   0   4 28724.2 1070.13
  -4   0   3 64631.5 939.815
   4   0  -3 64320.7 1013.96
   4   0  -3 62709.2 1581.88
  -4   0   3 64547.6 1571.98
  -4   0   3 62379.2 1055.91
   4   0  -2 1448.31 200.989
  -4   0   2 1328.24 147.956
   4   0  -2 986.431 307.155
  -4   0   2 1065.39 205.552
  -4   0   2 1251.37 278.821
  -4   0   2 1492.68 180.291
   4   0  -1 114714. 1511.51
  -4   0   1 112159. 831.928
   4   0  -1 122096. 2209.63
  -4   0   1 121073. 2055.68
  -4   0   1 112369. 1575.37
  -4   0   1 105992. 990.415
   4   0   0 11044.5 516.574
   4   0   0 10185.0 674.428
  -4   0   0 10817.6 653.406
   4   0   1 503.368 268.968
   4   0   1 565.966 197.256
  -4   0  -1 484.266 250.557
  -4   0  -2 1.51862 211.187
   4   0   2 44.5881 249.239
   4   0   2 130.021 182.998
   4   0   3 4758.92 429.221
  -4   0  -3 5945.30 520.841
   4   0   4 19879.8 837.004
  -4   0  -4 22794.9 967.976
  -4   0  -4 21577.8 1033.22
  -4   0  -5-104.424 242.190
  -4   0  -5-13.4158 287.181
   4   0   5-24.1024 203.291
   4   0   6 13129.3 746.939
   4   0   6 13907.0 377.264
  -4   0  -6 13870.3 819.076
  -4   0  -7 418.158 294.918
   4   0   7 541.533 141.369
  -4   0  -7 1189.21 389.560
   4   0   7 731.743 297.043
   4   0   7 665.172 142.452
  -4   0  -8 1737.01 399.282
  -4   0  -8 1450.77 414.630
   4   0   8 1790.97 221.952
   4   0   8 1458.72 336.713
  -4   0  -9-150.937 303.273
  -4   0  -9-209.321 350.518
   4   0   9 362.481 259.731
   4   0   9-33.4844 159.430
  -4   0 -10 1329.94 403.827
  -4   0 -10 2062.83 473.742
   4   0  10 826.255 314.456
   4   0  10 1415.90 249.467
  -4   0 -11 747.442 387.507
  -4   0 -11 997.002 402.899
   4   0  11 871.658 246.248
   4   0  11 1025.91 373.414
  -4   0 -12 1156.83 438.580
  -4   0 -12 673.346 402.440
   4   0  12 1043.83 277.531
   4   0  12 1126.75 391.561
  -4   0 -13-511.213 429.577
  -4   0 -13 524.609 439.322
   4   0  13 163.377 323.023
  -4   0 -14 834.816 432.955
  -4   0 -14 241.453 437.345
   4   0  14 1128.00 425.643
  -4   0 -15 1023.33 463.210
  -4   0 -15 1283.07 540.596
   4   0  15 1267.46 476.801
   4   0  16 2722.54 588.884
  -4   0 -16 1613.27 570.112
  -4   0 -16 3688.77 714.803
   4   0  17 509.151 456.569
  -4   0 -17-64.6283 435.486
  -4   0 -17 215.137 475.103
  -4   0 -18 177.203 497.578
   4   1 -19 1519.20 593.206
  -4  -1  19 2137.50 566.132
   4   1 -18 808.373 505.608
  -4  -1  18 353.381 412.616
   4   1 -17 264.960 398.590
  -4  -1  17 910.247 396.511
   4   1 -16 96.2383 367.082
   4   1 -16 434.650 367.877
  -4  -1  16 507.135 375.423
   4   1 -15 676.977 382.050
   4   1 -15 1290.96 431.728
  -4  -1  15 379.008 298.819
   4   1 -14 1930.03 437.476
   4   1 -14 1955.40 483.974
  -4  -1  14 2449.39 434.247
   4   1 -13 449.557 355.849
  -4  -1  13 843.444 348.075
   4   1 -13 990.859 349.578
   4   1 -12 27533.2 1287.08
  -4  -1  12 27338.6 1114.95
   4   1 -12 27295.9 1180.13
   4   1 -11 1575.72 434.490
  -4  -1  11 2338.24 418.546
   4   1 -11 2212.85 449.183
   4   1 -10 379733. 4355.33
  -4  -1  10 373615. 3670.92
   4   1 -10 372057. 4013.35
   4   1  -9-2.00874 313.485
  -4  -1   9 106.918 251.181
   4   1  -9 269.466 276.778
   4   1  -8 36331.4 1302.73
   4   1  -8 36923.1 1244.03
  -4  -1   8 34643.7 1024.41
  -4  -1   7 1259.46 130.107
   4   1  -7 1047.83 305.311
  -4  -1   7 1653.39 261.812
  -4  -1   7 1276.56 153.559
   4   1  -7 1318.51 308.117
  -4  -1   6 357.960 127.582
  -4  -1   6 350.635 159.301
  -4  -1   6 374.160 135.359
   4   1  -6 232.023 237.624
  -4  -1   6 154.519 248.057
  -4  -1   5 20463.2 662.431
  -4  -1   5 20433.6 572.050
   4   1  -5 19130.7 883.014
  -4  -1   5 21402.9 926.999
  -4  -1   4 100533. 1357.34
  -4  -1   4 104520. 1358.78
   4   1  -4 107616. 2054.94
  -4  -1   4 103793. 1942.00
  -4  -1   4 106495. 1691.51
   4   1  -4 97237.5 1431.26
  -4  -1   3 833.794 195.620
  -4  -1   3 594.280 161.449
  -4  -1   3 584.935 135.624
   4   1  -3 530.446 253.101
  -4  -1   3 790.492 271.286
   4   1  -3 545.464 180.705
  -4  -1   2 10044.1 360.078
   4   1  -2 9265.89 653.098
   4   1  -2 8313.87 471.446
  -4  -1   2 9744.23 591.438
  -4  -1   2 9625.47 433.534
  -4  -1   1 32542.3 550.276
   4   1  -1 31907.8 911.754
  -4  -1   1 33520.9 652.899
  -4  -1   1 32535.7 1034.82
   4   1   0 139279. 1958.35
  -4  -1   0 128193. 958.534
   4   1   0 142617. 2425.37
  -4  -1   0 140800. 2104.37
  -4  -1  -1 21028.6 992.324
   4   1   1 19695.9 780.566
  -4  -1  -1 21319.6 849.957
   4   1   2 16652.4 749.598
  -4  -1  -2 16212.7 748.593
  -4  -1  -3 4196.80 517.751
   4   1   3 3167.92 393.208
  -4  -1  -3 4037.56 415.217
  -4  -1  -4 1944.30 127.109
   4   1   4 2503.63 367.087
   4   1   4 1836.55 138.766
  -4  -1  -4 2094.61 332.895
   4   1   5 443.942 258.789
  -4  -1  -5 310.960 227.830
   4   1   5 45.3295 78.3753
  -4  -1  -5 84.8568 77.2179
  -4  -1  -5 58.8871 265.168
   4   1   6 555.706 147.647
   4   1   6 528.725 264.606
  -4  -1  -6 966.659 309.685
  -4  -1  -6 254.306 312.613
  -4  -1  -6 550.382 132.957
  -4  -1  -7 4788.20 601.928
   4   1   7 6215.81 572.214
   4   1   7 4328.51 322.559
  -4  -1  -7 5082.65 516.021
  -4  -1  -8 25404.6 1269.13
   4   1   8 24168.8 1080.20
   4   1   8 24876.2 785.845
  -4  -1  -8 23830.6 1054.88
   4   1   9 16764.8 940.776
   4   1   9 16972.4 705.635
  -4  -1  -9 17974.1 1116.08
  -4  -1  -9 18188.2 988.937
  -4  -1 -10 9740.84 898.404
   4   1  10 10264.4 779.978
   4   1  10 8690.72 546.714
  -4  -1 -10 8385.15 727.375
  -4  -1 -11 2551.30 479.924
  -4  -1 -11 3549.87 622.208
   4   1  11 2939.96 520.785
   4   1  11 2425.15 360.979
   4   1  12 579.880 355.170
  -4  -1 -12 820.221 405.149
  -4  -1 -12 1580.25 491.969
   4   1  13 786.198 387.640
  -4  -1 -13 1015.82 411.055
  -4  -1 -13 1916.93 584.687
   4   1  14 345.722 411.875
  -4  -1 -14 63.5669 358.218
  -4  -1 -14 947.941 493.569
   4   1  15 962.385 465.422
  -4  -1 -15 1035.99 550.414
   4   1  16 178.827 460.633
  -4  -1 -16 212.841 526.605
  -4  -1 -17 556.923 544.093
   4   2 -19 2818.32 673.319
  -4  -2  19 2375.53 565.664
   4   2 -18 6035.75 856.747
  -4  -2  18 4461.19 639.997
   4   2 -17 6942.70 849.928
  -4  -2  17 7186.57 738.918
   4   2 -16-369.438 459.108
  -4  -2  16 436.863 362.350
   4   2 -15 2469.59 538.299
  -4  -2  15 2468.71 457.531
   4   2 -14 438.700 347.690
  -4  -2  14 293.141 281.891
   4   2 -14 12.1637 255.896
   4   2 -13 497.541 365.749
  -4  -2  13 603.112 299.233
   4   2 -13 476.326 296.996
   4   2 -12 4434.75 585.191
  -4  -2  12 4161.38 493.258
   4   2 -12 4870.18 507.962
   4   2 -11 7168.19 693.423
  -4  -2  11 9312.45 659.277
   4   2 -11 8070.04 623.152
   4   2 -10 34785.0 1356.86
  -4  -2  10 32008.9 666.113
   4   2 -10 33453.1 1155.88
   4   2  -9 2135.64 393.588
  -4  -2   9 2736.50 381.091
  -4  -2   9 2388.94 239.785
   4   2  -9 2974.11 401.005
   4   2  -8-474.847 295.226
  -4  -2   8 87.4246 211.661
   4   2  -8 330.257 241.376
  -4  -2   8 186.260 146.576
  -4  -2   8 146.747 148.722
   4   2  -7 18539.9 911.697
  -4  -2   7 16889.7 565.798
  -4  -2   7 18505.7 745.813
  -4  -2   7 17163.0 619.635
   4   2  -7 17855.6 834.930
  -4  -2   6 123.114 182.836
  -4  -2   6-104.497 165.069
   4   2  -6 144.884 238.093
  -4  -2   6 15.5164 149.711
  -4  -2   5 100048. 1560.51
   4   2  -5 101764. 1998.79
  -4  -2   5 97487.1 1915.90
  -4  -2   4 923.763 196.822
   4   2  -4 1285.30 327.274
  -4  -2   4 1484.07 284.982
   4   2  -3 3291.16 414.012
  -4  -2   3 4758.03 336.052
   4   2  -3 4516.20 477.079
  -4  -2   3 4827.75 436.117
  -4  -2   3 4744.05 399.008
  -4  -2   2 20929.2 627.894
  -4  -2   2 19594.9 702.309
  -4  -2   2 21103.3 824.325
  -4  -2   1 10276.5 710.773
  -4  -2   1 8936.59 442.939
  -4  -2   1 10540.6 593.475
   4   2  -1 10348.4 612.465
   4   2   0 470.175 149.873
  -4  -2   0-177.627 280.469
   4   2   0 38.7331 262.616
  -4  -2   0 238.874 199.152
  -4  -2   0 104.085 128.659
  -4  -2  -1 257649. 1922.02
   4   2   1 250881. 3020.83
  -4  -2  -1 250812. 2691.86
   4   2   1 254785. 2066.35
  -4  -2  -2 12590.1 848.384
  -4  -2  -2 12876.4 436.257
   4   2   2 14591.6 787.930
  -4  -2  -2 12271.6 633.209
   4   2   2 13736.6 503.168
  -4  -2  -3 43538.6 1496.71
  -4  -2  -3 39327.3 740.822
   4   2   3 42777.4 1326.64
   4   2   3 42245.4 882.651
  -4  -2  -3 39599.7 1105.59
  -4  -2  -4 1587.58 308.947
  -4  -2  -4 1947.44 210.286
  -4  -2  -4 1653.40 419.102
   4   2   4 1773.20 373.861
   4   2   4 1890.15 235.620
  -4  -2  -5 6331.01 662.869
   4   2   5 5796.44 568.553
   4   2   5 5491.67 387.097
  -4  -2  -5 5755.19 479.912
  -4  -2  -6 1861.52 331.264
  -4  -2  -6 2342.23 468.608
   4   2   6 2742.81 442.802
   4   2   6 1865.87 280.271
  -4  -2  -7 11808.3 918.929
   4   2   7 11787.4 811.890
   4   2   7 12225.5 608.296
  -4  -2  -7 11058.5 681.910
   4   2   8 878.539 239.634
  -4  -2  -8 251.358 261.153
   4   2   8 579.454 321.244
  -4  -2  -8 1230.29 445.371
   4   2   9 655.086 259.823
  -4  -2  -9 106.591 266.038
   4   2   9 530.822 346.267
   4   2  10-187.504 246.033
  -4  -2 -10 130.589 280.021
   4   2  10 675.712 379.558
  -4  -2 -10 352.249 402.577
   4   2  11 245.328 395.814
  -4  -2 -11-213.049 396.424
   4   2  12-649.399 457.557
  -4  -2 -12 861.022 493.639
   4   2  13 142.051 400.868
  -4  -2 -13 939.565 515.243
   4   2  14 481.295 407.903
  -4  -2 -14 501.787 482.277
   4   2  15 1154.72 548.092
  -4  -2 -15 1396.21 606.195
   4   3 -18 842.691 530.560
  -4  -3  18 1444.35 477.279
   4   3 -17 22.9293 456.643
  -4  -3  17 433.689 386.761
   4   3 -16-433.895 440.464
  -4  -3  16 121.912 315.046
   4   3 -15 484.616 434.642
  -4  -3  15 298.146 305.813
   4   3 -14 3041.49 579.749
  -4  -3  14 2296.90 437.807
   4   3 -13 2297.41 491.326
  -4  -3  13 2008.65 385.432
   4   3 -12 185.463 320.008
  -4  -3  12 86.6222 250.865
   4   3 -12 153.363 230.533
   4   3 -11 25837.3 1248.95
  -4  -3  11 25552.4 1091.04
   4   3 -11 26455.6 968.966
  -4  -3  10 285.195 197.808
   4   3 -10 97.6217 300.446
  -4  -3  10 274.741 258.355
   4   3 -10 267.731 220.067
  -4  -3   9 860.079 228.197
   4   3  -9 682.919 349.762
  -4  -3   9 809.179 300.330
   4   3  -9 529.317 232.174
   4   3  -8 6131.69 577.377
  -4  -3   8 6272.07 519.206
  -4  -3   8 6918.83 481.420
   4   3  -8 7577.63 563.542
   4   3  -7 1332.48 321.998
  -4  -3   7 1254.04 287.187
   4   3  -7 1207.47 270.145
  -4  -3   7 980.663 251.565
  -4  -3   6 5633.48 461.910
  -4  -3   6 6626.79 487.205
  -4  -3   5 1708.21 328.186
  -4  -3   5 1748.33 286.654
  -4  -3   5 2047.64 300.824
  -4  -3   5 1815.72 322.201
  -4  -3   4 29344.3 1103.52
  -4  -3   4 29883.7 924.320
  -4  -3   4 28208.2 989.315
  -4  -3   3 9084.07 647.506
  -4  -3   3 8089.44 538.827
   4   3  -2 369.023 315.372
   4   3  -2 95.5649 170.271
  -4  -3   2-258.700 266.490
  -4  -3   2 168.881 174.007
   4   3  -1-144.132 180.902
  -4  -3   1-78.7722 181.283
  -4  -3   1-151.544 287.726
   4   3  -1-132.371 265.049
  -4  -3   1 8.84251 178.441
  -4  -3   0 3879.25 360.896
  -4  -3   0 4146.57 501.597
  -4  -3   0 4464.89 395.126
   4   3   0 4280.65 391.049
   4   3   0 4951.15 542.579
  -4  -3  -1 9698.36 515.054
  -4  -3  -1 10040.0 783.726
  -4  -3  -1 9436.60 533.764
   4   3   1 10241.1 573.239
   4   3   1 9872.43 737.865
  -4  -3  -2 30418.8 1283.41
  -4  -3  -2 30875.0 883.800
   4   3   2 32549.6 971.339
   4   3   2 31338.2 1253.73
  -4  -3  -3 5720.36 647.131
   4   3   3 6218.43 472.816
   4   3   3 6499.67 639.071
  -4  -3  -3 6863.84 442.554
  -4  -3  -4 130.513 204.827
   4   3   4 530.150 217.708
  -4  -3  -4 438.542 367.770
   4   3   4 648.072 333.134
   4   3   5 249.713 197.557
  -4  -3  -5 346.679 220.862
  -4  -3  -5 261.585 317.984
   4   3   5 130.977 286.730
  -4  -3  -6 10580.0 896.119
   4   3   6 9321.39 603.364
   4   3   6 11218.7 851.098
   4   3   7 1305.48 294.811
   4   3   7 2024.84 447.073
  -4  -3  -7 1054.88 424.893
  -4  -3  -8 12091.6 995.715
   4   3   8 10207.5 695.954
   4   3   8 10173.9 863.912
   4   3   9-305.736 282.459
  -4  -3  -9-262.909 412.971
   4   3   9-524.054 389.936
  -4  -3 -10 988.205 506.334
   4   3  10 722.926 400.733
  -4  -3 -11 756.588 458.743
   4   3  11 56.7191 384.776
  -4  -3 -12 947.764 496.991
   4   3  12 205.871 410.968
  -4  -3 -13 661.441 493.593
   4   3  13 267.632 463.328
  -4  -3 -14 847.393 561.498
   4   3  14 317.804 509.535
   4   4 -18 675.320 530.854
  -4  -4  18 1448.38 505.597
   4   4 -17 777.956 515.131
  -4  -4  17 290.570 369.881
   4   4 -16 596.788 479.143
  -4  -4  16-481.459 390.562
   4   4 -15-80.6940 390.882
  -4  -4  15 740.188 392.418
   4   4 -14 1908.40 518.831
  -4  -4  14 2173.40 466.602
   4   4 -13 525.233 376.676
  -4  -4  13 798.568 350.881
   4   4 -12 3590.70 553.908
  -4  -4  12 3642.58 504.550
  -4  -4  11 281.985 241.916
   4   4 -11 507.597 361.592
  -4  -4  11-20.0845 272.549
   4   4 -10 7515.27 688.556
  -4  -4  10 7393.99 642.701
  -4  -4  10 7573.68 563.448
   4   4  -9 887.030 359.419
  -4  -4   9 821.175 268.186
  -4  -4   9 1115.84 330.803
  -4  -4   9 945.638 288.670
   4   4  -8 974.396 319.092
  -4  -4   8 1296.98 360.742
  -4  -4   8 461.380 248.984
  -4  -4   8 647.100 267.756
   4   4  -7 554.971 273.909
  -4  -4   7 344.047 230.060
  -4  -4   7 644.233 271.224
  -4  -4   7 264.614 231.106
  -4  -4   6 950.849 292.961
  -4  -4   6 1096.75 300.159
  -4  -4   6 1072.66 273.059
   4   4  -5 2207.19 380.855
  -4  -4   5 1398.85 326.274
  -4  -4   5 1586.49 311.132
  -4  -4   5 1555.90 314.985
   4   4  -4 2241.25 378.903
  -4  -4   4 853.868 270.766
  -4  -4   4 844.493 273.648
  -4  -4   4 1932.07 320.993
   4   4  -3 528.920 273.810
  -4  -4   3 760.732 293.176
  -4  -4   3 102.930 207.385
   4   4  -2 11223.3 890.250
  -4  -4   2 12677.3 805.742
  -4  -4   2 12580.8 597.132
   4   4  -2 11854.0 709.968
  -4  -4   1 53474.6 1645.32
  -4  -4   1 49875.7 1069.53
   4   4  -1 52241.8 1442.66
   4   4   0 172073. 3271.78
  -4  -4   0 178181. 3029.57
  -4  -4   0 166911. 1810.80
   4   4   0 182410. 2649.42
   4   4   1 139815. 2871.10
   4   4   1 140674. 2334.24
  -4  -4  -2 18144.3 1070.35
   4   4   2 15917.7 825.259
   4   4   3 4991.66 646.631
  -4  -4  -3 5850.41 669.954
   4   4   3 5244.73 517.500
  -4  -4  -4 1758.58 457.735
   4   4   4 2275.83 476.673
   4   4   4 2071.15 372.410
   4   4   5-108.584 238.246
   4   4   5 538.004 395.001
  -4  -4  -5 529.549 393.277
   4   4   6 434.059 286.814
   4   4   6 180.398 381.839
  -4  -4  -6 525.260 380.242
   4   4   7 1291.65 366.690
   4   4   7 1170.23 459.457
  -4  -4  -7 884.977 463.290
   4   4   8 1044.01 488.975
  -4  -4  -8 1380.37 504.886
   4   4   9 943.742 509.146
  -4  -4  -9 479.433 408.350
   4   4  10 765.351 447.593
  -4  -4 -10-69.7483 423.858
   4   4  11 545.211 493.301
  -4  -4 -11-46.7637 493.592
   4   4  12 1719.35 636.695
  -4  -4 -12-958.796 617.499
   4   5 -17 688.169 517.279
  -4  -5  17 707.569 477.149
   4   5 -16 338.945 488.551
  -4  -5  16-172.635 377.301
   4   5 -15 985.934 470.264
  -4  -5  15-458.178 389.893
   4   5 -14 756.251 448.372
  -4  -5  14-107.281 329.255
   4   5 -13 4944.49 667.146
  -4  -5  13 4280.49 606.621
   4   5 -12 1007.62 410.013
  -4  -5  12 607.050 334.037
  -4  -5  11 1047.98 362.609
   4   5 -11 612.319 372.780
  -4  -5  11 519.148 316.221
  -4  -5  10-170.948 304.532
   4   5 -10 83.1733 288.836
  -4  -5  10 279.883 304.259
   4   5  -9 13304.9 849.527
  -4  -5   9 12658.9 856.087
  -4  -5   9 14248.8 868.408
   4   5  -8 1222.94 369.378
  -4  -5   8 856.804 372.319
  -4  -5   8 1308.35 360.450
   4   5  -7 26171.6 1063.02
  -4  -5   7 25354.0 990.267
  -4  -5   7 23572.0 1095.32
  -4  -5   6 1419.33 340.835
  -4  -5   6 1997.90 410.082
  -4  -5   6 1200.23 350.278
   4   5  -5 7070.08 660.738
  -4  -5   5 8157.65 625.313
  -4  -5   5 6578.85 633.423
  -4  -5   5 7719.48 557.053
   4   5  -4 421.280 300.341
  -4  -5   4 728.980 303.668
  -4  -5   4 385.092 287.241
   4   5  -3-106.241 287.472
  -4  -5   3 293.916 298.058
  -4  -5   3 207.336 276.320
   4   5  -2 131.578 303.492
  -4  -5   2-219.519 315.638
  -4  -5   2 532.427 333.331
   4   5  -1 174.132 304.326
  -4  -5   1 602.835 349.088
   4   5   0 691.441 490.015
   4   5   0 781.472 357.084
  -4  -5   0 401.807 380.001
   4   5   1 1144.78 514.595
   4   5   1 1543.29 388.851
  -4  -5  -1 1882.13 484.919
   4   5   2-64.8320 276.976
  -4  -5  -2 144.296 364.859
   4   5   2 32.6436 437.012
   4   5   3 359.667 312.328
   4   5   3 946.281 530.175
  -4  -5  -3 54.0636 347.618
   4   5   4-122.000 287.864
   4   5   4-770.107 485.140
  -4  -5  -4 272.766 388.683
   4   5   5-65.7369 289.563
   4   5   5-18.2737 416.243
  -4  -5  -5 327.892 406.291
   4   5   6-356.032 428.973
   4   5   6-93.9572 314.012
  -4  -5  -6 222.968 387.776
  -4  -5  -7 690.229 437.450
   4   5   7-273.583 445.009
  -4  -5  -8 53.5145 436.558
   4   5   8 107.629 458.780
  -4  -5  -9-635.411 514.335
   4   5   9 168.855 501.156
  -4  -5 -10 641.025 505.986
   4   5  10-194.425 480.325
   4   6 -17-381.333 530.581
   4   6 -16 1053.28 535.281
   4   6 -15 465.345 468.186
  -4  -6  15-203.208 401.509
   4   6 -14 1569.99 534.105
  -4  -6  14 1828.27 523.480
   4   6 -13 278.577 420.757
  -4  -6  13 702.213 407.328
   4   6 -12 361.450 373.405
  -4  -6  12 315.310 386.735
  -4  -6  11-259.604 333.476
   4   6 -11-100.470 346.950
  -4  -6  11-666.892 401.733
  -4  -6  10 306.898 335.099
  -4  -6  10 373.485 377.731
  -4  -6   9-151.633 308.942
  -4  -6   9 37.6197 327.053
  -4  -6   8 729.977 370.192
   4   6  -7 2486.99 580.638
  -4  -6   7 2012.82 449.745
   4   6  -6 5894.89 688.234
  -4  -6   6 3824.59 600.036
   4   6  -5-249.113 349.142
  -4  -6   5 212.988 295.444
   4   6  -4 1383.98 440.845
  -4  -6   4 335.604 291.622
  -4  -6   4 1335.17 416.220
   4   6  -3 5.69458 319.179
  -4  -6   3 868.068 347.788
  -4  -6   3 427.845 372.495
  -4  -6   2 5646.41 681.964
  -4  -6   2 6127.55 644.537
   4   6  -2 4825.49 621.667
   4   6  -1 2196.35 486.750
  -4  -6   1 1927.23 470.354
  -4  -6   1 1115.45 423.318
  -4  -6   0 17833.3 1147.79
  -4  -6   0 18291.2 1119.36
   4   6   0 19942.2 1168.85
   4   6   1 597.790 400.542
  -4  -6  -1 1418.68 468.702
   4   6   2-249.744 339.522
  -4  -6  -2 715.541 432.426
   4   6   2 928.223 537.803
   4   6   3-7.44542 353.552
   4   6   3 12.3012 485.825
  -4  -6  -3 318.776 358.001
   4   6   4-460.042 427.418
  -4  -6  -4 187.379 404.136
   4   6   4-394.647 559.913
   4   6   5 521.876 576.290
  -4  -6  -5-454.215 448.000
   4   6   6 490.062 628.895
  -4  -6  -6 1169.70 525.169
  -4  -6  -7 354.192 483.700
   4   6   7 812.454 627.056
  -4  -6  -8-38.0841 479.543
  -4  -7  13-463.043 437.142
  -4  -7  12 402.326 404.252
  -4  -7  11 264.998 397.190
  -4  -7  10 1735.01 490.412
  -4  -7  10 1753.79 518.587
  -4  -7   9 2125.25 556.232
   4   7  -8 2185.04 596.039
  -4  -7   8 635.464 412.419
   4   7  -7 3577.65 649.191
  -4  -7   7 2719.18 579.110
   4   7  -6-296.019 376.539
  -4  -7   6 359.942 383.370
   4   7  -5 1414.41 479.074
  -4  -7   5 226.194 388.094
   4   7  -4 125.594 403.221
  -4  -7   4-259.630 370.049
   4   7  -3 272.886 411.762
  -4  -7   3 70.1634 381.397
   4   7  -2 588.134 432.952
  -4  -7   2-187.562 387.934
   4   7  -1 1817.97 537.115
  -4  -7   1 740.516 437.590
  -4  -7   1 1311.31 503.420
   4   7   0 670.401 472.726
  -4  -7   0 403.492 420.441
  -4  -7   0 442.650 451.872
   4   7   1 1931.10 557.303
  -4  -7  -1 997.251 459.699
  -4  -7  -1 775.090 482.728
   4   7   2 246.855 426.743
  -4  -7  -2 535.217 455.525
  -4  -7  -2-76.0416 459.927
  -4  -7  -3 196.580 418.395
  -4  -7  -3-84.0456 416.496
  -4  -7  -4 985.345 521.721
  -4  -7  -5 852.043 540.710
  -4  -8  10 17.9168 430.061
  -4  -8  10-193.093 385.868
  -4  -8   9-409.749 483.249
   4   8  -9 325.023 489.508
   4   8  -8 1056.70 578.740
  -4  -8   8 623.893 488.599
   4   8  -7 656.555 549.266
  -4  -8   7 1383.14 551.378
   4   8  -6 571.104 474.675
  -4  -8   6-428.220 499.980
   4   8  -5-188.151 438.547
  -4  -8   5 265.481 432.779
   4   8  -4 641.413 503.382
  -4  -8   4-10.3630 455.140
   4   8  -3 171.687 429.531
  -4  -8   3 674.324 515.515
   4   8  -2 797.937 535.378
  -4  -8   2-126.626 447.358
   4   8  -1-7.32826 453.189
   5  -9  -1 60.4249 441.617
   5  -9  -1-86.1956 475.129
  -5   9   0-76.4461 541.901
   5  -9   0-104.547 456.801
   5  -9   0-217.110 482.461
  -5   9  -1 1223.82 604.304
   5  -9   1 1030.05 509.651
  -5   9  -2-267.283 539.253
  -5   9  -2-725.434 559.512
   5  -9   2 354.265 484.602
  -5   9  -3 141.255 513.818
  -5   9  -3 746.386 568.332
  -5   9  -4-344.477 539.501
  -5   9  -4-83.0750 477.207
  -5   9  -5 16.7536 528.680
  -5   9  -5 112.092 480.872
  -5   9  -6 1349.21 677.377
  -5   9  -6-9.79885 502.291
  -5   8   6-23.6521 484.434
  -5   8   5 665.083 511.252
   5  -8  -5 94.5296 497.348
  -5   8   4 1197.33 589.329
  -5   8   4 621.167 527.289
   5  -8  -4 1038.16 571.456
  -5   8   3 624.009 488.060
  -5   8   3 74.9043 474.215
   5  -8  -3 112.731 397.685
   5  -8  -3 92.5715 458.344
  -5   8   2-341.755 489.137
  -5   8   2 29.9265 432.948
   5  -8  -2-282.104 388.798
   5  -8  -2-837.934 533.713
  -5   8   1 930.910 526.538
  -5   8   1 338.780 431.742
   5  -8  -1 612.705 415.575
   5  -8  -1 1220.04 534.518
  -5   8   0-58.9330 427.281
  -5   8   0 29.1554 390.757
   5  -8   0-17.0464 388.064
   5  -8   0 162.893 430.101
  -5   8  -1-214.601 489.235
  -5   8  -1 191.411 425.356
   5  -8   1 1047.86 457.349
   5  -8   1 388.928 417.103
  -5   8  -2 2015.06 632.491
  -5   8  -2 1119.03 506.715
   5  -8   2 2582.38 601.750
   5  -8   2 1090.08 496.809
  -5   8  -3-79.3745 477.253
  -5   8  -3 612.486 447.848
   5  -8   3 555.337 455.855
   5  -8   3-40.0216 395.007
  -5   8  -4 634.586 563.165
  -5   8  -4 187.533 445.778
   5  -8   4 254.250 425.633
  -5   8  -5 111.287 503.289
  -5   8  -5 959.113 511.405
   5  -8   5-27.4391 391.406
  -5   8  -6 557.054 507.238
  -5   8  -6 1001.94 485.768
   5  -8   6-57.1375 426.568
  -5   8  -7 483.365 562.778
  -5   8  -7 708.506 459.738
   5  -8   7 705.677 441.320
  -5   8  -8-104.846 513.691
  -5   8  -8 281.601 429.207
   5  -8   8 483.794 470.470
  -5   8  -9 979.385 591.745
  -5   7   9 288.081 504.262
  -5   7   9-137.229 457.770
  -5   7   8 2131.64 613.619
   5  -7  -8 2756.04 743.873
  -5   7   8 1234.39 563.209
  -5   7   7 569.253 451.674
   5  -7  -7 927.567 579.017
  -5   7   7 133.582 431.913
  -5   7   6 177.880 419.806
   5  -7  -6-585.913 531.068
  -5   7   6 522.872 456.705
  -5   7   5-273.879 396.159
  -5   7   5 618.680 432.538
   5  -7  -5-207.066 491.292
  -5   7   4 795.359 504.448
  -5   7   4 28.4500 372.490
   5  -7  -4 331.496 369.698
   5  -7  -4 357.065 445.333
  -5   7   3 757.754 465.053
  -5   7   3 405.777 479.473
   5  -7  -3-48.7375 316.061
   5  -7  -3 319.425 423.964
  -5   7   2 296.210 432.967
  -5   7   2 220.974 382.317
   5  -7  -2 639.123 358.358
   5  -7  -2 571.936 441.449
  -5   7   1-733.559 443.611
  -5   7   1 348.911 397.953
   5  -7  -1 105.949 337.793
   5  -7  -1-66.7436 395.626
  -5   7   0 847.082 499.245
  -5   7   0 359.698 376.597
   5  -7   0 827.541 401.142
   5  -7   0 430.480 398.905
  -5   7  -1 228.711 438.264
  -5   7  -1 708.056 449.167
   5  -7   1 1132.73 431.137
   5  -7   1 595.177 427.099
  -5   7  -2 147.372 415.375
  -5   7  -2-751.471 431.396
   5  -7   2-395.940 342.639
   5  -7   2 483.430 390.281
  -5   7  -3 478.600 460.558
  -5   7  -3 70.3737 333.645
   5  -7   3 248.450 360.263
   5  -7   3 580.955 382.061
  -5   7  -4-208.361 441.057
  -5   7  -4 301.822 351.977
   5  -7   4 112.324 334.664
   5  -7   4 171.655 353.033
  -5   7  -5 334.623 475.279
  -5   7  -5 389.750 365.430
   5  -7   5 343.518 351.885
   5  -7   5 37.8142 329.763
  -5   7  -6 1099.06 564.304
  -5   7  -6 877.629 401.449
   5  -7   6 1365.10 474.591
   5  -7   6 138.961 350.348
  -5   7  -7 1066.14 563.373
  -5   7  -7 1773.95 477.468
   5  -7   7 1400.23 484.488
  -5   7  -8 902.638 568.340
  -5   7  -8-382.533 392.026
   5  -7   8 86.9552 379.768
  -5   7  -9 389.977 527.587
   5  -7   9 1793.84 527.890
  -5   7 -10-118.905 518.767
   5  -7  10 371.252 430.149
  -5   7 -11-107.051 510.547
   5  -7  11 118.903 396.599
  -5   6  13-693.619 547.902
  -5   6  12 130.205 477.926
  -5   6  11 762.806 487.729
  -5   6  11 6.45303 455.169
  -5   6  10 573.751 457.612
   5  -6 -10 220.658 551.036
  -5   6  10-68.0958 458.824
  -5   6   9-263.127 418.252
   5  -6  -9 1469.72 633.036
  -5   6   9 1555.64 568.180
  -5   6   8 1107.83 490.700
   5  -6  -8 2449.32 661.175
  -5   6   8 1861.85 573.522
  -5   6   7 189.967 392.368
   5  -6  -7 1577.95 570.189
  -5   6   7 1960.14 585.915
  -5   6   6 544.183 377.735
   5  -6  -6 367.705 442.171
  -5   6   6 1253.65 506.134
  -5   6   5-227.312 326.996
   5  -6  -5 46.3080 265.660
   5  -6  -5 80.3551 419.075
  -5   6   5 832.277 504.268
  -5   6   4 460.137 379.579
   5  -6  -4 113.172 259.471
   5  -6  -4-416.352 394.832
  -5   6   4 39.3297 361.777
  -5   6   3 450.495 352.210
   5  -6  -3 78.8065 281.020
   5  -6  -3-233.613 422.734
  -5   6   3 528.341 398.710
  -5   6   2 365.947 413.716
  -5   6   2 215.837 332.580
   5  -6  -2 183.964 278.699
   5  -6  -2 178.671 369.288
  -5   6   1 3065.92 591.133
   5  -6  -1 4875.95 697.007
   5  -6  -1 4206.17 538.253
  -5   6   1 4279.74 593.440
  -5   6   0-140.964 413.992
  -5   6   0-73.2462 306.996
   5  -6   0 926.296 354.123
   5  -6   0 577.654 395.040
   5  -6   1 5354.48 696.379
   5  -6   1 4359.14 560.356
  -5   6  -1 3829.72 545.602
  -5   6  -2 2833.73 600.538
   5  -6   2 3473.76 565.903
   5  -6   2 3362.92 502.228
  -5   6  -2 4133.61 581.823
  -5   6  -3 260.577 409.194
  -5   6  -3 983.657 362.196
   5  -6   3 1235.37 405.723
   5  -6   3 1482.83 416.076
  -5   6  -4 635.575 458.185
  -5   6  -4 1392.32 398.868
   5  -6   4 1107.48 368.809
   5  -6   4 890.710 364.481
  -5   6  -5-6.07049 419.531
  -5   6  -5-28.2477 300.613
   5  -6   5 498.056 314.475
   5  -6   5 721.158 361.777
  -5   6  -6 3223.83 632.191
   5  -6   6 3591.88 558.960
   5  -6   6 3830.02 578.542
  -5   6  -6 3319.20 529.112
  -5   6  -7 717.972 512.438
  -5   6  -7-102.184 298.903
   5  -6   7 485.647 347.459
   5  -6   7-382.790 384.355
  -5   6  -8 1071.79 507.875
  -5   6  -8 1042.99 391.777
   5  -6   8 1239.20 444.512
   5  -6   8 577.994 410.534
  -5   6  -9-150.312 461.429
   5  -6   9 1230.01 409.552
   5  -6   9 651.279 446.175
  -5   6 -10-584.851 540.694
   5  -6  10-858.347 467.274
  -5   6 -11 2214.03 659.375
   5  -6  11-525.102 445.641
   5  -6  12-84.2123 387.433
  -5   6 -12 852.298 587.121
   5  -6  13 431.358 420.181
  -5   6 -13-25.3780 556.566
  -5   5  14-164.433 479.802
   5  -5 -13-51.1110 518.111
  -5   5  13 365.560 504.334
  -5   5  13 221.634 409.317
   5  -5 -12 248.807 525.077
  -5   5  12 138.607 446.158
  -5   5  12-74.4328 380.830
   5  -5 -11-935.370 534.941
  -5   5  11 137.341 453.957
  -5   5  11-39.2491 372.755
   5  -5 -10 911.286 511.760
  -5   5  10-71.6518 434.488
  -5   5  10 601.537 423.738
   5  -5  -9 4270.27 754.203
  -5   5   9 5375.41 700.142
  -5   5   9 3340.77 638.369
   5  -5  -8 23099.9 1465.63
  -5   5   8 20360.6 1151.02
  -5   5   8 21808.6 1338.56
  -5   5   7 547.421 339.644
   5  -5  -7-307.255 450.603
  -5   5   7 686.387 452.422
  -5   5   6 1923.65 440.163
   5  -5  -6 3001.40 598.195
  -5   5   6 2154.99 542.770
  -5   5   5 1374.62 423.716
   5  -5  -5 676.375 411.353
   5  -5  -5 1081.72 302.394
  -5   5   5 947.213 452.862
  -5   5   4 1560.04 410.716
   5  -5  -4 1863.05 352.880
   5  -5  -4 1985.19 506.877
  -5   5   4 1574.91 449.963
  -5   5   3 777.852 333.481
   5  -5  -3-436.320 275.510
   5  -5  -3-327.720 392.719
  -5   5   3 103.820 395.837
  -5   5   2 817.065 316.582
   5  -5  -2-114.685 247.065
   5  -5  -2-409.032 406.824
  -5   5   2 852.270 438.252
   5  -5  -1 13675.2 988.650
   5  -5  -1 15136.2 834.987
  -5   5   1 13544.2 849.541
  -5   5   1 13673.0 1001.71
  -5   5   0 1133.56 440.051
  -5   5   0 390.814 293.883
   5  -5   0 728.654 314.295
   5  -5   0 302.069 346.061
  -5   5  -1 2782.94 549.815
   5  -5   1 2879.16 441.385
   5  -5   1 2115.30 462.102
  -5   5  -1 2658.00 428.593
  -5   5  -2 34.3994 341.579
  -5   5  -2 543.363 321.010
   5  -5   2-54.9482 277.660
   5  -5   2 141.000 318.848
  -5   5  -3 874.031 405.465
  -5   5  -3 964.764 321.206
   5  -5   3 1011.00 336.714
   5  -5   3 1068.04 402.049
  -5   5  -4 479.789 414.557
  -5   5  -4 1583.83 372.610
   5  -5   4 1248.32 398.665
   5  -5   4 203.586 312.788
  -5   5  -5 303.050 380.749
  -5   5  -5-260.029 272.232
   5  -5   5-621.734 364.436
   5  -5   5 191.873 276.164
  -5   5  -6 1847.47 538.929
  -5   5  -6 1931.24 383.722
   5  -5   6 2345.25 464.698
   5  -5   6 2091.21 451.760
  -5   5  -7 938.595 453.883
  -5   5  -7 401.435 280.356
   5  -5   7 516.972 345.483
   5  -5   7 1020.37 378.581
  -5   5  -8 1121.71 508.783
  -5   5  -8 1181.73 352.723
   5  -5   8 495.551 356.898
   5  -5   8 737.061 390.062
   5  -5   9-108.118 222.111
   5  -5   9-405.515 365.654
   5  -5  10 541.003 358.628
  -5   5 -10 40.0671 483.132
  -5   5 -10 548.688 385.003
   5  -5  11 1169.85 447.956
  -5   5 -11 199.089 436.001
  -5   5 -11-66.8838 365.683
   5  -5  12 234.635 360.859
  -5   5 -12-22.5417 456.664
  -5   5 -12-120.207 352.748
  -5   5 -13 612.525 543.632
   5  -5  13-412.341 412.055
  -5   5 -14-143.031 536.503
   5  -5  14 344.316 408.934
   5  -4 -15 936.796 609.208
  -5   4  15 369.975 490.378
  -5   4  15 1216.74 551.240
   5  -4 -14-446.006 478.888
  -5   4  14 422.580 494.762
  -5   4  14-170.642 385.054
   5  -4 -13-357.211 465.755
  -5   4  13-7.07829 432.024
  -5   4  13 759.606 411.854
   5  -4 -12-249.969 512.244
  -5   4  12 693.968 458.293
  -5   4  12-470.836 395.363
   5  -4 -11 450.280 478.867
  -5   4  11 554.269 464.084
  -5   4  11 510.215 377.583
   5  -4 -10 1978.47 578.958
  -5   4  10 2656.67 573.769
  -5   4  10 1110.15 399.253
   5  -4  -9 3410.26 676.617
  -5   4   9 2226.27 561.175
  -5   4   9 2511.30 481.334
   5  -4  -8 11723.1 1032.22
  -5   4   8 12652.3 859.625
  -5   4   8 10431.4 917.278
   5  -4  -7 261.812 390.780
  -5   4   7 386.383 363.815
  -5   4   7-451.034 349.353
   5  -4  -6 39.3034 180.878
   5  -4  -6-413.397 390.745
  -5   4   6-565.500 361.995
  -5   4   6 229.809 264.386
  -5   4   5 1277.37 329.819
   5  -4  -5 1226.05 249.294
   5  -4  -5 500.373 370.651
  -5   4   5 1271.89 438.487
  -5   4   4 546.228 280.289
   5  -4  -4 3.08822 188.555
   5  -4  -4 427.448 366.127
  -5   4   4 616.045 375.851
   5  -4  -3 16266.5 1053.11
  -5   4   3 14802.3 807.292
   5  -4  -3 16956.1 752.612
  -5   4   3 14015.8 964.102
  -5   4   2 459.187 276.876
   5  -4  -2 78.3076 207.904
   5  -4  -2 469.272 381.713
  -5   4   2-131.773 347.589
   5  -4  -1 32210.6 1398.28
  -5   4   1 32989.5 1130.75
   5  -4  -1 35787.1 1137.94
  -5   4   1 34372.5 1479.32
   5  -4   0 7330.98 714.722
  -5   4   0 6517.60 538.208
   5  -4   0 5852.39 522.854
  -5   4   0 5439.32 659.978
   5  -4   1 5003.51 608.246
   5  -4   1 5372.74 545.735
  -5   4  -1 4959.59 454.154
  -5   4  -1 5357.75 646.156
  -5   4  -2 504.165 356.371
  -5   4  -2 1148.82 286.882
   5  -4   2 768.524 325.838
   5  -4   2 1087.75 323.867
   5  -4   3 4456.42 574.065
   5  -4   3 4831.49 543.386
  -5   4  -3 6424.59 723.390
  -5   4  -3 5457.19 472.911
  -5   4  -4 1013.16 422.594
  -5   4  -4 897.967 268.214
   5  -4   4 1135.75 403.474
   5  -4   4 1349.02 393.259
   5  -4   5 4248.16 560.690
  -5   4  -5 3894.45 628.096
   5  -4   5 3157.61 515.959
  -5   4  -5 3108.03 367.170
  -5   4  -6 2254.21 357.681
  -5   4  -6 1761.76 513.448
   5  -4   6 1855.38 458.960
   5  -4   6 1724.90 413.323
   5  -4   7-159.539 271.686
  -5   4  -7 365.869 405.977
   5  -4   7 272.235 186.356
   5  -4   7 320.183 308.366
   5  -4   8 323.520 300.323
  -5   4  -8 41.4009 379.887
   5  -4   8 697.525 217.953
   5  -4   8 878.952 364.463
  -5   4  -9 4770.76 657.739
  -5   4  -9 4852.80 733.422
   5  -4   9 4627.54 593.170
  -5   4 -10 290.041 433.571
   5  -4  10-459.246 367.652
  -5   4 -10-195.203 350.428
  -5   4 -11 131.196 448.110
   5  -4  11-115.915 334.291
  -5   4 -11 362.756 372.163
  -5   4 -12 807.248 492.904
   5  -4  12 583.064 399.818
  -5   4 -12 919.099 444.735
  -5   4 -13 634.720 512.786
   5  -4  13-188.006 371.130
  -5   4 -13-512.257 432.383
  -5   4 -14 413.279 571.992
   5  -4  14-382.058 376.775
  -5   4 -14 390.627 431.248
  -5   4 -15 782.664 587.243
   5  -4  15 385.138 446.851
   5  -3 -16 192.717 554.663
  -5   3  16 443.656 519.797
  -5   3  16 179.419 400.267
   5  -3 -15-103.658 488.862
  -5   3  15 103.472 387.023
  -5   3  15-384.589 471.199
   5  -3 -14-377.195 461.819
  -5   3  14-20.0583 364.078
  -5   3  14 0.88004 419.140
   5  -3 -13 542.543 485.180
  -5   3  13 255.435 351.061
  -5   3  13-147.120 421.237
   5  -3 -12-260.039 413.042
  -5   3  12 52.2927 312.722
  -5   3  12 706.183 468.743
   5  -3 -11 858.656 491.712
  -5   3  11 460.883 325.692
  -5   3  11 620.765 406.824
   5  -3 -10 11627.9 1043.11
  -5   3  10 11882.2 831.596
  -5   3  10 12236.2 991.072
   5  -3  -9 82671.4 2477.93
  -5   3   9 79475.3 1954.95
  -5   3   9 77543.7 2302.72
   5  -3  -8 59788.3 2067.88
  -5   3   8 55743.7 1585.80
  -5   3   8 56574.0 1937.74
   5  -3  -7 11840.9 956.377
  -5   3   7 10215.4 689.320
  -5   3   7 10740.6 863.470
   5  -3  -6 4230.50 607.001
  -5   3   6 5345.47 496.017
  -5   3   6 4750.67 617.366
   5  -3  -6 5351.68 326.355
   5  -3  -5 3857.93 583.093
  -5   3   5 5179.16 478.048
  -5   3   5 3589.31 545.151
   5  -3  -5 3543.13 320.149
   5  -3  -4 4258.64 583.658
  -5   3   4 4605.50 437.240
  -5   3   4 2948.70 492.632
   5  -3  -4 3773.68 343.832
  -5   3   3 414.031 224.444
   5  -3  -3 304.695 300.935
   5  -3  -3 47.1030 180.148
  -5   3   3 284.367 349.192
   5  -3  -2 3138.55 536.907
  -5   3   2 3550.10 374.654
  -5   3   2 4299.66 577.388
   5  -3  -2 3834.59 366.605
   5  -3  -1 11388.7 827.089
  -5   3   1 9754.07 539.692
  -5   3   1 10749.2 833.563
   5  -3  -1 10583.0 583.483
   5  -3   0 26796.7 1227.45
  -5   3   0 26289.4 846.461
   5  -3   0 26620.3 940.114
   5  -3   1 3103.41 288.469
   5  -3   1 3980.33 541.887
  -5   3  -1 4660.22 368.407
  -5   3  -1 3203.90 536.768
   5  -3   1 4215.22 442.768
   5  -3   2 15809.7 567.694
   5  -3   2 16683.5 970.666
  -5   3  -2 15528.3 1003.67
  -5   3  -2 16011.8 616.985
   5  -3   2 17196.6 818.219
  -5   3  -3 370.679 315.410
   5  -3   3-338.400 236.148
  -5   3  -3-100.348 159.713
   5  -3   3-296.941 297.950
  -5   3  -4 11717.0 510.499
   5  -3   4 11555.6 834.329
  -5   3  -4 11787.5 912.208
   5  -3   4 9350.20 694.199
  -5   3  -5 398.456 338.306
   5  -3   5-181.354 285.849
   5  -3   5 762.622 164.376
   5  -3   5 299.340 304.491
  -5   3  -6-96.5925 330.524
   5  -3   6 206.097 253.469
   5  -3   6-9.07207 129.445
   5  -3   6 679.302 336.305
  -5   3  -7 150.418 342.444
   5  -3   7 217.689 261.259
   5  -3   7 491.282 158.707
   5  -3   7 681.275 369.230
  -5   3  -8 699.377 404.498
   5  -3   8 945.801 403.991
  -5   3  -8 1822.54 436.121
  -5   3  -9 446.745 394.130
   5  -3   9 324.364 324.123
  -5   3  -9 1044.63 415.824
   5  -3  10 2544.61 491.583
  -5   3 -10 1865.87 555.230
  -5   3 -10 3007.39 539.280
  -5   3 -11 566.625 399.670
  -5   3 -11 719.308 454.133
   5  -3  11 223.723 334.706
   5  -3  12 5247.12 670.604
  -5   3 -12 4897.70 690.595
  -5   3 -12 3954.72 741.033
  -5   3 -13 348.924 472.571
  -5   3 -13 301.308 405.439
   5  -3  13-212.995 362.440
  -5   3 -14 408.262 487.863
  -5   3 -14 765.608 466.376
   5  -3  14 184.517 373.473
  -5   3 -15-351.114 520.376
  -5   3 -15-341.578 441.203
   5  -3  15 1079.93 456.449
  -5   3 -16-239.708 515.349
   5  -2 -18 2201.14 734.911
   5  -2 -17 336.688 522.835
  -5   2  17-802.711 495.878
  -5   2  17-159.040 483.753
  -5   2  16 4490.99 691.725
   5  -2 -16 3574.87 758.590
  -5   2  16 3199.38 726.912
   5  -2 -15 219.680 487.848
  -5   2  15 333.841 344.641
  -5   2  15 479.444 430.248
   5  -2 -14 404.431 492.395
  -5   2  14-220.579 343.248
  -5   2  14 1000.09 478.799
   5  -2 -13 233.913 404.709
  -5   2  13 430.516 333.389
  -5   2  13-51.3962 409.258
   5  -2 -12 1045.47 467.207
  -5   2  12 318.151 310.565
  -5   2  12 499.885 368.766
  -5   2  11 3492.46 493.606
   5  -2 -11 3790.04 636.883
  -5   2  11 4580.53 675.658
   5  -2 -10-4.28247 378.685
  -5   2  10-3.65169 294.421
  -5   2  10-94.9782 366.186
  -5   2   9 56853.1 1546.47
   5  -2  -9 61448.3 2047.32
  -5   2   9 59980.4 1956.96
   5  -2  -8 994.102 489.356
  -5   2   8 1143.48 332.106
  -5   2   8 1006.84 449.709
  -5   2   7 6361.96 503.580
   5  -2  -7 6026.41 681.154
  -5   2   7 5732.27 668.651
   5  -2  -6 1499.65 144.950
   5  -2  -6 1555.05 413.234
  -5   2   6 1531.89 299.088
  -5   2   6 1738.07 401.782
   5  -2  -5 828.657 157.166
   5  -2  -5 842.878 338.861
  -5   2   5 1014.04 257.431
  -5   2   5 1620.43 413.839
   5  -2  -4 2608.11 255.087
  -5   2   4 2857.62 321.541
   5  -2  -4 3186.17 524.580
  -5   2   4 2924.40 314.495
  -5   2   4 3144.87 480.701
   5  -2  -3 553.014 176.867
   5  -2  -3 377.250 325.744
  -5   2   3 324.151 312.945
  -5   2   3 961.995 222.616
   5  -2  -2 5756.13 405.484
   5  -2  -2 5921.39 355.088
   5  -2  -2 5908.38 612.607
  -5   2   2 6632.94 395.974
  -5   2   2 6821.06 656.141
  -5   2   1 751.702 181.322
   5  -2  -1 609.080 212.407
   5  -2  -1 696.656 152.995
   5  -2  -1 209.802 282.047
  -5   2   1 1041.01 352.812
   5  -2   0 14980.3 678.396
   5  -2   0 13881.3 420.483
   5  -2   0 17002.3 984.005
  -5   2   0 14482.2 491.976
  -5   2   0 16808.1 972.940
  -5   2  -1 108.158 95.1933
   5  -2   1 310.136 206.501
   5  -2   1 92.1205 82.2468
   5  -2   1 237.945 290.341
  -5   2  -1 4.36392 296.411
   5  -2   2 7416.09 533.256
   5  -2   2 8290.45 701.667
  -5   2  -2 8627.67 728.957
   5  -2   3 9025.46 630.330
   5  -2   3 8763.18 742.402
  -5   2  -3 9062.93 764.111
  -5   2  -4 547.545 337.147
   5  -2   4 665.997 281.389
   5  -2   4 708.214 323.052
  -5   2  -5 294.499 318.356
   5  -2   5-40.2278 226.741
   5  -2   5 36.8296 304.825
   5  -2   6 687.979 333.332
  -5   2  -6 2553.19 510.731
  -5   2  -7 1596.18 456.024
  -5   2  -7 1479.26 431.438
   5  -2   7 1452.50 401.894
  -5   2  -8-187.881 342.132
  -5   2  -8 234.226 331.494
   5  -2   8-88.7308 309.382
  -5   2  -9 466.165 426.754
  -5   2  -9 511.906 382.827
   5  -2   9 278.685 330.687
  -5   2 -10-383.503 382.787
  -5   2 -10-660.067 476.497
   5  -2  10-132.732 314.063
  -5   2 -11 106.775 394.110
  -5   2 -11-150.450 386.200
   5  -2  11 409.151 324.857
  -5   2 -12-105.735 386.079
   5  -2  12 676.166 378.207
  -5   2 -13-377.841 481.336
  -5   2 -13 283.088 417.275
   5  -2  13-20.6508 362.330
  -5   2 -14-348.040 511.629
  -5   2 -14 610.529 456.759
   5  -2  14 1022.93 436.950
  -5   2 -15 725.673 552.211
  -5   2 -15 999.339 514.845
   5  -2  15 311.680 408.876
  -5   2 -16-315.239 537.511
  -5   2 -16 587.830 468.026
  -5   2 -17 2186.16 706.317
  -5   2 -17 789.144 524.350
   5  -1 -18 800.414 584.930
   5  -1 -17-312.743 499.815
  -5   1  17 831.046 503.930
   5  -1 -16 400.330 463.492
  -5   1  16-14.6316 377.442
   5  -1 -15 889.769 536.740
  -5   1  15 700.210 364.712
  -5   1  15 764.268 491.735
   5  -1 -14 1033.47 492.055
  -5   1  14 498.996 376.065
  -5   1  14 895.557 460.068
   5  -1 -13 696.655 415.943
  -5   1  13 1496.01 379.295
  -5   1  13 1057.90 462.265
   5  -1 -12 535.170 393.375
  -5   1  12 994.671 359.546
  -5   1  12 548.515 419.250
  -5   1  11 9123.63 691.089
   5  -1 -11 8486.31 810.071
  -5   1  11 9936.10 907.987
  -5   1  10 2673.91 410.954
   5  -1 -10 2383.58 511.510
  -5   1  10 2050.12 498.397
  -5   1   9 127899. 2170.37
   5  -1  -9 129438. 2798.03
  -5   1   9 130712. 2841.36
   5  -1  -8 837.533 411.910
  -5   1   8 61.8718 265.597
  -5   1   8 505.259 374.949
  -5   1   7 5602.18 460.265
   5  -1  -7 4481.49 564.530
  -5   1   7 5041.74 591.622
   5  -1  -6 96.2500 284.371
   5  -1  -6 112.908 70.8706
  -5   1   6 355.991 208.464
  -5   1   6 326.919 304.559
   5  -1  -5 1823.17 183.050
  -5   1   5 1200.96 180.011
  -5   1   5 2326.70 275.968
   5  -1  -5 1625.98 415.146
  -5   1   5 1640.55 396.228
   5  -1  -4 10262.6 428.915
   5  -1  -4 10155.0 486.743
  -5   1   4 10710.2 496.534
  -5   1   4 10092.7 484.066
   5  -1  -4 9042.60 734.396
  -5   1   4 10234.3 755.408
   5  -1  -3 58034.5 1059.60
   5  -1  -3 57362.9 1027.95
  -5   1   3 59545.4 1023.98
   5  -1  -3 60668.9 1784.91
  -5   1   3 57092.6 1686.94
   5  -1  -2 366.006 126.572
   5  -1  -2-13.6709 162.719
   5  -1  -2 366.884 299.601
  -5   1   2 515.585 312.651
  -5   1   2 326.113 135.133
   5  -1  -1 2063.06 284.688
   5  -1  -1 2428.56 438.331
  -5   1   1 2172.44 162.221
  -5   1   1 2607.83 441.617
   5  -1   0 8217.59 509.358
   5  -1   0 8873.57 743.757
  -5   1   0 9690.83 728.508
   5  -1   1 40715.2 1115.02
   5  -1   1 38514.2 1467.86
  -5   1  -1 40559.5 1424.42
   5  -1   2 5642.39 478.452
   5  -1   2 6206.92 648.923
  -5   1  -2 4741.16 545.363
  -5   1  -3 131.046 307.502
   5  -1   3 5.44657 239.537
   5  -1   3 110.187 325.340
  -5   1  -4 1402.24 400.430
   5  -1   4 845.335 299.599
   5  -1   4 856.681 360.891
   5  -1   5 1222.05 329.695
  -5   1  -5 2510.03 469.284
  -5   1  -6 101.098 315.475
  -5   1  -6-64.6152 340.104
   5  -1   6-31.9739 260.594
  -5   1  -7 744.331 350.636
  -5   1  -7 970.590 423.000
   5  -1   7 216.913 311.910
   5  -1   8 4008.43 528.857
  -5   1  -8 4169.80 630.389
  -5   1  -8 5893.62 698.259
   5  -1   9 18921.1 1037.17
  -5   1  -9 20640.8 1232.91
  -5   1  -9 17088.4 1134.60
   5  -1  10 6655.48 682.438
  -5   1 -10 7395.49 827.470
  -5   1 -10 8303.18 858.557
   5  -1  11 3406.27 528.080
  -5   1 -11 3436.70 612.063
  -5   1 -11 3500.89 619.387
  -5   1 -12 208.425 415.361
  -5   1 -12 1326.81 495.527
   5  -1  12 728.826 447.694
  -5   1 -13 400.947 424.323
  -5   1 -13 642.013 454.608
   5  -1  13 1609.78 458.767
  -5   1 -14 270.890 449.023
  -5   1 -14 598.104 472.480
   5  -1  14 626.971 416.484
  -5   1 -15 260.771 503.518
  -5   1 -15 468.821 478.827
   5  -1  15 273.706 431.691
  -5   1 -16 1233.96 603.809
  -5   1 -16-3.97966 470.694
  -5   1 -17-202.678 498.739
  -5   1 -17 538.140 549.137
  -5   0  18 2336.82 544.327
   5   0 -17 3388.38 719.458
   5   0 -17 2456.15 618.096
  -5   0  17 2496.66 529.128
   5   0 -16 5469.64 776.453
  -5   0  16 3782.00 605.457
   5   0 -16 6330.88 798.870
   5   0 -15 1024.86 498.416
   5   0 -15 392.791 422.501
  -5   0  15 435.680 357.896
   5   0 -14 3320.72 601.389
  -5   0  14 3073.39 517.108
   5   0 -14 2269.12 519.714
   5   0 -13 947.420 405.743
  -5   0  13 606.376 332.131
   5   0 -12-211.609 360.031
  -5   0  12 340.407 261.945
   5   0 -11 1250.19 425.366
  -5   0  11 1593.42 345.831
  -5   0  11 1928.78 493.498
   5   0 -10 123.507 295.387
  -5   0  10-69.8434 272.947
  -5   0  10-106.416 351.121
  -5   0   9 16383.5 772.275
   5   0  -9 15241.6 969.097
   5   0  -8 290.011 317.101
  -5   0   8 24.8375 209.536
  -5   0   8 97.6888 297.780
   5   0  -7-111.130 314.418
  -5   0   7 18.3830 203.682
  -5   0   7 177.570 284.434
  -5   0   6 13540.5 596.376
   5   0  -6 13501.0 864.392
  -5   0   6 13176.1 859.224
  -5   0   5 22.1805 132.046
   5   0  -5-288.316 296.313
  -5   0   5 115.816 155.811
  -5   0   5 17.4149 286.615
   5   0  -5 128.402 146.909
  -5   0   4 47143.3 1112.58
  -5   0   4 45534.1 889.974
   5   0  -4 45760.3 1533.22
   5   0  -4 44036.4 938.126
  -5   0   4 47840.8 1530.98
  -5   0   3 3180.65 247.926
   5   0  -3 2720.23 283.104
   5   0  -3 3401.81 491.553
  -5   0   3 3950.14 510.309
  -5   0   3 3047.90 289.426
   5   0  -2 914.814 220.346
  -5   0   2 852.149 143.342
   5   0  -2 1588.29 394.893
  -5   0   2 734.751 113.234
  -5   0   2 1483.10 348.612
   5   0  -1 5470.93 416.301
   5   0  -1 5990.15 621.293
  -5   0   1 4900.67 531.802
   5   0   0 50437.6 1215.99
   5   0   0 48953.2 1671.18
  -5   0   0 51101.3 1527.57
   5   0   1 1095.59 402.508
   5   0   1 223.454 232.558
  -5   0  -1 981.786 358.224
   5   0   2 313367. 3250.38
   5   0   2 310604. 4060.13
  -5   0  -2 313915. 3788.66
   5   0   3 10547.5 684.858
  -5   0  -3 11850.5 919.944
  -5   0  -3 11242.3 807.426
   5   0   4 35328.2 1197.25
  -5   0  -4 36924.2 1375.41
  -5   0  -5 922.871 364.376
   5   0   5 1591.32 363.117
   5   0   6 7459.26 666.251
  -5   0  -6 7114.61 750.098
  -5   0  -6 7690.16 704.874
  -5   0  -7 1959.34 433.099
  -5   0  -7 1727.58 470.635
   5   0   7 1961.46 424.945
   5   0   8 3785.06 544.497
  -5   0  -8 2874.50 561.975
  -5   0  -8 3487.74 558.790
  -5   0  -9 742.112 411.190
  -5   0  -9 849.011 436.849
   5   0   9 316.462 329.417
  -5   0 -10-161.610 363.065
  -5   0 -10 988.761 469.746
   5   0  10 320.709 318.879
  -5   0 -11-280.506 397.378
  -5   0 -11-75.6724 401.837
   5   0  11-259.079 355.527
  -5   0 -12-81.1208 390.188
  -5   0 -12-851.445 490.968
   5   0  12 72.2490 340.370
  -5   0 -13 140.631 389.672
   5   0  13 220.228 371.186
   5   0  14 343.190 403.361
  -5   0 -14 906.257 477.033
  -5   0 -14 1064.60 557.714
   5   0  15-537.811 480.464
  -5   0 -15-70.3715 433.426
  -5   0 -15 955.775 556.629
  -5   0 -16 545.149 546.446
  -5  -1  18 942.740 480.654
   5   1 -17 60.0573 434.979
  -5  -1  17 1341.93 493.280
   5   1 -16-326.830 494.900
  -5  -1  16 374.373 410.061
   5   1 -15 227.919 429.228
   5   1 -15-194.202 345.736
  -5  -1  15 354.327 343.965
   5   1 -14 657.517 423.516
  -5  -1  14 1112.08 404.904
   5   1 -14 1016.53 413.865
   5   1 -13 1382.61 471.153
  -5  -1  13 839.351 341.521
   5   1 -13 393.450 311.068
   5   1 -12 6633.73 745.920
  -5  -1  12 6716.80 610.535
   5   1 -12 6576.36 690.339
  -5  -1  11 495.894 280.275
   5   1 -11 394.772 322.281
   5   1 -10 7090.30 672.321
  -5  -1  10 6152.63 530.312
  -5  -1  10 7776.37 760.160
   5   1  -9 2657.53 459.758
  -5  -1   9 1567.05 324.035
  -5  -1   9 3066.40 518.311
  -5  -1   8 770.114 241.262
   5   1  -8 690.102 319.928
  -5  -1   8 1508.57 388.229
  -5  -1   7 17750.6 713.036
   5   1  -7 16145.8 928.427
  -5  -1   7 16644.2 967.312
  -5  -1   6 2836.68 319.489
   5   1  -6 3700.28 515.623
  -5  -1   6 2667.20 452.859
  -5  -1   5 245.050 176.495
   5   1  -5 7.69808 264.500
  -5  -1   5 459.909 295.601
   5   1  -5-29.9464 182.606
  -5  -1   4 431.550 224.171
   5   1  -4 242.005 175.096
  -5  -1   4 497.421 166.774
   5   1  -4 27.3685 249.972
  -5  -1   4 487.753 289.063
  -5  -1   3 6685.98 328.436
   5   1  -3 6340.02 641.323
  -5  -1   3 7773.05 629.338
   5   1  -3 6383.47 458.179
  -5  -1   3 6198.01 408.465
  -5  -1   2 3245.84 205.315
   5   1  -2 3617.33 530.378
   5   1  -2 3308.22 370.727
  -5  -1   2 3417.50 258.031
  -5  -1   2 3604.43 467.082
  -5  -1   1 19.8070 59.2051
   5   1  -1 208.358 236.810
  -5  -1   1 136.329 58.1660
   5   1  -1 285.696 308.904
  -5  -1   1 201.807 255.878
   5   1   0 1540.94 321.688
   5   1   0 947.408 385.044
  -5  -1   0 1233.51 330.692
  -5  -1  -1 9931.11 837.847
   5   1   1 9813.88 643.271
  -5  -1  -1 9938.42 675.472
  -5  -1  -2 17661.7 1093.60
   5   1   2 15454.0 824.295
  -5  -1  -2 15121.1 856.880
  -5  -1  -3 22421.1 1208.76
   5   1   3 21245.9 968.317
  -5  -1  -3 21831.1 1023.71
  -5  -1  -4 3101.77 547.753
   5   1   4 2962.06 482.722
  -5  -1  -4 3192.03 455.870
  -5  -1  -5 389.044 286.083
   5   1   5 289.148 276.246
  -5  -1  -5 366.961 393.485
  -5  -1  -6 151.867 309.029
   5   1   6 468.627 310.359
  -5  -1  -6 460.782 373.777
  -5  -1  -7 4046.47 628.195
   5   1   7 3209.67 521.920
  -5  -1  -7 3875.65 522.791
   5   1   8 526.796 338.083
  -5  -1  -8 610.566 336.070
  -5  -1  -8 1169.34 464.793
   5   1   9 2221.58 474.923
  -5  -1  -9 1355.61 472.163
  -5  -1  -9 3089.01 524.634
   5   1  10 614.896 397.722
  -5  -1 -10-504.053 390.757
  -5  -1 -10 183.270 387.690
   5   1  11-3.46184 328.359
  -5  -1 -11 543.566 389.984
  -5  -1 -11-295.442 418.942
   5   1  12 150.345 349.173
  -5  -1 -12 742.677 415.302
  -5  -1 -12 308.728 423.809
   5   1  13 128.493 410.507
  -5  -1 -13 390.415 489.688
   5   1  14 111.137 474.396
  -5  -1 -14-47.6562 529.261
  -5  -2  18 365.192 442.306
   5   2 -17 9.21809 460.794
  -5  -2  17 503.154 385.238
   5   2 -16 143.535 429.075
  -5  -2  16 596.703 394.371
   5   2 -15-323.485 420.153
  -5  -2  15-177.966 323.166
   5   2 -14 363.935 403.309
  -5  -2  14 154.426 310.985
   5   2 -13 3505.69 635.484
  -5  -2  13 3848.20 509.642
   5   2 -13 3245.35 501.082
   5   2 -12 3510.32 587.988
   5   2 -12 2877.60 467.449
  -5  -2  12 2061.77 416.142
   5   2 -11 2270.12 494.408
  -5  -2  11 1822.78 370.668
   5   2 -11 1308.42 372.074
  -5  -2  10 427.223 247.157
   5   2 -10 408.783 322.238
  -5  -2   9 2271.62 365.850
   5   2  -9 1733.32 368.926
  -5  -2   9 2703.48 498.322
  -5  -2   8 749.817 255.742
   5   2  -8 1012.58 330.335
  -5  -2   8 365.481 187.848
  -5  -2   8 690.435 348.054
  -5  -2   7 1839.09 264.184
  -5  -2   7 2598.80 337.636
   5   2  -7 2595.00 452.560
  -5  -2   7 3272.77 494.917
  -5  -2   6 134.732 188.275
  -5  -2   6 241.857 180.947
   5   2  -6 767.656 323.005
  -5  -2   6 266.109 269.810
  -5  -2   5 10074.9 520.991
   5   2  -5 10219.9 786.471
  -5  -2   5 9128.12 688.128
   5   2  -4 8526.79 590.204
  -5  -2   4 9372.38 473.204
  -5  -2   4 9059.32 674.559
   5   2  -3 5272.20 473.981
  -5  -2   3 4864.50 339.289
   5   2  -3 5407.16 588.376
  -5  -2   3 5577.80 540.139
   5   2  -2 803.115 302.506
  -5  -2   2 1350.98 184.058
  -5  -2   2 820.377 369.883
  -5  -2   1 18442.3 1069.67
  -5  -2   1 19710.6 531.335
  -5  -2   1 19599.3 922.813
   5   2  -1 18173.4 887.817
  -5  -2   0 60540.4 1885.15
  -5  -2   0 56427.1 799.994
   5   2   0 59268.8 1613.83
  -5  -2   0 55809.6 1521.95
  -5  -2  -1 177980. 3227.91
   5   2   1 175286. 2793.39
  -5  -2  -1 173869. 2625.14
  -5  -2  -2 108420. 2552.83
   5   2   2 106615. 2227.11
  -5  -2  -3 12474.9 938.691
   5   2   3 10454.9 785.483
  -5  -2  -3 12266.7 741.706
  -5  -2  -4 1213.71 330.166
  -5  -2  -4 665.683 369.802
   5   2   4 164.701 314.369
  -5  -2  -5 500.735 275.943
  -5  -2  -5 1432.97 448.225
   5   2   5 1319.63 392.977
  -5  -2  -6 44.1692 265.793
   5   2   6-463.111 342.356
  -5  -2  -6 158.460 331.269
  -5  -2  -7 259.481 289.889
   5   2   7 820.328 398.071
  -5  -2  -7-90.5792 364.529
  -5  -2  -8 3123.78 602.025
   5   2   8 2768.26 501.987
   5   2   9 2647.89 530.122
  -5  -2  -9 653.611 444.808
   5   2  10 266.020 368.016
  -5  -2 -10 28.4087 415.078
   5   2  11-523.626 434.663
  -5  -2 -11-461.208 411.706
   5   2  12 1102.65 480.137
  -5  -2 -12 914.314 535.718
  -5  -2 -13 58.9191 531.588
   5   2  13 316.375 436.957
   5   3 -17 434.711 487.950
  -5  -3  17 218.984 371.936
   5   3 -16 3096.20 635.542
  -5  -3  16 1916.83 508.198
   5   3 -15-359.029 420.056
  -5  -3  15 154.954 348.561
   5   3 -14 737.369 452.745
  -5  -3  14 854.655 391.900
   5   3 -13 1972.20 550.156
  -5  -3  13 1303.28 394.091
   5   3 -12 3504.07 592.236
  -5  -3  12 3839.21 508.202
   5   3 -11-126.347 389.694
  -5  -3  11-199.272 267.473
   5   3 -11-8.13367 265.358
   5   3 -10 1166.61 438.829
  -5  -3  10 1067.25 316.501
   5   3 -10 630.408 318.738
  -5  -3   9 31.7851 231.782
  -5  -3   9-425.096 390.645
  -5  -3   8 23318.7 952.271
  -5  -3   8 22862.1 890.800
   5   3  -8 22914.2 1073.40
  -5  -3   8 26358.9 1233.75
  -5  -3   7 1122.67 308.819
  -5  -3   7 829.412 270.417
   5   3  -7 1176.72 361.262
  -5  -3   7 1199.11 404.959
  -5  -3   6 48201.2 1574.20
  -5  -3   6 49380.6 1285.02
  -5  -3   6 47027.3 1509.96
  -5  -3   5 1957.27 344.681
  -5  -3   5 2900.35 340.935
  -5  -3   5 2467.58 424.244
  -5  -3   5 3124.15 462.920
  -5  -3   4 17787.2 1003.02
  -5  -3   4 18767.1 757.144
  -5  -3   4 17722.7 893.280
  -5  -3   3 991.064 347.280
  -5  -3   3 807.714 225.708
   5   3  -3 335.538 324.649
  -5  -3   3 194.757 271.479
   5   3  -2-28.0658 280.484
  -5  -3   2 211.925 314.393
  -5  -3   2 7.74738 161.916
  -5  -3   2-406.262 271.588
  -5  -3   1 673.722 356.408
   5   3  -1 548.294 319.142
  -5  -3   1 285.478 226.134
  -5  -3   0-282.134 272.854
   5   3   0 231.653 191.101
   5   3   0-567.708 348.328
  -5  -3  -1 1339.93 307.671
   5   3   1 1891.00 455.239
   5   3   1 993.925 217.495
  -5  -3  -1 1472.70 439.729
  -5  -3  -2 559.818 270.416
   5   3   2 178.888 315.934
   5   3   3 693.993 370.330
  -5  -3  -3 577.587 356.572
  -5  -3  -4 684.841 415.993
   5   3   4 226.383 318.235
  -5  -3  -5 788.132 421.898
   5   3   5 296.028 334.078
  -5  -3  -6 574.848 436.271
   5   3   6 1233.58 445.690
  -5  -3  -7 188.929 391.900
   5   3   7 359.630 399.548
  -5  -3  -8-290.924 427.673
   5   3   8 52.0748 418.996
  -5  -3  -9-21.1711 409.085
   5   3   9-558.172 382.726
  -5  -3 -10 958.392 538.001
   5   3  10 489.491 459.169
  -5  -3 -11 792.529 518.204
   5   3  11 939.398 496.987
   5   4 -17 285.952 450.384
  -5  -4  17 277.211 393.296
   5   4 -16 493.075 495.224
  -5  -4  16-316.772 358.413
   5   4 -15 3029.97 627.968
  -5  -4  15 2600.94 526.894
   5   4 -14 593.743 429.654
  -5  -4  14 315.312 358.557
   5   4 -13 2939.74 602.844
  -5  -4  13 3974.18 554.005
   5   4 -12 2078.68 515.987
  -5  -4  12 1367.55 382.695
   5   4 -11 1847.89 486.403
  -5  -4  11 1997.98 424.325
   5   4 -10 678.115 379.064
  -5  -4  10 1430.71 382.512
  -5  -4   9 1914.48 396.001
  -5  -4   9 2200.83 470.628
  -5  -4   8 297.991 297.408
  -5  -4   8-376.611 278.574
  -5  -4   8 265.124 284.274
  -5  -4   8 145.766 295.549
  -5  -4   7 514.439 285.499
  -5  -4   7 713.378 283.015
  -5  -4   7 905.171 317.665
  -5  -4   7 380.434 291.620
  -5  -4   6 4499.72 538.894
  -5  -4   6 3999.41 450.025
  -5  -4   6 3656.49 475.952
  -5  -4   6 3949.80 490.054
  -5  -4   5 4287.11 532.275
  -5  -4   5 4580.90 459.085
  -5  -4   5 3312.23 446.526
  -5  -4   5 5539.98 548.382
  -5  -4   4-86.9693 286.247
  -5  -4   4-23.0971 203.537
  -5  -4   4 483.985 285.193
  -5  -4   4-15.9199 223.399
   5   4  -3 325.260 335.250
  -5  -4   3 756.507 356.489
  -5  -4   3 1070.27 287.807
   5   4  -2-363.443 369.311
   5   4  -2-56.1113 244.170
  -5  -4   2-141.887 291.621
   5   4  -1 2382.18 352.484
  -5  -4   1 1856.48 445.398
   5   4  -1 2232.22 574.519
   5   4   0 511.078 366.996
   5   4   0 715.217 247.167
  -5  -4   0 653.232 385.623
   5   4   1 8199.45 790.098
  -5  -4  -1 8686.17 823.489
  -5  -4  -2 751.545 389.645
   5   4   2 1372.36 456.130
  -5  -4  -3 1379.62 456.498
   5   4   3 2937.79 572.592
  -5  -4  -4 800.060 397.121
   5   4   4 1456.37 508.388
   5   4   5-517.234 423.701
  -5  -4  -5 610.027 439.458
   5   4   6 152.342 409.872
  -5  -4  -6 296.886 415.889
   5   4   7 1433.59 567.333
  -5  -4  -7 643.576 438.218
   5   4   8 515.133 502.400
  -5  -4  -8 803.013 522.163
   5   4   9 443.485 495.680
  -5  -4  -9 858.739 518.204
   5   4  10 274.523 489.022
  -5  -4 -10 1270.48 605.101
   5   5 -16 568.121 507.016
  -5  -5  16-0.76916 388.909
   5   5 -15 376.618 463.542
  -5  -5  15 135.181 377.584
   5   5 -14 334.702 481.172
  -5  -5  14 417.926 376.237
   5   5 -13 1610.66 558.513
  -5  -5  13 1594.77 455.646
   5   5 -12 234.954 374.167
  -5  -5  12 101.465 352.683
   5   5 -11 21.6768 338.339
  -5  -5  11 471.513 344.960
  -5  -5  10 994.194 393.455
  -5  -5   9 1269.00 397.103
  -5  -5   9 1471.76 414.210
  -5  -5   8 2605.36 478.906
  -5  -5   8 1909.46 416.795
  -5  -5   7 1123.65 358.259
  -5  -5   7 333.268 316.617
  -5  -5   6 2627.67 431.220
  -5  -5   6 1988.00 417.379
  -5  -5   6 1951.89 417.504
  -5  -5   5 569.336 361.035
  -5  -5   5-167.741 318.986
   5   5  -4 743.659 338.855
  -5  -5   4 84.8299 298.849
  -5  -5   4 232.090 327.818
   5   5  -3 553.060 313.060
  -5  -5   3-179.651 309.866
   5   5  -2-12.3657 273.455
  -5  -5   2 791.874 380.226
   5   5  -1 789.257 500.338
  -5  -5   1 914.774 421.287
   5   5   0 3517.02 721.539
  -5  -5   0 5425.71 702.463
  -5  -5  -1 1129.25 453.769
   5   5   1 79.8849 506.360
  -5  -5  -2 1006.30 445.262
   5   5   2 1060.74 578.441
   5   5   3 598.845 494.793
  -5  -5  -3 1087.09 477.328
   5   5   4-408.024 522.990
  -5  -5  -4-437.579 421.324
   5   5   5 718.780 495.810
  -5  -5  -5 551.615 467.106
  -5  -5  -6 878.734 492.407
   5   5   6 1045.08 570.833
  -5  -5  -7-335.832 470.727
   5   5   7-407.018 524.278
  -5  -5  -8 20.8868 477.641
  -5  -6  14 2625.52 581.377
  -5  -6  13 26.8997 383.384
  -5  -6  12-118.342 362.255
  -5  -6  11 40.5582 343.996
  -5  -6  10 630.727 392.590
  -5  -6   9-56.0065 309.717
  -5  -6   8 561.241 380.493
  -5  -6   8 235.869 354.726
  -5  -6   7 719.869 354.156
  -5  -6   7 147.216 367.727
  -5  -6   6 424.273 369.405
   5   6  -5 1208.15 451.535
  -5  -6   5 803.890 375.817
   5   6  -4-244.860 377.444
  -5  -6   4 122.532 340.678
  -5  -6   3 62.8389 346.555
  -5  -6   3 434.742 395.923
  -5  -6   2 1151.09 477.752
  -5  -6   2-15.8274 382.426
  -5  -6   1-181.807 369.241
  -5  -6   1-190.026 371.723
  -5  -6   0 187.970 399.141
  -5  -6   0-180.123 376.572
  -5  -6  -1 164.100 395.700
   5   6   2-455.671 574.687
  -5  -6  -2 170.086 389.755
   5   6   3 1032.67 621.934
  -5  -6  -3 767.985 494.179
  -5  -6  -4 339.669 463.878
   5   6   4 613.493 602.779
  -5  -6  -5 732.648 533.186
  -5  -7  12-150.625 406.446
  -5  -7  11 127.187 382.814
  -5  -7  10 401.892 396.535
  -5  -7   9 699.484 401.199
  -5  -7   8 213.944 374.568
  -5  -7   8 453.199 421.675
  -5  -7   7 118.009 402.538
  -5  -7   6 338.133 437.263
  -5  -7   5-38.9252 409.712
  -5  -7   4 253.097 407.764
  -5  -7   3-51.0021 405.028
  -5  -7   2-272.844 428.412
  -5  -7   1-361.617 487.749
  -5  -7   0 70.8047 439.912
  -5  -7  -1 579.228 488.873
  -5  -7  -2 656.500 525.521
  -5  -7  -3 62.7729 477.349
  -6   8   4 321.223 545.536
  -6   8   4-564.560 547.652
  -6   8   3 575.798 592.732
  -6   8   3-3.92295 485.934
  -6   8   2 845.077 593.571
  -6   8   2 62.1250 466.139
   6  -8  -2 359.065 532.540
  -6   8   1 910.319 599.151
  -6   8   1 64.1356 456.661
   6  -8  -1 734.946 551.557
  -6   8   0 918.407 530.794
   6  -8   0 165.898 426.366
   6  -8   0 1430.58 596.915
  -6   8  -1 798.602 583.185
   6  -8   1 249.985 425.111
   6  -8   1 99.0544 452.198
  -6   8  -2 8.92591 548.357
   6  -8   2 38.0413 425.731
   6  -8   2 885.331 536.021
  -6   8  -3 1149.53 605.865
   6  -8   3 1133.89 520.237
   6  -8   3 334.142 455.391
  -6   8  -4-4.59974 536.616
   6  -8   4 231.317 422.079
  -6   8  -5 11.6257 535.553
   6  -8   5 906.646 477.318
  -6   7   8 584.478 510.766
  -6   7   8 270.205 571.922
  -6   7   7 5685.57 853.808
  -6   7   7 4351.33 895.462
  -6   7   6-344.318 467.049
  -6   7   6 1515.28 636.418
  -6   7   5 237.123 485.726
  -6   7   5 897.484 509.312
   6  -7  -5 260.082 485.696
  -6   7   4 53.1121 488.197
  -6   7   4 811.756 481.065
   6  -7  -4 520.669 493.252
  -6   7   3-513.868 563.009
  -6   7   3-259.420 426.217
   6  -7  -3 203.647 463.036
  -6   7   2-166.463 430.258
  -6   7   2-180.544 402.219
   6  -7  -2 586.424 500.229
  -6   7   1 677.534 503.032
  -6   7   1-22.3818 392.738
   6  -7  -1 579.472 391.403
   6  -7  -1 388.303 475.561
  -6   7   0 1372.95 553.053
  -6   7   0 653.235 420.297
   6  -7   0 1547.15 476.012
   6  -7   0 2262.71 594.745
  -6   7  -1-38.6349 527.074
   6  -7   1 962.106 444.955
   6  -7   1 754.161 448.055
  -6   7  -2 810.832 533.303
   6  -7   2 660.456 414.603
   6  -7   2 893.707 480.816
  -6   7  -3 288.913 468.193
   6  -7   3 137.934 395.798
   6  -7   3 364.694 437.507
  -6   7  -4 280.802 480.664
   6  -7   4-429.994 435.322
   6  -7   4 205.233 352.537
  -6   7  -5 636.417 515.878
   6  -7   5 109.353 384.460
   6  -7   5 2.25331 399.023
  -6   7  -6 125.889 503.216
   6  -7   6 262.342 388.015
   6  -7   6-533.310 422.855
  -6   7  -7 687.076 574.968
   6  -7   7 1275.78 499.029
  -6   7  -8-281.085 547.712
   6  -7   8 566.227 444.416
  -6   6  10-4.49930 412.666
  -6   6  10 112.763 494.963
  -6   6   9 797.558 464.069
  -6   6   9 589.565 568.316
  -6   6   8 1792.88 556.172
   6  -6  -8 1644.08 679.545
  -6   6   8 1598.35 633.340
  -6   6   7 1886.77 555.524
   6  -6  -7 1348.76 631.474
  -6   6   7 2756.97 682.056
  -6   6   6 253.336 401.225
   6  -6  -6 1607.44 593.502
  -6   6   6 1026.81 563.781
  -6   6   5 335.731 377.271
   6  -6  -5 378.473 469.476
  -6   6   5-344.637 481.676
  -6   6   4-199.480 337.599
   6  -6  -4 49.5808 464.857
  -6   6   4-429.599 506.857
  -6   6   3-143.596 451.593
  -6   6   3 1044.49 432.781
   6  -6  -3 261.038 404.077
  -6   6   2 572.989 467.924
  -6   6   2 963.453 398.989
   6  -6  -2 1359.53 397.754
   6  -6  -2 582.941 500.910
  -6   6   1 780.920 491.235
  -6   6   1-97.2385 321.707
   6  -6  -1 405.414 297.038
   6  -6  -1 279.608 422.537
   6  -6   0 3757.84 664.796
   6  -6   0 2286.50 459.409
  -6   6   0 3547.89 558.096
  -6   6   0 4814.25 767.559
  -6   6  -1 133.651 441.155
   6  -6   1 367.300 381.222
   6  -6   1 150.403 306.879
  -6   6  -2 569.453 509.951
   6  -6   2 162.853 374.914
   6  -6   2 470.991 353.200
  -6   6  -3 605.785 478.025
   6  -6   3-130.342 392.656
   6  -6   3 106.589 339.482
  -6   6  -4 799.546 497.863
   6  -6   4 2345.75 540.669
   6  -6   4 1580.62 450.090
  -6   6  -5 566.944 491.652
   6  -6   5 534.458 409.346
   6  -6   5 1022.79 421.264
  -6   6  -6 504.703 502.528
   6  -6   6 246.166 387.344
   6  -6   6 1557.57 469.989
  -6   6  -7-164.894 457.649
   6  -6   7-80.2466 382.683
   6  -6   7-177.686 374.886
  -6   6  -8 986.093 573.662
   6  -6   8-632.410 450.291
   6  -6   8 247.062 396.762
   6  -6   9 18.8825 368.015
  -6   6  -9 268.756 537.233
   6  -6   9 9.32242 376.545
   6  -6  10 780.963 458.423
  -6   6 -10 801.313 617.423
  -6   5  12 175.377 476.129
  -6   5  12 155.492 405.573
   6  -5 -11 302.261 504.468
  -6   5  11 816.698 514.505
  -6   5  11-41.2072 413.364
   6  -5 -10 217.051 547.192
  -6   5  10 539.110 534.000
  -6   5  10 657.055 406.356
  -6   5   9 2001.04 520.721
   6  -5  -9 947.191 600.837
  -6   5   8 15488.0 1066.87
  -6   5   8 13365.6 1183.18
   6  -5  -7 13943.7 1228.93
  -6   5   7 10326.7 879.066
  -6   5   7 14064.0 1184.17
  -6   5   6 1682.51 460.433
   6  -5  -6 938.532 544.761
  -6   5   6 1053.43 472.862
  -6   5   5 395.304 309.243
   6  -5  -5 1160.70 507.182
  -6   5   5 1898.53 548.503
  -6   5   4-337.267 340.279
   6  -5  -4 705.501 484.318
  -6   5   4 1120.21 496.224
  -6   5   3 652.582 340.462
   6  -5  -3-249.080 396.418
   6  -5  -3 398.015 263.892
  -6   5   3 578.789 445.969
  -6   5   2 88.9039 286.554
   6  -5  -2-149.672 383.124
   6  -5  -2-29.3843 254.762
  -6   5   2 200.818 416.187
  -6   5   1 366.964 397.578
  -6   5   1 90.9465 277.141
   6  -5  -1 108.190 362.089
   6  -5  -1 134.185 293.476
  -6   5   0 736.202 424.078
  -6   5   0 1034.92 344.114
   6  -5   0 652.268 384.890
   6  -5   0 877.672 340.840
   6  -5   1 4191.27 636.946
   6  -5   1 4353.77 552.353
  -6   5  -1 4313.82 708.730
  -6   5  -2-131.609 429.422
   6  -5   2 1024.37 435.409
   6  -5   2 836.548 341.713
   6  -5   3 3593.34 597.758
  -6   5  -3 4424.91 726.423
   6  -5   3 4810.35 585.262
  -6   5  -4 944.584 472.816
   6  -5   4-87.2902 370.583
   6  -5   4 162.880 315.327
  -6   5  -5 412.717 449.653
   6  -5   5 407.622 345.171
   6  -5   6-267.086 385.630
  -6   5  -6 403.678 484.834
   6  -5   6 55.2955 381.731
   6  -5   7 276.263 355.300
  -6   5  -7 196.518 435.480
   6  -5   7-430.384 378.417
  -6   5  -8-333.824 478.200
   6  -5   8 983.509 411.262
   6  -5   8 188.499 383.760
  -6   5  -9 7.37688 484.886
   6  -5   9 303.146 383.331
  -6   5 -10 37.3878 497.071
   6  -5  10 410.118 393.324
  -6   5 -10 283.016 457.689
  -6   5 -11 1118.44 577.046
   6  -5  11 1179.70 480.258
  -6   5 -11 1873.58 576.453
  -6   5 -12-482.956 566.261
   6  -5  12-2.31281 392.432
  -6   4  14-44.4041 433.917
   6  -4 -13-483.202 551.371
  -6   4  13 694.581 522.928
  -6   4  13-85.4769 372.491
   6  -4 -12 49.3175 522.010
  -6   4  12-570.308 569.586
  -6   4  12 470.842 392.677
   6  -4 -11-616.753 552.235
  -6   4  11 583.439 469.663
  -6   4  11 156.648 354.269
   6  -4 -10 873.935 586.246
  -6   4  10 430.123 451.466
  -6   4  10 140.895 343.384
   6  -4  -9-372.239 507.259
  -6   4   9 255.543 428.319
  -6   4   9-272.984 365.005
   6  -4  -8 10054.4 1038.50
  -6   4   8 8179.32 737.208
  -6   4   8 9160.49 979.163
   6  -4  -7-588.030 495.130
  -6   4   7 680.989 453.993
  -6   4   7-124.210 320.112
  -6   4   6 1408.62 375.119
   6  -4  -6 1282.83 525.250
  -6   4   6 1948.76 553.992
  -6   4   5 741.834 302.792
   6  -4  -5 610.874 401.811
  -6   4   5 390.122 448.773
  -6   4   4 1133.15 342.535
   6  -4  -4 1557.59 477.083
  -6   4   4 2016.27 535.439
   6  -4  -3 889.843 316.673
  -6   4   3 1374.85 339.290
   6  -4  -3 1603.61 467.580
  -6   4   3 1086.94 466.932
   6  -4  -2 417.941 252.654
  -6   4   2-7.64743 257.866
   6  -4  -2 399.595 404.331
  -6   4   2 378.196 382.064
   6  -4  -1 994.638 296.113
  -6   4   1 743.821 277.891
   6  -4  -1 563.543 401.485
  -6   4   1 598.714 418.178
  -6   4   0 760.174 429.801
   6  -4   0 477.784 268.161
   6  -4   0 1534.48 435.482
  -6   4  -1 357.378 372.441
   6  -4   1 6.71747 275.196
   6  -4   1 587.123 407.365
  -6   4  -2 2089.67 513.947
   6  -4   2 2056.01 398.608
   6  -4   2 1936.43 469.059
   6  -4   3 8232.50 812.475
  -6   4  -3 9488.97 956.014
   6  -4   3 9015.34 710.540
   6  -4   4 12243.6 972.941
  -6   4  -4 13084.0 1081.90
   6  -4   4 11196.4 804.575
  -6   4  -5 778.536 480.201
   6  -4   5 307.956 325.795
   6  -4   5-539.992 414.027
   6  -4   6 467.821 355.445
   6  -4   6 1125.14 445.204
  -6   4  -7 889.887 505.682
   6  -4   7 444.441 342.913
   6  -4   7 882.895 406.662
  -6   4  -8-701.641 500.627
   6  -4   8-294.129 320.769
  -6   4  -9 1129.57 534.451
   6  -4   9 819.309 424.357
  -6   4  -9 72.0776 400.805
  -6   4 -10-312.364 506.972
   6  -4  10 645.510 473.045
  -6   4 -10 123.332 449.906
  -6   4 -11-144.553 495.698
   6  -4  11 154.358 381.711
  -6   4 -11 449.177 426.074
  -6   4 -12-498.701 566.216
   6  -4  12-310.009 389.737
  -6   4 -12-556.674 474.955
  -6   4 -13 600.873 578.803
  -6   4 -13 77.3639 452.150
   6  -4  13 323.197 431.891
  -6   3  15 342.395 438.852
   6  -3 -14-555.053 579.022
  -6   3  14 886.416 466.964
  -6   3  14 285.098 497.240
   6  -3 -13 653.029 559.034
  -6   3  13 560.448 385.473
  -6   3  13 172.817 440.180
   6  -3 -12-57.9763 467.237
  -6   3  12-47.2153 329.900
  -6   3  12 547.173 513.815
   6  -3 -11-40.1316 464.812
  -6   3  11 21.1197 348.952
  -6   3  11 427.267 438.893
   6  -3 -10 988.739 534.111
  -6   3  10 664.745 447.781
  -6   3  10 1008.75 387.109
   6  -3  -9 701.510 443.346
  -6   3   9 891.329 444.919
  -6   3   9 861.310 329.607
   6  -3  -8 21617.8 1391.75
  -6   3   8 18750.2 983.399
  -6   3   8 20572.0 1311.25
   6  -3  -7 330.254 421.078
  -6   3   7 262.919 377.298
  -6   3   7 745.089 337.191
   6  -3  -6-101.916 370.372
  -6   3   6-390.624 401.273
  -6   3   6 319.530 292.113
   6  -3  -5 11.3177 359.211
  -6   3   5 50.6139 360.101
  -6   3   5 866.403 288.813
  -6   3   4-46.3116 235.023
   6  -3  -4 19.8029 175.288
   6  -3  -4-377.237 384.392
  -6   3   4 121.375 352.112
  -6   3   3 788.222 270.564
   6  -3  -3 452.507 231.812
   6  -3  -3 1390.23 473.102
  -6   3   3 609.314 376.751
   6  -3  -2 8363.43 819.676
  -6   3   2 8824.61 548.478
  -6   3   2 8039.35 818.052
   6  -3  -1 67.5903 217.614
   6  -3  -1-155.710 353.061
   6  -3   0 214.828 246.443
   6  -3   0 532.944 358.741
  -6   3   0-11.2946 361.410
  -6   3  -1 1470.86 477.593
   6  -3   1 987.504 298.083
   6  -3   1 1373.36 438.477
  -6   3  -2 2345.93 569.865
   6  -3   2 3427.68 453.034
   6  -3   2 2552.80 524.002
  -6   3  -3 847.453 439.125
   6  -3   3 1732.14 386.929
   6  -3   3 1829.36 527.529
  -6   3  -4 1428.20 523.628
   6  -3   4 2072.73 421.569
   6  -3   4 2490.05 544.804
  -6   3  -5 257.759 425.142
   6  -3   5-194.026 307.221
   6  -3   5 538.205 410.485
  -6   3  -6 1033.93 463.590
   6  -3   6 742.261 378.633
   6  -3   6 1763.01 471.015
  -6   3  -7-169.218 412.619
   6  -3   7-288.236 338.263
  -6   3  -8 844.275 537.624
  -6   3  -8 1130.72 481.453
   6  -3   8 1237.30 403.238
  -6   3  -9 2183.85 611.383
  -6   3  -9 679.829 434.343
   6  -3   9 1140.25 432.132
   6  -3  10 4912.66 671.910
  -6   3 -10 4386.71 720.892
  -6   3 -10 6061.97 857.631
  -6   3 -11 907.821 578.843
  -6   3 -11 721.024 466.827
   6  -3  11 1411.58 474.869
  -6   3 -12 217.881 516.138
  -6   3 -12-74.4319 439.713
   6  -3  12 684.533 432.982
  -6   3 -13 64.2493 510.022
  -6   3 -13 605.500 508.373
   6  -3  13-324.189 384.109
  -6   3 -14 1057.30 628.569
  -6   3 -14 313.643 469.444
  -6   3 -15-562.339 529.471
   6  -2 -16 793.470 557.296
  -6   2  16 678.152 484.114
   6  -2 -15 2726.71 690.717
  -6   2  15 989.682 449.146
  -6   2  15 2163.67 705.748
   6  -2 -14 440.121 474.621
  -6   2  14-519.266 430.431
  -6   2  14 424.472 504.011
   6  -2 -13 929.368 510.780
  -6   2  13 646.358 372.326
  -6   2  13 1352.56 583.942
   6  -2 -12-584.749 467.815
  -6   2  12 455.330 320.500
  -6   2  12 602.631 475.353
   6  -2 -11 1494.02 529.751
  -6   2  11 835.901 349.521
  -6   2  11 1379.87 509.595
   6  -2 -10 872.746 488.215
  -6   2  10 89.4587 289.342
  -6   2  10 745.030 500.965
   6  -2  -9 7.17406 398.302
  -6   2   9 111.524 260.747
  -6   2   9 897.621 480.097
  -6   2   8 2357.56 382.929
   6  -2  -8 3196.14 590.552
  -6   2   8 2187.75 566.196
   6  -2  -7 465.955 434.342
  -6   2   7-21.6589 238.720
  -6   2   7-181.553 361.318
   6  -2  -6-507.861 377.754
  -6   2   6 96.0599 240.826
  -6   2   6 639.048 405.928
   6  -2  -5 2729.01 546.275
  -6   2   5 2913.93 358.205
  -6   2   5 2619.26 525.318
   6  -2  -4 537.052 188.611
   6  -2  -4 475.615 400.309
  -6   2   4 614.392 362.182
  -6   2   4 965.326 249.686
   6  -2  -3 2508.87 340.304
  -6   2   3 3525.55 337.059
   6  -2  -3 2558.24 532.573
   6  -2  -2 734.445 253.759
   6  -2  -2 652.590 386.267
  -6   2   2 1475.85 508.112
   6  -2  -1-308.555 223.623
  -6   2   1-51.7246 325.937
   6  -2   0 313.657 222.702
   6  -2   0-48.0713 348.579
  -6   2   0 578.242 386.689
   6  -2   1 43091.9 1260.68
   6  -2   1 41116.5 1649.07
  -6   2  -1 44701.0 1717.82
  -6   2  -2 2322.23 556.823
   6  -2   2 1520.94 387.741
   6  -2   3 137934. 2411.58
   6  -2   3 142751. 3086.57
  -6   2  -3 135958. 3016.88
  -6   2  -4 3157.10 585.094
   6  -2   4 3387.07 496.952
   6  -2   4 2685.73 578.350
   6  -2   5 12242.5 804.988
   6  -2   5 11984.6 990.844
  -6   2  -5 11298.3 963.974
  -6   2  -6-26.1742 383.050
  -6   2  -6-118.426 434.066
   6  -2   6 220.540 298.236
  -6   2  -7 1968.06 534.120
   6  -2   7 1789.65 461.886
  -6   2  -7 2197.73 546.967
  -6   2  -8 758.894 481.626
  -6   2  -8 477.856 438.901
   6  -2   8-5.93505 316.853
  -6   2  -9 795.272 477.935
   6  -2   9 1223.82 409.387
  -6   2 -10 332.160 434.585
   6  -2  10 1273.11 431.001
  -6   2 -11 90.8513 441.660
  -6   2 -11 93.1457 443.583
   6  -2  11-356.306 413.368
  -6   2 -12 550.594 470.149
  -6   2 -12-563.138 487.363
   6  -2  12 595.701 399.763
  -6   2 -13-157.067 496.905
  -6   2 -13 300.305 485.009
   6  -2  13 230.572 416.691
  -6   2 -14 271.703 512.989
  -6   2 -14 449.660 518.969
  -6   2 -15-496.283 561.428
  -6   2 -15 240.265 524.552
   6  -1 -17 742.961 575.585
  -6   1  17 91.4306 440.585
   6  -1 -16 391.074 473.130
  -6   1  16 266.124 457.789
   6  -1 -15 547.893 514.483
  -6   1  15 296.369 403.399
  -6   1  15-184.185 507.831
   6  -1 -14 1765.78 603.092
  -6   1  14 930.417 419.114
  -6   1  14 423.881 480.445
   6  -1 -13-23.5352 430.322
  -6   1  13 338.676 323.318
  -6   1  13-512.479 480.613
   6  -1 -12 239.360 417.960
  -6   1  12-372.271 359.689
  -6   1  12 2.57749 404.074
  -6   1  11 4761.21 557.273
   6  -1 -11 4672.24 675.235
  -6   1  11 5421.04 751.240
   6  -1 -10 1051.33 450.246
  -6   1  10 642.093 304.202
  -6   1  10 265.415 374.843
   6  -1  -9 291.981 397.509
  -6   1   9 644.807 291.997
  -6   1   9 743.808 440.142
   6  -1  -8 1318.30 447.751
  -6   1   8 1280.50 291.570
  -6   1   8 1905.41 502.760
  -6   1   7 3025.98 375.544
   6  -1  -7 3154.54 581.176
  -6   1   7 2977.24 539.916
  -6   1   6 14215.4 660.652
   6  -1  -6 15475.6 1062.39
  -6   1   6 13049.1 967.931
  -6   1   5 3800.88 353.495
   6  -1  -5 3652.67 569.010
  -6   1   5 3764.90 596.523
   6  -1  -4 5749.26 388.209
  -6   1   4 6613.93 402.874
   6  -1  -4 6613.42 711.777
  -6   1   4 7589.97 751.090
   6  -1  -3 1516.53 259.410
   6  -1  -3 2077.54 478.519
  -6   1   3 2078.27 486.187
   6  -1  -2 567.682 332.087
   6  -1  -2 280.536 197.093
  -6   1   2-225.133 319.429
   6  -1  -1 642.424 354.911
   6  -1  -1 700.448 250.839
  -6   1   1 1262.93 408.776
   6  -1   0 209.401 324.106
   6  -1   0-36.4459 223.329
  -6   1   0-66.6571 349.815
  -6   1  -1 1726.16 477.994
   6  -1   1 1293.91 476.643
   6  -1   1 1177.08 319.438
   6  -1   2 3735.13 468.867
   6  -1   2 2911.65 590.933
  -6   1  -2 3619.12 586.038
   6  -1   3 6860.87 612.486
   6  -1   3 8015.29 825.059
  -6   1  -3 6430.70 747.371
   6  -1   4 4484.28 528.063
  -6   1  -4 5091.45 667.650
  -6   1  -5 478.321 372.458
  -6   1  -5 314.383 374.236
   6  -1   5 469.495 306.852
  -6   1  -6-128.293 361.498
  -6   1  -6 56.7134 374.649
   6  -1   6-257.450 291.424
  -6   1  -7-343.532 373.451
  -6   1  -7 487.942 408.054
   6  -1   7 0.56225 300.658
  -6   1  -8 373.285 398.494
  -6   1  -8 707.407 466.182
   6  -1   8-257.306 356.583
  -6   1  -9-175.077 399.898
  -6   1  -9 543.101 433.561
   6  -1   9 178.698 361.414
  -6   1 -10 808.258 494.565
  -6   1 -10 853.717 485.515
   6  -1  10-9.89765 358.562
  -6   1 -11 378.250 460.353
  -6   1 -11-382.352 464.812
   6  -1  11-250.634 382.502
  -6   1 -12 414.619 474.994
  -6   1 -12 269.575 489.562
   6  -1  12-242.358 394.305
  -6   1 -13 741.637 556.787
  -6   1 -13 188.426 490.396
   6  -1  13 973.060 480.591
  -6   1 -14 917.675 589.309
  -6   1 -14 325.985 491.908
  -6   1 -15 812.023 589.496
  -6   0  17 341.903 414.422
   6   0 -16 171.400 464.194
  -6   0  16 176.223 431.592
   6   0 -15 1189.50 529.950
  -6   0  15 896.660 428.308
  -6   0  15 673.414 496.147
   6   0 -14 437.913 463.291
  -6   0  14 221.978 345.642
  -6   0  14-86.3909 451.114
   6   0 -13 705.754 446.460
  -6   0  13 518.124 334.290
  -6   0  13 454.982 436.578
   6   0 -12 1154.22 469.404
  -6   0  12 2232.30 420.016
  -6   0  12 1734.62 519.762
   6   0 -11 2746.09 543.065
  -6   0  11 2162.00 404.390
  -6   0  11 2954.18 590.770
   6   0 -10-300.471 367.655
  -6   0  10-186.526 275.284
  -6   0  10 152.609 389.619
   6   0  -9 247.847 343.262
  -6   0   9 397.529 244.898
  -6   0   9 61.8074 356.317
   6   0  -8 433.890 380.182
  -6   0   8 443.957 255.273
  -6   0   8-92.3074 351.669
   6   0  -7-259.893 328.678
  -6   0   7-218.821 212.069
  -6   0   7-305.001 364.242
  -6   0   6 2116.21 290.581
  -6   0   6 2140.62 457.698
   6   0  -5 74.6294 167.311
   6   0  -5 136.608 319.627
  -6   0   5 113.725 168.842
  -6   0   5 466.213 397.579
   6   0  -4 10396.4 873.818
   6   0  -4 10750.1 565.947
  -6   0   4 12504.1 902.048
   6   0  -3 5070.82 638.322
   6   0  -3 6098.30 457.643
   6   0  -2 4677.27 427.627
   6   0  -2 3330.51 562.881
  -6   0   2 4797.65 588.233
   6   0  -1 719.666 258.088
   6   0  -1 183.167 351.838
  -6   0   1 1236.84 418.588
   6   0   0 8379.11 599.630
   6   0   0 7293.82 793.952
  -6   0   0 6741.24 682.336
   6   0   1 24073.4 1009.45
   6   0   1 26102.7 1372.81
  -6   0  -1 25487.6 1240.23
   6   0   2 61323.1 1607.29
  -6   0  -2 63361.7 1943.32
   6   0   3 31770.6 1215.73
  -6   0  -3 30318.8 1368.27
  -6   0  -4 2129.59 483.813
  -6   0  -4 2925.75 600.605
   6   0   4 2727.07 466.295
  -6   0  -5 914.973 392.243
  -6   0  -5 697.762 425.337
   6   0   5 517.855 302.028
  -6   0  -6-65.9162 354.441
  -6   0  -6 106.366 372.736
   6   0   6-14.3127 307.282
  -6   0  -7 286.607 363.617
  -6   0  -7-292.585 417.842
   6   0   7 66.6095 313.819
  -6   0  -8 254.320 399.270
  -6   0  -8 474.241 417.169
   6   0   8 1624.67 439.617
  -6   0  -9 2204.88 555.385
  -6   0  -9 1849.88 558.898
   6   0   9 1409.31 437.794
   6   0  10 935.443 440.041
  -6   0 -10 1243.14 510.043
  -6   0 -10 521.199 468.072
   6   0  11-467.540 406.213
  -6   0 -11 799.160 453.779
  -6   0 -11-8.75593 433.209
   6   0  12-135.898 393.427
  -6   0 -12-157.330 460.943
  -6   0 -12-192.892 476.128
  -6   0 -13 1749.67 662.635
  -6  -1  17 629.096 430.080
  -6  -1  16 350.025 381.236
  -6  -1  16-345.426 512.200
  -6  -1  15 141.637 355.610
  -6  -1  15 1380.09 594.901
   6   1 -14-150.823 393.109
  -6  -1  14 1035.83 377.120
  -6  -1  14 1516.13 617.032
   6   1 -13 1602.63 485.264
  -6  -1  13 1511.25 420.871
  -6  -1  13 602.555 445.953
  -6  -1  12 766.878 345.995
   6   1 -12 2036.60 511.851
  -6  -1  12 2646.04 596.582
  -6  -1  11 859.460 323.412
   6   1 -11 1067.85 421.068
  -6  -1  11 1164.83 483.622
  -6  -1  10-18.0565 283.794
   6   1 -10-120.557 315.857
  -6  -1  10 566.025 419.746
  -6  -1   9 218.168 254.841
   6   1  -9 1196.81 387.517
  -6  -1   9 411.552 341.333
  -6  -1   8 2.99060 222.021
   6   1  -8 60.4099 308.230
  -6  -1   8-131.429 395.724
  -6  -1   7 19156.5 761.391
   6   1  -7 16805.0 1078.11
  -6  -1   7 19476.7 1151.97
  -6  -1   6 478.275 215.981
   6   1  -6 179.764 359.796
  -6  -1   6 669.848 397.652
   6   1  -5 27777.4 1362.41
  -6  -1   5 33720.3 1429.17
   6   1  -4 2007.16 483.754
  -6  -1   4 2244.47 491.878
   6   1  -4 2075.44 335.210
   6   1  -3 8645.38 827.613
  -6  -1   3 9106.36 761.732
   6   1  -3 8512.34 591.387
   6   1  -2 132.918 229.000
   6   1  -2 711.703 374.409
  -6  -1   2-25.8882 336.754
   6   1  -1 574.212 277.502
   6   1  -1-4.72267 356.674
  -6  -1   1 280.997 291.553
   6   1   0-33.7834 245.425
  -6  -1   0 507.135 342.083
  -6  -1  -1 2087.32 439.797
  -6  -1  -1 2410.72 526.911
   6   1   1 2437.28 429.092
  -6  -1  -2 1252.91 401.675
   6   1   2 1009.16 332.816
  -6  -1  -2 268.558 411.750
  -6  -1  -3 1262.35 405.705
  -6  -1  -3 1758.45 497.647
   6   1   3 2125.84 434.293
  -6  -1  -4 185.929 310.808
   6   1   4-192.407 307.130
  -6  -1  -4-106.288 355.980
  -6  -1  -5 799.803 407.834
   6   1   5 130.634 355.044
  -6  -1  -5 537.851 445.137
  -6  -1  -6 134.552 339.484
   6   1   6 884.708 352.429
  -6  -1  -6 492.961 414.095
  -6  -1  -7 1462.35 468.342
   6   1   7 825.892 410.895
  -6  -1  -8 149.157 362.934
   6   1   8-87.1510 389.143
  -6  -1  -8 232.503 431.545
  -6  -1  -9-199.575 350.054
   6   1   9-50.8263 380.940
  -6  -1  -9 377.327 429.842
   6   1  10-155.838 406.063
  -6  -1 -10-95.4732 467.310
   6   1  11 436.033 433.391
  -6  -1 -11 459.640 493.888
   6   1  12 1548.46 599.412
  -6  -1 -12 1822.65 640.134
  -6  -2  17 288.304 405.116
  -6  -2  16-426.044 412.535
  -6  -2  15-247.301 363.974
  -6  -2  15 634.028 560.294
  -6  -2  14 5262.00 654.198
  -6  -2  14 3849.44 739.860
  -6  -2  13 656.332 325.448
  -6  -2  13-48.2346 451.783
  -6  -2  12 2685.50 470.812
   6   2 -12 3453.79 567.759
  -6  -2  12 1928.00 555.567
  -6  -2  11 2468.53 411.662
   6   2 -11 2199.72 474.524
  -6  -2  11 2972.07 621.819
  -6  -2  10 3729.35 471.341
   6   2 -10 3885.18 569.549
  -6  -2  10 3160.80 584.550
  -6  -2   9 2073.33 370.363
   6   2  -9 2385.60 492.076
  -6  -2   9 2771.23 562.852
  -6  -2   8 3806.68 411.896
   6   2  -8 3109.68 514.736
  -6  -2   8 3142.39 545.340
  -6  -2   7 172.124 232.897
   6   2  -7 120.274 346.216
  -6  -2   7-239.768 336.836
   6   2  -6-128.434 329.472
  -6  -2   6 1376.33 426.819
   6   2  -5 2119.46 514.702
  -6  -2   5 3401.63 531.870
   6   2  -4-69.7295 274.517
   6   2  -4-30.8130 312.257
  -6  -2   4 121.618 302.945
   6   2  -3 158.695 267.367
  -6  -2   3-69.0483 301.386
   6   2  -2 228.717 277.092
  -6  -2   2 454.061 372.360
  -6  -2   2 281.022 291.526
   6   2  -1 1115.72 375.367
  -6  -2   1 454.175 366.190
  -6  -2   1 959.521 371.739
  -6  -2   0-213.501 290.544
  -6  -2   0 319.868 369.091
   6   2   0-495.111 307.561
  -6  -2  -1 21.4778 289.069
  -6  -2  -1-192.075 318.903
   6   2   1-6.76442 332.017
  -6  -2  -2 175.044 284.133
  -6  -2  -2 861.245 446.870
   6   2   2 616.609 338.911
  -6  -2  -3 283.106 300.090
  -6  -2  -3-242.171 354.131
   6   2   3 115.398 338.391
  -6  -2  -4 4312.10 688.987
   6   2   4 3189.00 518.053
  -6  -2  -4 3998.01 565.746
  -6  -2  -5 1759.50 516.415
   6   2   5 1520.14 445.664
  -6  -2  -6 338.556 464.213
   6   2   6-77.4567 358.619
  -6  -2  -7-70.9649 464.023
   6   2   7 456.656 406.009
  -6  -2  -8-335.064 431.703
   6   2   8 178.552 389.597
  -6  -2  -9 82.4129 470.636
   6   2   9-112.058 420.094
  -6  -2 -10 322.697 504.765
   6   2  10 90.8217 435.360
  -6  -3  16 507.011 429.096
  -6  -3  15 293.960 387.196
  -6  -3  14 83.0693 350.463
  -6  -3  14 10.6641 481.906
  -6  -3  13 869.837 387.876
  -6  -3  13 1012.06 551.337
  -6  -3  12 1576.12 414.411
  -6  -3  12 910.995 513.448
  -6  -3  11 280.380 293.365
  -6  -3  11 90.7440 411.680
  -6  -3  10 404.681 266.406
  -6  -3  10-128.238 360.636
  -6  -3   9 3.79896 241.687
   6   3  -9 417.062 349.081
  -6  -3   9 619.232 403.555
  -6  -3   8 1077.38 314.920
  -6  -3   8 1861.23 496.543
  -6  -3   7 1835.69 447.156
  -6  -3   7 1048.15 397.018
  -6  -3   6 277.012 366.338
  -6  -3   6 165.622 315.568
  -6  -3   5 119.643 338.007
  -6  -3   5 388.519 337.486
  -6  -3   4 2190.74 510.809
  -6  -3   4 3010.19 495.454
  -6  -3   3 632.151 379.352
   6   3  -3 323.268 364.051
  -6  -3   3 611.912 336.722
   6   3  -2 789.707 400.845
  -6  -3   2 1168.33 440.043
  -6  -3   2 1442.26 373.517
  -6  -3   1 274.735 352.000
   6   3  -1-7.34541 346.666
  -6  -3   1 771.065 318.161
  -6  -3   0 1603.82 491.324
   6   3   0 1524.54 490.559
  -6  -3  -1 2598.00 548.609
   6   3   1 3195.72 604.257
   6   3   2 519.074 369.419
  -6  -3  -2 2136.08 556.175
   6   3   3-238.155 357.759
  -6  -3  -3 213.637 383.324
   6   3   4 1469.22 499.361
  -6  -3  -4 1985.39 549.933
  -6  -3  -5-11.7286 394.773
   6   3   5 556.934 426.334
  -6  -3  -6 329.039 446.563
   6   3   6 1573.63 519.585
  -6  -3  -7 1892.10 579.746
   6   3   7 1636.13 537.302
  -6  -3  -8 866.401 505.474
   6   3   8 511.025 471.953
  -6  -3  -9 954.629 577.106
   6   3   9-55.3985 477.327
  -6  -4  15 1865.98 544.748
  -6  -4  14 1435.71 484.565
  -6  -4  14 1349.04 584.333
  -6  -4  13 5097.40 627.176
  -6  -4  13 5429.46 820.672
  -6  -4  12 896.448 390.919
  -6  -4  12 446.301 450.453
  -6  -4  11-391.975 317.839
  -6  -4  11 953.028 461.193
  -6  -4  10 81.3653 361.254
  -6  -4   9-207.426 367.205
  -6  -4   8 90.0049 337.632
  -6  -4   7 548.949 350.799
  -6  -4   7 669.552 394.366
  -6  -4   6 290.736 355.688
  -6  -4   6 410.049 304.328
  -6  -4   5 1115.19 412.315
  -6  -4   5 934.684 349.559
  -6  -4   4 1585.06 480.763
  -6  -4   4 2172.69 420.430
   6   4  -3-345.031 400.966
  -6  -4   3 269.965 363.921
   6   4  -2-266.483 411.322
  -6  -4   2 51.0676 365.047
  -6  -4   1 2786.22 573.061
   6   4  -1 3120.59 659.163
   6   4   0 124.851 435.057
  -6  -4   0 867.590 458.428
  -6  -4  -1 422.602 429.409
   6   4   1-293.199 435.794
  -6  -4  -2 683.291 440.868
   6   4   2 857.314 469.758
  -6  -4  -3 1085.28 475.905
   6   4   3 451.408 408.400
  -6  -4  -4 1601.91 547.686
   6   4   4 1728.02 578.001
  -6  -4  -5-783.783 525.469
   6   4   5 197.515 479.099
   6   4   6 150.563 461.263
  -6  -4  -6 1016.31 549.095
   6   4   7-48.4914 501.811
  -6  -4  -7 222.994 495.986
  -6  -5   5 613.530 386.724
  -6  -5   4-315.045 397.820
  -6  -5   4 12.1394 332.094
  -6  -5   3 1333.09 496.304
  -6  -5   3 646.038 396.753
  -6  -5   2 556.029 432.994
  -6  -5   1 640.641 473.376
   6   5  -1 221.917 477.312
  -6  -5   0 744.752 467.711
   6   5   0 539.003 563.725
  -6  -5  -1 126.282 414.991
   6   5   1-289.712 527.520
  -6  -5  -2 1672.41 551.587
   6   5   2 519.798 606.539
   6   5   3-626.628 630.688
  -6  -5  -3 961.031 540.401
   6   5   4 713.827 591.848
  -6  -5  -4-303.591 510.965
  -6  -5  -5 230.639 485.518
  -6  -6   5 183.722 403.140
  -6  -6   4 364.829 389.032
  -6  -6   3 351.304 442.765
  -6  -6   2 658.572 456.287
  -6  -6   1 659.233 473.577
  -6  -6   1 280.621 435.996
  -6  -6   0 617.983 487.251
  -6  -6   0 1241.22 510.583
  -6  -6  -1-733.694 546.262
  -6  -6  -2-46.6037 505.338
   7  -7   0 638.884 552.592
   7  -7   1 761.954 551.396
   7  -7   2 397.531 524.222
   7  -7   2-176.885 404.476
   7  -7   3-9.64961 458.163
   7  -7   3-776.882 453.468
   7  -7   4 152.964 485.634
   7  -7   4 123.812 432.321
   7  -7   5-769.042 535.451
   7  -7   5-362.163 432.493
   7  -7   6 829.534 546.415
  -7   6   6-197.644 518.664
  -7   6   5-477.638 600.288
  -7   6   4-31.5668 513.003
   7  -6  -4 900.159 564.478
  -7   6   3 688.491 575.278
   7  -6  -3-129.320 495.663
  -7   6   2 697.704 558.898
   7  -6  -2 158.906 453.588
  -7   6   1 1055.94 547.354
   7  -6  -1 834.246 530.968
  -7   6   0 271.709 522.389
   7  -6   0 511.113 505.164
  -7   6  -1 761.018 577.572
   7  -6   1 400.837 465.222
   7  -6   1 301.951 352.966
   7  -6   2 143.710 378.862
  -7   6  -2 311.785 533.229
   7  -6   2-12.8239 443.359
   7  -6   3 916.521 452.575
  -7   6  -3 1891.86 662.517
   7  -6   3 843.598 541.655
   7  -6   4 2864.54 578.033
  -7   6  -4 1646.12 668.674
   7  -6   4 2824.70 663.835
   7  -6   5 2417.76 558.072
   7  -6   5 3768.69 708.338
  -7   6  -5 4813.05 929.117
  -7   6  -6 146.179 535.267
   7  -6   6 1203.35 519.689
   7  -6   6-42.9966 456.432
   7  -6   7-54.9837 409.224
   7  -6   7-113.277 434.837
   7  -6   8 227.406 412.566
   7  -6   8 806.500 505.528
  -7   5   8 647.096 543.808
   7  -5  -7 2052.45 669.475
  -7   5   7 2800.21 719.234
   7  -5  -6 840.145 571.156
  -7   5   6-172.050 462.581
   7  -5  -5-309.175 452.543
  -7   5   5 355.061 496.076
   7  -5  -4-144.348 470.417
  -7   5   4 343.600 465.530
   7  -5  -3 1151.33 535.926
  -7   5   3-446.481 485.128
  -7   5   2-519.038 517.748
   7  -5  -2-54.5938 438.658
  -7   5   1-178.123 466.165
   7  -5  -1 351.828 427.676
  -7   5   0 67.7353 447.837
   7  -5   0 13.9165 307.790
   7  -5   0 1.81483 396.234
  -7   5  -1 405.654 485.373
   7  -5   1-146.639 319.336
   7  -5   1 293.478 470.078
  -7   5  -2 1486.93 586.010
   7  -5   2 601.172 371.265
   7  -5   2 304.787 421.540
  -7   5  -3-42.5904 482.505
   7  -5   3-61.6013 344.249
   7  -5   3 317.947 435.443
  -7   5  -4 1463.96 631.788
   7  -5   4 209.977 359.022
   7  -5   4 1212.18 530.798
  -7   5  -5 841.927 594.525
   7  -5   5 1148.67 441.869
   7  -5   5 265.337 484.854
   7  -5   6-451.284 405.517
   7  -5   6-300.300 456.605
  -7   5  -7 868.748 591.470
   7  -5   7 817.890 453.648
   7  -5   7 837.532 508.921
  -7   5  -8 1225.92 634.377
   7  -5   8 263.302 419.969
   7  -5   9 348.914 407.099
  -7   5  -9-385.731 521.960
  -7   5 -10 627.740 488.740
  -7   5 -11 1664.86 667.693
   7  -4 -10 1174.59 622.489
  -7   4  10 197.157 503.717
   7  -4  -9-231.274 532.046
  -7   4   9 343.882 516.771
   7  -4  -8 360.461 489.838
  -7   4   8-73.1747 473.116
   7  -4  -7 1145.27 576.595
  -7   4   7 882.514 533.542
   7  -4  -6-318.010 438.833
  -7   4   6-302.995 432.312
   7  -4  -5-326.717 462.980
  -7   4   5 588.983 492.831
   7  -4  -4-182.319 424.495
  -7   4   4 824.394 466.060
   7  -4  -3-10.7536 466.663
  -7   4   3 1053.70 513.405
   7  -4  -2 206.687 391.017
  -7   4   2-488.562 500.635
  -7   4   1-661.216 476.797
   7  -4  -1-153.006 269.376
   7  -4  -1-135.388 411.721
  -7   4   0-184.215 407.544
   7  -4   0-214.184 294.679
   7  -4   0 285.231 399.975
  -7   4  -1 402.209 454.673
   7  -4   1 158.569 314.060
   7  -4   1 295.764 389.466
   7  -4   2 10027.1 787.136
   7  -4   2 10189.1 993.756
  -7   4  -2 10462.3 1061.85
  -7   4  -3 157.606 489.703
   7  -4   3 243.498 344.529
   7  -4   3 474.333 485.765
   7  -4   4 26289.6 1271.10
   7  -4   4 28461.4 1610.29
  -7   4  -4 26889.1 1657.18
  -7   4  -5 170.610 520.850
   7  -4   5-687.932 440.277
   7  -4   5-203.015 510.554
  -7   4  -6 1940.57 624.654
   7  -4   6 2023.20 548.043
   7  -4   6 2198.07 564.636
  -7   4  -7-389.394 546.605
   7  -4   7 518.304 365.096
   7  -4   7 739.089 476.929
  -7   4  -8-530.963 576.456
  -7   4  -8 983.125 568.642
   7  -4   8 539.276 434.801
  -7   4  -9 360.007 534.850
  -7   4  -9-11.0383 467.070
   7  -4   9-318.990 449.732
  -7   4 -10-145.579 561.291
  -7   4 -10 539.072 583.900
   7  -4  10-284.939 461.686
  -7   4 -11 556.032 541.992
  -7   4 -12-579.964 552.180
   7  -3 -12 101.870 540.113
   7  -3 -11-553.960 535.178
  -7   3  11-593.759 576.948
   7  -3 -10 1595.99 620.528
  -7   3  10 1932.43 630.903
   7  -3  -9 440.041 461.053
  -7   3   9-6.77644 453.280
   7  -3  -8-652.754 524.829
  -7   3   8-608.986 514.717
   7  -3  -7-56.6982 427.961
  -7   3   7 493.604 460.504
   7  -3  -6 1299.81 533.240
  -7   3   6 274.812 432.270
   7  -3  -5 4130.00 706.242
  -7   3   5 4741.10 738.190
   7  -3  -4 745.018 468.938
  -7   3   4 1127.85 504.250
   7  -3  -3 7319.69 867.161
  -7   3   3 4912.49 756.087
   7  -3  -2 240.580 378.674
  -7   3   2 107.943 395.214
   7  -3  -1 76.5051 259.470
   7  -3  -1 22.0884 370.561
  -7   3   1 870.258 472.919
  -7   3   0 299.252 418.892
   7  -3   0 506.250 301.266
   7  -3   0 240.270 400.608
  -7   3  -1 265.777 426.340
   7  -3   1-36.0183 275.455
   7  -3   1 173.011 380.328
  -7   3  -2 857.086 499.956
   7  -3   2-5.02660 315.616
   7  -3   2 869.230 465.211
  -7   3  -3 428.049 453.961
   7  -3   3-81.7876 328.716
   7  -3   3-19.7837 457.122
  -7   3  -4 1507.49 570.742
   7  -3   4 1077.51 394.236
   7  -3   4 1347.22 526.107
  -7   3  -5 341.002 447.457
   7  -3   5 604.207 382.794
   7  -3   5-604.530 491.441
  -7   3  -6-653.935 523.804
   7  -3   6-700.207 422.817
   7  -3   6 285.381 417.557
  -7   3  -7-134.605 503.418
  -7   3  -7 43.7427 456.900
   7  -3   7 198.239 351.327
  -7   3  -8-336.052 504.005
  -7   3  -8 433.006 498.751
   7  -3   8 451.976 402.850
  -7   3  -9 999.057 550.684
  -7   3  -9-512.897 503.989
   7  -3   9-111.807 366.946
  -7   3 -10 508.698 551.268
  -7   3 -10 729.048 543.620
   7  -3  10 93.2606 376.556
  -7   3 -11 845.955 603.791
  -7   3 -11 139.250 523.556
  -7   3 -12-537.416 567.939
   7  -2 -14 977.565 617.798
   7  -2 -13 340.585 526.054
   7  -2 -12 14.5754 488.686
  -7   2  12 877.775 576.905
   7  -2 -11 277.077 480.945
  -7   2  11 150.668 461.587
   7  -2 -10 1819.72 600.832
  -7   2  10 2363.22 648.788
   7  -2  -9 1515.27 547.885
  -7   2   9 1428.70 572.745
   7  -2  -8 332.823 417.873
  -7   2   8-453.340 482.465
   7  -2  -7 353.439 395.209
  -7   2   7 241.892 427.668
   7  -2  -6-27.8736 454.900
  -7   2   6-148.832 424.812
   7  -2  -5 1329.82 492.963
  -7   2   5 395.501 398.099
   7  -2  -4 925.891 463.302
  -7   2   4 100.950 409.176
   7  -2  -3 4446.48 691.414
  -7   2   3 4086.48 667.635
   7  -2  -2 975.495 471.838
   7  -2  -2 658.546 268.812
  -7   2   2 1082.70 481.127
   7  -2  -1 277.185 294.083
  -7   2   1-264.031 434.619
  -7   2   0-181.426 399.285
   7  -2   0 841.378 307.317
   7  -2   0 32.3644 372.818
  -7   2  -1 1176.21 466.599
   7  -2   1 153.097 283.823
   7  -2   1 1346.41 515.018
  -7   2  -2 2058.99 578.977
   7  -2   2 3667.09 506.469
   7  -2   2 4072.23 728.656
   7  -2   3 9355.26 740.211
   7  -2   3 10763.6 1024.95
  -7   2  -3 10530.8 1000.52
   7  -2   4 4076.12 553.171
   7  -2   4 4545.81 767.803
  -7   2  -4 3681.42 697.392
  -7   2  -5 70.6073 426.567
   7  -2   5 57.0005 312.912
  -7   2  -6 555.667 472.363
  -7   2  -6 758.214 499.965
   7  -2   6 2093.97 476.981
  -7   2  -7 942.955 508.503
  -7   2  -7 691.970 503.722
   7  -2   7-572.141 370.144
  -7   2  -8-331.835 483.248
  -7   2  -8 721.863 546.332
   7  -2   8-348.063 405.212
  -7   2  -9 111.315 469.019
  -7   2  -9 503.041 537.772
   7  -2   9 1198.81 479.704
  -7   2 -10 1152.31 556.914
  -7   2 -10 1241.21 599.118
   7  -2  10 33.3476 406.352
  -7   2 -11 31.6054 517.428
  -7   2 -11 176.582 467.713
   7  -2  11-185.404 413.131
  -7   2 -12-191.940 531.379
   7  -1 -15 573.295 571.064
   7  -1 -14-92.5084 493.613
   7  -1 -13 399.929 527.310
  -7   1  13 52.4117 528.693
   7  -1 -12 854.042 508.361
  -7   1  12 428.368 473.258
   7  -1 -11 1092.17 538.536
  -7   1  11 1720.18 592.171
   7  -1 -10 666.389 456.235
  -7   1  10 184.820 425.531
   7  -1  -9 540.470 442.733
  -7   1   9-619.309 462.980
   7  -1  -8 87.1110 412.666
  -7   1   8-86.0539 414.942
   7  -1  -7 105.021 391.605
  -7   1   7-103.461 391.936
   7  -1  -6 7003.64 819.159
  -7   1   6 7199.50 849.684
   7  -1  -5-431.275 420.277
  -7   1   5 222.961 392.306
   7  -1  -4 8341.83 888.802
  -7   1   4 5834.78 752.129
   7  -1  -3 1737.99 555.890
  -7   1   3 2715.21 566.192
   7  -1  -2 1165.44 315.574
  -7   1   2 1537.33 502.763
   7  -1  -1-340.561 261.198
  -7   1   1-332.362 386.855
  -7   1   0 596.117 409.672
   7  -1   0-423.081 388.294
   7  -1   0 71.3471 259.522
  -7   1  -1 462.338 403.821
   7  -1   1 754.753 463.705
   7  -1   1-214.268 283.658
  -7   1  -2 904.468 480.455
   7  -1   2 2059.49 597.823
   7  -1   2 1341.32 375.874
  -7   1  -3 320.738 405.578
   7  -1   3 321.615 418.682
   7  -1   3 463.010 322.808
  -7   1  -4 896.162 459.692
  -7   1  -4 645.270 481.690
   7  -1   4 1244.61 388.522
  -7   1  -5-420.538 422.599
  -7   1  -5 1056.06 509.901
   7  -1   5 407.905 367.037
  -7   1  -6-40.5253 437.128
  -7   1  -6 511.817 463.905
   7  -1   6 1041.09 423.956
  -7   1  -7 839.679 515.891
  -7   1  -7 1280.17 560.955
   7  -1   7 768.692 411.395
  -7   1  -8 470.333 485.393
  -7   1  -8 196.265 504.421
   7  -1   8 313.100 388.350
  -7   1  -9-276.125 483.035
  -7   1  -9 479.179 532.844
   7  -1   9-762.799 428.975
  -7   1 -10-198.021 475.719
  -7   1 -10-304.826 503.643
   7  -1  10-82.8675 406.696
  -7   1 -11-370.231 527.707
  -7   1 -11 819.391 616.810
  -7   1 -12 356.514 556.409
   7   0 -15 171.025 530.030
   7   0 -14 194.671 487.376
   7   0 -13 4850.89 797.886
  -7   0  13 3640.20 822.540
   7   0 -12 1208.67 556.393
  -7   0  12 514.791 527.395
   7   0 -11 2391.73 633.367
  -7   0  11 1563.95 581.367
   7   0 -10 455.083 453.606
  -7   0  10 347.339 447.577
   7   0  -9 2099.79 559.625
  -7   0   9 1631.95 562.587
   7   0  -8 736.776 401.366
  -7   0   8 1345.64 486.671
   7   0  -7 1246.14 492.959
  -7   0   7 1050.67 469.821
   7   0  -6-12.6306 379.112
  -7   0   6 856.163 482.461
   7   0  -5-276.667 374.760
  -7   0   5 478.671 422.532
   7   0  -4 504.843 426.227
  -7   0   4 917.568 431.756
   7   0  -3-486.943 450.410
  -7   0   3 521.415 394.380
   7   0  -2 158.972 271.244
   7   0  -2 284.100 371.575
  -7   0   2-408.787 355.299
   7   0  -1 254.807 255.638
   7   0  -1 507.262 419.686
  -7   0   1 185.671 366.395
  -7   0   0 1636.20 453.820
   7   0   0 1302.02 362.676
   7   0   0 1985.15 572.112
  -7   0  -1 943.599 429.244
   7   0   1 177.447 311.563
  -7   0  -2 90.9722 392.411
   7   0   2 215.484 290.283
  -7   0  -2 98.1522 434.356
  -7   0  -3 352.714 397.028
   7   0   3 431.188 321.127
  -7   0  -3-109.870 397.766
  -7   0  -4 163.098 370.346
   7   0   4 389.146 362.754
  -7   0  -4 274.954 462.281
  -7   0  -5 1370.22 524.287
   7   0   5 1415.04 489.949
  -7   0  -5 2732.87 659.295
  -7   0  -6 462.998 455.565
   7   0   6 1980.72 480.201
  -7   0  -6 1887.97 625.951
   7   0   7-760.413 455.498
  -7   0  -7 639.294 448.426
  -7   0  -7-343.856 448.028
   7   0   8 1.50660 383.314
  -7   0  -8-188.804 418.664
  -7   0  -8-71.9593 472.418
   7   0   9 254.158 436.044
  -7   0  -9 284.023 446.111
  -7   0  -9 293.345 498.765
   7   0  10-1076.36 515.426
  -7   0 -10-501.289 592.609
   7   1 -13 794.121 514.975
  -7  -1  13 1187.30 626.754
   7   1 -12 318.526 444.206
  -7  -1  12 326.249 511.746
   7   1 -11 1364.27 489.351
  -7  -1  11 898.574 521.046
   7   1 -10 314.900 404.424
  -7  -1  10-31.3048 447.575
   7   1  -9 175.910 387.720
  -7  -1   9-206.760 431.594
   7   1  -8-433.994 421.651
  -7  -1   8 361.968 432.123
   7   1  -7 440.383 409.722
  -7  -1   7 533.732 425.924
   7   1  -6-40.5270 403.896
  -7  -1   6 772.253 451.523
   7   1  -5 910.628 462.635
  -7  -1   5 419.551 369.377
   7   1  -4 396.410 385.495
  -7  -1   4 222.895 377.156
   7   1  -3 3483.61 630.599
   7   1  -3 2807.39 436.546
  -7  -1   3 2771.35 559.001
   7   1  -2 543.832 455.204
   7   1  -2 57.2326 305.099
  -7  -1   2 682.529 387.765
   7   1  -1 792.684 351.889
  -7  -1   1 1424.42 458.327
  -7  -1   0 420.011 407.714
  -7  -1   0 272.888 419.692
   7   1   0 526.221 341.216
  -7  -1  -1-443.231 384.707
  -7  -1  -1 24.9233 412.289
   7   1   1 614.274 369.014
  -7  -1  -2-230.526 354.352
  -7  -1  -2 105.435 409.425
   7   1   2-13.8592 334.826
  -7  -1  -3-75.9138 362.906
  -7  -1  -3 115.941 444.353
   7   1   3 486.695 374.634
  -7  -1  -4 1192.13 459.963
  -7  -1  -4 2007.69 581.391
  -7  -1  -5 1983.44 554.212
   7   1   5 927.045 426.083
  -7  -1  -5 1227.33 556.263
   7   1   6 218.834 393.193
  -7  -1  -6 480.989 537.789
   7   1   7 2339.49 551.395
  -7  -1  -7 1679.53 618.743
   7   1   8 702.684 485.782
  -7  -1  -8 189.805 482.515
   7   1   9-42.5033 467.709
  -7  -2  13 1782.38 658.527
  -7  -2  12 4425.98 779.067
   7   2 -11 401.372 490.381
  -7  -2  11 862.228 556.284
   7   2 -10 459.288 427.658
  -7  -2  10 937.843 506.275
   7   2  -9 497.289 429.900
  -7  -2   9 216.940 395.041
   7   2  -8 84.1076 417.295
  -7  -2   8 238.154 419.130
   7   2  -7 386.514 423.253
  -7  -2   7 236.830 377.468
   7   2  -6-142.589 383.771
  -7  -2   6 49.1886 355.188
   7   2  -5 1069.54 455.522
  -7  -2   5 471.221 402.488
  -7  -2   4 68.1793 407.695
  -7  -2   4 198.373 389.334
   7   2  -3 547.472 341.524
  -7  -2   3 1497.31 450.684
  -7  -2   2 812.784 463.303
   7   2  -2 492.593 345.497
  -7  -2   2 514.721 399.939
  -7  -2   1 224.347 348.227
   7   2  -1 118.660 346.053
  -7  -2   1 437.800 435.573
  -7  -2   0 4308.17 731.390
  -7  -2   0 3618.79 576.704
   7   2   0 3165.83 593.718
  -7  -2  -1 252.913 355.527
  -7  -2  -1 134.250 475.258
   7   2   1 118.842 353.820
  -7  -2  -2-222.580 422.729
   7   2   2-25.9297 378.481
  -7  -2  -3 574.460 509.145
   7   2   3-44.5201 388.457
  -7  -2  -4-24.1398 446.060
   7   2   4 1090.42 487.759
  -7  -2  -5 1745.71 605.554
   7   2   5 1513.86 520.647
  -7  -2  -6 518.139 532.192
   7   2   6 500.167 455.982
  -7  -2  -7 486.028 509.715
   7   2   7 813.072 498.411
  -7  -3  13 418.238 546.022
  -7  -3  12 124.711 496.482
  -7  -3  11 1082.47 558.215
  -7  -3  10 1786.06 557.240
  -7  -3   9 375.135 419.758
  -7  -3   8 1064.82 479.445
  -7  -3   8-35.7839 390.302
  -7  -3   7 76.5609 370.692
  -7  -3   7 123.320 396.133
  -7  -3   6 687.756 461.631
  -7  -3   6-378.976 423.593
  -7  -3   5-363.569 428.287
  -7  -3   5 1379.60 479.177
  -7  -3   4 521.394 475.731
  -7  -3   3-4.40054 436.525
   7   3  -3-108.614 420.084
   7   3  -2 607.008 444.244
  -7  -3   2 1162.53 500.849
  -7  -3   1 101.739 423.357
   7   3  -1 884.496 481.083
  -7  -3   0 1103.33 533.077
   7   3   0 499.418 428.627
  -7  -3  -1 206.233 449.578
   7   3   1-222.208 420.616
   7   3   2 1580.74 528.361
  -7  -3  -2 516.884 512.645
   7   3   3 373.765 468.992
  -7  -3  -3 16.2443 486.376
   7   3   4 923.675 507.577
  -7  -3  -4 1102.10 570.821
   7   3   5 934.741 530.242
  -7  -3  -5-1101.56 609.800
   7   3   6 74.2607 481.591
  -7  -4   6 1071.25 472.841
  -7  -4   5 950.998 510.854
  -7  -4   4 643.938 503.194
  -7  -4   3 1739.25 566.471
   7   4  -3 745.118 569.231
   7   4  -2 479.350 540.044
  -7  -4   2-1.83807 442.435
  -7  -4   1 1560.84 591.519
   7   4  -1 465.704 561.449
   7   4   0 1176.53 604.026
  -7  -4   0 1192.44 554.032
   7   4   1 747.783 565.375
  -7  -4  -1 461.008 488.443
  -7  -4  -2-451.950 509.093
   7   4   2 387.498 520.437
  -7  -4  -3-296.811 540.593
   7   4   3 416.712 527.745
  -7  -5   2 688.104 529.208
  -7  -5   2-342.429 432.282
   7   5  -1 710.742 621.607
  -7  -5   1-513.162 526.333
   7   5   0-246.151 573.851
  -7  -5   0-669.348 569.199
   8  -5   1-391.643 491.009
   8  -5   2 446.387 527.381
   8  -5   3 199.803 419.971
   8  -5   3-107.160 501.420
   8  -5   4 737.615 469.042
   8  -5   5-24.9369 434.321
   8  -5   6 210.988 467.549
   8  -4  -4 243.260 492.421
  -8   4   4 84.2127 534.042
   8  -4  -3 976.306 579.005
  -8   4   3-351.309 503.247
  -8   4   2-730.204 569.255
   8  -4  -2 721.219 541.715
  -8   4   1-529.837 547.788
   8  -4  -1-133.001 467.961
  -8   4   0 718.176 570.121
   8  -4   0 480.037 500.358
  -8   4  -1-170.140 499.847
   8  -4   1-768.217 549.003
  -8   4  -2 748.640 543.669
   8  -4   2 127.022 483.500
  -8   4  -3 114.821 558.007
   8  -4   3-329.494 405.252
   8  -4   3-79.6911 515.275
  -8   4  -4-150.390 528.939
   8  -4   4 302.992 404.558
   8  -4   4 1084.36 615.467
   8  -4   5-232.424 437.491
   8  -4   5 773.754 554.174
   8  -4   6-185.134 423.572
   8  -4   6 326.226 498.055
   8  -4   7 844.728 483.528
   8  -3  -7 509.903 530.321
  -8   3   7 285.968 524.096
   8  -3  -6 34.6334 495.443
  -8   3   6-344.520 468.869
   8  -3  -5 1002.89 550.977
  -8   3   5 302.185 513.232
   8  -3  -4 419.028 441.687
  -8   3   4 346.173 477.324
   8  -3  -3 1215.95 577.971
  -8   3   3 704.856 537.172
   8  -3  -2 1376.21 592.585
  -8   3   2 57.7090 465.763
  -8   3   1-134.628 466.024
   8  -3  -1 325.553 451.540
  -8   3   0-123.617 479.224
   8  -3   0-102.070 469.762
  -8   3  -1 442.873 487.494
   8  -3   1-97.7083 480.576
  -8   3  -2-14.7865 487.700
   8  -3   2 122.520 372.934
   8  -3   2-455.373 503.176
  -8   3  -3 47.6698 488.536
   8  -3   3 257.588 351.064
   8  -3   3 767.597 558.511
  -8   3  -4 220.927 503.571
   8  -3   4-656.663 452.046
   8  -3   4-392.458 512.015
  -8   3  -5 753.094 572.074
   8  -3   5 91.4250 395.822
  -8   3  -6-354.715 582.830
  -8   3  -6 43.7214 547.308
   8  -3   6 865.996 462.033
   8  -3   7 675.512 472.334
   8  -2  -9 125.907 490.526
   8  -2  -8 325.807 494.561
  -8   2   8 1145.48 610.693
   8  -2  -7-96.5711 457.581
  -8   2   7 344.532 497.369
   8  -2  -6-34.3428 462.170
  -8   2   6 686.281 541.776
   8  -2  -5 763.202 556.092
  -8   2   5 454.642 492.345
   8  -2  -4-360.387 523.269
  -8   2   4-196.045 489.727
   8  -2  -3-295.743 495.169
  -8   2   3-93.9054 446.804
   8  -2  -2-215.454 469.893
  -8   2   2-89.7219 450.501
  -8   2   1 488.564 516.947
   8  -2  -1 1054.05 550.063
  -8   2   0 433.354 500.123
   8  -2   0-809.815 505.718
  -8   2  -1-693.364 521.496
   8  -2   1 1300.67 589.060
  -8   2  -2 2002.76 650.088
   8  -2   2 1879.17 620.411
   8  -2   2 1739.21 466.840
  -8   2  -3 560.633 496.392
   8  -2   3 241.205 462.072
   8  -2   3 216.168 357.886
  -8   2  -4 532.892 470.592
   8  -2   4 569.072 397.927
  -8   2  -5 190.229 456.699
  -8   2  -5-345.610 520.197
   8  -2   5 1007.33 429.128
  -8   2  -6 928.641 619.163
  -8   2  -6-187.478 565.547
   8  -2   6 753.590 460.348
  -8   2  -7 269.735 503.803
   8  -2   7 960.050 486.765
  -8   2  -8 512.406 554.983
   8  -2   8 425.394 461.183
   8  -1 -11 319.010 535.632
   8  -1 -10-39.8793 490.173
   8  -1  -9 548.698 549.401
  -8   1   9 616.069 563.365
   8  -1  -8 703.928 525.363
  -8   1   8 241.792 533.648
   8  -1  -7 615.623 488.069
  -8   1   7-173.618 475.539
   8  -1  -6 445.994 478.250
  -8   1   6-676.649 542.296
   8  -1  -5-219.669 447.662
  -8   1   5-92.4240 462.417
   8  -1  -4 432.858 489.882
  -8   1   4 1111.43 551.307
   8  -1  -3 64.9512 454.102
  -8   1   3 628.377 534.767
   8  -1  -2 904.100 511.525
  -8   1   2 1424.97 603.015
  -8   1   1-570.676 459.663
   8  -1  -1-120.586 440.110
  -8   1   0 767.699 496.084
   8  -1   0 630.092 552.248
  -8   1  -1 248.414 466.468
   8  -1   1 286.876 357.091
   8  -1   1 1323.86 583.054
  -8   1  -2-74.8141 426.994
   8  -1   2 214.004 349.418
  -8   1  -3-180.600 448.325
   8  -1   3 467.602 427.280
  -8   1  -3 155.237 505.093
   8  -1   4-212.264 387.362
  -8   1  -4 273.640 468.167
  -8   1  -4-567.586 567.861
   8  -1   5-803.532 443.184
  -8   1  -5 1180.06 597.460
  -8   1  -5 866.435 589.369
   8  -1   6-114.747 430.521
  -8   1  -6 1112.29 600.574
   8  -1   7-201.368 452.120
  -8   1  -7 528.055 553.477
  -8   1  -8 381.647 536.875
   8   0 -12 228.249 532.928
   8   0 -11 1590.04 640.319
   8   0 -10 145.829 505.266
  -8   0  10 522.893 580.912
   8   0  -9 14.4883 485.952
  -8   0   9-178.169 507.317
   8   0  -8 769.990 533.834
  -8   0   8 1.02443 495.673
   8   0  -7 1596.50 605.795
  -8   0   7 1136.35 555.160
   8   0  -6 840.619 522.867
  -8   0   6 303.770 432.579
   8   0  -5 29.3462 479.995
  -8   0   5 101.456 433.432
   8   0  -4 1036.38 523.445
  -8   0   4 992.638 524.474
   8   0  -3-95.6746 452.153
  -8   0   3 467.518 484.409
   8   0  -2 1254.31 579.093
  -8   0   2 294.990 431.661
  -8   0   1 1757.15 573.187
   8   0  -1 898.544 516.632
  -8   0   0-74.9325 423.890
  -8   0  -1 2438.00 615.948
   8   0   1 1179.37 433.335
  -8   0  -1 1368.50 586.529
  -8   0  -2 52.4882 419.487
   8   0   2-92.3905 356.379
  -8   0  -2-253.052 524.882
  -8   0  -3 1107.45 532.648
   8   0   3 271.375 413.476
  -8   0  -3 652.850 545.919
  -8   0  -4 614.090 480.180
   8   0   4-92.1747 385.340
  -8   0  -4-177.518 533.042
  -8   0  -5-481.582 527.348
   8   0   5 403.580 458.883
  -8   0  -6 160.320 477.315
   8   0   6 1159.22 503.977
   8   0   7-145.551 451.064
   8   1 -11 282.769 504.602
   8   1 -10-67.8768 521.038
  -8  -1  10-266.253 541.004
   8   1  -9 2262.25 687.378
  -8  -1   9 2819.75 702.393
   8   1  -8-2.90400 446.604
  -8  -1   8 888.173 571.297
   8   1  -7 228.274 481.345
  -8  -1   7 862.379 527.094
   8   1  -6 43.0714 452.297
  -8  -1   6-7.63142 423.233
   8   1  -5-141.303 458.304
  -8  -1   5 853.140 505.156
   8   1  -4 568.542 525.762
  -8  -1   4-698.617 492.077
  -8  -1   3-360.469 459.398
  -8  -1   2 977.277 551.120
  -8  -1   2 644.320 468.197
  -8  -1   1 608.159 459.799
  -8  -1   1 1144.75 575.186
  -8  -1   0 1094.82 511.963
  -8  -1   0 71.9248 490.337
  -8  -1  -1 1377.05 618.289
   8   1   1 990.856 452.697
  -8  -1  -2 63.8970 513.052
   8   1   2 87.8889 406.118
  -8  -1  -3 20.7092 532.274
   8   1   3 111.868 430.084
   8   1   4 370.482 444.291
   8   1   5-130.664 439.975
   8   1   6-40.7793 483.797
  -8  -2  10 985.336 611.277
   8   2  -9 257.550 513.681
  -8  -2   9 744.529 577.461
   8   2  -8 545.082 514.160
  -8  -2   8 943.203 565.054
  -8  -2   7 504.030 481.670
  -8  -2   6-161.859 475.960
  -8  -2   6 369.588 500.433
  -8  -2   5 623.376 508.870
  -8  -2   5 610.799 467.629
  -8  -2   4 1297.52 636.998
  -8  -2   4 419.080 474.513
  -8  -2   3 1157.10 580.013
  -8  -2   2 2496.73 689.685
  -8  -2   1 1444.49 644.457
  -8  -2   0 1688.73 644.102
   8   2   1 234.553 428.135
  -8  -2  -1 784.560 608.187
   8   2   2 330.566 423.112
   8   2   3 77.4783 442.760
   8   2   4-68.9581 498.546
  -8  -3   6 834.814 574.559
  -8  -3   5-38.4619 510.334
  -8  -3   4 218.307 524.288
  -8  -3   3-372.875 527.134
  -8  -3   2 100.933 524.022
  -8  -3   1 7.79371 525.264
   8   3   1 739.013 526.390
   8   3   2 519.395 522.330
  -9   0   3-500.091 576.701
  -9   0   2 845.482 612.813
  -9   0   1 337.661 542.125
  -9   0   0 853.536 583.138
   0   0   0    0.00    0.00
;
_shelx_hkl_checksum              50437
loop_
_space_group_symop_operation_xyz
'x, y, z'
'-x, -y, -z'
loop_
_atom_site_label
_atom_site_type_symbol
_atom_site_fract_x
_atom_site_fract_y
_atom_site_fract_z
_atom_site_U_iso_or_equiv
_atom_site_adp_type
_atom_site_occupancy
_atom_site_site_symmetry_order
_atom_site_calc_flag
_atom_site_refinement_flags_posn
_atom_site_refinement_flags_adp
F1 F 0.21701(16) 0.55028(16) 0.29521(7) 0.0880(4) Uani 1 1 d . .
F2 F 0.91300(17) 0.85068(16) 0.37882(7) 0.0874(4) Uani 1 1 d . .
F3 F 0.6709(2) 0.63775(17) 0.08159(6) 0.0962(4) Uani 1 1 d . .
F4 F 0.98015(17) 0.81128(17) 0.20838(8) 0.0921(4) Uani 1 1 d . .
F5 F 0.2891(2) 0.50296(18) 0.12568(8) 0.1018(4) Uani 1 1 d . .
O1 O 0.36329(19) 0.85582(19) 0.86186(7) 0.0791(4) Uani 1 1 d . .
C1 C 0.5626(3) 0.7032(2) 0.34271(10) 0.0581(4) Uani 1 1 d . .
C2 C 0.7569(3) 0.7664(2) 0.31727(11) 0.0620(4) Uani 1 1 d . .
C3 C 0.4500(3) 0.7772(2) 0.59768(10) 0.0606(4) Uani 1 1 d . .
C4 C 0.3789(3) 0.8263(2) 0.77380(10) 0.0593(4) Uani 1 1 d . .
C5 C 0.2520(3) 0.7253(2) 0.62195(11) 0.0668(4) Uani 1 1 d . .
H5 H 0.141438 0.673070 0.578708 0.080 Uiso 1 1 calc R U
C6 C 0.2159(3) 0.7498(2) 0.70945(11) 0.0638(4) Uani 1 1 d . .
H6 H 0.081927 0.714653 0.724736 0.077 Uiso 1 1 calc R U
C7 C 0.6352(3) 0.6584(2) 0.16600(11) 0.0678(5) Uani 1 1 d . .
C8 C 0.4077(3) 0.6149(2) 0.27517(12) 0.0637(4) Uani 1 1 d . .
C9 C 0.7922(3) 0.7451(2) 0.23064(11) 0.0651(4) Uani 1 1 d . .
C10 C 0.6116(3) 0.8562(2) 0.66354(11) 0.0666(4) Uani 1 1 d . .
H10 H 0.745292 0.893173 0.648484 0.080 Uiso 1 1 calc R U
C11 C 0.4878(3) 0.7498(2) 0.50719(12) 0.0681(5) Uani 1 1 d . .
C12 C 0.4427(3) 0.5914(2) 0.18842(11) 0.0683(4) Uani 1 1 d . .
C13 C 0.5775(3) 0.8808(2) 0.75037(11) 0.0661(4) Uani 1 1 d . .
H13 H 0.687603 0.934029 0.793655 0.079 Uiso 1 1 calc R U
C14 C 0.5235(3) 0.7281(2) 0.43198(11) 0.0667(4) Uani 1 1 d . .
C15 C 0.1659(3) 0.7999(3) 0.89208(12) 0.0773(5) Uani 1 1 d . .
H15 H 0.116461 0.666057 0.868957 0.093 Uiso 1 1 calc R U
H15A H 0.061725 0.873382 0.872974 0.093 Uiso 1 1 calc R U
C16 C 0.2006(4) 0.8362(4) 0.99045(13) 0.1089(8) Uani 1 1 d . .
H16 H 0.304711 0.763427 1.008430 0.163 Uiso 1 1 calc R U
H16A H 0.071096 0.799327 1.013464 0.163 Uiso 1 1 calc R U
H16B H 0.248419 0.969167 1.012454 0.163 Uiso 1 1 calc R U
loop_
_atom_site_aniso_label
_atom_site_aniso_U_11
_atom_site_aniso_U_22
_atom_site_aniso_U_33
_atom_site_aniso_U_23
_atom_site_aniso_U_13
_atom_site_aniso_U_12
F1 0.0711(7) 0.0926(8) 0.1031(8) 0.0298(6) 0.0218(6) 0.0000(5)
F2 0.0814(7) 0.0937(8) 0.0805(7) 0.0159(6) -0.0014(6) -0.0035(6)
F3 0.1250(10) 0.1115(9) 0.0599(6) 0.0236(6) 0.0276(6) 0.0257(7)
F4 0.0770(7) 0.1082(8) 0.1005(8) 0.0397(6) 0.0330(6) 0.0072(6)
F5 0.1027(9) 0.1102(9) 0.0797(7) 0.0107(6) -0.0129(6) -0.0068(7)
O1 0.0764(8) 0.1020(9) 0.0592(7) 0.0160(6) 0.0159(6) 0.0085(7)
C1 0.0726(11) 0.0467(8) 0.0597(9) 0.0161(7) 0.0149(8) 0.0131(7)
C2 0.0674(10) 0.0540(9) 0.0645(10) 0.0132(7) 0.0054(8) 0.0073(8)
C3 0.0754(11) 0.0499(8) 0.0605(9) 0.0146(7) 0.0164(8) 0.0133(8)
C4 0.0670(10) 0.0585(9) 0.0567(9) 0.0159(7) 0.0160(8) 0.0122(8)
C5 0.0736(11) 0.0620(10) 0.0619(10) 0.0081(7) 0.0078(8) 0.0042(8)
C6 0.0596(10) 0.0627(10) 0.0684(10) 0.0125(8) 0.0145(8) 0.0029(8)
C7 0.0881(13) 0.0647(10) 0.0569(10) 0.0186(8) 0.0168(9) 0.0191(9)
C8 0.0648(10) 0.0546(9) 0.0760(11) 0.0209(8) 0.0154(8) 0.0079(8)
C9 0.0679(11) 0.0618(10) 0.0732(11) 0.0254(8) 0.0222(9) 0.0119(8)
C10 0.0640(10) 0.0676(10) 0.0742(11) 0.0223(8) 0.0214(9) 0.0112(8)
C11 0.0867(12) 0.0542(9) 0.0679(11) 0.0162(8) 0.0196(9) 0.0145(8)
C12 0.0770(12) 0.0621(10) 0.0639(10) 0.0124(8) 0.0021(9) 0.0059(9)
C13 0.0609(10) 0.0718(10) 0.0651(10) 0.0156(8) 0.0069(8) 0.0051(8)
C14 0.0847(12) 0.0549(9) 0.0656(11) 0.0168(8) 0.0190(9) 0.0157(8)
C15 0.0794(12) 0.0906(13) 0.0728(11) 0.0279(9) 0.0305(9) 0.0213(10)
C16 0.1185(18) 0.154(2) 0.0724(13) 0.0418(13) 0.0359(12) 0.0427(16)
loop_
_atom_type_symbol
_atom_type_description
_atom_type_scat_dispersion_real
_atom_type_scat_dispersion_imag
_atom_type_scat_source
C C 0.0033 0.0016 'International Tables Vol C Tables 4.2.6.8 and 6.1.1.4'
H H 0.0000 0.0000 'International Tables Vol C Tables 4.2.6.8 and 6.1.1.4'
F F 0.0171 0.0103 'International Tables Vol C Tables 4.2.6.8 and 6.1.1.4'
O O 0.0106 0.0060 'International Tables Vol C Tables 4.2.6.8 and 6.1.1.4'
loop_
_geom_angle_atom_site_label_1
_geom_angle_atom_site_label_2
_geom_angle_atom_site_label_3
_geom_angle
C4 O1 C15 118.99(14)
C2 C1 C8 116.05(15)
C2 C1 C14 122.18(16)
C8 C1 C14 121.77(15)
F2 C2 C9 119.09(15)
F2 C2 C1 119.12(15)
C9 C2 C1 121.79(16)
C5 C3 C10 118.20(15)
C5 C3 C11 121.07(16)
C10 C3 C11 120.72(16)
O1 C4 C6 125.16(15)
O1 C4 C13 115.12(15)
C6 C4 C13 119.72(15)
C6 C5 C3 121.10(16)
C6 C5 H5 119.5
C3 C5 H5 119.5
C4 C6 C5 119.77(15)
C4 C6 H6 120.1
C5 C6 H6 120.1
F3 C7 C12 120.33(17)
F3 C7 C9 120.10(16)
C12 C7 C9 119.56(15)
F1 C8 C12 118.49(16)
F1 C8 C1 119.07(15)
C12 C8 C1 122.44(16)
F4 C9 C7 119.36(15)
F4 C9 C2 120.22(16)
C7 C9 C2 120.41(16)
C13 C10 C3 121.13(16)
C13 C10 H10 119.4
C3 C10 H10 119.4
C14 C11 C3 178.7(2)
F5 C12 C7 120.03(16)
F5 C12 C8 120.24(17)
C7 C12 C8 119.73(16)
C10 C13 C4 120.08(16)
C10 C13 H13 120.0
C4 C13 H13 120.0
C11 C14 C1 179.13(19)
O1 C15 C16 106.86(17)
O1 C15 H15 110.4
C16 C15 H15 110.4
O1 C15 H15A 110.4
C16 C15 H15A 110.4
H15 C15 H15A 108.6
C15 C16 H16 109.5
C15 C16 H16A 109.5
H16 C16 H16A 109.5
C15 C16 H16B 109.5
H16 C16 H16B 109.5
H16A C16 H16B 109.5
loop_
_geom_bond_atom_site_label_1
_geom_bond_atom_site_label_2
_geom_bond_distance
F1 C8 1.3389(19)
F2 C2 1.3328(19)
F3 C7 1.3365(18)
F4 C9 1.3392(19)
F5 C12 1.340(2)
O1 C4 1.3620(19)
O1 C15 1.427(2)
C1 C2 1.390(2)
C1 C8 1.390(2)
C1 C14 1.415(2)
C2 C9 1.370(2)
C3 C5 1.385(2)
C3 C10 1.387(2)
C3 C11 1.431(2)
C4 C6 1.376(2)
C4 C13 1.386(2)
C5 C6 1.383(2)
C5 H5 0.9300
C6 H6 0.9300
C7 C12 1.368(3)
C7 C9 1.369(2)
C8 C12 1.370(2)
C10 C13 1.370(2)
C10 H10 0.9300
C11 C14 1.197(2)
C13 H13 0.9300
C15 C16 1.499(3)
C15 H15 0.9700
C15 H15A 0.9700
C16 H16 0.9600
C16 H16A 0.9600
C16 H16B 0.9600
loop_
_geom_torsion_atom_site_label_1
_geom_torsion_atom_site_label_2
_geom_torsion_atom_site_label_3
_geom_torsion_atom_site_label_4
_geom_torsion
C8 C1 C2 F2 -179.35(13)
C14 C1 C2 F2 1.1(2)
C8 C1 C2 C9 0.9(2)
C14 C1 C2 C9 -178.66(14)
C15 O1 C4 C6 1.8(2)
C15 O1 C4 C13 -178.55(15)
C10 C3 C5 C6 -0.5(2)
C11 C3 C5 C6 179.28(14)
O1 C4 C6 C5 -179.45(14)
C13 C4 C6 C5 0.9(2)
C3 C5 C6 C4 -0.2(2)
C2 C1 C8 F1 179.84(13)
C14 C1 C8 F1 -0.6(2)
C2 C1 C8 C12 -0.2(2)
C14 C1 C8 C12 179.36(15)
F3 C7 C9 F4 0.9(2)
C12 C7 C9 F4 -179.68(14)
F3 C7 C9 C2 -179.88(14)
C12 C7 C9 C2 -0.5(3)
F2 C2 C9 F4 -1.1(2)
C1 C2 C9 F4 178.60(14)
F2 C2 C9 C7 179.69(14)
C1 C2 C9 C7 -0.6(2)
C5 C3 C10 C13 0.7(2)
C11 C3 C10 C13 -179.18(15)
F3 C7 C12 F5 0.6(3)
C9 C7 C12 F5 -178.73(15)
F3 C7 C12 C8 -179.44(14)
C9 C7 C12 C8 1.2(3)
F1 C8 C12 F5 -1.0(2)
C1 C8 C12 F5 179.08(14)
F1 C8 C12 C7 179.12(14)
C1 C8 C12 C7 -0.8(3)
C3 C10 C13 C4 0.0(3)
O1 C4 C13 C10 179.52(14)
C6 C4 C13 C10 -0.8(2)
C4 O1 C15 C16 175.91(15)
