#------------------------------------------------------------------------------
#$Date: 2019-11-10 06:56:23 +0200 (Sun, 10 Nov 2019) $
#$Revision: 225766 $
#$URL: file:///home/coder/svn-repositories/cod/cif/4/51/56/4515622.cif $
#------------------------------------------------------------------------------
#
# This file is available in the Crystallography Open Database (COD),
# http://www.crystallography.net/
#
# All data on this site have been placed in the public domain by the
# contributors.
#
data_4515622
loop_
_publ_author_name
'Xiong, Xiaodong'
'Yeung, Ying-Yeung'
_publ_section_title
;
 Ammonium Salt-Catalyzed Highly Practical Ortho-Selective Monohalogenation
 and Phenylselenation of Phenols: Scope and Applications
;
_journal_issue                   5
_journal_name_full               'ACS Catalysis'
_journal_page_first              4033
_journal_paper_doi               10.1021/acscatal.8b00327
_journal_volume                  8
_journal_year                    2018
_chemical_formula_sum            'C6 H4 Br Cl O'
_chemical_formula_weight         207.45
_space_group_crystal_system      orthorhombic
_space_group_IT_number           19
_space_group_name_Hall           'P 2ac 2ab'
_space_group_name_H-M_alt        'P 21 21 21'
_atom_sites_solution_hydrogens   geom
_audit_creation_method           SHELXL-2014/6
_cell_angle_alpha                90
_cell_angle_beta                 90
_cell_angle_gamma                90
_cell_formula_units_Z            4
_cell_length_a                   5.2204(12)
_cell_length_b                   11.214(3)
_cell_length_c                   11.717(3)
_cell_measurement_reflns_used    143
_cell_measurement_temperature    296(2)
_cell_measurement_theta_max      15
_cell_measurement_theta_min      15
_cell_volume                     685.9(3)
_computing_cell_refinement       'BRUKER KAPPA APEXII DUO DIFFRACTOMETER'
_computing_data_collection       'BRUKER KAPPA APEXII DUO DIFFRACTOMETER'
_computing_data_reduction        'BRUKER KAPPA APEXII DUO DIFFRACTOMETER'
_computing_molecular_graphics    'BRUKER SHELXTL'
_computing_publication_material  'BRUKER SHELXTL'
_computing_structure_refinement  'SHELXL-2014/6 (Sheldrick, 2014)'
_diffrn_ambient_temperature      296(2)
_diffrn_measured_fraction_theta_full 1.000
_diffrn_measured_fraction_theta_max 1.000
_diffrn_measurement_device_type  'BRUKER KAPPA APEXII DUO DIFFRACTOMETER'
_diffrn_measurement_method       'PHI & OMEGA SCAN'
_diffrn_radiation_type           MoK\a
_diffrn_radiation_wavelength     0.71073
_diffrn_reflns_av_R_equivalents  0.0498
_diffrn_reflns_av_unetI/netI     0.0426
_diffrn_reflns_Laue_measured_fraction_full 1.000
_diffrn_reflns_Laue_measured_fraction_max 1.000
_diffrn_reflns_limit_h_max       6
_diffrn_reflns_limit_h_min       -6
_diffrn_reflns_limit_k_max       13
_diffrn_reflns_limit_k_min       -12
_diffrn_reflns_limit_l_max       13
_diffrn_reflns_limit_l_min       -14
_diffrn_reflns_number            5837
_diffrn_reflns_point_group_measured_fraction_full 0.999
_diffrn_reflns_point_group_measured_fraction_max 0.999
_diffrn_reflns_theta_full        25.242
_diffrn_reflns_theta_max         25.247
_diffrn_reflns_theta_min         2.514
_exptl_absorpt_coefficient_mu    6.288
_exptl_absorpt_correction_T_max  0.7456
_exptl_absorpt_correction_T_min  0.5098
_exptl_absorpt_correction_type   multi-scan
_exptl_crystal_colour            colourless
_exptl_crystal_density_diffrn    2.009
_exptl_crystal_description       block
_exptl_crystal_F_000             400
_exptl_crystal_size_max          0.400
_exptl_crystal_size_mid          0.300
_exptl_crystal_size_min          0.200
_refine_diff_density_max         1.247
_refine_diff_density_min         -0.902
_refine_diff_density_rms         0.202
_refine_ls_abs_structure_details
;
 Flack x determined using 394 quotients [(I+)-(I-)]/[(I+)+(I-)]
 (Parsons, Flack and Wagner, Acta Cryst. B69 (2013) 249-259).
;
_refine_ls_abs_structure_Flack   0.149(10)
_refine_ls_extinction_method     none
_refine_ls_goodness_of_fit_ref   1.149
_refine_ls_hydrogen_treatment    constr
_refine_ls_matrix_type           full
_refine_ls_number_parameters     82
_refine_ls_number_reflns         1239
_refine_ls_number_restraints     0
_refine_ls_restrained_S_all      1.149
_refine_ls_R_factor_all          0.0641
_refine_ls_R_factor_gt           0.0545
_refine_ls_shift/su_max          0.001
_refine_ls_shift/su_mean         0.000
_refine_ls_structure_factor_coef Fsqd
_refine_ls_weighting_details
'w=1/[\s^2^(Fo^2^)+(0.1101P)^2^+1.7595P] where P=(Fo^2^+2Fc^2^)/3'
_refine_ls_weighting_scheme      calc
_refine_ls_wR_factor_gt          0.1707
_refine_ls_wR_factor_ref         0.1833
_reflns_Friedel_coverage         0.641
_reflns_Friedel_fraction_full    0.998
_reflns_Friedel_fraction_max     0.998
_reflns_number_gt                1081
_reflns_number_total             1239
_reflns_threshold_expression     'I > 2\s(I)'
_cod_data_source_file            cs8b00327_si_005.cif
_cod_data_source_block           XXD226
_cod_database_code               4515622
_shelx_space_group_comment
;
The symmetry employed for this shelxl refinement is uniquely defined
by the following loop, which should always be used as a source of
symmetry information in preference to the above space-group names.
They are only intended as comments.
;
_shelx_estimated_absorpt_t_min   0.188
_shelx_estimated_absorpt_t_max   0.366
_shelxl_version_number           2014/6
_shelx_res_file
;
TITL P in P2(1)2(1)2(1)
CELL 0.71073   5.22040  11.21380  11.71670  90.0000  90.0000  90.0000
ZERR    4.00   0.00120   0.00280   0.00280   0.0000   0.0000   0.0000
LATT -1
SYMM 0.5-X, -Y, 0.5+Z
SYMM -X, 0.5+Y, 0.5-Z
SYMM 0.5+X, 0.5-Y, -Z
SFAC C  H  O  Cl Br
UNIT 24 16 4 4 4
REM C6 H4 Br Cl O
REM APEXII BLOCK COLOURLESS
OMIT -3 50.5
SIZE 0.40 0.30 0.20
L.S. 4
ACTA
FMAP 2
PLAN 20
TEMP 23.000

WGHT    0.110100    1.759500
FVAR       0.23480
O1    3    0.528497    0.677694    0.475245    11.00000    0.05132    0.04009 =
         0.06995   -0.01286    0.02288   -0.00428
AFIX  83
H1A   2    0.671088    0.707062    0.483713    11.00000   -1.50000
AFIX   0
BR1   5    0.154845    0.512782    0.580452    11.00000    0.05007    0.06306 =
         0.05877    0.00374    0.00589    0.00412
CL1   4    0.927799    0.654622    0.290120    11.00000    0.04036    0.02908 =
         0.05263    0.00170    0.01404   -0.00503
C1    1    0.551721    0.567545    0.427977    11.00000    0.03530    0.02333 =
         0.04143   -0.00539   -0.00505    0.00458
C2    1    0.392071    0.479188    0.465414    11.00000    0.03992    0.05292 =
         0.03407    0.00315   -0.00138    0.01212
C3    1    0.409328    0.363654    0.422654    11.00000    0.05403    0.02458 =
         0.06922    0.00056   -0.00016    0.00129
AFIX  43
H3A   2    0.306335    0.303267    0.451879    11.00000   -1.20000
AFIX   0
C4    1    0.581117    0.340189    0.336486    11.00000    0.05597    0.04195 =
         0.06861   -0.01023   -0.01480    0.01152
AFIX  43
H4A   2    0.585614    0.264493    0.304117    11.00000   -1.20000
AFIX   0
C5    1    0.747098    0.426901    0.297101    11.00000    0.05062    0.03708 =
         0.04934   -0.00147   -0.00106    0.00046
AFIX  43
H5A   2    0.870119    0.409072    0.242287    11.00000   -1.20000
AFIX   0
C6    1    0.725648    0.541439    0.341438    11.00000    0.04067    0.03240 =
         0.03826    0.00187   -0.00268    0.00838

HKLF 4

REM  P in P2(1)2(1)2(1)
REM R1 =  0.0545 for    1081 Fo > 4sig(Fo)  and  0.0641 for all    1239 data
REM     82 parameters refined using      0 restraints

END

WGHT      0.1118      1.7248

REM Highest difference peak  1.247,  deepest hole -0.902,  1-sigma level  0.202
Q1    1   0.9008  0.6693  0.3159  11.00000  0.05    1.25
Q2    1   0.8601  0.6639  0.2590  11.00000  0.05    1.24
Q3    1   0.0250  0.2218  0.4222  11.00000  0.05    0.49
Q4    1   0.6309  0.3215  0.3443  11.00000  0.05    0.47
Q5    1   0.9227  0.6811  0.5357  11.00000  0.05    0.43
Q6    1   0.8774  0.7410  0.3871  11.00000  0.05    0.40
Q7    1   0.3755  0.1937  0.2334  11.00000  0.05    0.39
Q8    1   0.6090  0.1902  0.1927  11.00000  0.05    0.38
Q9    1   1.0235  0.6655  0.4147  11.00000  0.05    0.38
Q10   1   0.3552  0.2192  0.5455  11.00000  0.05    0.38
Q11   1   0.8974  0.6959  0.1537  11.00000  0.05    0.36
Q12   1   0.7091  0.1419  0.2111  11.00000  0.05    0.36
Q13   1   0.5999  0.7035  0.4354  11.00000  0.05    0.36
Q14   1   0.9237  0.6734  0.6105  11.00000  0.05    0.35
Q15   1   0.3454  0.2199  0.3022  11.00000  0.05    0.35
Q16   1   0.8375  0.7393  0.4531  11.00000  0.05    0.34
Q17   1   0.8794  0.2992  0.2262  11.00000  0.05    0.34
Q18   1   0.0338  0.3085  0.3812  11.00000  0.05    0.33
Q19   1   0.3290  0.3248  0.3973  11.00000  0.05    0.32
Q20   1   0.4313  0.1873  0.3135  11.00000  0.05    0.31
;
_shelx_res_checksum              86297
_shelx_hkl_file
;
   1   0   0   -0.16    0.25
   1   0   0   -0.11    0.20
  -1   0   0    0.18    0.27
   2   0   0   12.62    1.23
   2   0   0   11.59    1.04
  -2   0   0   11.29    1.22
   3   0   0   -0.13    0.62
   3   0   0    0.19    0.52
  -3   0   0   -0.27    0.70
   4   0   0   73.54    5.08
  -4   0   0   75.08    5.36
   5   0   0    0.31    1.04
   6   0   0    0.25    1.25
   0   1   0   -0.05    0.06
   0  -1   0   -0.19    0.06
   0  -1   0    0.08    0.13
   0   1   0    0.11    0.08
   0  -1   0    0.31    0.09
   0   1   0    0.15    0.13
  -1   1   0  110.86    7.03
  -1   1   0  117.93    6.85
  -1  -1   0  107.46    6.85
   1  -1   0  112.37    6.94
  -1  -1   0  101.15    6.95
   1   1   0  105.73    6.92
   1   1   0  108.35    6.97
  -1  -1   0  122.22    6.85
   2   1   0   10.25    1.12
   2   1   0   11.54    0.79
   2  -1   0   10.69    1.00
   2   1   0   11.21    1.00
  -2  -1   0   10.80    1.15
  -2   1   0    9.36    0.70
  -2   1   0   11.85    1.28
  -2  -1   0   10.87    0.70
  -2  -1   0   10.80    0.71
  -3   1   0    3.44    0.90
   3   1   0    4.61    0.94
   3  -1   0    5.06    0.88
   3   1   0    3.99    0.81
  -3  -1   0    3.57    0.90
   4  -1   0   16.11    1.72
  -4  -1   0   14.65    1.84
  -4   1   0   14.23    1.88
   4   1   0   14.68    1.80
   4   1   0   13.92    1.60
   5   1   0  124.32    7.89
   5  -1   0  110.02    7.86
   6   1   0   -0.74    1.34
   6  -1   0    1.02    1.49
   0  -2   0  246.09   15.28
   1  -2   0  231.29   13.69
  -1   2   0  207.52   13.63
  -1   2   0  222.87   13.62
   1   2   0  242.01   13.76
  -1  -2   0  210.48   13.61
  -1  -2   0  211.81   13.62
  -1  -2   0  220.54   13.74
   1   2   0  230.06   13.66
  -1   2   0  227.26   13.62
   1   2   0  205.08   13.61
  -2   2   0  229.51   14.06
   2   2   0  244.19   14.10
  -2  -2   0  233.48   14.28
  -2  -2   0  220.82   14.05
   2   2   0  238.37   14.29
   2  -2   0  241.60   14.23
   2   2   0  226.28   14.21
  -2  -2   0  222.91   14.05
  -2   2   0  215.77   14.38
  -2   2   0  208.44   14.05
   3  -2   0   12.13    1.33
   3   2   0   17.14    1.48
  -3   2   0   14.05    0.99
   3   2   0   14.19    1.02
  -3   2   0   12.62    1.63
   3   2   0   13.65    1.52
  -3  -2   0   14.97    0.99
  -3  -2   0   13.31    1.49
  -3  -2   0   12.67    1.00
   4  -2   0   39.61    3.19
  -4   2   0   44.65    2.75
  -4  -2   0   46.10    2.75
  -4  -2   0   42.84    3.40
   4   2   0   43.03    3.28
  -4   2   0   43.92    4.08
  -4   2   0   41.35    2.75
  -4  -2   0   42.79    2.76
   4   2   0   40.23    3.42
   5  -2   0   10.00    1.57
  -5   2   0   10.09    0.81
  -5   2   0    9.84    0.82
  -5  -2   0   10.63    0.83
   5   2   0    8.17    1.51
  -5  -2   0    9.80    0.81
   5   2   0   10.92    1.72
   6  -2   0    9.90    1.92
   0   3   0    0.08    0.52
   0  -3   0   -0.71    0.27
   0   3   0   -0.49    0.26
   0   3   0   -1.05    0.31
   0   3   0   -0.48    0.32
   0  -3   0   -0.47    0.32
   1   3   0  563.95   35.32
  -1   3   0  574.96   35.31
  -1   3   0  571.98   35.27
   1   3   0  589.70   35.47
  -1  -3   0  604.98   35.46
   1   3   0  522.66   35.26
  -1  -3   0  558.81   35.26
  -1  -3   0  625.11   35.28
  -1   3   0  551.52   35.27
  -2   3   0   43.49    2.83
  -2   3   0   43.06    2.84
   2  -3   0   43.93    2.99
   2   3   0   47.96    3.11
  -2  -3   0   47.21    2.84
   2   3   0   41.38    2.88
  -2  -3   0   42.55    2.84
  -2  -3   0   42.41    3.08
  -2   3   0   44.75    2.86
   3  -3   0  222.50   13.44
  -3   3   0  233.72   13.77
  -3  -3   0  212.48   13.18
  -3   3   0  209.93   13.16
   3   3   0  216.39   13.22
  -3   3   0  202.17   13.16
  -3   3   0  212.91   13.18
   3   3   0  212.28   13.53
  -3  -3   0  205.12   13.16
  -3  -3   0  205.83   13.50
  -4  -3   0    3.63    0.50
  -4  -3   0    2.70    1.09
  -4   3   0    2.68    0.48
   4  -3   0    3.57    1.06
  -4  -3   0    2.80    0.46
  -4   3   0    3.68    0.49
   4   3   0    3.86    1.14
  -5  -3   0   16.30    1.22
  -5  -3   0   13.90    1.20
  -5   3   0   15.17    1.23
   5  -3   0   18.61    2.00
  -5   3   0   15.96    1.20
   6  -3   0   -0.80    1.46
  -6  -3   0   -0.15    0.38
  -6   3   0    0.56    0.43
  -6   3   0   -0.09    0.37
   0  -4   0   58.26    3.83
   0   4   0   58.04    3.86
   0   4   0   58.18    3.91
   0   4   0   66.05    4.14
   1   4   0   23.06    1.90
  -1  -4   0   22.68    1.52
  -1   4   0   20.32    1.56
  -1   4   0   23.57    1.55
  -1  -4   0   19.62    1.81
   1   4   0   20.25    1.52
  -1  -4   0   22.32    1.51
  -1   4   0   19.45    1.51
   1   4   0   22.27    1.57
   2   4   0  171.14   10.58
  -2  -4   0  167.27   10.76
  -2  -4   0  180.79   10.52
  -2   4   0  165.57   10.55
  -2   4   0  176.24   10.52
  -2   4   0  161.17   10.52
   2  -4   0  177.83   10.67
  -2  -4   0  153.26   10.51
   3  -4   0   10.95    1.31
  -3  -4   0   13.87    1.56
  -3  -4   0   12.08    1.06
  -3   4   0   12.02    1.70
   3   4   0   11.66    1.13
  -3   4   0   12.63    1.08
  -3   4   0   13.18    1.05
   3   4   0   11.52    1.47
  -3   4   0   13.21    1.10
  -3  -4   0   14.88    1.11
   4   4   0   32.41    2.72
  -4   4   0   31.05    2.16
  -4   4   0   29.79    2.12
   4  -4   0   30.70    2.56
  -4  -4   0   34.54    2.84
  -4  -4   0   27.62    2.12
  -4  -4   0   32.32    2.16
  -5  -4   0    5.29    0.66
  -5  -4   0    4.13    0.63
  -5   4   0    4.43    0.61
  -5   4   0    4.01    0.67
   5  -4   0    3.79    1.33
  -6   4   0   17.92    1.47
   6  -4   0   14.39    2.34
   0  -5   0   -0.43    0.36
   0   5   0   -0.16    0.56
   0   5   0    0.11    0.43
   0   5   0    0.58    0.43
   1   5   0  192.58   11.50
  -1  -5   0  181.05   11.49
   1   5   0  182.16   11.57
  -1   5   0  187.88   11.56
  -1   5   0  172.72   11.50
  -1  -5   0  184.46   11.76
  -1  -5   0  187.49   11.50
  -1   5   0  187.34   11.49
   2   5   0  178.21   11.90
   2   5   0  194.79   11.69
   2  -5   0  168.95   11.72
  -2  -5   0  198.69   11.62
  -2   5   0  202.42   11.61
  -2   5   0  181.49   11.62
  -2  -5   0  190.35   11.93
  -2  -5   0  169.24   11.59
  -2   5   0  190.50   11.66
  -3  -5   0    0.77    0.50
   3   5   0    1.00    0.84
  -3   5   0    0.52    0.51
   3   5   0    0.58    0.58
  -3   5   0    0.98    0.47
  -3  -5   0    1.24    0.89
  -3   5   0    0.69    0.49
   3  -5   0    0.93    0.70
  -3  -5   0    0.60    0.47
   4   5   0    2.54    1.04
  -4  -5   0    2.32    0.59
  -4  -5   0    2.09    0.56
  -4   5   0    2.46    0.56
   4  -5   0    3.63    1.08
  -4  -5   0    1.76    1.05
  -4   5   0    2.44    0.62
  -5   5   0   25.67    1.96
  -5  -5   0   24.60    1.91
   5  -5   0   25.47    2.71
   6  -5   0    2.37    1.70
  -6   5   0    1.01    0.67
   0   6   0  666.33   42.53
   0   6   0  757.44   42.97
   0   6   0  682.10   42.60
   0  -6   0  656.35   42.50
   1   6   0   13.18    1.26
  -1  -6   0   15.76    1.29
  -1   6   0   14.54    1.82
   1   6   0   14.45    1.39
  -1  -6   0   15.75    1.25
   1   6   0   13.26    1.77
  -1   6   0   15.98    1.27
  -1   6   0   14.72    1.31
  -1  -6   0   14.06    1.59
  -1   6   0   13.87    1.28
  -2  -6   0   13.54    1.30
  -2   6   0   14.88    1.38
   2  -6   0   15.14    1.54
   2   6   0   15.31    1.84
  -2  -6   0   13.07    1.68
  -2  -6   0   12.87    1.22
  -2   6   0   15.96    1.30
   2   6   0   12.59    1.38
  -2   6   0   13.84    1.31
  -3  -6   0   33.12    2.46
  -3   6   0   37.32    2.52
  -3   6   0   34.75    2.51
   3   6   0   34.07    2.59
  -3   6   0   33.01    2.55
   3  -6   0   36.68    2.78
   3   6   0   32.69    2.92
  -3  -6   0   35.88    2.94
  -4   6   0   40.69    3.07
  -4  -6   0   46.78    3.05
   4  -6   0   44.55    3.41
  -5   6   0    0.38    0.68
   5  -6   0    0.94    1.22
  -5  -6   0   -0.32    0.61
  -6   6   0    1.73    0.81
   6  -6   0    3.02    1.81
   0   7   0    1.37    0.73
   0  -7   0    0.01    0.53
   0   7   0    0.38    0.81
   0   7   0   -0.41    0.55
   1   7   0   81.08    6.03
   1   7   0   88.28    5.64
  -1   7   0   87.74    5.63
  -1   7   0   85.69    5.57
  -1  -7   0   81.90    5.51
   1   7   0   78.87    5.51
  -1   7   0   94.25    6.14
  -2  -7   0   13.45    1.83
  -2   7   0   16.94    1.57
  -2   7   0   15.94    1.52
   2   7   0   16.79    2.11
  -2  -7   0   16.81    1.55
   2   7   0   17.54    1.68
   3   7   0    2.65    1.07
   3  -7   0    1.88    0.94
   3   7   0    2.61    0.83
  -3   7   0    3.14    0.78
  -3  -7   0    2.76    0.73
  -3   7   0    2.62    0.77
  -3  -7   0    4.03    1.26
   4   7   0   17.78    1.74
   4  -7   0   16.54    2.02
  -4   7   0   17.26    1.70
  -4  -7   0   17.30    1.60
  -5   7   0   15.26    1.53
   5  -7   0   15.66    2.25
   6  -7   0    1.14    1.88
  -6   7   0    0.51    0.85
   0   8   0   26.70    2.72
   0   8   0   29.32    2.22
   0   8   0   27.92    2.32
  -1   8   0  113.41    8.02
  -1   8   0  112.33    7.60
  -1   8   0  118.96    7.53
   1   8   0  122.88    7.64
   1   8   0  114.77    8.08
  -2  -8   0    4.06    0.88
  -2   8   0    4.11    0.91
  -2  -8   0    3.09    1.22
  -2   8   0    5.24    1.02
   2   8   0    4.36    1.04
   2   8   0    3.69    1.33
  -3  -8   0   13.36    1.42
   3  -8   0   14.92    1.75
   3   8   0   12.95    1.93
  -3   8   0   15.64    1.58
   3   8   0   16.27    1.76
  -3   8   0   16.21    1.55
   4   8   0   24.93    2.26
  -4   8   0   25.57    2.27
   4  -8   0   23.72    2.59
  -4  -8   0   23.14    2.09
  -5   8   0    3.88    1.10
   5  -8   0    6.17    1.82
   0   9   0   -1.14    0.73
   0   9   0    1.18    1.24
   0   9   0    0.17    0.88
  -1   9   0   79.75    6.51
  -1   9   0   95.68    6.18
  -1  -9   0   95.69    6.00
   1   9   0   84.88    6.12
   1   9   0   94.73    6.75
  -1   9   0   97.09    6.08
  -2  -9   0   10.92    1.23
  -2   9   0    8.33    1.19
   2   9   0   10.44    1.40
  -2   9   0    9.59    1.37
   2   9   0    4.70    1.60
  -3  -9   0   26.45    2.23
   3  -9   0   24.42    2.54
  -3   9   0   28.82    2.37
  -3   9   0   27.53    2.35
   3   9   0   25.09    2.44
  -4   9   0   19.82    1.87
   4  -9   0   17.06    2.21
  -4  -9   0   15.05    1.67
   4   9   0   19.35    2.02
  -5   9   0   -0.66    1.00
   5  -9   0    0.24    1.55
   0  10   0    3.09    1.04
   1  10   0   21.52    2.24
   1  10   0   20.41    2.64
  -1  10   0   18.43    1.98
  -1  10   0   18.91    1.93
  -2  10   0    9.69    1.51
   2  10   0    7.33    1.82
   2  10   0   12.78    1.66
  -2  10   0    9.56    1.33
  -2 -10   0   13.08    1.39
   3 -10   0    6.26    1.50
  -3  10   0    6.20    1.24
  -3 -10   0    4.53    1.03
   3  10   0    7.32    1.49
  -3  10   0    4.94    1.13
   4  10   0    2.65    1.21
   4 -10   0    2.23    1.51
  -4  10   0    2.39    1.17
  -5  10   0    1.62    1.16
   5 -10   0    0.74    1.75
   0  11   0    0.59    1.21
  -1  11   0    8.65    1.56
   1  11   0    6.53    1.46
  -2  11   0   41.62    3.48
  -2  11   0   43.71    3.48
   2  11   0   43.49    3.72
   3  11   0   -0.17    1.37
  -3  11   0   -0.46    1.02
   3 -11   0   -1.08    1.28
  -3  11   0    0.36    1.06
  -4  11   0    1.21    1.17
   4 -11   0    0.04    1.55
   4  11   0   -1.60    1.35
   0  12   0   24.72    2.84
   1  12   0    0.26    1.54
  -1  12   0   -0.10    1.32
   2  12   0    1.63    1.73
  -2  12   0    2.04    1.40
   3  12   0    7.16    1.92
   3 -12   0    8.12    1.90
  -3  12   0    9.20    1.63
   4 -12   0    1.42    1.73
   0  13   0   -1.97    1.54
  -1  13   0   -1.21    1.43
   1  13   0    0.45    1.78
  -2  13   0    2.26    1.62
   2  13   0    3.11    2.00
   3  13   0    5.42    2.00
  -3  13   0    2.56    1.45
   3 -13   0    3.36    1.77
   0  14   0    5.48    2.08
  -1  14   0   10.72    2.19
   1  14   0   11.34    2.57
  -2  14   0   -0.06    1.47
   2  14   0   -0.54    2.12
   0   0   1   -0.09    0.04
   0   0   1   -0.17    0.05
   0   0  -1    0.06    0.06
   0   0  -1   -0.09    0.06
   1   0   1   10.00    0.72
  -1   0   1    8.70    0.60
  -1   0  -1    9.21    0.61
  -1   0   1    9.05    0.74
   1   0   1    8.54    0.83
  -1   0  -1   10.10    0.90
   1   0  -1    9.88    0.73
  -1   0  -1    9.05    0.62
  -2   0   1  223.33   14.42
  -2   0  -1  229.50   14.16
  -2   0  -1  237.47   14.52
   2   0   1  225.30   14.36
   2   0  -1  234.56   14.36
  -2   0  -1  233.18   14.16
  -3   0  -1   86.57    5.97
   3   0  -1   86.94    5.76
   3   0   1   91.70    6.02
  -3   0   1   84.70    5.88
   3   0   1   91.36    5.78
   4   0   1   40.27    3.18
   4   0   1   45.04    3.52
  -4   0   1   42.27    3.37
   4   0  -1   37.72    3.17
  -4   0  -1   43.85    3.58
   5   0  -1    3.54    1.23
   5   0   1    5.63    1.28
   6   0  -1    1.61    1.44
   6   0   1    2.02    1.47
   0   1  -1   58.35    3.60
   0   1  -1   58.51    3.59
   0  -1  -1   55.02    3.57
   0   1   1   57.42    3.58
   0   1   1   57.06    3.56
   0  -1  -1   61.33    3.57
   0  -1   1   56.79    3.57
   0   1   1   60.63    3.57
   0   1  -1   50.66    3.56
   0  -1  -1   53.98    3.69
   1  -1  -1   20.93    1.47
   1  -1  -1   23.24    1.43
  -1  -1   1   21.62    1.40
  -1   1  -1   20.79    1.63
  -1  -1   1   21.12    1.45
   1   1   1   22.96    1.60
   1   1   1   23.21    1.43
  -1   1  -1   21.47    1.41
  -1   1  -1   21.66    1.40
   1   1   1   21.18    1.48
  -2   1   1  202.45   12.64
   2   1  -1  213.36   12.67
  -2  -1  -1  215.09   12.63
   2  -1   1  203.55   12.81
   2   1  -1  198.85   12.81
  -2   1   1  203.18   12.63
   2   1  -1  213.16   12.85
  -2  -1  -1  217.85   12.97
  -2  -1  -1  219.54   12.64
  -2   1   1  235.42   12.97
  -2  -1   1  207.84   12.85
  -2   1  -1  191.10   12.63
   2  -1  -1  193.17   12.80
   2   1   1  196.60   12.66
  -2  -1   1  186.37   12.63
  -2  -1   1  193.99   12.63
  -2   1  -1  194.40   12.98
   2   1   1  212.34   12.82
  -3   1   1  206.32   12.53
  -3  -1  -1  191.98   13.00
  -3   1   1  197.21   13.00
  -3  -1  -1  203.11   12.53
  -3  -1  -1  193.94   12.54
  -3   1   1  191.10   12.53
   3  -1   1  207.52   13.07
   3   1  -1  208.10   12.84
   3   1  -1  178.35   12.54
   3  -1   1  205.81   12.84
  -3  -1   1  209.51   12.93
  -3   1  -1  203.55   13.08
   3  -1  -1  219.46   12.84
   3   1   1  206.27   12.84
   3   1   1  215.70   13.05
  -3   1  -1  211.14   12.54
  -3  -1   1  219.24   12.53
  -4  -1  -1    1.78    0.30
  -4   1   1    1.24    0.28
  -4   1   1    0.93    1.03
   4   1  -1    1.24    0.93
  -4   1   1    1.56    0.27
  -4  -1  -1    1.41    0.28
   4  -1   1    1.50    0.84
  -4  -1  -1    1.20    1.14
   4   1   1    2.87    0.96
  -4   1  -1    1.64    1.13
  -4   1  -1    2.93    0.31
  -4  -1   1    3.99    1.09
   4   1   1    3.08    1.08
   4  -1  -1    3.36    0.96
   5  -1   1    5.45    1.33
  -5  -1  -1    4.80    0.46
   5   1  -1    3.30    1.18
   5   1   1    4.28    1.25
   5  -1  -1    4.67    1.28
  -5   1  -1    4.51    0.42
   6  -1   1    2.63    1.37
   6   1   1    1.21    1.33
   6  -1  -1    1.83    1.48
   0   2   1   46.40    3.14
   0   2  -1   50.69    3.19
   0   2   1   49.84    3.18
   0   2   1   49.96    3.36
   0  -2  -1   49.56    3.34
   0   2   1   47.14    3.15
   0  -2  -1   53.52    3.15
   0   2  -1   49.26    3.15
  -1  -2  -1  132.91    7.76
  -1   2   1  137.28    7.79
   1   2  -1  125.48    7.79
  -1   2   1  129.48    7.76
  -1   2   1  136.88    7.77
   1   2  -1  140.81    7.81
  -1  -2  -1  139.43    7.77
  -1  -2  -1  141.36    7.96
   1   2  -1  122.36    7.74
  -1  -2   1  110.26    7.75
  -1   2  -1  114.66    7.96
   1  -2  -1  122.09    7.75
   1  -2  -1  115.64    7.79
   1   2   1  124.30    7.80
   1   2   1  112.08    7.75
  -1  -2   1  126.26    7.81
  -1   2  -1  109.84    7.75
  -1   2  -1  118.92    7.78
   1   2   1  119.48    7.93
  -2  -2  -1  293.54   16.39
   2  -2   1  243.89   16.53
   2   2  -1  277.04   16.42
  -2   2   1  266.25   16.37
  -2   2   1  272.43   16.39
   2   2  -1  271.24   16.54
  -2  -2  -1  301.44   16.70
  -2  -2  -1  279.93   16.38
  -2   2   1  281.18   16.39
  -2  -2   1  256.07   16.38
   2  -2  -1  265.76   16.52
  -2   2  -1  251.91   16.38
   2   2   1  264.89   16.52
  -2   2  -1  282.09   16.79
  -2  -2   1  238.27   16.51
  -2   2  -1  256.99   16.38
  -2  -2   1  239.01   16.37
   2   2   1  245.80   16.41
  -3  -2  -1   67.26    4.69
  -3   2   1   67.99    5.16
  -3  -2  -1   65.93    4.70
  -3   2   1   69.74    4.69
  -3  -2  -1   73.67    5.17
  -3   2   1   67.90    4.70
   3  -2   1   75.81    5.01
   3   2  -1   71.03    4.73
   3   2   1   83.91    4.74
  -3   2  -1   79.99    5.35
  -3  -2   1   85.02    5.07
  -3  -2   1   77.31    4.69
   3   2   1   84.09    5.20
  -3  -2   1   79.03    4.71
   3  -2  -1   76.06    5.01
   3   2   1   77.10    5.00
  -3   2  -1   80.58    4.71
  -4  -2  -1   39.07    2.54
  -4   2   1   42.26    3.40
  -4   2   1   39.09    2.52
  -4   2   1   35.75    2.52
  -4  -2  -1   37.77    2.52
   4  -2   1   35.91    3.06
  -4  -2  -1   40.20    3.33
   4   2  -1   40.98    3.15
   4   2   1   37.82    3.20
   4   2   1   40.59    3.01
  -4  -2   1   41.04    2.54
  -4  -2   1   40.06    3.12
   4  -2  -1   40.08    3.04
  -4   2  -1   39.48    2.53
  -5   2   1    6.78    0.69
   5  -2   1    6.01    1.27
  -5  -2  -1    7.19    0.65
  -5   2   1    7.06    0.67
  -5  -2  -1    6.87    0.68
  -5  -2   1    7.68    0.72
   5  -2  -1    7.12    1.43
   5   2   1    6.26    1.26
  -5   2  -1    6.90    0.63
  -6  -2  -1    2.11    0.42
   6  -2   1    1.20    1.35
   6   2   1    2.94    1.48
   6  -2  -1    1.34    1.34
  -6   2  -1    2.75    0.38
   0   3   1   23.78    1.98
   0   3   1   24.28    1.63
   0   3  -1   24.56    1.66
   0   3  -1   20.91    1.67
   0  -3  -1   27.04    1.93
   0  -3   1   24.45    1.75
   0   3   1   23.86    1.66
   0   3  -1   25.41    1.69
   0  -3  -1   21.79    1.72
   0   3   1   25.49    1.69
  -1   3   1  179.85   12.02
  -1   3   1  177.56   12.06
   1   3  -1  188.15   12.03
  -1   3   1  179.68   12.04
   1   3  -1  179.78   12.08
  -1  -3  -1  195.46   12.04
   1   3  -1  190.33   12.16
  -1  -3  -1  207.32   12.28
  -1  -3  -1  202.92   12.04
   1   3   1  201.72   12.32
   1  -3  -1  199.35   12.07
   1  -3  -1  181.21   12.02
  -1  -3   1  205.11   12.03
   1   3   1  203.29   12.04
  -1   3  -1  190.96   12.07
  -1   3  -1  199.53   12.05
   1   3   1  195.09   12.09
  -1  -3   1  215.09   12.05
  -1  -3   1  203.47   12.15
   2  -3   1    1.71    0.61
   2   3  -1    2.00    0.56
  -2  -3  -1    1.85    0.36
  -2  -3  -1    1.79    0.38
  -2   3   1    2.31    0.40
  -2  -3  -1    2.47    0.75
   2   3  -1    1.54    0.40
  -2   3   1    1.33    0.35
  -2   3   1    1.84    0.38
  -2  -3   1    3.17    0.41
  -2  -3   1    3.15    0.60
   2   3   1    4.02    0.50
  -2  -3   1    2.95    0.39
  -2   3  -1    3.90    0.45
  -2   3  -1    2.76    0.42
  -2   3  -1    4.11    0.87
   2  -3  -1    4.21    0.62
  -3   3   1   93.57    6.35
   3   3  -1   93.89    6.39
  -3   3   1  108.00    6.93
  -3  -3  -1   90.49    6.71
  -3  -3  -1   97.84    6.36
  -3   3   1   99.71    6.34
  -3   3   1   98.37    6.33
  -3  -3  -1   93.13    6.34
   3  -3   1   96.74    6.62
  -3  -3   1  105.67    6.34
  -3  -3   1  100.31    6.63
  -3   3  -1  114.81    7.04
  -3   3  -1  108.38    6.35
   3   3   1  103.70    6.40
   3   3   1   99.37    6.79
   3  -3  -1  103.98    6.62
  -3  -3   1  112.62    6.37
  -3   3  -1  107.97    6.37
  -4   3   1   41.15    2.81
  -4  -3  -1   44.57    3.52
   4   3  -1   42.29    3.33
  -4  -3  -1   44.67    2.83
  -4  -3  -1   43.64    2.81
  -4   3   1   39.89    2.80
   4  -3   1   39.57    3.23
  -4  -3   1   43.08    2.83
  -4   3  -1   46.66    2.83
   4  -3  -1   43.25    3.29
  -4  -3   1   44.15    3.30
   4   3   1   42.19    3.48
  -5   3   1    1.73    0.41
  -5  -3  -1    1.44    0.44
   5  -3   1    3.05    1.25
  -5  -3  -1    1.48    0.42
  -5   3   1    1.02    0.43
   5  -3  -1    1.19    1.03
  -5   3  -1    1.39    0.45
  -5  -3   1    1.48    0.44
  -5   3  -1    1.48    0.44
   6  -3   1    2.94    1.54
  -6  -3  -1    3.66    0.57
  -6   3   1    3.37    0.52
  -6  -3  -1    2.23    0.54
  -6   3   1    4.11    0.58
  -6  -3   1    3.31    0.53
   6  -3  -1    4.05    1.72
  -6   3  -1    4.37    0.56
  -6   3  -1    4.47    0.54
   0   4  -1  107.63    6.30
   0  -4  -1   95.12    6.27
   0   4  -1   97.48    6.34
   0   4   1  103.58    6.30
   0   4   1   96.50    6.33
  -1  -4  -1  153.31    9.28
   1   4  -1  144.31    9.27
  -1   4   1  160.87    9.34
  -1   4   1  154.08    9.30
   1   4  -1  144.80    9.34
  -1  -4  -1  145.65    9.60
   1   4  -1  134.99    9.48
  -1   4   1  146.52    9.27
  -1  -4  -1  157.88    9.29
  -1  -4   1  154.80    9.42
   1  -4  -1  156.16    9.27
   1   4   1  134.42    9.33
  -1   4  -1  157.02    9.34
  -1  -4   1  140.62    9.28
   1   4   1  150.33    9.28
  -1  -4   1  150.17    9.27
  -1   4  -1  144.08    9.29
   2   4  -1  168.46   10.57
   2   4  -1  174.82   10.66
  -2  -4  -1  154.01   10.48
   2  -4   1  163.72   10.64
  -2   4   1  161.59   10.53
  -2   4   1  172.49   10.50
  -2  -4  -1  170.74   10.80
  -2  -4  -1  181.71   10.52
  -2   4   1  175.77   10.51
  -2  -4   1  166.88   10.51
  -2  -4   1  169.66   10.68
   2   4   1  169.29   10.57
  -2   4  -1  155.76   10.88
   2  -4  -1  176.40   10.62
   2   4   1  158.57   10.80
  -2  -4   1  164.43   10.48
  -2   4  -1  182.38   10.52
  -2   4  -1  168.46   10.53
  -3  -4  -1   23.21    2.23
  -3   4   1   24.79    1.69
   3   4  -1   22.84    1.75
  -3  -4  -1   21.54    1.66
   3  -4   1   23.25    1.98
  -3   4   1   23.33    1.67
  -3   4   1   22.71    1.65
  -3  -4  -1   22.59    1.69
  -3  -4   1   22.95    1.99
   3  -4  -1   23.26    1.98
  -3  -4   1   21.51    1.65
   3   4   1   23.26    1.74
  -3  -4   1   22.91    1.69
  -3   4  -1   25.60    1.68
  -3   4  -1   21.29    2.33
  -3   4  -1   22.70    1.70
   3   4   1   24.51    2.25
  -4  -4  -1   22.50    2.48
  -4   4   1   22.49    1.70
  -4  -4  -1   24.00    1.72
  -4   4   1   24.64    1.74
   4  -4   1   19.79    2.10
   4   4  -1   26.61    2.28
  -4  -4  -1   22.43    1.70
  -4   4  -1   22.27    1.73
  -4  -4   1   27.41    2.40
  -4   4  -1   21.67    1.70
  -4  -4   1   24.18    1.75
   4   4   1   22.63    2.38
   4  -4  -1   22.82    2.11
  -5   4   1    0.95    0.48
  -5   4   1    1.83    0.55
   5  -4   1    2.76    1.30
  -5  -4  -1    1.47    0.49
  -5  -4  -1    1.81    0.51
  -5   4  -1    2.09    0.54
  -5   4  -1    1.67    0.56
  -5  -4   1    1.99    0.54
   5  -4  -1    2.13    1.15
  -6  -4  -1    0.35    0.55
  -6   4   1    1.40    0.59
   6  -4   1   -0.14    1.38
   6  -4  -1    1.40    1.61
  -6   4  -1    1.58    0.59
   0   5   1   36.75    2.26
   0   5   1   33.85    2.68
   0   5   1   30.43    2.28
   0   5  -1   31.01    2.23
   0  -5  -1   30.39    2.20
   0   5  -1   32.45    2.29
  -1  -5  -1   26.41    2.32
  -1  -5  -1   25.75    1.87
  -1   5   1   25.75    1.94
  -1  -5  -1   27.69    1.88
  -1   5   1   28.09    1.88
   1   5  -1   21.84    2.16
   1   5  -1   23.95    1.96
  -1   5   1   24.06    1.89
  -1   5   1   27.19    2.31
   1   5  -1   24.03    1.85
   1   5   1   29.76    2.45
  -1  -5   1   29.17    1.89
  -1   5  -1   24.34    1.90
   1   5   1   27.34    1.88
   1   5   1   27.33    1.95
  -1   5  -1   27.22    1.87
   1  -5  -1   28.99    1.85
  -1   5  -1   26.46    1.95
  -2   5   1   53.76    3.72
  -2  -5  -1   49.90    3.72
   2   5  -1   57.25    3.84
  -2   5   1   59.54    3.80
  -2   5   1   58.79    3.77
  -2  -5  -1   60.04    4.17
   2   5  -1   57.54    3.98
   2  -5   1   53.81    3.94
  -2  -5  -1   55.87    3.74
   2  -5  -1   54.14    3.85
  -2  -5   1   54.02    3.98
  -2   5  -1   61.44    3.82
   2   5   1   56.25    3.82
  -2   5  -1   63.17    3.75
  -2  -5   1   55.28    3.72
  -2   5  -1   55.48    3.76
  -2  -5   1   63.02    3.77
   2   5   1   62.22    4.22
  -3   5   1  108.33    6.65
  -3  -5  -1  115.38    7.15
  -3  -5  -1  108.43    6.66
   3   5  -1  112.39    6.74
   3  -5   1  105.56    6.94
  -3   5   1  106.61    6.67
  -3  -5  -1  110.73    6.68
  -3   5   1  111.00    6.68
   3   5  -1  102.09    6.92
   3  -5  -1   99.29    6.84
  -3   5  -1  104.27    6.65
   3   5   1   95.82    7.08
  -3   5  -1  107.02    6.68
   3   5   1   93.14    6.70
  -3  -5   1  100.73    6.63
  -3  -5   1  103.71    6.93
  -3   5  -1  102.25    6.67
  -3  -5   1  100.58    6.66
  -4   5   1    6.95    0.79
  -4  -5  -1    7.07    0.82
  -4  -5  -1    7.07    0.85
  -4  -5  -1    6.10    1.31
   4  -5   1    8.16    1.36
  -4   5   1    6.53    0.83
  -4   5  -1    7.61    0.84
  -4   5  -1    7.21    0.85
   4   5   1    5.62    1.41
   4  -5  -1    6.54    1.26
  -4  -5   1    7.85    0.87
  -5  -5  -1    6.98    0.87
   5  -5   1    7.75    1.72
  -5   5   1    6.76    0.89
   5  -5  -1    6.52    1.55
  -5   5  -1    6.34    0.87
  -6   5   1    2.14    0.70
   6  -5   1    2.28    1.68
  -6  -5  -1    1.21    0.67
   6  -5  -1    2.46    1.64
  -6   5  -1    1.05    0.69
   0   6  -1   19.85    1.73
   0   6  -1   21.71    1.67
   0  -6  -1   21.15    1.63
   0   6   1   19.90    1.69
   0   6   1   20.60    1.65
   0   6  -1   23.91    2.01
   0   6   1   20.81    2.21
  -1   6   1   14.80    1.39
  -1  -6  -1   11.42    1.21
  -1   6   1   10.62    1.19
   1   6  -1   11.77    1.62
  -1  -6  -1   14.84    1.25
   1   6  -1   13.22    1.39
   1   6  -1   12.00    1.26
  -1  -6  -1   11.54    1.58
  -1   6   1   12.99    1.24
  -1   6   1   13.84    1.85
  -1   6  -1   16.29    1.40
  -1   6  -1   17.69    1.37
   1  -6  -1   16.47    1.24
   1   6   1   17.82    1.86
  -1  -6   1   15.64    1.26
   1   6   1   19.89    1.36
   1   6   1   18.30    1.46
   2   6  -1   44.00    3.34
  -2   6   1   40.74    3.26
  -2  -6  -1   44.56    3.21
  -2   6   1   45.26    3.27
  -2  -6  -1   42.22    3.69
  -2   6   1   51.02    3.23
   2   6  -1   48.31    3.59
  -2  -6  -1   46.02    3.22
  -2   6  -1   50.79    3.29
  -2  -6   1   48.14    3.53
  -2   6  -1   48.87    3.31
  -2  -6   1   55.97    3.25
   2  -6  -1   46.44    3.36
   2   6   1   52.36    3.88
   2   6   1   49.17    3.36
  -2   6  -1   50.65    3.24
  -2  -6   1   53.07    3.27
   3   6  -1   24.55    2.21
   3   6  -1   23.61    1.95
  -3   6   1   24.63    1.88
   3  -6   1   18.80    2.06
  -3  -6  -1   25.46    2.46
  -3  -6  -1   23.07    1.87
  -3   6   1   25.45    1.92
  -3  -6   1   22.15    2.26
   3   6   1   27.22    2.02
  -3  -6   1   25.67    1.86
   3  -6  -1   22.42    2.12
  -3   6  -1   23.50    1.92
  -3   6  -1   24.68    1.89
   3   6   1   22.76    2.43
  -4  -6  -1   20.92    1.72
   4   6  -1   20.80    2.41
   4  -6   1   19.95    2.20
  -4   6   1   21.64    1.77
   4   6   1   20.25    2.42
   4  -6  -1   19.15    2.08
  -4   6  -1   22.55    1.80
  -5  -6  -1    6.15    0.94
   5  -6   1    4.03    1.42
  -5   6   1    6.92    0.96
   5  -6  -1    5.35    1.50
  -5   6  -1    6.66    0.95
   6  -6   1    2.25    1.63
  -6   6   1    1.19    0.79
   6  -6  -1    1.29    1.75
  -6   6  -1    0.83    0.79
   0  -7  -1   93.60    6.08
   0   7   1   89.97    6.12
   0   7   1  100.06    6.73
   0   7   1   96.60    6.24
   0   7  -1   88.67    6.47
   0   7  -1   97.56    6.11
   0   7  -1   97.16    6.25
  -1   7   1   75.08    4.58
   1   7  -1   70.89    4.52
  -1  -7  -1   78.01    4.56
   1   7  -1   70.57    5.06
   1   7  -1   67.61    4.65
  -1   7   1   69.42    4.65
  -1  -7  -1   78.06    5.02
  -1   7  -1   62.84    4.62
   1   7   1   69.23    5.19
   1   7   1   65.26    4.63
   1   7   1   61.54    4.52
   1  -7  -1   65.00    4.48
  -1   7  -1   62.18    4.54
  -2  -7  -1   72.12    5.17
   2   7  -1   63.33    5.04
   2   7  -1   75.05    4.82
  -2   7   1   75.88    4.75
  -2  -7  -1   68.89    4.63
  -2   7   1   76.80    4.70
   2   7   1   68.00    5.29
  -2  -7   1   70.22    4.63
  -2   7  -1   64.20    4.67
   2   7   1   71.67    4.76
  -2   7  -1   67.25    4.72
   2  -7  -1   65.54    4.77
  -2  -7   1   74.11    4.91
  -3   7   1   22.49    1.99
   3   7  -1   21.82    2.09
  -3   7   1   25.34    2.01
  -3  -7  -1   26.60    1.98
   3  -7   1   23.16    2.28
  -3  -7  -1   25.24    2.59
   3   7  -1   23.44    2.32
   3  -7  -1   26.29    2.23
   3   7   1   23.86    2.08
   3   7   1   23.60    2.60
  -3   7  -1   23.21    1.98
  -3  -7   1   26.84    2.99
  -3   7  -1   23.99    2.02
   4  -7   1    4.52    1.27
  -4   7   1    3.18    0.82
  -4  -7  -1    2.70    0.74
   4   7  -1    3.50    0.91
   4   7   1    1.63    0.92
   4  -7  -1    0.76    0.97
  -4   7  -1    0.44    0.74
  -5   7   1    0.71    0.84
  -5  -7  -1    0.34    0.75
   5  -7   1    1.50    1.52
  -5   7  -1    0.61    0.81
   5  -7  -1   -0.68    1.28
  -6   7   1    0.65    0.88
   6  -7   1    1.98    1.86
   6  -7  -1    1.69    1.75
  -6   7  -1    2.06    0.93
   0   8   1   11.53    1.30
   0   8   1   12.35    1.90
   0   8  -1   12.57    1.79
   0   8  -1   11.20    1.40
   0   8  -1    9.96    1.19
   0  -8  -1   11.16    1.18
   0   8   1   12.89    1.44
  -1   8   1    7.58    1.10
  -1   8   1    9.31    1.60
  -1  -8  -1    7.53    1.00
   1   8  -1    6.25    1.43
  -1  -8  -1    6.15    1.38
   1   8  -1    7.73    1.25
  -1   8   1    6.69    1.08
  -1   8  -1    4.53    1.47
  -1   8  -1    8.00    1.06
  -1   8  -1    5.80    1.03
   1   8   1    7.86    1.77
   1   8   1    6.41    1.11
  -2   8   1   15.90    1.54
   2   8  -1   15.65    1.76
  -2  -8  -1   15.46    1.54
  -2   8   1   14.31    1.61
  -2  -8  -1   16.32    2.06
   2   8  -1   16.92    2.11
  -2   8  -1   14.94    1.62
  -2   8  -1   11.78    1.43
   2   8   1   16.15    1.72
   2  -8  -1   16.46    1.71
   2   8   1   14.09    2.24
  -3   8   1   13.16    1.43
   3   8  -1   10.70    1.42
  -3  -8  -1    9.94    1.23
   3  -8   1   10.99    1.62
  -3   8   1   10.88    1.31
  -3   8  -1   12.00    1.34
   3  -8  -1   12.91    1.54
   3   8   1   12.13    1.93
  -3   8  -1   12.85    1.40
   3   8   1   11.58    1.50
  -4   8   1   15.07    1.65
   4  -8   1   15.62    2.13
  -4  -8  -1   17.81    1.65
   4   8  -1   16.97    1.80
   4   8   1   17.53    1.91
  -4   8  -1   15.12    1.62
   4  -8  -1   19.13    2.13
   5  -8   1    3.66    1.80
  -5   8   1    6.07    1.15
  -5  -8  -1    4.55    1.02
  -5   8  -1    5.35    1.12
   5  -8  -1    4.42    1.66
   0   9  -1    6.25    1.23
   0   9   1    7.59    1.70
   0   9  -1    6.20    1.44
   0   9   1    7.71    1.24
   1   9  -1   45.39    3.89
  -1  -9  -1   47.41    3.26
  -1   9   1   43.40    3.29
  -1   9   1   47.63    3.42
   1   9  -1   45.54    3.41
   1   9   1   45.15    3.38
  -1   9  -1   41.29    3.74
  -1   9  -1   44.28    3.37
   1   9   1   49.02    4.18
  -1   9  -1   40.73    3.27
  -2  -9  -1   12.23    1.39
  -2   9   1   10.69    1.47
  -2   9   1   13.47    1.47
   2   9  -1   12.74    1.59
  -2   9  -1   14.97    1.55
  -2   9  -1   14.63    1.62
   2   9   1   15.30    1.69
   2   9   1   11.98    2.13
  -3   9   1    9.10    1.30
  -3  -9  -1    9.06    1.27
   3   9  -1    7.69    1.40
   3  -9   1    9.01    1.53
  -3   9   1    9.14    1.31
  -3   9  -1   11.69    1.40
   3   9   1   11.21    1.58
   3  -9  -1   10.96    1.53
   3   9   1    7.10    1.72
  -3   9  -1    9.52    1.31
  -4  -9  -1    3.40    1.03
   4  -9   1    3.29    1.53
   4   9  -1    3.79    1.16
  -4   9   1    3.92    1.13
   4   9   1    7.02    1.36
   4  -9  -1    7.08    1.58
  -4   9  -1    6.02    1.16
  -5  -9  -1   -0.49    0.96
  -5   9   1    1.30    1.10
   5  -9   1   -1.68    1.63
   5  -9  -1    0.03    1.59
  -5   9  -1    1.15    1.10
   0  10  -1    8.61    1.39
   0  10  -1    8.43    1.69
   0  10   1    8.55    1.36
  -1  10   1   24.28    2.22
   1  10  -1   27.96    2.40
  -1 -10  -1   26.84    2.82
   1  10  -1   24.36    2.80
  -1  10   1   27.06    2.28
   1  10   1   20.91    2.20
  -1  10  -1   19.14    2.26
  -1  10  -1   23.58    2.16
  -2  10   1   14.87    1.69
  -2  10   1   13.82    1.78
   2  10  -1   14.70    1.94
  -2 -10  -1   14.59    1.56
  -2  10  -1   17.14    1.95
  -2  10  -1   15.77    1.66
   2  10   1   15.37    1.94
   3 -10   1    0.83    1.31
  -3  10   1   -0.17    0.97
   3  10  -1    0.44    1.06
  -3  10   1    1.44    0.96
  -3 -10  -1    1.00    0.94
  -3  10  -1    0.16    1.01
   3  10   1    0.55    1.11
   3 -10  -1    1.44    1.17
  -3  10  -1    0.79    0.94
   4  10  -1    2.98    1.29
   4 -10   1    2.18    1.50
  -4 -10  -1    2.44    1.07
  -4  10   1    3.18    1.19
  -4  10  -1    3.44    1.21
   4 -10  -1    3.79    1.54
   4  10   1    4.82    1.41
  -5  10   1    2.99    1.21
   5 -10   1   -1.88    1.72
  -5  10  -1    0.92    1.20
   5 -10  -1    1.96    1.72
   0  11  -1    3.48    1.19
   0  11   1    3.46    1.16
  -1  11   1    3.52    1.12
   1  11  -1    3.49    1.25
   1  11   1    1.71    1.25
  -1  11  -1    2.01    1.07
  -2  11   1    6.68    1.40
   2  11  -1    5.97    1.63
  -2  11   1    6.22    1.51
   2  11   1    8.23    1.64
  -2  11  -1    8.51    1.51
  -3 -11  -1   11.01    1.55
   3  11  -1   13.07    2.01
  -3  11   1   11.32    1.66
   3 -11   1   12.27    2.15
  -3  11   1   14.80    1.79
  -3  11  -1   11.74    1.64
  -3  11  -1   11.18    1.61
   3 -11  -1   11.23    1.84
   3  11   1   14.21    2.08
   4 -11   1    1.70    1.77
   4  11  -1    3.20    1.49
  -4 -11  -1    0.92    1.14
  -4  11   1    3.42    1.28
   4  11   1    3.01    1.65
  -4  11  -1    3.88    1.29
   4 -11  -1    2.92    1.62
   0  12  -1   11.53    1.84
   0  12   1   10.46    1.94
   1  12  -1    3.97    1.52
  -1  12   1    4.89    1.59
   1  12   1    6.30    1.66
  -1  12  -1    6.57    1.54
  -2  12   1    3.81    1.45
   2  12  -1    2.64    1.58
   2  12   1    7.15    1.78
  -2  12  -1    5.87    1.50
   3  12  -1    2.31    1.74
   3 -12   1    0.63    1.57
  -3  12   1    0.77    1.29
  -3  12  -1    0.15    1.25
   3  12   1    0.52    1.65
   3 -12  -1    0.04    1.41
   4 -12   1    0.19    1.88
   4 -12  -1   -1.98    1.60
   0  13  -1    6.23    1.83
   0  13   1    4.02    1.72
  -1  13   1    2.59    1.46
   1  13  -1    3.33    1.77
  -1  13  -1    2.72    1.52
   1  13   1    0.83    1.76
   2  13  -1    5.22    2.10
  -2  13   1    2.70    1.68
  -2  13  -1    2.02    1.38
   2  13   1    1.14    1.93
   3 -13   1    0.21    1.75
   3  13  -1    1.69    1.95
  -3  13   1    0.51    1.46
  -3  13  -1   -0.45    1.29
   3  13   1   -1.10    1.86
   3 -13  -1    0.79    2.41
   0  14   1    0.36    1.54
   0  14  -1    0.08    1.91
   1  14  -1    3.23    2.18
  -1  14   1    0.82    1.84
  -1  14  -1    5.04    1.87
   1  14   1   -0.31    1.81
  -2  14   1    2.21    1.65
   2  14  -1    0.76    2.14
   2  14   1    2.62    2.31
  -2  14  -1    0.69    1.51
   0   0  -2   69.95    4.51
   0   0   2   77.93    4.49
   0   0   2   69.18    4.55
   0   0  -2   73.64    4.56
   0   0  -2   70.13    4.48
  -1   0  -2  845.79   49.16
   1   0   2  749.15   49.00
   2   0   2    0.78    0.60
  -2   0  -2    0.20    0.58
  -2   0  -2    1.25    0.23
  -2   0   2    0.64    0.22
  -2   0  -2    0.88    0.26
  -2   0   2    0.76    0.46
   2   0  -2    0.65    0.44
   2   0   2    1.75    0.47
  -2   0  -2    0.86    0.26
   2   0  -2    0.80    0.24
  -3   0  -2   21.18    1.50
   3   0  -2   23.89    1.48
  -3   0   2   22.17    1.47
  -3   0  -2   24.61    2.29
  -3   0   2   19.60    1.88
   3   0   2   21.64    1.46
   3   0  -2   23.74    1.88
   3   0   2   23.51    1.85
  -3   0  -2   22.95    1.48
   3   0   2   21.54    2.19
  -4   0   2   18.48    1.21
  -4   0  -2   17.07    1.20
   4   0   2   17.57    2.07
   4   0   2   17.53    1.75
   4   0  -2   14.67    1.72
  -4   0   2   16.38    2.00
  -5   0   2    6.04    0.61
  -5   0  -2    5.89    0.54
  -5   0   2    6.64    0.58
   5   0  -2    5.14    1.22
   5   0   2    6.44    1.36
   6   0   2   12.05    2.19
   6   0  -2   15.82    2.28
   0   1  -2    2.06    0.31
   0  -1  -2    2.56    0.30
   0   1  -2    3.08    0.32
   0  -1  -2    2.98    0.48
   0  -1   2    2.57    0.30
   0   1  -2    3.20    0.41
   0   1   2    2.24    0.45
   0   1   2    2.86    0.33
   0  -1   2    2.44    0.35
   1  -1   2  546.72   32.38
  -1  -1  -2  558.44   32.32
  -1   1   2  474.33   32.30
  -1  -1  -2  571.16   32.52
   1   1  -2  487.42   32.29
  -1   1   2  522.70   32.45
  -1  -1  -2  555.47   32.36
   1   1  -2  540.25   32.34
  -1   1   2  608.90   32.32
  -1   1  -2  512.90   32.33
  -1   1  -2  470.03   32.48
   1   1   2  488.54   32.30
   1  -1  -2  551.55   32.33
  -1  -1   2  544.58   32.30
   1   1   2  488.21   32.48
   1   1   2  532.78   32.35
  -1   1  -2  531.39   32.30
   1  -1  -2  507.64   32.29
   1  -1  -2  496.24   32.34
  -2  -1  -2  208.85   13.25
  -2   1   2  203.20   12.91
  -2   1   2  227.08   12.91
   2   1  -2  221.17   12.95
   2  -1   2  215.17   13.09
  -2  -1  -2  228.52   12.93
   2  -1   2  219.05   13.30
  -2  -1  -2  223.30   12.91
  -2   1  -2  209.31   12.92
   2   1   2  176.81   13.20
   2  -1  -2  218.93   12.95
   2   1   2  221.52   13.07
  -2   1  -2  179.12   13.23
  -2  -1   2  211.47   12.91
   2  -1  -2  198.37   13.04
  -2  -1   2  195.97   13.03
   2   1   2  213.98   12.94
  -2   1  -2  192.82   12.91
   3   1  -2   24.56    1.65
   3  -1   2   24.92    1.99
  -3   1   2   21.29    2.11
  -3   1   2   24.54    1.65
  -3   1   2   25.39    1.62
  -3   1   2   23.61    1.62
  -3  -1  -2   22.99    1.62
   3  -1   2   24.00    2.33
   3   1  -2   22.56    1.96
  -3  -1  -2   24.48    2.25
  -3  -1  -2   22.32    1.64
   3   1   2   27.44    1.66
  -3   1  -2   25.53    2.40
   3   1   2   24.52    2.00
   3   1   2   23.38    2.29
   3  -1  -2   26.23    2.01
  -3  -1   2   27.09    2.06
  -3  -1   2   27.55    1.64
  -3   1  -2   25.20    1.63
   4  -1   2   79.08    5.44
  -4   1   2   79.34    4.55
  -4  -1  -2   75.57    4.56
  -4  -1  -2   72.22    5.78
   4  -1   2   71.71    4.98
  -4   1   2   76.74    4.54
  -4  -1  -2   79.61    4.54
  -4   1   2   68.27    5.13
   4   1  -2   72.00    5.02
  -4   1  -2   69.64    4.53
  -4  -1   2   68.75    5.07
   4   1   2   67.22    5.25
  -4  -1   2   67.36    4.53
   4   1   2   64.42    4.96
   4  -1  -2   64.68    4.91
  -5   1   2    9.70    0.79
  -5  -1  -2    9.99    0.86
  -5   1   2   10.21    0.81
   5  -1   2   10.08    1.59
  -5  -1  -2   10.79    0.81
   5  -1  -2    8.64    1.56
  -5  -1   2    9.02    0.81
  -5   1  -2    8.23    0.80
   5   1   2    7.34    1.37
   6  -1   2   23.28    2.61
   6   1   2   20.49    2.49
   6  -1  -2   24.35    2.65
  -6   1  -2   20.55    1.44
   0   2  -2  296.48   16.64
   0   2   2  265.94   16.66
   0   2  -2  271.83   16.69
   0  -2  -2  270.16   16.63
   0  -2  -2  251.16   16.86
   0   2   2  256.22   16.64
   0  -2   2  264.03   16.63
   0   2  -2  280.40   16.67
   1   2  -2  532.30   33.39
  -1  -2  -2  537.42   33.35
  -1   2   2  487.04   33.33
  -1   2   2  543.51   33.35
  -1  -2  -2  527.70   33.34
   1   2  -2  489.99   33.33
   1  -2   2  506.08   33.54
  -1   2   2  527.50   33.54
  -1   2   2  535.24   33.37
  -1  -2  -2  492.17   33.54
  -1   2  -2  583.87   33.38
   1   2   2  543.16   33.39
   1   2   2  610.21   33.61
   1  -2  -2  545.96   33.35
   1   2   2  594.31   33.35
   1  -2  -2  532.11   33.33
   1   2   2  529.77   33.36
   1  -2  -2  625.66   33.41
  -1   2  -2  522.15   33.56
  -1  -2   2  585.39   33.35
  -1   2  -2  537.52   33.35
   2   2  -2   12.30    1.08
  -2  -2  -2   12.36    1.03
  -2  -2  -2   12.34    1.02
  -2  -2  -2   11.67    1.39
  -2   2   2   11.71    1.03
   2  -2   2   11.49    1.24
   2  -2   2   12.30    1.53
  -2   2   2   14.16    1.05
  -2   2   2   13.58    1.02
   2   2  -2   14.00    1.13
  -2  -2   2   15.80    1.14
  -2  -2   2   16.95    1.04
   2   2   2   15.30    1.24
   2   2   2   18.13    1.11
  -2   2  -2   15.98    1.54
   2   2   2   14.60    1.45
  -2   2  -2   16.55    1.06
   2  -2  -2   18.09    1.26
   3   2  -2   25.63    1.91
  -3  -2  -2   19.97    1.61
  -3   2   2   22.79    1.59
   3   2  -2   23.14    1.65
  -3  -2  -2   19.34    2.20
  -3   2   2   23.49    1.61
  -3   2   2   22.28    1.60
  -3   2   2   22.33    2.15
  -3  -2  -2   20.99    1.59
   3  -2   2   21.04    1.90
   3   2   2   25.67    1.65
   3  -2  -2   24.28    1.94
  -3  -2   2   24.82    1.94
  -3   2  -2   25.82    2.33
  -3   2  -2   26.12    1.62
   3   2   2   22.30    1.96
   3   2   2   25.89    2.29
  -3  -2   2   25.87    1.61
  -3   2  -2   25.82    1.58
  -4  -2  -2   46.08    3.05
  -4   2   2   46.23    3.05
  -4  -2  -2   48.01    4.00
  -4   2   2   45.75    3.07
  -4   2   2   45.43    3.78
   4  -2   2   47.70    3.52
  -4  -2  -2   47.89    3.09
   4  -2  -2   49.52    3.54
  -4   2  -2   48.08    3.07
   4   2   2   53.26    3.58
   4   2   2   44.83    3.85
  -4  -2   2   47.71    3.55
  -4  -2   2   50.08    3.07
  -5  -2  -2   23.46    1.76
  -5  -2  -2   26.22    1.74
   5  -2   2   20.80    2.43
  -5   2   2   24.61    1.73
  -5   2   2   25.07    1.73
   5   2   2   27.46    2.55
  -5   2  -2   25.70    1.75
  -5  -2   2   27.23    1.76
   5  -2  -2   25.73    2.55
  -6  -2  -2    1.74    0.44
  -6   2   2    0.50    0.36
   6  -2   2    0.98    1.43
  -6   2   2    2.10    0.43
  -6  -2  -2    1.64    0.43
  -6   2  -2    0.98    0.40
  -6   2  -2    1.60    0.43
   6   2   2   -0.66    1.43
  -6  -2   2    1.60    0.41
   6  -2  -2    0.08    1.47
   0   3  -2  769.30   49.54
   0   3   2  837.62   49.55
   0  -3  -2  711.94   49.81
   0   3   2  830.69   49.59
   0   3  -2  851.00   49.60
   0  -3  -2  834.88   49.54
   1   3  -2   47.70    2.94
  -1   3   2   42.63    2.87
   1   3  -2   46.25    2.85
  -1  -3  -2   44.43    2.87
  -1   3   2   43.91    2.90
  -1   3   2   44.13    2.85
  -1   3   2   46.12    3.21
   1   3  -2   46.33    2.92
  -1  -3  -2   43.66    3.16
  -1  -3  -2   43.38    2.85
  -1  -3   2   45.52    2.86
  -1   3  -2   42.10    2.89
   1  -3  -2   40.29    2.84
  -1   3  -2   46.46    3.14
   1   3   2   38.26    2.85
   1  -3  -2   44.89    2.85
  -1   3  -2   43.80    2.86
   1   3   2   43.84    2.91
  -2   3   2   34.10    1.94
   2   3  -2   33.77    2.01
   2   3  -2   29.57    1.98
  -2  -3  -2   35.69    2.41
  -2  -3  -2   32.29    1.94
   2  -3   2   33.45    2.18
  -2   3   2   34.50    1.97
  -2  -3  -2   33.23    1.95
  -2   3   2   31.74    1.96
  -2   3  -2   24.79    1.93
   2   3   2   24.05    2.31
  -2  -3   2   24.46    1.91
   2  -3  -2   23.57    2.00
  -2   3  -2   22.93    1.92
  -2   3  -2   21.11    2.30
  -2  -3   2   23.91    1.97
   2   3   2   25.76    1.97
  -3  -3  -2   21.83    2.17
  -3  -3  -2   20.46    1.51
  -3   3   2   22.93    1.56
  -3   3   2   22.07    1.51
  -3   3   2   22.39    1.52
  -3  -3  -2   20.87    1.53
   3   3  -2   25.34    1.62
   3   3  -2   21.89    1.78
   3  -3   2   22.48    1.93
  -3  -3   2   21.65    1.79
   3   3   2   18.85    1.84
   3  -3  -2   18.94    1.82
   3   3   2   19.18    1.56
  -3   3  -2   22.39    1.51
   3   3   2   19.55    2.16
  -3  -3   2   20.55    1.53
  -3   3  -2   20.31    2.22
  -3   3  -2   18.76    1.52
  -4   3   2   50.08    3.04
  -4  -3  -2   52.32    4.33
   4   3  -2   54.40    3.49
   4  -3   2   42.26    3.44
  -4  -3  -2   47.74    3.04
  -4  -3  -2   47.24    3.06
  -4   3   2   46.61    3.05
   4   3   2   46.09    3.82
  -4  -3   2   45.42    3.92
   4  -3  -2   41.68    3.41
  -4  -3   2   46.99    3.05
   4   3   2   40.88    3.39
  -4   3  -2   40.52    3.04
  -5   3   2   21.04    1.59
   5  -3   2   18.75    2.24
  -5  -3  -2   22.31    1.60
  -5  -3  -2   22.00    1.59
  -5   3   2   20.60    1.55
   5  -3  -2   19.97    2.24
   5   3   2   25.12    2.43
  -5  -3   2   21.40    1.59
  -5   3  -2   21.66    1.60
  -6  -3  -2    4.11    0.63
  -6   3   2    5.27    0.66
   6  -3   2    2.71    1.61
  -6   3   2    3.73    0.64
   6  -3  -2    4.92    1.69
  -6   3  -2    5.09    0.66
   0  -4  -2  343.33   22.33
   0   4   2  364.04   22.74
   0  -4  -2  356.15   22.68
   0   4  -2  389.20   22.35
   0   4   2  377.81   22.36
   0   4   2  350.35   22.40
   0   4  -2  352.75   22.40
  -1  -4  -2  296.15   18.01
  -1   4   2  316.89   17.72
  -1   4   2  298.86   17.66
   1   4  -2  279.36   17.63
  -1  -4  -2  299.52   17.64
  -1   4   2  317.22   17.64
   1   4  -2  322.28   17.73
  -1  -4  -2  301.97   17.65
   1   4  -2  261.33   17.77
  -1  -4   2  275.54   17.64
   1   4   2  293.13   18.03
   1  -4  -2  255.19   17.61
   1  -4  -2  280.48   17.63
   1   4   2  261.09   17.69
   1   4   2  265.86   17.63
  -1   4  -2  271.33   17.64
  -1   4  -2  253.89   17.68
  -2  -4  -2    0.83    0.39
  -2  -4  -2    0.13    0.71
   2   4  -2    0.77    0.45
  -2   4   2    1.53    0.40
   2   4  -2    1.04    0.46
  -2   4   2    2.04    0.49
  -2  -4  -2    1.22    0.40
   2  -4   2    1.03    0.58
  -2   4   2    1.06    0.43
   2  -4  -2    0.87    0.49
  -2  -4   2    1.23    0.54
  -2   4  -2    0.91    0.45
  -2   4  -2    0.72    0.78
   2   4   2    0.89    0.74
  -2  -4   2    1.12    0.42
  -2   4  -2    1.10    0.44
   2   4   2    1.14    0.48
  -3  -4  -2    1.02    0.44
   3  -4   2    1.13    0.72
  -3  -4  -2    0.76    0.45
   3   4  -2    0.57    0.61
   3   4  -2    1.22    0.57
  -3   4   2    0.83    0.43
  -3   4   2    0.46    0.47
  -3   4   2    0.95    0.44
  -3  -4  -2    0.68    1.01
   3  -4  -2    2.38    0.77
  -3  -4   2    1.87    0.48
  -3   4  -2    2.10    1.22
  -3  -4   2    3.08    0.75
  -3   4  -2    2.03    0.51
   3   4   2    2.18    0.54
   3   4   2    1.52    0.93
  -3   4  -2    2.41    0.51
  -4  -4  -2   40.16    2.58
   4  -4   2   39.08    3.01
  -4   4   2   37.63    2.55
  -4   4   2   37.26    2.58
  -4  -4  -2   39.00    2.56
   4  -4  -2   37.25    2.98
  -4   4  -2   36.84    2.57
  -4  -4   2   37.86    2.58
   4   4   2   31.78    3.22
   5  -4   2   30.10    2.81
  -5   4   2   28.36    2.13
  -5  -4  -2   29.94    2.12
   5  -4  -2   27.03    2.73
  -5   4  -2   30.46    2.15
  -6  -4  -2    1.22    0.58
  -6   4   2    1.07    0.61
   6  -4   2    1.25    1.38
  -6   4  -2    1.21    0.61
   6  -4  -2   -0.94    1.56
   0  -5  -2  144.75    9.73
   0   5   2  156.33    9.41
   0   5  -2  146.13    9.47
   0   5  -2  155.01    9.39
   0  -5  -2  144.35    9.38
   0   5   2  158.00    9.91
   0   5   2  145.63    9.46
  -1  -5  -2  170.08   10.79
   1   5  -2  149.76   10.58
  -1   5   2  147.74   10.40
  -1   5   2  163.40   10.36
   1   5  -2  156.80   10.42
  -1  -5  -2  150.13   10.33
   1   5  -2  166.66   10.34
  -1   5   2  148.19   10.32
  -1  -5  -2  167.91   10.36
   1   5   2  167.62   10.44
  -1   5  -2  182.33   10.44
  -1   5  -2  172.19   10.36
   1   5   2  184.51   10.89
  -1  -5   2  173.52   10.37
   1   5   2  183.57   10.37
   1  -5  -2  168.18   10.33
  -2  -5  -2   29.19    2.72
   2   5  -2   30.84    2.46
  -2   5   2   31.05    2.92
  -2  -5  -2   29.59    2.33
   2  -5   2   29.64    2.61
  -2   5   2   31.38    2.33
  -2   5   2   30.04    2.37
  -2  -5  -2   33.82    2.36
   2   5  -2   33.62    2.46
  -2   5   2   30.87    2.37
  -2   5  -2   41.03    2.45
  -2  -5   2   36.40    2.50
  -2   5  -2   37.86    2.91
   2   5   2   40.13    3.03
   2  -5  -2   35.27    2.46
  -2   5  -2   36.91    2.40
   2   5   2   37.22    2.46
  -2  -5   2   38.01    2.38
  -3  -5  -2   18.56    2.16
  -3   5   2   14.46    1.47
  -3   5   2   16.58    1.43
  -3  -5  -2   17.70    1.47
  -3   5   2   18.00    1.47
   3   5  -2   16.99    1.62
  -3  -5  -2   17.36    1.47
   3  -5   2   19.79    1.89
   3   5  -2   18.48    1.54
  -3   5  -2   18.53    1.48
  -3  -5   2   20.10    1.76
  -3  -5   2   18.57    1.51
   3   5   2   16.23    2.04
   3  -5  -2   18.93    1.73
  -3   5  -2   18.02    1.51
   3   5   2   19.79    1.61
  -4  -5  -2   38.89    2.72
  -4   5   2   37.19    2.73
   4  -5   2   39.91    3.16
   4   5   2   38.75    3.42
   4  -5  -2   39.81    3.11
  -4   5  -2   41.48    2.75
  -5  -5  -2    7.98    0.96
   5  -5   2    6.91    1.54
  -5   5   2    8.11    0.99
   5  -5  -2    8.40    1.57
  -5   5  -2    8.62    1.00
   6  -5   2    7.26    2.00
  -6  -5  -2    5.55    0.88
  -6   5   2    5.39    0.90
   6  -5  -2    5.84    1.83
  -6   5  -2    5.50    0.91
   0  -6  -2   22.65    2.36
   0   6  -2   25.24    2.12
   0   6  -2   22.01    1.86
   0   6   2   20.85    1.80
   0   6   2   27.75    2.44
   0   6  -2   23.16    1.77
   0  -6  -2   22.15    1.73
   0   6   2   22.67    1.79
  -1   6   2  100.60    5.97
  -1   6   2   80.92    6.34
   1   6  -2   87.18    6.00
  -1   6   2   99.96    6.03
  -1  -6  -2   94.02    6.39
  -1  -6  -2   92.80    5.92
   1   6  -2   94.71    5.92
  -1   6   2   99.52    5.92
  -1   6  -2   93.98    6.01
  -1  -6   2   89.45    5.92
  -1   6  -2   89.95    5.93
   1   6   2   84.45    5.90
   1   6   2   92.23    6.53
  -1   6  -2   87.89    5.90
   1  -6  -2   88.44    5.89
   1   6   2  100.76    6.04
  -2   6   2   31.42    2.32
  -2   6   2   30.08    2.30
  -2  -6  -2   34.35    2.27
   2   6  -2   33.71    2.39
   2   6  -2   31.96    2.53
  -2   6   2   26.06    2.83
  -2  -6  -2   33.98    2.93
  -2   6   2   37.90    2.27
   2   6   2   29.12    2.95
  -2  -6   2   26.00    2.24
  -2   6  -2   32.37    2.24
   2   6   2   31.19    2.38
  -2   6  -2   26.35    2.70
  -2   6  -2   31.60    2.35
  -2   6  -2   28.28    2.26
   2  -6  -2   29.38    2.34
  -3  -6  -2   25.22    2.58
  -3  -6  -2   24.37    1.90
  -3   6   2   25.45    1.94
  -3   6   2   21.87    1.94
   3   6  -2   25.17    2.01
   3  -6   2   23.04    2.26
  -3  -6   2   21.93    2.40
   3   6   2   24.24    2.50
  -3   6  -2   25.30    1.92
   3   6   2   24.13    2.00
  -3   6  -2   25.10    1.96
   3  -6  -2   23.10    2.11
   4  -6   2    7.44    1.36
  -4   6   2    8.81    1.04
  -4  -6  -2    9.67    1.00
   4   6  -2   11.27    1.65
   4   6   2    6.26    1.54
  -4   6  -2    6.18    0.96
   4  -6  -2    7.24    1.33
  -5  -6  -2    7.61    1.03
   5  -6   2    9.79    1.80
  -5   6   2    9.86    1.11
  -5   6  -2    7.93    1.08
   5  -6  -2    7.92    1.65
   6  -6   2    4.69    1.95
  -6   6   2    4.51    0.95
  -6  -6  -2    3.72    0.92
  -6   6  -2    4.98    0.98
   6  -6  -2    3.28    1.73
   0   7  -2   36.32    2.59
   0   7   2   36.69    3.34
   0   7   2   34.61    2.59
   0  -7  -2   35.43    2.55
   0   7  -2   34.44    2.67
   0   7   2   35.17    2.67
   0   7  -2   38.54    2.95
  -1   7   2   54.64    3.39
   1   7  -2   45.65    3.74
  -1  -7  -2   47.08    3.86
  -1   7   2   44.14    3.82
  -1   7   2   47.36    3.38
   1   7  -2   51.24    3.32
   1   7  -2   49.07    3.47
  -1  -7  -2   52.34    3.32
  -1   7  -2   44.58    3.40
   1  -7  -2   48.96    3.29
  -1   7  -2   43.84    3.31
   1   7   2   44.70    3.28
   1   7   2   47.74    3.42
   1   7   2   53.03    4.04
   2   7  -2   51.92    4.54
   2   7  -2   62.80    4.44
  -2  -7  -2   70.84    4.35
  -2   7   2   60.48    4.38
  -2  -7  -2   64.01    4.85
  -2   7   2   62.26    4.34
   2   7   2   67.48    5.06
   2   7   2   66.05    4.46
   2  -7  -2   72.54    4.44
  -2   7  -2   66.74    4.37
  -2   7  -2   69.48    4.43
  -3   7   2   57.87    4.30
  -3   7   2   63.76    4.31
   3  -7   2   56.44    4.55
  -3  -7  -2   67.37    4.29
   3   7  -2   56.51    4.39
   3  -7  -2   67.41    4.47
  -3   7  -2   67.77    4.31
   3   7   2   67.97    5.06
  -3   7  -2   66.81    4.34
   3   7   2   64.72    4.43
  -4   7   2    6.93    1.00
   4  -7   2    5.40    1.37
  -4  -7  -2    4.29    0.85
   4   7  -2    5.89    1.06
  -4   7  -2    2.98    0.89
   4  -7  -2    3.89    1.19
   4   7   2    4.55    1.09
   5  -7   2    5.31    1.75
  -5  -7  -2    2.95    0.91
  -5   7   2    3.44    0.91
  -5   7  -2    2.78    0.91
   5  -7  -2    2.86    1.46
  -6  -7  -2    3.36    0.96
   0   8   2   14.82    1.45
   0  -8  -2   13.98    1.37
   0   8  -2   14.73    1.39
   0   8   2   12.26    1.53
   0   8   2   13.70    2.13
   0   8  -2   14.71    1.76
   0   8  -2   12.98    1.52
  -1   8   2   17.53    1.73
  -1  -8  -2   17.79    1.66
  -1   8   2   15.55    2.17
   1   8  -2   18.50    2.20
  -1  -8  -2   15.36    2.12
   1   8  -2   16.75    1.85
  -1   8   2   15.78    1.80
  -1   8  -2   22.03    1.79
  -1   8  -2   22.37    1.77
   2   8  -2   45.69    3.38
   2   8  -2   36.93    3.54
  -2  -8  -2   54.31    3.25
  -2   8   2   46.85    3.25
  -2   8   2   46.25    3.34
   2  -8  -2   49.31    3.34
  -2   8  -2   43.29    3.24
  -2   8  -2   41.33    3.27
   2   8   2   46.21    3.39
   2   8   2   40.28    4.04
  -3   8   2   11.95    1.43
   3   8  -2   10.40    1.46
  -3   8   2   12.93    1.39
   3  -8   2   11.21    1.68
  -3  -8  -2   11.34    1.31
   3  -8  -2   13.17    1.56
  -3   8  -2   15.60    1.60
   3   8   2   14.36    2.19
   3   8   2   15.73    1.70
  -3   8  -2   14.90    1.47
  -4  -8  -2    4.50    0.96
   4  -8   2    4.97    1.55
   4   8  -2    4.16    1.13
  -4   8   2    4.37    1.02
   4   8   2    6.18    1.23
   4  -8  -2    6.05    1.36
  -4   8  -2    7.24    1.13
   5  -8   2    8.86    2.10
  -5   8   2    9.33    1.38
  -5  -8  -2   10.92    1.35
  -5   8  -2    9.85    1.37
   5  -8  -2   10.25    1.94
   0   9   2   82.63    6.91
   0   9   2  108.29    6.45
   0   9  -2   93.16    6.39
   0   9  -2   93.81    6.74
  -1  -9  -2    2.44    0.84
   1   9  -2    2.24    1.00
  -1   9   2    2.27    1.07
  -1   9   2    3.69    0.97
   1   9  -2    3.32    1.30
  -1   9  -2    1.47    0.98
   1   9   2    0.91    1.42
   1   9   2    0.79    0.92
  -1   9  -2   -0.28    1.05
  -1   9  -2    0.86    0.82
   2   9  -2   23.11    2.10
  -2   9   2   21.76    2.02
  -2   9   2   25.78    2.16
  -2  -9  -2   23.73    2.00
   2   9   2   19.13    2.17
   2  -9  -2   21.07    2.04
   2   9   2   18.74    2.68
  -2   9  -2   21.41    2.08
  -2   9  -2   21.61    2.02
   3   9  -2   17.37    2.01
  -3   9   2   17.25    1.89
  -3  -9  -2   19.15    1.83
   3  -9   2   14.12    2.12
  -3   9   2   18.24    1.78
   3  -9  -2   19.14    1.94
   3   9   2   18.88    2.03
  -3   9  -2   18.14    1.77
  -3   9  -2   16.62    1.85
   4  -9   2    2.26    1.53
  -4  -9  -2    1.55    0.95
  -4   9   2    3.61    1.11
   4   9  -2    1.81    1.10
  -4   9  -2    0.71    1.02
   4   9   2    1.60    1.13
   4  -9  -2    3.22    1.30
  -5  -9  -2    2.69    1.13
   5  -9   2    4.09    1.89
  -5   9   2    4.85    1.25
  -5   9  -2    4.63    1.23
   5  -9  -2    5.46    1.74
   0  10  -2   49.06    3.67
   0  10  -2   42.05    3.91
   0  10   2   49.00    3.62
  -1  10   2   26.42    2.44
   1  10  -2   26.55    2.81
   1  10  -2   26.33    2.47
  -1  10  -2   22.74    2.38
   1  10   2   21.10    2.28
  -2 -10  -2    5.01    1.03
  -2  10   2    4.78    1.15
   2  10  -2    5.72    1.37
  -2  10   2    4.49    1.13
  -2  10  -2    5.07    1.16
   2  10   2    4.01    1.24
   2 -10  -2    4.49    1.19
  -2  10  -2    4.25    1.20
   3  10  -2    1.03    1.22
  -3  10   2    1.73    1.00
  -3  10   2    3.22    1.06
   3 -10   2    0.88    1.37
  -3 -10  -2    0.85    0.93
  -3  10  -2    0.38    0.99
   3  10   2    1.36    1.20
  -3  10  -2    1.99    1.01
   3 -10  -2    2.04    1.08
   4  10  -2    4.40    1.45
  -4  10   2    4.18    1.28
   4 -10   2    3.32    1.75
  -4 -10  -2    2.89    1.17
   4 -10  -2    4.06    1.46
   4  10   2    4.05    1.39
  -4  10  -2    4.98    1.31
   0  11  -2   16.80    2.01
   0  11   2   14.57    2.05
   1  11  -2    9.65    1.64
  -1  11   2    9.36    1.59
  -1  11  -2   11.65    1.70
   1  11   2   10.58    1.72
   2  11  -2    2.21    1.33
  -2  11   2    0.09    1.08
   2 -11  -2    0.61    1.05
  -2  11  -2    1.11    1.06
   2  11   2    2.29    1.30
  -3  11   2    6.56    1.35
   3 -11   2    5.75    1.84
  -3  11   2    4.71    1.34
   3  11  -2    5.73    1.68
  -3 -11  -2    6.44    1.29
   3  11   2    6.94    1.77
  -3  11  -2    6.03    1.36
   3 -11  -2    7.07    1.44
  -3  11  -2    5.20    1.36
  -4  11   2    6.46    1.55
   4 -11   2    4.20    1.85
   4  11  -2    7.84    1.82
  -4 -11  -2    7.26    1.42
  -4  11  -2    6.61    1.56
   4  11   2    9.52    1.92
   4 -11  -2    7.85    1.78
   0  12   2    1.02    1.22
   0  12  -2    1.08    1.37
   1  12  -2   11.58    2.02
  -1  12   2   11.28    1.77
   1  12   2   12.47    2.06
  -1  12  -2   11.34    1.87
  -2  12   2    3.30    1.49
   2  12  -2    4.47    1.61
   2  12   2    2.65    1.77
   2 -12  -2    0.96    1.19
  -2  12  -2    2.09    1.47
   3  12  -2    5.96    1.96
   3 -12   2    5.88    1.89
  -3  12   2    6.28    1.57
   3  12   2    5.20    1.91
  -3  12  -2    4.88    1.52
   0  13   2   -0.29    1.51
   0  13  -2    0.20    1.37
  -1  13   2    2.76    1.52
   1  13  -2    5.50    1.95
   1  13   2    2.42    1.93
  -1  13  -2    2.67    1.44
  -2  13   2    2.83    1.68
   2  13  -2    7.74    2.19
  -2  13  -2    4.61    1.48
   2  13   2    3.95    2.22
   3 -13   2    4.78    2.16
  -3  13   2    2.44    1.56
   3  13  -2    2.80    2.19
  -3  13  -2    4.78    1.53
   3  13   2    4.35    2.11
   0  14   2   -0.08    1.98
   0  14  -2    1.16    2.03
   1  14  -2    1.05    2.13
  -1  14   2    2.35    1.66
  -1  14  -2    1.35    1.86
   1  14   2   -1.47    2.16
   0   0  -3   -0.11    0.23
   0   0  -3   -0.49    0.22
   0   0   3   -0.02    0.39
   0   0   3   -0.18    0.23
   0   0  -3   -0.31    0.38
   1   0   3  745.52   53.74
  -1   0  -3 1000.00   53.83
   2   0   3    7.07    0.81
  -2   0  -3    6.82    0.69
  -2   0  -3    6.64    0.66
   2   0  -3    7.47    0.68
  -2   0   3    7.34    0.64
   2   0   3    5.85    1.02
  -2   0  -3    6.70    1.08
  -2   0  -3    7.88    0.68
   3   0   3  165.68    9.64
  -3   0   3  143.00    9.63
   3   0   3  152.12    9.92
   3   0  -3  137.65    9.56
  -3   0  -3  174.69   10.05
   3   0  -3  141.69    9.37
  -3   0   3  145.80    9.34
  -3   0  -3  151.16    9.34
   4   0  -3   18.12    1.80
  -4   0  -3   14.14    1.15
   4   0   3   13.28    1.57
  -4   0   3   14.86    1.79
  -4   0   3   15.81    1.17
   4   0   3   15.37    2.10
  -5   0  -3    2.43    0.43
   5   0  -3    1.97    1.09
   5   0   3    2.27    1.17
  -5   0   3    2.25    0.43
  -5   0   3    1.96    0.48
   6   0   3    0.79    1.29
  -6   0   3    0.11    0.43
  -6   0  -3    0.92    0.42
  -6   0   3    0.63    0.36
   0  -1   3    0.10    0.37
   0   1   3   -0.03    0.50
   0  -1  -3    0.43    0.38
   0  -1  -3    0.05    0.52
   0   1   3    0.02    0.31
   0  -1  -3   -0.08    0.27
   0   1   3    0.13    0.27
   0  -1  -3   -0.41    0.33
   0   1  -3    0.37    0.28
   0   1  -3   -0.43    0.36
   0  -1   3    0.10    0.29
   0   1  -3   -0.01    0.32
  -1   1   3   49.00    3.42
   1   1  -3   54.70    3.45
  -1  -1  -3   51.20    3.42
   1  -1   3   57.83    3.50
  -1   1   3   52.52    3.61
   1  -1   3   52.37    3.67
  -1  -1  -3   56.97    3.49
  -1  -1  -3   51.28    3.40
  -1  -1  -3   51.96    3.66
  -1   1   3   53.97    3.41
   1   1  -3   56.15    3.40
   1  -1  -3   59.44    3.66
  -1  -1   3   50.90    3.36
   1   1   3   53.40    3.42
  -1   1  -3   56.44    3.68
  -1  -1   3   53.46    3.41
   1   1   3   52.48    3.43
   1  -1  -3   53.22    3.39
  -1   1  -3   52.18    3.41
   2  -1   3  224.20   14.14
  -2  -1  -3  238.94   14.37
   2  -1   3  192.60   14.31
  -2   1   3  223.12   14.00
  -2  -1  -3  235.33   14.06
   2   1  -3  254.07   14.05
  -2  -1  -3  235.24   14.01
  -2   1   3  227.42   13.99
  -2  -1  -3  219.39   13.98
  -2   1  -3  236.15   14.41
  -2  -1   3  212.91   14.04
   2   1   3  209.06   14.10
  -2   1  -3  228.10   13.99
   2  -1  -3  232.97   14.09
  -2   1  -3  227.25   14.01
  -2  -1   3  226.92   13.98
   2  -1  -3  228.51   14.04
   2   1   3  221.45   14.35
  -3  -1  -3   12.50    1.04
  -3   1   3   12.22    1.50
  -3  -1  -3   11.19    1.63
   3  -1   3   10.52    1.64
  -3  -1  -3   12.67    0.99
   3   1  -3   11.89    1.02
  -3   1   3   13.29    1.05
  -3   1   3   11.15    0.99
   3  -1   3   14.06    1.38
  -3   1  -3   12.17    1.02
   3   1   3   13.40    1.38
   3   1   3   12.81    1.02
  -3  -1   3   13.75    1.01
  -3   1  -3   14.04    1.02
   3  -1  -3   14.21    1.02
   3  -1  -3   12.82    1.35
  -3  -1   3   13.47    1.34
  -3   1  -3   15.87    1.82
   3   1   3   12.92    1.69
  -4   1   3   79.85    5.56
  -4  -1  -3   79.64    5.00
  -4   1   3   71.83    5.01
   4  -1   3   77.32    5.82
  -4   1   3   81.12    5.00
  -4  -1  -3   77.63    5.02
   4  -1   3   69.77    5.41
  -4   1  -3   78.20    4.99
   4   1   3   85.46    5.45
   4  -1  -3   78.88    5.39
   4   1   3   82.95    5.87
  -4  -1   3   82.11    4.99
  -4  -1   3   85.12    5.47
  -5   1   3    2.06    0.47
  -5  -1  -3    2.34    0.45
  -5   1   3    1.97    0.44
   5  -1   3    2.15    1.18
   5  -1  -3    1.10    1.09
  -5  -1   3    2.20    0.43
   5   1   3    1.15    0.98
  -5   1  -3    1.39    0.43
  -6   1   3    7.92    0.76
   6  -1   3    7.54    1.80
  -6   1   3    7.78    0.73
  -6  -1  -3    8.85    0.78
   6  -1  -3    8.22    1.87
  -6  -1   3    8.45    0.76
  -6   1  -3    7.54    0.75
  -6  -1   3    7.87    0.80
   6   1   3    6.69    1.68
   0  -2  -3  116.62    7.25
   0  -2   3  116.23    7.32
   0   2   3  119.76    7.27
   0   2   3  104.39    7.49
   0   2  -3  124.78    7.31
   0   2  -3  112.37    7.26
   0   2  -3  120.52    7.33
   0  -2  -3  112.67    7.55
   1   2  -3  138.66    7.74
  -1  -2  -3  122.31    8.02
   1  -2   3  130.08    7.99
  -1   2   3  123.92    7.76
  -1   2   3  124.54    7.74
  -1  -2  -3  131.07    7.75
   1   2  -3  135.83    7.81
  -1   2   3  127.76    8.02
  -1   2  -3  114.59    7.77
  -1  -2   3  113.90    7.73
   1  -2  -3  121.41    7.73
   1   2   3  125.18    7.74
   1  -2  -3  115.89    8.03
   1   2   3  119.68    7.75
   1  -2  -3  124.34    7.71
   1   2   3  117.88    7.78
  -1   2  -3  119.20    7.74
  -1   2  -3  130.40    7.99
  -2  -2  -3   14.11    1.06
   2  -2   3   12.89    1.24
  -2   2   3   14.17    1.05
   2   2  -3   13.43    1.10
  -2  -2  -3   12.88    1.08
  -2   2   3   14.38    1.09
  -2   2   3   14.30    1.10
  -2  -2  -3   12.79    1.50
   2   2   3   13.50    1.21
   2  -2  -3   13.42    1.19
  -2   2  -3   15.37    1.10
   2  -2  -3   12.82    1.08
  -2   2  -3   14.69    1.08
   2   2   3   16.48    1.60
  -2  -2   3   15.76    1.09
  -2  -2   3   14.45    1.02
  -2   2  -3   13.95    1.64
   2   2   3   13.55    1.11
   3   2  -3  190.31   11.59
  -3  -2  -3  193.09   11.56
  -3   2   3  191.47   11.53
   3  -2   3  187.18   11.82
   3  -2   3  174.04   12.09
  -3   2   3  172.44   11.54
  -3   2   3  187.40   11.55
  -3  -2  -3  190.03   12.08
  -3  -2  -3  181.64   11.53
  -3  -2   3  195.84   11.55
   3   2   3  189.46   11.77
   3   2   3  196.08   12.12
  -3  -2   3  181.16   11.67
   3  -2  -3  177.66   11.73
  -3   2  -3  185.59   11.54
   3   2   3  181.08   11.57
  -3   2  -3  203.48   12.22
  -3   2  -3  173.69   11.53
  -4   2   3   17.08    1.30
  -4   2   3   15.87    1.27
  -4  -2  -3   15.22    1.31
  -4   2   3   18.02    2.04
   4  -2   3   17.17    1.87
  -4  -2  -3   16.95    1.27
   4   2   3   15.19    2.05
   4   2   3   14.99    1.67
  -4   2  -3   15.19    1.29
  -4  -2   3   17.94    1.28
   4  -2  -3   16.80    1.74
   5  -2   3    1.63    1.23
  -5   2   3    1.25    0.44
  -5  -2  -3    1.75    0.46
  -5   2   3    1.39    0.47
  -5  -2  -3    0.45    0.46
   5  -2  -3    0.78    1.09
   5   2   3    1.49    1.10
  -5   2  -3    1.64    0.46
  -5  -2   3    1.13    0.45
   6  -2   3    0.50    1.46
  -6   2   3    1.16    0.44
  -6  -2  -3    0.84    0.49
  -6   2   3    1.11    0.49
  -6  -2   3    1.32    0.51
  -6   2  -3    0.60    0.48
   6  -2  -3    0.99    1.44
   6   2   3    1.57    1.42
   0   3  -3   12.22    1.09
   0   3  -3   11.93    0.96
   0   3  -3   11.84    0.99
   0   3   3   10.99    0.97
   0   3   3   10.86    0.99
   0  -3  -3    9.27    0.93
   0  -3  -3   10.46    1.41
  -1  -3  -3  107.11    7.54
  -1   3   3  128.14    7.59
  -1   3   3  122.02    7.55
  -1   3   3  115.72    7.51
   1   3  -3  125.74    7.46
   1   3  -3  102.33    7.49
  -1  -3  -3  125.27    7.53
  -1  -3  -3  116.91    7.84
   1   3  -3  109.66    7.57
  -1   3   3  125.75    7.88
   1   3  -3  117.06    7.52
  -1  -3   3  127.82    7.54
   1   3   3  129.98    7.93
   1   3   3  115.45    7.53
  -1   3  -3  127.21    7.54
  -1   3  -3  123.72    7.58
   1   3   3  124.66    7.60
   1  -3  -3  126.77    7.49
   1  -3  -3  119.37    7.52
  -1   3  -3  117.70    7.80
  -2   3   3  384.08   24.02
   2  -3   3  376.07   24.16
  -2   3   3  408.46   24.40
  -2  -3  -3  379.72   23.99
   2   3  -3  384.51   24.07
  -2  -3  -3  420.62   24.04
  -2   3   3  343.22   23.98
  -2  -3  -3  384.95   24.40
  -2   3   3  400.33   24.06
  -2  -3   3  383.93   24.01
   2   3   3  404.06   24.09
  -2   3  -3  397.08   24.05
  -2   3  -3  392.10   24.43
   2  -3  -3  383.86   24.07
  -2  -3   3  381.60   23.94
  -2   3  -3  392.24   24.01
   2   3   3  404.04   24.08
   2   3   3  384.49   24.40
  -3   3   3    4.80    0.58
   3   3  -3    4.40    0.65
  -3   3   3    5.11    0.63
  -3  -3  -3    4.37    0.62
  -3  -3  -3    4.71    1.30
  -3   3   3    4.40    0.61
  -3  -3  -3    4.86    0.58
   3  -3   3    2.72    0.86
   3   3   3    4.47    0.83
  -3   3  -3    4.55    1.28
  -3  -3   3    4.37    0.71
  -3   3  -3    4.22    0.60
   3   3   3    4.14    1.13
  -3   3  -3    4.77    0.61
   3   3   3    4.46    0.66
  -3  -3   3    4.21    0.61
   3  -3  -3    4.38    0.81
   4  -3   3    7.35    1.30
  -4  -3  -3    7.37    0.80
  -4  -3  -3    7.50    0.84
  -4   3   3    8.96    1.85
  -4   3   3    8.88    0.87
  -4   3   3    8.40    0.81
  -4   3  -3    9.39    0.86
   4  -3  -3   10.98    1.38
   4   3   3    7.45    1.29
  -4  -3   3    8.88    0.86
   4   3   3    8.75    1.70
   5  -3   3    2.15    1.16
  -5  -3  -3    1.12    0.47
  -5  -3  -3    1.21    0.55
  -5   3   3    1.14    0.47
  -5   3   3    0.76    0.49
   5  -3  -3    1.16    1.17
  -5  -3   3   -0.15    0.47
   5   3   3   -0.05    0.93
  -5   3  -3    0.28    0.50
  -6  -3  -3    2.51    0.61
  -6   3   3    2.53    0.63
   6  -3   3    3.59    1.70
   6  -3  -3    2.75    1.54
  -6   3  -3    2.53    0.61
   0   4   3   10.71    0.96
   0   4   3    8.98    0.96
   0   4  -3    9.94    0.93
   0   4  -3   11.14    0.99
   0  -4  -3   10.33    0.93
   0  -4  -3    9.82    1.36
  -1   4   3    9.69    0.90
  -1  -4  -3    9.54    0.90
  -1  -4  -3   11.02    1.38
   1   4  -3    9.85    0.90
   1   4  -3   10.25    1.01
   1   4  -3    8.20    0.91
  -1   4   3    8.12    0.89
  -1  -4  -3    9.27    0.90
  -1   4   3    8.83    1.34
  -1   4   3    9.22    0.86
   1  -4  -3    9.58    0.80
  -1   4  -3    9.43    0.89
  -1  -4   3    8.42    0.87
   1   4   3    7.57    0.81
  -1   4  -3    8.75    1.21
   1  -4  -3    9.67    0.86
  -1   4  -3    9.43    0.99
   1   4   3    7.61    0.95
   1   4   3   10.33    1.41
   2   4  -3   21.70    1.58
  -2  -4  -3   19.70    1.45
  -2   4   3   19.50    1.50
   2   4  -3   20.61    1.38
  -2  -4  -3   18.74    1.49
  -2   4   3   20.32    2.00
  -2  -4  -3   19.30    2.05
  -2   4   3   21.85    1.53
  -2   4   3   19.77    1.44
   2   4   3   17.34    1.52
  -2  -4   3   18.95    1.48
   2   4   3   16.43    1.93
  -2   4  -3   16.02    1.93
  -2   4  -3   18.51    1.51
   2  -4  -3   19.20    1.52
  -2   4  -3   18.10    1.47
  -3  -4  -3  121.05    8.65
  -3  -4  -3  124.58    8.16
  -3   4   3  135.17    8.18
   3  -4   3  132.81    8.43
  -3   4   3  126.70    8.16
  -3   4   3  135.29    8.14
  -3  -4  -3  129.62    8.14
   3   4  -3  126.85    8.22
   3   4  -3  137.37    8.18
  -3  -4   3  131.66    8.20
   3  -4  -3  128.98    8.31
  -3  -4   3  137.72    8.16
  -3   4  -3  123.82    8.15
   3   4   3  114.59    8.68
  -3   4  -3  132.63    8.17
   3   4   3  127.27    8.22
  -4  -4  -3    7.04    0.82
  -4   4   3    6.22    0.75
  -4  -4  -3    7.28    0.79
   4  -4   3    8.04    1.41
  -4   4   3    6.33    0.79
   4  -4  -3    7.11    1.17
  -4  -4   3    6.00    0.78
   4   4   3    5.64    1.58
  -4   4  -3    5.81    0.77
  -5  -4  -3    3.58    0.67
  -5   4   3    3.14    0.69
   5  -4   3    2.76    1.31
   5  -4  -3    2.54    1.27
  -5   4  -3    3.76    0.69
  -6   4   3    5.42    0.87
  -6  -4  -3    6.18    0.87
   6  -4   3    6.05    1.90
  -6   4  -3    7.36    0.92
   6  -4  -3    4.18    1.69
   0   5  -3    1.45    0.49
   0   5   3    1.07    0.45
   0   5   3    1.78    0.93
   0  -5  -3    0.69    0.48
   0  -5  -3    0.48    0.77
   0   5   3    1.40    0.58
   0   5  -3    1.16    0.57
   1   5  -3  104.07    6.80
  -1   5   3  113.56    6.74
  -1   5   3  111.16    7.22
  -1  -5  -3  105.48    6.71
  -1   5   3  108.60    6.78
   1   5  -3  112.55    6.70
  -1  -5  -3  107.18    7.25
  -1   5   3  108.49    6.70
   1   5  -3  107.07    6.89
  -1  -5  -3  109.70    6.73
   1  -5  -3  102.80    6.65
   1   5   3  104.21    7.22
  -1   5  -3  103.55    7.01
   1  -5  -3  109.06    6.70
  -1   5  -3   93.17    6.70
   1   5   3  102.68    6.79
   1   5   3  107.40    6.71
  -1   5  -3   99.62    6.77
  -1  -5   3   99.20    6.70
  -2   5   3  123.38    8.14
  -2  -5  -3  132.42    8.59
  -2   5   3  138.17    8.08
   2   5  -3  128.91    8.17
  -2   5   3  134.33    8.59
  -2   5   3  127.95    8.10
   2   5  -3  120.16    8.05
  -2  -5  -3  131.36    8.08
  -2  -5  -3  133.01    8.10
   2  -5  -3  130.05    8.12
   2   5   3  123.11    8.60
  -2   5  -3  128.11    8.57
  -2  -5   3  129.97    8.08
  -2   5  -3  123.30    8.14
   2   5   3  126.77    8.17
  -2   5  -3  118.16    8.07
   3  -5   3   18.85    1.84
  -3  -5  -3   13.60    1.89
  -3   5   3   16.29    1.39
  -3   5   3   14.75    1.41
  -3  -5  -3   17.49    1.40
  -3   5   3   16.69    1.37
   3   5  -3   15.92    1.37
  -3   5   3   12.38    1.99
   3   5  -3   15.84    1.48
  -3  -5  -3   15.15    1.38
  -3  -5   3   15.41    1.68
  -3  -5   3   15.66    1.39
  -3   5  -3   15.26    1.42
  -3   5  -3   16.02    1.43
   3  -5  -3   17.19    1.66
   3   5   3   15.78    1.45
   3   5   3   16.93    2.22
  -4  -5  -3   20.41    1.63
  -4   5   3   18.10    1.65
   4  -5   3   20.20    2.10
  -4   5  -3   20.12    1.67
   4  -5  -3   19.76    1.98
   5  -5   3    0.50    1.29
  -5  -5  -3    0.07    0.60
  -5   5   3    0.59    0.65
   5  -5  -3   -0.42    1.01
  -5   5  -3    0.56    0.65
  -6  -5  -3    2.81    0.78
  -6   5   3    1.14    0.74
   6  -5   3    2.70    1.86
  -6   5  -3    1.67    0.75
   6  -5  -3    2.42    1.63
   0   6  -3    0.22    0.58
   0   6   3    0.90    0.51
   0   6   3    0.60    0.97
   0   6  -3    0.09    0.50
   0  -6  -3    0.39    0.80
   0  -6  -3    0.19    0.48
   0   6   3    0.46    0.65
   1   6  -3  141.71    9.12
   1   6  -3  127.52    8.97
   1   6  -3  132.21    9.24
  -1   6   3  143.64    9.02
  -1   6   3  117.73    9.41
  -1  -6  -3  152.37    9.17
  -1  -6  -3  163.40    9.03
  -1  -6  -3  144.87    9.55
  -1   6   3  154.84    9.12
  -1   6   3  140.07    8.98
   1   6   3  131.53    9.58
  -1   6  -3  145.13    9.10
   1   6   3  144.47    9.11
   1   6   3  148.67    9.01
  -1  -6   3  151.58    9.04
   1  -6  -3  138.73    8.97
  -1   6  -3  144.46    9.01
  -2  -6  -3   25.01    2.14
  -2   6   3   28.55    2.11
   2   6  -3   30.67    2.29
  -2   6   3   28.83    2.23
   2   6  -3   27.83    2.24
  -2   6   3   30.43    2.23
  -2  -6  -3   25.85    2.71
  -2  -6   3   29.14    2.18
   2   6   3   28.75    2.28
  -2   6  -3   30.03    2.17
   2  -6  -3   31.21    2.20
  -2   6  -3   31.58    2.26
   2   6   3   25.22    2.75
  -2   6  -3   29.42    2.71
  -3   6   3   62.06    4.17
  -3   6   3   50.63    4.86
  -3  -6  -3   62.07    4.15
  -3   6   3   59.41    4.19
   3  -6   3   56.41    4.45
   3   6  -3   61.06    4.26
   3   6   3   63.13    4.27
  -3   6  -3   63.64    4.20
   3   6   3   66.15    4.99
   3  -6  -3   73.63    4.36
  -3   6  -3   65.14    4.18
  -4  -6  -3    9.01    1.03
   4  -6   3    9.79    1.58
  -4   6   3    8.73    1.07
   4   6  -3    7.58    1.23
   4  -6  -3    8.53    1.34
  -4   6  -3    8.28    1.08
  -5  -6  -3    1.27    0.73
   5  -6   3   -1.19    1.37
  -5   6   3    0.74    0.80
   5  -6  -3    0.08    1.16
  -5   6  -3    1.28    0.79
  -6  -6  -3    4.14    0.91
   6  -6   3    3.71    1.81
  -6   6   3    4.05    0.96
   6  -6  -3    3.74    1.79
  -6   6  -3    5.20    0.97
   0   7  -3    4.92    0.92
   0   7  -3    1.68    0.87
   0  -7  -3    3.38    0.73
   0   7  -3    2.75    0.72
   0   7   3    3.68    1.33
   0   7   3    3.56    0.76
   0   7   3    4.01    0.92
   0  -7  -3    2.04    1.20
  -1   7   3   28.11    2.19
   1   7  -3   29.85    2.10
  -1  -7  -3   27.71    2.69
  -1   7   3   25.92    2.13
   1   7  -3   27.40    2.47
  -1  -7  -3   29.95    2.13
   1   7  -3   25.23    2.24
   1  -7  -3   24.80    2.03
   1   7   3   26.67    2.09
   1   7   3   29.32    2.89
  -1   7  -3   23.83    2.21
  -1   7  -3   27.71    2.12
   1   7   3   25.92    2.25
  -2  -7  -3   52.97    3.59
   2   7  -3   43.01    3.70
   2   7  -3   57.63    3.78
  -2   7   3   54.52    4.32
  -2   7   3   58.37    3.65
  -2   7   3   58.52    3.70
   2   7   3   51.97    3.73
   2  -7  -3   49.74    3.59
   2   7   3   49.52    4.42
  -2   7  -3   47.71    3.63
  -2   7  -3   51.78    3.60
   3  -7   3    2.66    1.08
  -3   7   3    1.98    0.76
  -3  -7  -3    1.84    0.71
  -3   7   3    2.75    0.83
   3   7  -3    2.09    0.88
   3  -7  -3    2.21    0.88
  -3   7  -3    0.96    0.75
   3   7   3    0.44    1.22
   3   7   3    2.44    0.87
  -3   7  -3    2.04    0.82
   4   7  -3   12.41    1.47
  -4  -7  -3   12.78    1.32
   4  -7   3   10.20    1.69
  -4   7   3   11.47    1.36
   4   7   3   13.31    1.58
  -4   7  -3   11.59    1.35
   4  -7  -3   13.98    1.65
   5  -7   3    6.63    1.67
  -5   7   3    3.05    0.97
  -5  -7  -3    6.06    1.01
   5  -7  -3    5.13    1.45
  -5   7  -3    4.74    1.08
   0  -8  -3  162.20    9.40
   0   8   3  151.01    9.42
   0   8  -3  142.41    9.70
   0   8  -3  158.86    9.43
   0   8   3  144.20    9.51
   0   8   3  124.62    9.99
   0   8  -3  147.65    9.56
   1   8  -3   16.50    2.11
  -1  -8  -3   16.38    1.62
  -1   8   3   14.45    1.75
  -1   8   3   16.11    1.61
   1   8  -3   16.42    1.87
  -1   8   3   15.15    2.26
   1   8   3   19.60    2.49
   1   8   3   17.29    1.85
  -1   8  -3   15.66    1.78
  -1   8  -3   19.51    1.70
   2   8  -3    0.38    0.90
  -2   8   3    0.32    0.79
  -2  -8  -3    0.44    0.71
  -2   8   3   -0.12    0.78
   2   8   3    0.74    1.34
   2   8   3   -0.57    0.86
  -2   8  -3   -0.22    0.71
  -2   8  -3    0.87    0.81
   2  -8  -3   -0.04    0.73
   3  -8   3   22.00    2.64
  -3   8   3   32.76    2.56
   3   8  -3   28.80    2.62
  -3   8   3   33.27    2.55
  -3  -8  -3   30.06    2.44
   3   8   3   32.61    2.66
  -3   8  -3   33.90    2.60
   3  -8  -3   34.87    2.65
  -3   8  -3   34.97    2.57
   4   8  -3   10.33    1.46
   4  -8   3    8.51    1.80
  -4  -8  -3   11.68    1.34
  -4   8   3   10.20    1.36
   4   8   3   10.20    1.45
  -4   8  -3   10.41    1.36
   4  -8  -3    9.37    1.54
  -5  -8  -3    2.15    0.96
   5  -8   3    1.70    1.69
  -5   8   3    1.21    1.03
   5  -8  -3    0.53    1.36
  -5   8  -3    2.73    1.09
   0   9  -3   23.43    2.37
   0   9  -3   20.29    2.09
   0   9   3   22.63    2.25
   1   9  -3   18.86    1.98
  -1  -9  -3   18.61    1.79
   1   9  -3   19.17    2.28
  -1   9   3   18.25    1.78
  -1   9   3   19.09    1.91
  -1   9  -3   15.89    1.84
  -1   9  -3   19.29    1.88
   1   9   3   20.83    2.11
  -2  -9  -3   56.50    4.03
  -2   9   3   59.71    4.21
   2   9  -3   51.71    4.22
  -2   9   3   54.63    4.07
   2  -9  -3   61.79    4.08
   2   9   3   60.03    4.29
  -2   9  -3   60.52    4.09
  -2   9  -3   58.02    4.20
  -3  -9  -3    0.54    0.80
   3   9  -3    1.30    1.11
  -3   9   3    1.21    0.89
   3  -9   3   -1.23    1.24
   3  -9  -3    0.42    0.88
   3   9   3    0.89    1.02
  -3   9  -3    0.45    0.84
  -3   9  -3    2.02    0.93
   4  -9   3    1.63    1.46
  -4   9   3    0.24    1.00
   4   9  -3    1.11    1.13
  -4  -9  -3    0.86    0.89
  -4   9  -3    0.92    1.00
   4   9   3   -0.43    1.07
   4  -9  -3   -0.20    1.01
   5  -9   3    6.23    2.12
  -5  -9  -3    6.65    1.31
  -5   9   3    6.64    1.36
   5  -9  -3    7.19    1.77
  -5   9  -3    7.12    1.41
   0  10   3   44.61    3.52
   0  10  -3   42.60    3.70
   0  10  -3   42.58    3.48
  -1  10   3    0.41    0.96
   1  10  -3    1.13    1.12
   1  10   3    1.49    1.22
  -1  10  -3    0.70    0.87
  -2 -10  -3    3.18    0.94
  -2  10   3    2.04    1.07
  -2  10   3    2.39    1.01
   2  10  -3    0.25    1.17
   2 -10  -3    2.42    0.94
  -2  10  -3    1.24    0.99
   2  10   3    0.19    1.24
  -2  10  -3   -0.72    0.86
   3  10  -3    9.19    1.69
  -3 -10  -3    9.84    1.34
   3 -10   3    7.08    1.94
  -3  10   3    8.98    1.43
  -3  10   3    9.21    1.46
   3 -10  -3   11.62    1.51
  -3  10  -3   10.97    1.45
  -3  10  -3   10.18    1.47
   3  10   3    9.22    1.62
  -4  10   3    5.19    1.24
   4  10  -3    3.56    1.48
  -4 -10  -3    1.40    1.10
   4 -10   3    3.25    1.73
  -4  10  -3    4.26    1.26
   4  10   3    1.82    1.45
   0  11  -3    0.11    1.17
   0  11   3   -0.20    1.10
  -1  11   3   15.45    2.03
   1  11  -3   16.26    2.05
   1  11   3   15.35    2.14
  -1  11  -3   13.74    1.99
  -2  11   3    6.51    1.47
   2  11  -3    7.06    1.57
  -2  11  -3    6.17    1.45
   2  11   3    4.30    1.63
  -3 -11  -3    2.73    1.12
   3  11  -3    3.80    1.64
  -3  11   3    3.69    1.25
  -3  11   3    3.47    1.29
   3 -11   3   -0.01    1.71
   3  11   3    3.41    1.53
  -3  11  -3    4.21    1.31
  -3  11  -3    1.59    1.17
  -4  11   3    0.76    1.24
   4 -11   3   -0.34    1.73
   4  11  -3   -0.89    1.62
  -4 -11  -3    1.12    1.21
  -4  11  -3    1.84    1.28
   4  11   3   -0.16    1.52
   0  12   3    3.18    1.49
   0  12  -3    5.62    1.47
   1  12  -3    4.81    1.77
  -1  12   3    4.79    1.67
   1  12   3    5.67    1.85
  -1  12  -3    3.93    1.37
  -2  12   3    4.48    1.46
   2  12  -3    7.08    1.89
   2  12   3    4.47    1.67
  -2  12  -3    4.77    1.55
  -3  12   3    1.37    1.35
   3  12  -3    1.77    1.85
   3 -12   3    0.89    1.93
   3  12   3    3.11    1.75
  -3  12  -3    4.63    1.39
   0  13   3    0.04    1.37
   0  13  -3    1.09    1.74
  -1  13   3    3.32    1.66
   1  13  -3    6.19    2.02
  -1  13  -3    2.68    1.75
   1  13   3    3.56    1.88
  -2  13   3   -0.29    1.50
   2  13  -3   -0.53    2.03
   2  13   3    0.08    1.91
  -2  13  -3    0.88    1.58
   3 -13   3    1.61    2.20
   0  14  -3    9.44    2.17
   0  14   3    9.71    2.35
  -1  14   3    1.03    1.59
   1  14  -3    2.18    2.29
   1  14   3    1.93    2.19
  -1  14  -3    0.65    1.58
   0   0   4    1.63    0.56
   0   0   4    1.01    0.45
   0   0  -4    1.27    0.39
   0   0  -4    1.29    0.60
   0   0  -4    0.95    0.40
   1   0  -4    7.37    0.79
  -1   0   4    9.66    0.81
   1   0   4    8.92    1.12
  -1   0  -4    7.75    0.81
   1   0  -4    9.12    0.79
  -1   0  -4   10.67    0.88
  -1   0   4   10.20    0.95
   1   0   4    8.33    0.83
   1   0   4    9.87    0.85
   1   0  -4    8.76    1.03
  -1   0  -4    9.53    1.13
  -2   0  -4   59.21    4.30
  -2   0   4   58.96    3.88
  -2   0  -4   62.46    3.95
  -2   0  -4   66.26    3.89
  -2   0   4   59.35    4.02
   2   0  -4   62.07    3.93
   2   0   4   56.05    4.00
  -3   0   4    3.39    0.51
   3   0  -4    3.19    0.54
  -3   0   4    3.04    0.79
  -3   0  -4    4.11    0.60
   3   0   4    3.02    0.77
  -3   0  -4    2.10    0.48
  -3   0  -4    3.17    1.18
   3   0   4    2.42    1.05
   4   0   4    1.75    0.86
  -4   0   4    2.90    1.12
  -4   0   4    3.16    0.51
  -4   0  -4    2.93    0.53
  -5   0   4   57.26    3.59
  -5   0   4   57.95    3.63
   5   0   4   48.41    4.14
  -5   0  -4   53.65    3.58
   6   0   4    6.75    1.81
  -6   0  -4    5.69    0.72
  -6   0   4    4.07    0.72
   0   1   4  583.08   33.45
   0  -1  -4  531.81   33.64
   0   1  -4  473.05   33.47
   0  -1   4  541.58   33.53
   0   1   4  557.98   33.64
   0   1  -4  515.65   33.52
   0  -1  -4  541.92   33.43
   0   1  -4  600.65   33.43
   1   1  -4  214.08   12.10
  -1   1   4  208.06   12.02
   1   1  -4  203.44   12.07
   1   1  -4  200.51   12.01
  -1  -1  -4  208.61   12.05
  -1   1   4  190.40   12.21
  -1  -1  -4  195.78   12.01
  -1   1   4  189.11   12.04
  -1  -1  -4  220.01   12.12
   1  -1   4  219.38   12.31
  -1  -1  -4  196.16   12.31
  -1  -1   4  180.32   11.99
  -1  -1   4  182.17   12.00
   1   1   4  177.51   12.02
   1   1   4  166.76   12.24
  -1   1  -4  200.00   12.28
   1  -1  -4  211.46   12.11
   1  -1  -4  189.50   12.23
   1   1   4  168.15   12.00
   1  -1  -4  175.17   12.00
  -1   1  -4  185.76   12.07
  -1   1  -4  183.79   12.01
  -2  -1  -4   80.90    5.58
   2   1  -4   86.09    5.23
  -2  -1  -4   80.89    5.15
   2  -1   4   85.73    5.31
  -2   1   4   79.46    5.18
  -2  -1  -4   92.33    5.27
  -2   1   4   80.62    5.15
  -2  -1  -4   80.23    5.18
  -2   1   4   84.16    5.37
  -2   1  -4   80.09    5.19
  -2   1  -4   74.87    5.15
   2   1   4   74.06    5.54
   2  -1  -4   82.60    5.22
  -2   1  -4   74.65    5.56
  -2  -1   4   77.89    5.15
   2   1   4   90.12    5.29
  -2  -1   4   80.55    5.15
  -2  -1   4   83.11    5.18
   3  -1   4    9.98    1.21
  -3  -1  -4   10.12    0.92
  -3  -1  -4   11.99    1.02
  -3  -1  -4   13.14    1.69
  -3   1   4    9.34    1.25
  -3   1   4   11.18    0.94
   3   1  -4   11.17    0.97
  -3  -1  -4   11.47    1.02
  -3   1   4   10.21    1.01
   3  -1   4   12.39    1.71
   3   1   4    6.83    1.06
  -3   1  -4    9.32    0.95
   3   1   4    9.43    0.95
  -3   1  -4    8.18    1.54
  -3  -1   4   10.29    1.13
   3  -1  -4    9.60    0.97
   3   1   4   11.59    1.64
   3  -1  -4    9.37    1.17
  -3  -1   4    9.21    0.93
  -3   1  -4   10.16    0.94
   4  -1   4   21.73    2.14
  -4   1   4   23.74    1.64
  -4   1   4   21.99    1.57
  -4  -1  -4   22.05    1.58
  -4  -1  -4   21.58    1.62
  -4   1   4   17.35    2.11
  -4   1  -4   22.01    1.59
  -4  -1   4   20.27    1.57
   4  -1  -4   20.12    2.05
   4   1   4   19.84    2.03
   5  -1   4    2.13    1.22
  -5   1   4    4.81    0.68
  -5  -1  -4    3.78    0.62
  -5   1   4    5.48    0.64
   5  -1  -4    3.29    1.28
  -5  -1   4    3.89    0.60
   5   1   4    3.93    1.29
  -5   1  -4    4.48    0.65
  -6  -1  -4    4.56    0.68
   6  -1   4    5.63    1.72
  -6   1   4    4.18    0.70
  -6  -1   4    4.59    0.74
   6   1   4    5.12    1.71
  -6   1  -4    4.39    0.67
   0   2  -4  141.49    9.51
   0   2  -4  149.68    9.56
   0   2   4  158.87    9.48
   0  -2   4  152.83    9.56
   0   2   4  150.40    9.73
   0   2  -4  151.64    9.45
   0  -2  -4  159.51    9.46
   0  -2  -4  150.12    9.79
   1   2  -4  140.41    9.38
   1   2  -4  144.67    9.34
  -1   2   4  154.18    9.44
  -1  -2  -4  167.37    9.77
   1  -2   4  138.20    9.64
  -1   2   4  134.54    9.39
  -1  -2  -4  153.82    9.41
  -1   2   4  149.04    9.72
   1   2  -4  140.20    9.46
  -1  -2  -4  154.68    9.44
  -1   2  -4  149.10    9.67
  -1  -2   4  148.90    9.41
   1  -2  -4  161.24    9.40
   1   2   4  165.32    9.39
   1   2   4  162.69    9.43
  -1   2  -4  148.83    9.46
   1  -2  -4  159.96    9.75
  -1   2  -4  147.43    9.41
  -2   2   4   66.85    4.72
  -2  -2  -4   65.65    4.53
  -2  -2  -4   73.61    4.44
  -2   2   4   62.89    4.41
   2   2  -4   63.33    4.47
   2  -2   4   62.08    4.82
   2  -2   4   70.32    4.60
  -2  -2  -4   59.44    4.80
  -2   2   4   61.59    4.44
   2  -2  -4   68.53    4.50
  -2   2  -4   75.01    4.50
  -2   2  -4   73.25    4.91
  -2  -2   4   74.10    4.44
   2   2   4   79.57    4.96
   2   2   4   73.55    4.49
   2  -2  -4   74.91    4.49
  -2   2  -4   76.44    4.46
   2   2   4   69.05    4.51
   3   2  -4   42.73    2.74
  -3   2   4   38.95    2.69
  -3  -2  -4   37.39    2.69
  -3  -2  -4   37.07    2.66
  -3  -2  -4   38.12    3.29
  -3   2   4   36.66    2.67
  -3   2   4   39.15    2.66
  -3   2   4   36.86    3.17
   3  -2   4   40.91    2.97
   3   2   4   38.30    3.29
  -3   2  -4   39.64    2.67
   3   2   4   37.43    2.71
   3  -2  -4   44.11    2.74
  -3  -2   4   41.09    2.71
  -3  -2   4   43.77    2.69
   3   2   4   44.29    2.94
  -3   2  -4   45.63    3.46
  -3   2  -4   37.25    2.68
   3  -2  -4   41.96    2.88
  -4  -2  -4   40.20    2.82
  -4  -2  -4   41.87    2.87
  -4   2   4   43.33    2.83
   4  -2   4   40.45    3.30
  -4   2   4   37.00    3.33
  -4   2   4   38.12    2.84
   4   2   4   44.33    3.20
   4  -2  -4   46.77    3.23
  -4  -2   4   46.86    2.85
  -4   2  -4   44.43    2.85
  -5   2   4   22.95    1.76
   5  -2   4   23.15    2.52
  -5   2   4   24.93    1.77
  -5  -2  -4   22.54    1.73
  -5   2  -4   23.33    1.75
   5  -2  -4   18.52    2.22
  -5  -2   4   22.76    1.79
   5   2   4   23.86    2.46
  -6  -2  -4    3.42    0.66
   6  -2   4    3.97    1.60
  -6   2   4    3.00    0.67
   6   2   4    3.08    1.58
   6  -2  -4    4.31    1.64
  -6   2  -4    2.09    0.64
   0   3   4   99.29    6.02
   0   3  -4   86.53    5.98
   0   3   4  102.88    6.40
   0  -3  -4   94.11    5.97
   0   3  -4   98.97    6.09
   0  -3  -4  106.18    6.49
   0   3   4   95.51    6.05
   0  -3  -4   81.05    6.06
   0   3  -4   91.27    6.05
   1  -3   4   18.17    1.58
  -1  -3  -4   18.19    1.19
  -1   3   4   17.91    1.23
   1   3  -4   15.89    1.02
  -1  -3  -4   17.14    1.31
   1   3  -4   17.45    1.25
  -1  -3  -4   15.88    1.61
  -1   3   4   17.17    1.66
  -1   3   4   18.36    1.27
  -1   3   4   15.68    1.17
   1   3   4   12.35    1.15
   1  -3  -4   11.38    1.02
   1  -3  -4   10.70    1.58
  -1   3  -4   12.96    1.50
  -1   3  -4   13.70    1.22
  -1   3  -4   12.22    1.18
   1  -3  -4   11.97    1.14
   1   3   4   12.33    1.24
  -1  -3   4   11.83    1.15
   1  -3  -4   14.04    1.26
  -2  -3  -4  117.93    6.73
   2   3  -4  103.30    6.75
  -2   3   4  107.16    6.74
   2  -3   4  109.90    7.14
   2  -3   4  113.24    6.88
  -2   3   4   99.29    6.67
  -2  -3  -4  113.59    6.70
  -2  -3  -4   98.49    7.12
  -2   3   4   97.35    7.03
  -2   3   4  114.23    6.72
  -2   3  -4  111.22    6.74
  -2   3  -4  100.52    7.13
   2   3   4  104.80    7.16
   2  -3  -4  101.61    6.70
  -2   3  -4  104.61    6.68
   2   3   4   98.03    6.73
   2   3   4  100.28    6.75
  -2  -3   4  111.28    6.69
  -3   3   4   12.90    1.18
   3  -3   4   11.49    1.42
  -3  -3  -4   11.76    1.17
  -3   3   4   11.13    1.19
  -3  -3  -4   12.27    1.16
  -3  -3  -4   10.84    1.73
   3   3  -4   11.67    1.23
  -3   3   4    8.33    1.60
  -3   3   4   12.71    1.14
  -3   3  -4   15.19    1.21
   3   3   4   15.40    1.45
  -3   3  -4   14.27    1.21
   3  -3  -4   14.10    1.44
  -3  -3   4   14.10    1.04
  -3  -3   4   13.91    1.16
   3   3   4   14.87    1.23
   3   3   4   15.06    1.99
  -4  -3  -4   10.72    1.07
  -4   3   4    9.77    1.66
  -4  -3  -4   11.58    1.10
  -4   3   4   11.91    1.12
   4  -3   4   11.25    1.52
  -4   3   4   11.62    1.17
  -4  -3   4   12.66    1.15
   4   3   4   11.79    1.45
  -4   3  -4   12.52    1.18
   4  -3  -4   11.84    1.44
  -5   3   4   11.01    1.12
  -5  -3  -4   12.22    1.20
   5  -3   4   11.15    1.78
   5   3   4   11.05    1.60
   5  -3  -4   12.83    1.72
  -5   3  -4   11.99    1.13
  -6   3   4   15.19    1.44
   6  -3   4   15.83    2.36
  -6  -3  -4   13.97    1.40
  -6   3  -4   14.03    1.42
   6  -3  -4   11.14    2.10
   6   3   4   15.56    2.28
   0  -4  -4  101.54    6.06
   0   4  -4   91.92    6.18
   0   4   4  102.07    6.09
   0   4   4   87.51    6.12
   0   4   4   95.30    6.51
   0   4  -4   91.42    6.06
   0   4  -4  100.43    6.14
   0  -4  -4   93.96    6.55
   1   4  -4  208.59   12.12
  -1   4   4  188.57   12.18
  -1  -4  -4  206.84   12.59
   1   4  -4  222.63   12.11
  -1  -4  -4  208.29   12.15
  -1   4   4  174.44   12.11
  -1   4   4  194.30   12.10
   1   4  -4  208.73   12.21
   1   4  -4  205.90   12.06
  -1   4   4  201.84   12.60
  -1  -4  -4  198.45   12.11
   1   4   4  187.08   12.19
  -1  -4   4  189.21   12.11
  -1   4  -4  195.00   12.41
   1  -4  -4  179.27   12.00
   1  -4  -4  176.80   12.08
   1   4   4  200.74   12.63
  -1   4  -4  172.24   12.09
  -1   4  -4  173.83   12.17
   1   4   4  193.01   12.11
  -2   4   4   51.03    3.40
  -2   4   4   53.78    3.51
  -2   4   4   50.63    3.94
  -2   4   4   53.33    3.46
   2  -4   4   52.83    3.71
  -2  -4  -4   54.35    3.46
  -2  -4  -4   54.49    3.43
  -2  -4  -4   44.02    3.85
   2   4  -4   49.82    3.51
   2   4   4   52.82    3.52
  -2   4  -4   49.29    3.49
   2  -4  -4   49.14    3.42
  -2   4  -4   49.32    3.45
  -2   4  -4   54.68    3.95
   2   4   4   54.83    4.03
  -2  -4   4   54.69    3.45
  -3   4   4   38.83    2.88
  -3   4   4   42.47    2.84
  -3   4   4   43.60    2.90
  -3  -4  -4   41.45    2.88
   3   4  -4   43.69    2.95
   3  -4   4   36.95    3.17
  -3   4   4   41.42    3.56
  -3  -4  -4   37.53    2.84
   3   4   4   41.95    2.94
  -3   4  -4   38.68    2.88
   3  -4  -4   44.98    3.03
  -3  -4   4   46.72    2.90
  -3   4  -4   43.77    2.90
   3   4   4   44.14    3.61
  -4   4   4    2.42    0.64
   4  -4   4    2.62    1.07
  -4  -4  -4    3.37    0.62
   4   4   4    1.79    0.95
  -4   4  -4    2.08    0.63
   4  -4  -4    2.24    0.93
  -5   4   4    7.94    0.98
   5  -4   4    8.33    1.72
  -5  -4  -4    8.60    0.98
  -5   4  -4   10.56    1.08
   5  -4  -4    8.01    1.50
  -6  -4  -4    1.15    0.71
   6  -4   4    0.00    1.46
  -6   4   4    0.42    0.69
  -6   4  -4    1.01    0.72
   6  -4  -4    2.92    1.61
   0   5  -4  156.90    9.61
   0  -5  -4  169.83   10.21
   0   5   4  154.46    9.63
   0  -5  -4  133.39    9.58
   0   5  -4  142.20    9.69
   0   5  -4  163.92    9.77
   0   5   4  151.71    9.71
  -1   5   4   23.02    1.94
  -1  -5  -4   22.29    1.82
   1   5  -4   20.19    1.81
  -1   5   4   19.49    1.76
  -1  -5  -4   19.15    2.34
   1   5  -4   23.62    1.80
   1   5  -4   23.52    1.93
  -1   5   4   21.76    2.38
  -1   5   4   24.52    1.86
   1   5  -4   21.18    1.89
  -1  -5  -4   21.13    1.83
  -1  -5   4   28.88    1.88
   1  -5  -4   27.50    1.70
  -1   5  -4   29.14    1.95
   1  -5  -4   30.52    1.87
   1   5   4   29.30    2.56
  -1   5  -4   29.27    2.30
   1   5   4   27.98    1.86
   1   5   4   27.19    1.99
   1  -5  -4   19.40    2.39
  -1   5  -4   30.74    1.92
  -2   5   4    7.62    1.43
  -2  -5  -4    6.86    0.85
   2   5  -4    9.56    1.06
  -2   5   4    6.98    0.92
  -2   5   4    8.19    0.86
  -2  -5  -4    8.03    0.89
  -2  -5  -4    8.60    1.47
  -2   5   4    8.58    0.97
   2   5  -4    8.36    0.64
   2   5   4    4.81    0.91
  -2   5  -4    5.73    1.34
  -2   5  -4    5.00    0.85
  -2   5  -4    7.05    0.99
   2   5   4    7.45    1.54
  -2  -5   4    7.19    0.89
   2  -5  -4    7.79    0.88
  -3   5   4   17.34    2.22
   3   5  -4   17.33    1.68
  -3  -5  -4   18.79    1.54
  -3   5   4   18.81    1.60
   3  -5   4   15.31    1.89
  -3   5   4   16.50    1.55
   3   5   4   16.73    1.66
   3   5   4   20.92    2.53
   3  -5  -4   13.97    1.60
  -3   5  -4   18.71    1.59
  -3   5  -4   19.01    1.58
   4  -5   4   30.18    2.72
  -4   5   4   28.45    2.32
  -4  -5  -4   34.57    2.32
  -4   5  -4   31.11    2.34
   4  -5  -4   31.15    2.62
   5  -5   4    5.26    1.55
  -5   5   4    4.72    0.87
  -5  -5  -4    3.23    0.81
   5  -5  -4    3.04    1.26
  -5   5  -4    3.41    0.85
   6  -5   4    4.35    1.96
  -6   5   4    2.95    0.88
  -6  -5  -4    3.88    0.88
  -6   5  -4    3.32    0.90
   6  -5  -4    2.09    1.64
   0   6  -4    0.02    0.52
   0   6   4   -0.10    0.96
   0   6   4    0.00    0.62
   0  -6  -4    0.06    0.57
   0   6  -4   -0.22    0.53
   0  -6  -4   -0.66    0.99
   0   6  -4    0.23    0.69
   0   6   4    0.33    0.53
  -1  -6  -4   32.90    2.35
  -1  -6  -4   32.72    3.00
   1   6  -4   29.11    2.46
  -1   6   4   31.99    2.38
   1   6  -4   30.96    2.49
   1   6  -4   31.91    2.34
  -1   6   4   30.80    2.45
  -1   6   4   31.22    3.10
  -1   6  -4   32.72    2.75
   1   6   4   38.35    3.14
  -1   6  -4   35.77    2.38
   1  -6  -4   32.51    2.20
   1   6   4   29.13    2.41
   1   6   4   29.34    2.30
   1  -6  -4   32.96    2.31
  -1   6  -4   31.32    2.41
  -2   6   4   47.65    4.11
   2   6  -4   47.86    3.58
  -2  -6  -4   45.71    3.47
  -2   6   4   52.76    3.54
   2   6  -4   50.87    3.40
  -2  -6  -4   42.54    4.35
  -2   6   4   49.87    3.59
  -2   6  -4   64.59    4.81
   2   6   4   50.63    4.33
  -2   6  -4   56.45    3.60
  -2   6  -4   53.61    3.55
   2  -6  -4   56.64    3.49
   2   6   4   49.50    3.59
   3  -6   4   19.45    2.04
   3   6  -4   20.85    1.85
  -3   6   4   19.40    1.70
  -3   6   4   16.03    2.46
  -3   6   4   21.62    1.76
  -3  -6  -4   20.09    1.67
  -3   6  -4   17.62    1.70
   3   6   4   16.27    2.39
   3   6   4   17.60    1.80
  -3   6  -4   17.25    1.65
   3  -6  -4   17.20    1.76
   4  -6   4    3.38    1.22
   4   6  -4    1.26    0.95
  -4  -6  -4    2.46    0.76
  -4   6   4    2.46    0.81
  -4   6  -4    3.05    0.84
   4  -6  -4    3.13    0.95
  -5  -6  -4   18.94    1.90
   5  -6   4   22.67    2.65
  -5   6   4   20.81    1.96
  -5   6  -4   22.47    1.97
   5  -6  -4   18.79    2.22
   6  -6   4    1.96    1.99
  -6  -6  -4    0.82    0.88
  -6   6   4    1.12    0.90
   6  -6  -4    3.30    1.73
  -6   6  -4    1.72    0.95
   0   7   4  152.99    9.63
   0   7  -4  149.25    9.61
   0  -7  -4  163.77    9.63
   0   7   4  158.03    9.77
   0   7   4  125.01   10.14
   0   7  -4  158.11    9.77
  -1   7   4   58.45    3.99
   1   7  -4   62.79    4.01
  -1   7   4   58.57    3.87
  -1  -7  -4   60.55    3.86
  -1   7  -4   53.23    4.23
   1   7   4   56.41    4.57
   1  -7  -4   55.82    3.72
   1   7   4   57.49    3.98
  -1   7  -4   53.01    3.86
  -1   7  -4   46.95    3.87
  -2  -7  -4    6.46    0.98
   2   7  -4    5.76    1.10
  -2   7   4    6.04    1.00
  -2   7   4    6.40    1.11
  -2   7   4    5.29    1.57
   2   7   4   10.73    1.95
   2  -7  -4   10.34    1.04
  -2   7  -4   10.26    1.19
  -2   7  -4   10.05    1.21
   2   7   4    9.21    1.29
   3  -7   4    8.16    1.50
  -3  -7  -4   12.97    1.24
   3   7  -4   10.01    1.31
  -3   7   4   10.88    1.20
  -3   7   4   12.60    1.35
   3   7   4    8.27    1.28
  -3   7  -4    8.87    1.22
  -3   7  -4    7.36    1.15
   3  -7  -4    9.50    1.23
   4   7  -4   14.44    1.69
  -4   7   4   14.82    1.51
  -4  -7  -4   14.49    1.46
   4  -7   4   14.20    1.97
  -4   7  -4   13.18    1.48
   4   7   4   12.53    1.69
   4  -7  -4   13.44    1.64
  -5  -7  -4    1.09    0.87
  -5   7   4   -0.19    0.90
   5  -7   4    2.18    1.68
   5  -7  -4   -0.19    1.17
  -5   7  -4    0.80    0.92
   0   8  -4   12.33    1.30
   0  -8  -4   10.40    1.29
   0   8   4   12.28    1.34
   0   8   4   12.31    1.55
   0   8   4   10.17    1.98
   0   8  -4   10.28    1.47
   1   8  -4   25.31    2.58
   1   8  -4   29.93    2.48
  -1   8   4   26.80    2.28
  -1   8   4   27.88    2.36
  -1  -8  -4   29.64    2.27
   1   8   4   26.30    2.46
   1   8   4   27.32    3.01
  -1   8  -4   25.21    2.29
  -1   8  -4   28.19    2.87
  -1   8  -4   31.20    2.49
  -2   8   4    0.36    0.77
  -2  -8  -4    0.01    0.69
   2   8  -4   -0.43    0.92
  -2   8   4    0.53    0.84
  -2   8  -4    0.79    0.79
   2  -8  -4    0.99    0.71
  -2   8  -4    0.75    0.79
   2   8   4    1.49    1.01
  -3  -8  -4    5.05    0.95
  -3   8   4    3.80    0.93
   3   8  -4    2.64    1.00
   3  -8   4    2.94    1.28
  -3   8   4    4.32    1.01
   3  -8  -4    1.65    0.83
   3   8   4    1.31    0.99
  -3   8  -4    1.32    0.83
  -3   8  -4    2.00    0.87
   4  -8   4   16.65    2.41
  -4  -8  -4   19.89    1.96
  -4   8   4   23.85    2.27
   4   8  -4   21.03    2.19
  -4   8  -4   26.19    2.23
   4  -8  -4   23.56    2.19
   4   8   4   21.00    2.24
  -5   8   4    7.65    1.36
   5  -8   4    7.73    1.95
  -5  -8  -4    9.44    1.36
  -5   8  -4    6.99    1.33
   0   9   4    2.07    1.00
   0   9  -4    2.91    1.07
   0   9  -4    2.22    0.96
   1   9  -4    7.72    1.41
  -1   9   4    6.89    1.07
  -1   9   4    6.64    1.29
  -1  -9  -4    6.63    1.12
   1   9   4    5.03    1.25
  -1   9  -4    5.57    1.06
  -1   9  -4    6.77    1.20
  -2   9   4   10.82    1.53
   2   9  -4   11.82    1.58
  -2   9   4    9.45    1.37
  -2  -9  -4    9.77    1.32
   2   9   4   10.83    1.54
  -2   9  -4    9.87    1.49
  -2   9  -4   13.40    1.42
  -3   9   4    7.10    1.23
   3  -9   4    3.45    1.52
   3   9  -4    6.17    1.46
  -3   9   4    6.05    1.25
  -3   9  -4    6.99    1.23
  -3   9  -4    7.77    1.24
   3   9   4    5.20    1.40
  -4   9   4    1.99    1.10
   4  -9   4    2.11    1.48
   4   9  -4    1.29    1.24
  -4  -9  -4    2.30    1.05
  -4   9  -4    1.28    1.08
   4   9   4    2.69    1.21
  -5  -9  -4    1.10    1.03
  -5   9   4    2.71    1.24
   5  -9   4    1.51    1.93
  -5   9  -4    0.99    1.17
   0  10  -4    5.25    1.32
   0  10  -4    5.03    1.30
   0  10   4    4.01    1.23
   1  10  -4   26.07    2.50
  -1  10   4   23.61    2.48
   1  10   4   27.31    2.53
  -1  10  -4   24.57    2.39
  -2  10   4   13.12    1.70
  -2  10   4   12.47    1.51
  -2 -10  -4   13.56    1.49
   2  10  -4   14.18    1.87
  -2  10  -4   11.45    1.61
  -2  10  -4   15.27    1.66
   2  10   4   11.61    1.77
  -3 -10  -4   11.20    1.44
   3 -10   4    4.74    1.95
  -3  10   4   10.60    1.44
   3  10  -4   10.59    1.77
  -3  10   4    9.24    1.55
   3  10   4    9.32    1.78
  -3  10  -4   10.66    1.51
  -3  10  -4   10.91    1.54
  -4 -10  -4    2.49    1.06
   4 -10   4    1.40    1.70
  -4  10   4    0.36    1.18
   4  10  -4    3.12    1.45
   4  10   4    0.26    1.30
  -4  10  -4    1.60    1.25
   0  11   4    1.90    1.25
   0  11  -4    2.75    1.37
  -1  11   4    4.55    1.52
   1  11  -4    6.69    1.54
  -1  11  -4    6.31    1.40
   1  11   4    5.20    1.53
   2  11  -4    2.16    1.58
  -2  11   4    1.07    1.16
  -2  11  -4    1.55    1.28
   2  11   4    0.50    1.57
   3  11  -4    8.45    1.93
  -3  11   4    5.15    1.39
  -3 -11  -4    7.84    1.36
  -3  11   4    8.43    1.46
   3 -11   4    4.89    1.91
  -3  11  -4    7.28    1.41
  -3  11  -4    7.68    1.47
   3  11   4    7.68    1.88
   4 -11   4    5.28    2.06
  -4  11   4    5.97    1.48
   4  11  -4    7.00    1.82
  -4 -11  -4    5.54    1.49
   4  11   4    4.39    1.74
  -4  11  -4    5.36    1.56
   0  12   4    0.70    1.64
   0  12  -4    1.98    1.44
  -1  12   4    5.08    1.55
   1  12  -4    1.53    1.74
  -1  12  -4    3.73    1.62
   1  12   4    3.50    1.76
  -2  12   4   12.00    2.00
   2  12  -4   11.36    2.24
  -2  12  -4   10.37    1.95
   2  12   4   12.40    2.31
  -3  12   4    0.75    1.26
   3 -12   4    1.54    2.08
   3  12  -4    0.66    1.90
   3  12   4    0.01    1.78
  -3  12  -4    0.27    1.34
   0  13  -4   11.29    2.26
   0  13   4    9.40    2.06
  -1  13   4    3.71    1.83
   1  13  -4    4.89    1.90
   1  13   4    2.50    2.05
  -1  13  -4    4.36    1.83
   2  13  -4   -1.55    2.01
  -2  13   4    1.25    1.63
   2  13   4   -0.95    2.01
  -2  13  -4    1.60    1.57
   0  14   4   -2.34    1.67
   0  14  -4    0.48    1.76
  -1  14   4    1.37    1.82
   1  14  -4   -0.24    2.28
   1  14   4   -3.82    2.02
  -1  14  -4   -0.63    1.70
   0   0  -5    0.24    0.56
   0   0   5   -0.15    0.46
   0   0  -5   -0.52    0.31
   0   0  -5   -0.40    0.31
   0   0   5   -0.05    0.37
  -1   0   5   75.58    5.21
  -1   0   5   74.57    5.10
   1   0   5   79.53    5.43
   1   0  -5   79.21    5.18
   1   0   5   75.71    5.11
  -1   0  -5   79.35    5.40
  -1   0  -5   86.79    5.13
  -1   0  -5   78.76    5.18
   1   0   5   86.41    5.12
   1   0  -5   84.35    5.37
   1   0  -5   84.94    5.10
   2   0   5  230.39   15.24
   2   0  -5  268.53   15.24
  -2   0  -5  238.95   15.16
   2   0   5  254.62   15.60
  -2   0   5  239.67   15.16
  -2   0   5  249.18   15.30
  -2   0  -5  228.28   15.56
  -3   0  -5   18.39    1.53
   3   0   5   18.53    1.70
  -3   0  -5   20.54    1.50
   3   0   5   20.30    2.13
  -3   0   5   20.44    1.70
  -3   0   5   20.03    1.74
   3   0  -5   14.35    1.48
  -3   0   5   22.60    1.50
   4   0   5    2.46    0.93
  -4   0   5    2.75    0.56
  -4   0  -5    2.91    0.59
   5   0   5   -0.15    1.08
  -5   0  -5   -0.23    0.51
  -5   0   5   -0.47    0.59
  -6   0  -5    1.08    0.62
  -6   0   5    0.13    0.64
   6   0   5    1.14    1.35
   0   1  -5   64.81    4.26
   0  -1  -5   64.28    4.38
   0  -1   5   63.12    4.24
   0  -1  -5   65.78    4.11
   0   1  -5   54.74    4.15
   0   1   5   68.82    4.36
   0   1   5   69.61    4.15
   0   1  -5   61.53    4.10
   1  -1   5   27.12    2.10
  -1  -1  -5   28.31    2.44
   1   1  -5   27.12    2.22
  -1  -1  -5   27.95    2.08
   1  -1   5   27.77    2.40
   1   1  -5   26.76    2.17
  -1   1   5   29.58    2.08
  -1   1   5   24.96    2.27
  -1   1   5   27.11    2.12
  -1  -1  -5   24.47    2.10
   1   1  -5   25.06    2.05
   1  -1  -5   36.84    2.10
  -1   1  -5   34.97    2.19
   1   1   5   34.56    2.12
  -1  -1   5   34.40    2.11
   1   1   5   32.58    2.50
  -1   1  -5   34.82    2.44
   1   1   5   33.30    2.07
   1  -1  -5   32.75    2.51
  -1  -1   5   35.83    2.12
   1  -1  -5   32.42    2.21
  -1   1  -5   34.84    2.12
  -2  -1  -5  204.75   11.97
  -2   1   5  191.41   11.87
   2   1  -5  198.49   11.92
   2  -1   5  183.58   12.25
  -2  -1  -5  201.30   11.84
  -2   1   5  197.52   12.11
   2  -1   5  199.97   11.97
  -2   1   5  209.53   11.84
  -2  -1  -5  211.61   12.35
  -2  -1  -5  170.56   11.84
  -2  -1   5  179.56   11.83
  -2   1  -5  180.96   11.88
  -2   1  -5  178.85   12.25
  -2   1  -5  185.59   11.84
   2   1   5  177.05   11.90
  -2  -1   5  175.07   11.81
  -3  -1  -5  121.40    8.26
  -3   1   5  137.79    8.32
   3   1  -5  134.03    8.33
  -3  -1  -5  153.52    8.42
  -3   1   5  136.94    8.27
  -3   1   5  135.19    8.56
  -3  -1  -5  141.75    8.32
   3  -1   5  142.39    8.54
  -3   1  -5  135.92    8.35
   3  -1  -5  132.87    8.36
  -3  -1   5  121.84    8.26
   3   1   5  123.71    8.46
  -3   1  -5  124.63    8.27
  -3  -1   5  120.97    8.34
  -3  -1   5  121.90    8.32
   3   1   5  124.88    8.86
   4  -1   5    8.63    1.37
  -4   1   5    9.19    0.88
  -4  -1  -5    7.96    0.87
  -4   1   5    9.26    0.96
  -4   1  -5    7.28    0.87
  -4  -1   5    8.26    0.86
   4   1   5    9.32    1.36
  -5  -1  -5    3.59    0.67
   5  -1   5    2.13    1.24
  -5   1   5    1.81    0.67
  -5   1  -5    4.37    0.71
   5   1   5    2.32    1.08
  -6  -1  -5    4.17    0.77
   6  -1   5    6.56    1.82
  -6   1   5    4.01    0.80
  -6   1  -5    3.80    0.74
   6   1   5    5.21    1.54
  -6  -1   5    4.01    0.82
   0   2   5    8.43    1.16
   0   2  -5    8.85    0.93
   0   2  -5    6.84    0.77
   0  -2  -5    8.96    1.24
   0  -2  -5   10.11    0.87
   0   2   5    7.76    0.84
   0  -2   5    7.74    0.95
   0   2  -5    8.00    0.95
  -1   2   5   71.86    4.66
   1   2  -5   73.72    4.75
  -1   2   5   72.95    4.70
  -1  -2  -5   80.44    4.83
  -1  -2  -5   66.96    4.66
   1   2  -5   76.22    4.67
   1  -2   5   72.99    4.95
   1   2  -5   65.92    4.64
  -1  -2  -5   72.22    5.02
  -1  -2  -5   68.73    4.70
  -1   2   5   67.51    4.96
  -1  -2   5   80.18    4.62
   1   2   5   74.00    4.61
   1  -2  -5   75.54    4.65
  -1   2  -5   77.86    4.77
   1   2   5   64.98    4.66
  -1   2  -5   69.18    4.95
   1  -2  -5   69.56    5.05
  -1   2  -5   79.80    4.68
   1   2   5   68.79    5.02
  -1  -2   5   76.22    4.67
  -2  -2  -5  133.05    8.72
   2  -2   5  139.56    8.84
  -2   2   5  138.77    8.73
  -2   2   5  135.02    9.03
  -2  -2  -5  143.12    9.19
  -2  -2  -5  131.05    8.80
  -2   2   5  133.70    8.69
   2   2  -5  129.27    8.77
   2  -2   5  125.79    9.11
  -2  -2  -5  131.47    8.69
   2   2   5  161.00    9.28
  -2  -2   5  146.08    8.71
  -2   2  -5  147.79    8.71
  -2   2  -5  145.48    8.79
   2   2   5  137.05    8.74
  -2   2  -5  143.61    9.18
  -3  -2  -5   63.99    4.19
   3  -2   5   55.21    4.29
  -3   2   5   60.83    4.10
  -3  -2  -5   60.20    4.08
   3   2  -5   59.26    4.14
  -3   2   5   59.82    4.45
  -3   2   5   59.00    4.06
  -3  -2  -5   56.86    4.10
  -3  -2   5   67.21    4.00
  -3  -2   5   66.48    3.97
   3  -2  -5   65.24    4.24
   3   2   5   64.83    4.14
   3   2   5   60.56    4.25
  -3   2  -5   63.80    4.11
  -3  -2   5   65.23    4.08
  -3   2  -5   67.61    4.10
   3   2   5   60.74    4.71
  -4  -2  -5   24.12    1.73
  -4   2   5   24.28    1.78
  -4   2   5   20.17    2.48
  -4   2   5   21.75    1.77
   4  -2   5   24.09    2.25
   4  -2  -5   23.89    2.14
  -4  -2   5   23.00    1.82
  -4   2  -5   19.14    1.71
   4   2   5   22.67    2.13
  -5   2   5    2.59    0.70
  -5  -2  -5    2.51    0.65
   5  -2   5    4.02    1.41
   5   2   5    1.91    1.06
  -5   2  -5    3.12    0.68
  -6  -2  -5    1.55    0.67
   6  -2   5    2.01    1.65
  -6   2   5    2.41    0.72
   6   2   5    0.75    1.52
  -6   2  -5    2.06    0.72
   0   3  -5   19.70    1.61
   0  -3  -5   16.53    1.58
   0  -3  -5   20.62    2.17
   0   3   5   18.73    1.52
   0  -3   5   21.03    1.65
   0   3  -5   20.14    1.65
   0   3   5   18.82    1.90
   0  -3  -5   23.32    1.51
  -1  -3  -5  164.21   10.39
   1  -3   5  177.25   10.67
  -1   3   5  176.01   10.39
  -1  -3  -5  160.34   10.74
  -1   3   5  167.00   10.36
   1   3  -5  168.31   10.28
   1   3  -5  155.18   10.44
  -1  -3  -5  167.44   10.36
   1   3  -5  167.29   10.35
  -1   3   5  172.79   10.79
  -1   3  -5  168.91   10.44
   1   3   5  138.43   10.69
  -1   3  -5  163.49   10.37
   1   3   5  170.25   10.38
  -1   3  -5  155.84   10.63
  -1  -3   5  168.67   10.36
   1  -3  -5  170.60   10.49
   1  -3  -5  163.69   10.34
   1  -3  -5  161.32   10.78
   1   3   5  159.45   10.42
   1   3   5  179.18   10.28
  -2   3   5   41.83    3.06
  -2   3   5   35.96    2.52
   2  -3   5   37.28    3.03
   2  -3   5   36.88    2.66
   2   3  -5   37.15    2.57
  -2  -3  -5   33.50    3.10
  -2  -3  -5   34.81    2.58
  -2  -3  -5   36.33    2.48
  -2   3   5   41.39    2.47
  -2   3   5   35.54    2.50
   2   3   5   32.65    2.98
  -2   3  -5   34.45    2.53
   2   3   5   32.33    2.52
   2  -3  -5   40.16    2.61
   2   3   5   34.82    2.49
   2  -3  -5   32.59    2.42
  -2   3  -5   33.63    2.50
  -2   3  -5   30.60    2.90
  -2  -3   5   35.59    2.46
  -3   3   5   83.26    5.07
  -3   3   5   87.64    5.62
  -3   3   5   82.73    5.12
  -3   3   5   84.56    5.13
   3   3  -5   78.57    5.14
  -3  -3  -5   85.73    5.09
   3  -3   5   83.52    5.38
  -3  -3  -5   79.46    5.11
   3   3   5   72.63    5.22
  -3   3  -5   65.70    5.06
  -3   3  -5   75.47    5.11
   3   3   5   76.43    5.14
   3  -3  -5   75.34    5.14
  -3  -3   5   76.21    5.06
   3  -3  -5   77.62    5.17
   3   3   5   72.89    5.78
  -4   3   5   17.48    1.42
   4  -3   5   18.92    1.96
  -4   3   5   15.26    1.97
  -4  -3  -5   14.41    1.34
   4  -3  -5   13.47    1.59
   4   3   5   12.82    1.61
  -4   3  -5   12.90    1.37
  -5  -3  -5    1.88    0.63
  -5   3   5    0.86    0.68
   5  -3   5    1.89    1.31
   5   3   5    0.84    1.13
   5  -3  -5    2.60    1.19
  -5   3  -5   -0.34    0.61
  -6   3   5    1.81    0.73
   6  -3   5    1.47    1.73
  -6  -3  -5    0.71    0.71
   6   3   5   -0.23    1.47
   6  -3  -5    0.77    1.55
  -6   3  -5    0.61    0.69
   0   4  -5   76.43    5.08
   0  -4  -5   74.27    4.94
   0   4   5   74.25    5.03
   0   4  -5   82.46    5.07
   0   4  -5   71.51    4.97
   0  -4  -5   75.27    5.52
   0   4   5   78.67    5.50
   0   4   5   82.40    5.01
  -1  -4  -5   42.65    3.19
  -1   4   5   48.15    3.28
  -1   4   5   46.19    3.68
  -1  -4  -5   47.81    3.17
   1   4  -5   46.91    3.16
  -1  -4  -5   43.57    3.65
  -1   4   5   43.91    3.15
  -1   4   5   45.39    3.20
   1   4  -5   45.35    3.28
   1   4  -5   41.86    3.07
  -1  -4  -5   44.18    3.31
  -1   4  -5   49.31    3.20
  -1   4  -5   51.95    3.55
   1   4   5   46.71    3.25
   1  -4  -5   52.17    2.99
  -1  -4   5   54.90    3.21
   1  -4  -5   42.43    3.29
   1   4   5   53.72    3.21
  -1   4  -5   53.70    3.31
   1  -4  -5   47.08    3.72
   1  -4  -5   47.77    3.16
  -2  -4  -5   56.92    3.68
  -2   4   5   64.87    4.37
  -2  -4  -5   61.36    4.32
  -2   4   5   50.84    3.66
  -2   4   5   59.32    3.76
   2   4  -5   50.94    3.75
  -2   4   5   52.39    3.75
  -2   4  -5   60.55    4.25
  -2  -4   5   50.60    3.68
   2  -4  -5   54.26    3.64
   2   4   5   58.19    4.34
   2   4   5   49.82    3.74
  -2   4  -5   58.93    3.79
  -2   4  -5   56.53    3.72
  -3  -4  -5   36.07    2.60
  -3   4   5   36.80    3.23
   3   4  -5   39.82    2.76
  -3   4   5   35.82    2.66
   3  -4   5   39.24    2.99
  -3   4   5   38.46    2.68
   3  -4  -5   38.92    2.74
   3   4   5   32.65    2.66
   3   4   5   35.44    2.76
  -3   4  -5   36.17    2.64
  -3   4  -5   39.82    2.69
   3   4   5   35.15    3.39
   4  -4   5   32.66    2.73
  -4   4   5   29.36    2.32
  -4  -4  -5   32.18    2.27
  -4   4  -5   31.33    2.32
   4  -4  -5   29.40    2.56
   4   4   5   28.85    2.58
   5  -4   5   13.75    1.94
  -5   4   5   12.43    1.29
  -5  -4  -5   12.66    1.27
   5  -4  -5   10.34    1.66
  -5   4  -5   13.70    1.34
  -6  -4  -5    2.90    0.83
  -6   4   5    2.40    0.84
   6  -4   5    2.70    1.85
  -6   4  -5    1.52    0.82
   6  -4  -5    2.03    1.59
   0   5   5  284.73   16.97
   0   5  -5  252.03   16.46
   0   5   5  271.12   16.38
   0  -5  -5  269.39   16.96
   0   5  -5  259.33   16.49
   0   5   5  251.18   16.45
   0  -5  -5  267.29   16.35
   0   5  -5  249.08   16.35
  -1   5   5   53.80    3.69
   1   5  -5   53.99    3.79
   1   5  -5   57.04    3.59
   1   5  -5   64.21    3.67
  -1  -5  -5   52.90    4.25
  -1   5   5   60.02    4.41
  -1   5   5   61.07    3.78
  -1  -5  -5   58.79    3.65
   1   5  -5   52.84    3.63
  -1   5  -5   44.80    3.73
   1  -5  -5   54.97    3.45
  -1   5  -5   53.02    4.01
   1  -5  -5   45.39    3.59
  -1   5  -5   51.35    3.65
   1   5   5   51.07    3.77
   1   5   5   51.51    4.28
   2   5  -5   52.58    3.80
  -2   5   5   51.63    3.69
  -2  -5  -5   49.28    3.63
  -2   5   5   56.33    4.29
  -2   5   5   53.66    3.74
   2  -5  -5   56.89    3.58
  -2   5  -5   52.51    3.65
  -2   5  -5   59.05    3.77
   2   5   5   58.34    4.42
   2   5   5   53.34    3.76
  -2   5  -5   52.20    4.21
  -3  -5  -5   31.54    2.42
  -3   5   5   34.82    2.48
  -3   5   5   33.18    2.50
   3   5  -5   33.16    2.56
  -3   5   5   34.12    3.08
   3  -5   5   29.41    2.79
  -3   5  -5   36.20    2.50
  -3   5  -5   34.10    2.46
   3  -5  -5   31.95    2.48
   3   5   5   30.50    2.55
   4  -5   5    4.32    1.29
  -4  -5  -5    4.66    0.85
  -4   5   5    5.52    0.93
   4   5  -5    6.71    1.47
   4  -5  -5    5.85    1.14
  -4   5  -5    4.98    0.91
   5  -5   5    3.03    1.60
  -5  -5  -5    1.72    0.79
  -5   5   5    4.36    0.90
   5  -5  -5    3.37    1.29
  -5   5  -5    1.65    0.86
  -6  -5  -5    1.74    0.88
   6  -5   5    1.11    1.92
  -6   5   5    1.94    0.86
  -6   5  -5    0.76    0.86
   6  -5  -5    0.93    1.51
   0   6   5   17.76    1.59
   0   6  -5   15.36    1.63
   0  -6  -5   17.73    2.31
   0   6  -5   20.99    1.65
   0   6  -5   18.50    1.81
   0   6   5   17.06    1.67
   0  -6  -5   19.53    1.60
  -1  -6  -5   16.12    2.61
   1   6  -5   18.13    1.75
   1   6  -5   19.25    1.67
  -1  -6  -5   18.37    1.58
  -1   6   5   18.07    1.67
  -1   6   5   16.59    1.63
  -1   6   5   18.29    2.39
   1   6  -5   18.08    1.55
   1   6  -5   18.62    1.71
   1   6   5   17.95    1.64
  -1   6  -5   16.64    1.75
  -1   6  -5   17.77    2.04
  -1   6  -5   16.79    1.63
   1  -6  -5   17.94    1.67
   1  -6  -5   17.34    1.33
   1   6   5   18.05    2.39
   1   6   5   18.24    1.71
  -2   6   5   80.06    5.67
  -2  -6  -5   77.00    5.56
  -2   6   5   89.52    5.63
   2   6  -5   85.26    5.71
  -2   6   5   83.19    6.33
  -2   6  -5   86.36    5.72
  -2   6  -5   84.32    5.63
   2   6   5   92.78    6.45
   2  -6  -5   86.94    5.50
   2   6   5   91.54    5.75
  -3   6   5   11.78    1.28
  -3   6   5   12.20    1.39
   3   6  -5   11.68    1.42
   3  -6   5   12.26    1.70
  -3  -6  -5   13.14    1.29
  -3   6  -5   12.65    1.37
   3  -6  -5   11.28    1.28
  -3   6  -5   11.70    1.27
   3   6   5   11.49    1.41
  -4  -6  -5    2.97    0.84
  -4   6   5    3.32    0.90
   4  -6   5    3.00    1.36
   4   6  -5    4.93    1.12
  -4   6  -5    3.88    0.91
   4  -6  -5    2.96    0.99
   5  -6   5    6.13    1.94
  -5   6   5    5.21    1.08
  -5  -6  -5    6.63    1.08
   5  -6  -5    5.28    1.39
  -5   6  -5    5.23    1.06
   0   7   5    0.61    0.32
   0   7   5    1.37    0.74
   0   7  -5    1.69    0.90
   0   7  -5    1.21    0.87
   0   7  -5    1.71    0.69
   0   7   5    1.70    0.93
   0  -7  -5    1.62    0.75
   1   7  -5    5.42    0.95
  -1   7   5    6.29    1.65
  -1  -7  -5    7.60    1.04
  -1   7   5    6.59    1.04
   1   7  -5    6.47    1.12
  -1   7   5    6.23    1.16
  -1   7  -5    4.60    1.00
   1   7   5    8.75    1.28
   1   7   5    7.93    1.76
  -1   7  -5    7.06    1.42
  -1   7  -5    7.91    1.10
   1  -7  -5    7.58    0.83
  -2  -7  -5   60.37    4.14
  -2   7   5   59.40    4.24
  -2   7   5   56.68    4.17
   2   7  -5   64.20    4.34
  -2   7  -5   61.76    4.19
   2   7   5   63.90    4.35
  -2   7  -5   60.58    4.29
   2  -7  -5   58.83    4.14
   3   7  -5   35.47    2.68
  -3   7   5   36.21    2.59
  -3   7   5   34.68    2.51
   3  -7   5   25.91    2.82
  -3  -7  -5   31.88    2.44
   3   7   5   26.40    2.57
  -3   7  -5   31.07    2.54
   3  -7  -5   29.05    3.06
  -3   7  -5   25.83    2.45
  -4   7   5    1.53    0.95
   4   7  -5    3.05    1.00
  -4  -7  -5    2.80    0.88
   4  -7   5    1.58    1.34
   4   7   5    3.06    1.22
  -4   7  -5    1.91    0.94
  -5   7   5    1.64    1.03
   5  -7   5    1.57    1.70
  -5  -7  -5    2.62    0.97
  -5   7  -5    1.55    1.01
   0   8  -5    2.72    0.95
   0   8   5    6.15    1.17
   0   8  -5    4.95    1.17
  -1   8   5   40.34    3.09
   1   8  -5   43.58    3.21
  -1   8   5   41.51    3.00
  -1  -8  -5   39.98    2.95
  -1   8  -5   35.08    2.96
  -1   8  -5   37.41    3.05
   1   8   5   39.63    3.20
   2   8  -5   16.27    2.00
  -2   8   5   17.75    1.93
  -2   8   5   19.67    1.84
  -2  -8  -5   18.96    1.83
  -2   8  -5   20.90    1.93
   2   8   5   16.73    2.02
  -2   8  -5   19.46    1.91
  -3  -8  -5   21.14    1.91
   3  -8   5   14.67    2.32
   3   8  -5   18.19    2.12
  -3   8   5   18.02    1.96
  -3   8   5   20.48    1.97
  -3   8  -5   22.14    2.09
  -3   8  -5   23.61    2.07
   3   8   5   20.00    2.13
   4  -8   5    2.43    1.31
  -4   8   5    4.24    1.13
   4   8  -5    5.11    1.28
  -4  -8  -5    3.46    1.02
   4   8   5    3.25    1.19
  -4   8  -5    3.85    1.12
   5  -8   5    0.15    1.57
  -5  -8  -5    0.63    0.96
  -5   8   5   -0.21    1.06
  -5   8  -5    0.29    1.05
   0   9  -5   -0.42    1.31
   0   9  -5    0.52    0.99
   0   9   5    5.61    1.22
   0   9  -5   -0.93    0.82
   1   9  -5   24.91    2.40
  -1   9   5   24.83    2.33
   1   9   5   26.30    2.42
  -1   9  -5   24.45    2.42
   2   9  -5    9.22    1.63
  -2   9   5    8.99    1.31
  -2   9   5    9.64    1.49
  -2  -9  -5    8.87    1.26
  -2   9  -5    7.00    1.27
  -2   9  -5    9.61    1.51
   2   9   5    9.58    1.62
  -3  -9  -5    8.52    1.29
  -3   9   5    9.24    1.34
  -3   9   5    9.58    1.47
   3   9  -5   12.15    1.63
   3  -9   5    5.59    1.81
  -3   9  -5    8.12    1.40
  -3   9  -5    8.64    1.37
   3   9   5    7.27    1.56
  -4  -9  -5    1.49    1.04
  -4   9   5    2.71    1.20
   4   9  -5    4.37    1.42
   4  -9   5    3.13    1.73
   4   9   5    3.13    1.37
  -4   9  -5    3.10    1.14
   0  10  -5   26.55    2.58
   0  10   5   27.18    2.59
  -1  10   5   13.93    1.89
   1  10  -5   17.44    2.11
   1  10   5   15.22    1.96
  -1  10  -5   16.61    2.05
  -2  10   5    3.16    1.71
  -2  10   5    1.10    1.15
   2  10  -5    0.49    1.24
   2  10   5    0.63    1.31
  -2  10  -5    0.32    1.09
   3  10  -5    6.52    1.65
  -3  10   5    5.84    1.25
   3 -10   5   -2.63    1.63
  -3 -10  -5    3.90    1.12
  -3  10   5    4.04    1.19
  -3  10  -5    3.46    1.28
   3  10   5    3.90    1.58
  -3  10  -5    3.81    1.26
  -4 -10  -5    5.56    1.36
  -4  10   5    6.51    1.47
   4  10  -5    8.79    1.83
   4 -10   5    4.42    1.87
  -4  10  -5    5.86    1.38
   4  10   5    4.78    1.58
   0  11   5   19.66    2.43
   0  11  -5   16.53    2.22
  -1  11   5    8.85    1.62
   1  11  -5    6.10    1.57
  -1  11  -5    6.39    1.50
   1  11   5    7.92    1.86
   2  11  -5   -0.49    1.56
  -2  11   5   -1.16    1.18
  -2  11  -5    0.84    1.27
   2  11   5   -0.47    1.47
   3  11  -5    0.73    1.67
  -3  11   5   -0.24    1.16
   3 -11   5    0.02    1.72
   3  11   5    0.83    1.49
  -3  11  -5   -0.07    1.25
   4  11  -5    4.03    1.74
  -4 -11  -5    2.74    1.22
  -4  11   5    1.13    1.38
   4 -11   5   -1.02    1.84
   4  11   5    1.81    1.87
   0  12  -5    7.20    1.86
   0  12   5    5.33    1.65
  -1  12   5    4.89    1.71
   1  12  -5    4.47    1.68
  -1  12  -5    5.60    1.59
   1  12   5    4.74    1.98
   2  12  -5    2.34    1.95
  -2  12   5    4.66    1.70
  -2  12  -5    4.96    1.56
   2  12   5    3.58    1.81
   3  12  -5    0.79    1.92
   3 -12   5   -1.10    2.15
  -3  12   5    0.25    1.38
  -3  12  -5   -0.58    1.43
   3  12   5    1.16    1.79
   0  13  -5    1.74    1.68
   0  13   5    2.94    2.03
   1  13  -5    1.04    2.10
  -1  13   5    2.08    1.65
   1  13   5    2.02    2.03
  -1  13  -5    3.31    1.85
   2  13  -5    2.59    2.24
  -2  13   5    1.47    1.56
  -2  13  -5    1.69    1.62
   2  13   5    1.85    2.13
   0   0   6  238.78   12.95
   0   0  -6  197.58   12.95
   0   0   6  197.89   13.06
   0   0  -6  212.47   13.11
   0   0  -6  189.55   12.85
  -1   0  -6   26.97    1.78
   1   0  -6   25.24    1.73
  -1   0  -6   24.73    2.12
  -1   0  -6   23.62    1.86
   1   0  -6   22.57    2.08
   1   0  -6   20.62    1.78
  -1   0   6   20.81    1.72
   1   0   6   25.91    2.20
  -1   0   6   24.06    1.89
   1   0   6   24.36    1.72
   1   0   6   24.27    1.77
  -2   0  -6   15.08    1.83
  -2   0   6   14.32    1.37
   2   0   6   14.14    1.33
  -2   0   6   12.22    1.21
   2   0  -6   13.59    1.29
  -2   0  -6   13.71    1.27
   2   0   6   13.55    1.77
  -3   0   6   22.14    1.98
   3   0  -6   21.99    1.81
   3   0   6   20.29    1.93
  -3   0  -6   22.98    1.76
  -3   0   6   24.36    1.74
  -3   0  -6   21.19    1.80
  -4   0  -6   47.26    3.24
   4   0   6   46.86    3.61
  -4   0   6   49.06    3.33
   5   0   6    4.67    1.37
  -5   0   6    4.04    0.89
  -5   0  -6    5.10    0.81
  -6   0  -6    7.43    1.01
   6   0   6    7.02    1.88
  -6   0   6    7.29    1.05
   0   1  -6   70.46    4.77
   0   1  -6   70.30    4.59
   0  -1  -6   76.21    4.96
   0   1  -6   73.35    4.68
   0  -1   6   66.96    4.74
   0   1   6   80.61    4.64
   0   1   6   68.15    4.84
   0  -1  -6   66.03    4.69
   0  -1  -6   68.56    4.57
  -1   1   6  244.46   15.21
  -1  -1  -6  226.53   15.10
  -1   1   6  225.13   14.98
   1   1  -6  233.09   15.16
   1  -1   6  260.95   15.04
   1  -1   6  259.65   15.33
  -1  -1  -6  214.92   15.30
  -1   1   6  226.93   15.02
  -1  -1  -6  248.65   15.00
   1   1  -6  256.06   14.98
  -1  -1   6  224.55   14.98
   1   1   6  252.09   15.37
   1   1   6  222.61   14.94
   1  -1  -6  229.71   14.97
  -1  -1   6  233.64   15.02
  -1   1  -6  262.21   15.33
   1   1   6  230.03   15.00
  -1   1  -6  266.47   15.01
   1  -1  -6  254.78   15.41
  -1   1  -6  257.30   15.10
   2   1  -6   12.72    1.27
  -2   1   6   13.09    1.29
  -2  -1  -6   16.01    2.02
  -2   1   6   16.43    1.57
   2  -1   6   12.47    1.71
  -2  -1  -6   12.04    1.22
  -2  -1  -6   12.96    1.30
   2  -1   6   11.73    1.29
  -2   1   6   13.05    1.19
   2   1   6   13.00    1.30
   2  -1  -6   14.64    1.36
  -2   1  -6   11.45    1.23
  -2   1  -6   14.21    1.24
   2   1   6   15.62    1.81
  -2  -1   6   13.70    1.21
  -2  -1   6   14.05    1.16
  -2   1  -6   14.90    1.84
  -3   1   6    1.46    0.87
   3  -1   6    1.82    0.79
  -3  -1  -6    1.21    0.54
  -3   1   6    2.16    0.70
  -3  -1  -6    2.01    0.73
   3  -1   6    0.18    0.58
  -3   1   6    2.56    0.57
   3   1  -6    2.07    0.64
   3  -1  -6    0.63    0.55
  -3   1  -6    1.19    0.58
   3   1   6    0.96    0.74
  -3  -1   6    0.92    0.71
  -3   1  -6    0.78    0.56
  -3  -1   6    0.67    0.53
   3   1   6    1.03    0.97
  -4  -1  -6    0.23    0.53
   4  -1   6    1.87    0.87
  -4   1   6    0.01    0.62
   4   1   6   -0.42    0.69
  -4   1  -6    0.66    0.59
   5  -1   6   19.55    2.29
  -5   1   6   19.17    1.79
  -5  -1  -6   18.93    1.72
   5   1   6   21.86    2.21
  -5   1  -6   19.76    1.71
  -6  -1  -6    2.18    0.76
  -6   1   6    1.76    0.81
   6  -1   6    1.56    1.49
  -6  -1   6    0.52    0.82
   6   1   6    1.86    1.60
  -6   1  -6    0.97    0.73
   0   2  -6  266.22   15.71
   0   2   6  233.44   15.71
   0  -2  -6  247.14   16.08
   0   2  -6  235.80   15.83
   0  -2   6  274.04   15.86
   0  -2  -6  247.82   15.69
   0   2   6  264.00   16.07
  -1  -2  -6    0.59    0.56
  -1  -2  -6    2.95    0.62
  -1   2   6    1.97    0.61
  -1   2   6    1.86    0.78
   1   2  -6    1.57    0.49
   1  -2   6    2.59    0.81
  -1  -2  -6    2.22    0.59
   1   2  -6    3.29    0.73
  -1  -2  -6    2.73    1.05
   1   2  -6    2.75    0.63
  -1   2   6    1.90    0.51
  -1  -2   6    2.25    0.51
   1   2   6    3.20    0.97
   1  -2  -6    4.13    0.58
   1   2   6    4.45    0.50
   1  -2  -6    2.59    0.98
  -1   2  -6    3.08    0.71
  -1  -2   6    3.33    0.53
  -1   2  -6    2.84    0.62
   1   2   6    3.29    0.61
   1  -2  -6    3.17    0.74
  -1   2  -6    2.87    0.86
   2  -2   6   16.80    1.88
  -2   2   6   18.90    1.31
  -2  -2  -6   11.24    1.37
  -2   2   6   18.00    1.45
   2  -2   6   14.73    1.48
  -2   2   6   19.70    1.93
  -2  -2  -6   20.75    2.22
  -2  -2  -6   19.18    1.41
   2   2  -6   15.22    1.44
  -2   2  -6   12.43    1.32
  -2   2  -6   13.36    1.88
   2   2   6   11.10    1.28
  -2  -2   6   12.25    1.28
  -2   2  -6   11.55    1.24
  -3   2   6   14.75    1.85
   3  -2   6   13.27    1.83
  -3   2   6   15.16    1.36
   3   2  -6   12.33    1.30
  -3  -2  -6   12.51    1.36
   3  -2   6   10.45    1.36
  -3  -2  -6   12.61    1.23
  -3   2  -6   10.24    1.14
   3   2   6   10.47    1.24
   3   2   6    9.73    1.78
   3   2   6   11.78    1.30
   3  -2  -6   10.41    1.21
  -3   2  -6   12.09    1.15
   4  -2   6   33.37    2.75
  -4  -2  -6   31.36    2.30
  -4   2   6   34.65    2.40
  -4   2  -6   29.06    2.32
   4   2   6   29.61    2.62
   5  -2   6    0.86    1.25
  -5  -2  -6    0.74    0.65
  -5   2   6    0.49    0.74
  -5   2  -6    0.41    0.70
   5   2   6    1.81    1.06
   6  -2   6    6.15    1.78
  -6  -2  -6    8.15    1.03
  -6   2   6    7.83    1.11
  -6   2  -6    7.53    1.06
   6   2   6   10.62    1.93
   0  -3  -6   84.76    6.29
   0   3  -6   95.52    5.81
   0   3   6   94.26    5.83
   0  -3   6   94.16    5.95
   0  -3  -6   95.01    5.80
   0   3  -6   83.89    5.89
   0   3  -6   89.78    5.94
   0   3   6   85.92    6.22
   0  -3  -6   90.62    5.97
   1   3  -6  104.25    7.54
  -1  -3  -6  121.99    7.65
  -1  -3  -6  113.09    7.91
  -1   3   6  114.00    7.45
  -1  -3  -6  110.60    7.46
  -1   3   6  100.08    7.47
   1  -3   6  110.50    7.73
  -1  -3  -6  129.60    7.55
  -1   3   6  113.92    7.86
   1   3  -6  121.46    7.42
   1   3  -6  116.67    7.45
  -1   3  -6  119.35    7.57
   1  -3  -6  126.49    7.46
   1  -3  -6  122.75    7.64
   1   3   6  120.72    7.96
   1   3   6  128.92    7.35
  -1  -3   6  125.61    7.47
   1   3   6  104.98    7.46
   1  -3  -6  122.40    8.03
  -1   3  -6  122.61    7.47
  -1   3  -6  121.03    7.82
  -2   3   6   31.71    2.91
  -2  -3  -6   35.13    2.37
   2   3  -6   32.29    2.46
   2  -3   6   29.94    2.56
   2  -3   6   34.93    2.96
  -2   3   6   29.56    2.39
  -2  -3  -6   32.07    2.41
  -2  -3  -6   32.89    2.97
  -2   3   6   31.45    2.34
  -2  -3  -6   32.23    2.54
   2   3   6   34.28    2.35
  -2   3  -6   34.66    2.49
  -2  -3   6   31.73    2.35
   2   3   6   34.22    2.45
  -2   3  -6   34.93    3.02
  -2   3  -6   33.17    2.40
  -3   3   6    0.16    0.64
   3  -3   6    1.33    0.91
  -3   3   6    1.26    1.09
   3   3  -6    1.45    0.76
  -3   3   6    1.06    0.62
  -3  -3  -6    0.69    0.58
   3   3   6    0.24    0.72
   3  -3  -6    0.29    0.53
  -3   3  -6    1.09    0.62
  -3   3  -6    0.98    0.65
   3   3   6    0.78    0.62
   4  -3   6    0.59    0.96
  -4  -3  -6    0.61    0.58
  -4   3   6    0.19    0.63
   4   3   6    0.99    0.92
  -4   3  -6    0.74    0.65
   5  -3   6   24.82    2.73
  -5  -3  -6   25.16    2.05
  -5   3   6   23.31    2.10
  -5   3  -6   25.39    2.08
   5   3   6   24.91    2.55
   6  -3   6    1.21    1.71
  -6   3   6    0.73    0.82
  -6  -3  -6    1.43    0.76
   6   3   6    0.16    1.43
  -6   3  -6    0.75    0.78
   0   4   6  116.17    7.46
   0  -4  -6  120.84    8.00
   0   4  -6  104.27    7.43
   0   4  -6  106.07    7.33
   0   4  -6  117.68    7.49
   0  -4  -6  120.12    7.34
   0   4   6  120.81    7.87
   0   4   6  119.83    7.39
  -1   4   6    4.49    1.19
  -1  -4  -6    3.77    0.82
   1   4  -6    3.82    0.60
  -1   4   6    3.61    0.79
  -1  -4  -6    4.75    0.75
  -1   4   6    5.06    0.80
   1   4  -6    3.23    0.67
   1   4  -6    4.70    0.85
  -1  -4  -6    5.66    1.33
   1   4   6    6.18    1.32
   1   4   6    7.00    0.93
  -1   4  -6    6.14    0.95
   1   4   6    6.33    0.80
   1  -4  -6    7.41    0.81
   1  -4  -6    3.52    1.20
  -1   4  -6    6.22    0.82
  -1   4  -6    6.06    1.17
   2  -4   6   15.24    1.99
  -2   4   6   16.00    1.57
  -2   4   6   17.00    2.08
  -2   4   6   15.17    1.52
   2   4  -6   16.29    1.65
  -2  -4  -6   13.87    1.47
  -2   4  -6   18.76    1.59
   2  -4  -6   18.76    1.35
   2   4   6   17.63    1.61
  -2   4  -6   19.81    1.65
   2   4   6   11.09    1.89
   2  -4  -6   16.21    1.60
  -2   4  -6   18.60    2.06
   3   4  -6   20.77    1.76
   3  -4   6   18.78    1.89
  -3  -4  -6   20.33    1.63
  -3   4   6   18.86    1.67
  -3   4   6   21.26    2.39
  -3   4   6   18.64    1.64
  -3   4  -6   15.94    1.68
   3  -4  -6   15.71    1.62
   3   4   6   17.73    1.70
   3   4   6   15.86    1.68
  -3   4  -6   18.14    1.69
  -4   4   6   14.42    2.10
   4  -4   6   13.43    1.89
  -4  -4  -6   16.35    1.55
  -4   4   6   13.93    1.50
   4  -4  -6   19.57    1.84
   4   4   6   17.38    1.80
  -4   4  -6   19.17    1.69
   5  -4   6    4.11    1.54
  -5   4   6    4.53    0.97
  -5  -4  -6    3.40    0.87
   5  -4  -6    3.21    1.27
   5   4   6    3.76    1.33
  -5   4  -6    4.12    0.93
   6  -4   6    7.78    2.00
  -6   4   6    6.22    1.07
  -6  -4  -6    6.88    1.09
  -6   4  -6    6.26    1.09
   0  -5  -6   -0.37    1.21
   0   5  -6   -0.08    0.64
   0   5  -6    1.21    0.72
   0   5  -6   -0.71    0.58
   0   5   6    0.51    0.76
   0  -5  -6    0.76    0.61
   0   5   6    0.60    0.67
   0   5   6    0.61    1.00
  -1  -5  -6  103.99    6.43
   1   5  -6   89.83    6.50
  -1   5   6  110.34    6.56
  -1   5   6  101.86    6.47
   1   5  -6  100.94    6.40
  -1   5   6   99.88    7.00
   1   5  -6   95.33    6.34
  -1  -5  -6  116.43    7.72
   1   5   6   99.01    6.56
   1  -5  -6   96.61    6.39
  -1   5  -6   93.17    6.73
   1   5   6   87.12    6.39
  -1   5  -6  103.78    6.55
  -1   5  -6  103.18    6.45
   2   5  -6   18.00    1.63
  -2   5   6   13.11    1.44
  -2   5   6   13.55    1.95
  -2  -5  -6   14.03    1.29
  -2   5   6   12.83    1.27
  -2   5  -6   12.65    1.46
   2  -5  -6    9.50    1.04
  -2   5  -6   11.83    1.28
   2   5   6   10.00    1.37
   2   5   6   10.26    1.92
  -3   5   6    5.86    1.50
  -3   5   6    6.48    0.97
   3  -5   6    7.37    1.35
  -3   5   6    6.24    0.99
  -3  -5  -6    6.43    0.93
   3   5  -6    7.34    1.14
   3   5   6    6.04    1.06
  -3   5  -6    6.29    1.00
   3  -5  -6    4.59    0.90
  -3   5  -6    5.36    0.98
  -4   5   6    2.37    0.83
   4   5  -6    2.64    0.95
   4  -5   6    2.00    1.25
  -4  -5  -6    3.00    0.79
   4  -5  -6   -0.10    0.90
  -4   5  -6    0.81    0.81
  -5  -5  -6   10.10    1.24
   5  -5   6    9.54    1.94
  -5   5   6    9.85    1.25
  -5   5  -6    7.07    1.21
   0   6  -6   40.75    3.12
   0  -6  -6   38.09    2.93
   0   6   6   37.88    3.52
   0   6   6   46.10    3.21
   0   6   6   41.58    3.00
   0   6  -6   43.90    3.03
   0   6  -6   43.33    3.17
  -1   6   6    3.52    0.85
   1   6  -6    3.37    0.74
  -1   6   6    3.90    1.40
  -1  -6  -6    3.95    0.75
   1   6  -6    3.69    0.71
  -1   6   6    3.95    0.94
   1   6  -6    2.21    0.95
  -1   6  -6    2.76    1.07
  -1   6  -6    2.59    0.85
   1   6   6    2.34    0.88
  -1   6  -6    4.22    0.93
  -2  -6  -6   28.74    2.22
   2   6  -6   27.30    2.32
  -2   6   6   26.18    2.26
  -2   6   6   28.20    2.94
  -2   6   6   28.62    2.27
  -2   6  -6   30.76    2.27
   2   6   6   25.20    2.35
  -2   6  -6   28.74    2.37
   3   6  -6   25.39    2.27
  -3   6   6   24.32    2.19
  -3   6   6   24.27    2.11
  -3  -6  -6   25.82    2.08
   3  -6   6   24.68    2.57
  -3   6  -6   24.15    2.15
  -3   6  -6   27.56    2.23
   3   6   6   25.90    2.31
   4   6  -6   17.82    1.86
   4  -6   6   10.72    1.97
  -4  -6  -6   17.69    1.65
  -4   6   6   15.74    1.64
  -4   6  -6   17.79    1.71
  -5  -6  -6    2.07    0.92
  -5   6   6    0.92    1.01
   5  -6   6    1.19    1.46
  -5   6  -6    2.17    1.06
   0   7   6    4.70    1.07
   0   7  -6    4.70    1.09
   0   7  -6    4.82    1.11
  -1   7   6   42.89    3.07
  -1  -7  -6   43.61    3.05
  -1   7   6   41.36    3.22
   1   7  -6   39.36    3.25
  -1   7  -6   42.62    3.48
  -1   7  -6   39.28    3.23
  -1   7  -6   42.69    3.06
   1   7   6   40.03    3.15
  -2  -7  -6   18.86    1.69
  -2   7   6   20.72    1.80
   2   7  -6   17.74    1.96
  -2   7   6   17.37    1.82
   2   7   6   15.15    1.78
  -2   7  -6   15.03    1.82
  -2   7  -6   12.16    1.52
   3  -7   6    8.09    1.56
  -3   7   6    8.49    1.22
  -3   7   6    9.32    1.36
  -3  -7  -6    8.16    1.14
   3   7  -6   10.60    1.51
   3   7   6    8.47    1.38
  -3   7  -6    9.11    1.23
  -3   7  -6    8.76    1.31
   4  -7   6    2.67    1.44
   4   7  -6    4.27    1.14
  -4  -7  -6    3.24    0.98
  -4   7   6    2.96    1.01
  -4   7  -6    0.84    0.99
   4   7   6    2.87    1.42
   5  -7   6    1.35    1.60
  -5   7   6    4.27    1.20
  -5  -7  -6    3.43    1.09
  -5   7  -6    5.08    1.26
   0   8  -6   47.02    3.47
   0   8   6   43.71    3.47
  -1   8   6    7.34    1.32
  -1   8   6    6.77    1.16
   1   8  -6    8.74    1.41
  -1  -8  -6    9.58    1.21
  -1   8  -6   10.34    1.44
   1   8   6    8.36    1.39
  -1   8  -6    9.30    1.27
   2   8  -6    7.71    1.41
  -2  -8  -6   10.40    1.26
  -2   8   6    8.30    1.40
  -2   8   6    8.07    1.22
   2   8   6    7.81    1.38
  -2   8  -6    7.99    1.35
  -2   8  -6    6.59    1.10
   3  -8   6    8.29    1.90
  -3   8   6   12.02    1.51
   3   8  -6   12.93    1.82
  -3   8   6   13.35    1.63
  -3  -8  -6   12.55    1.45
  -3   8  -6   11.60    1.56
   3   8   6   14.14    1.81
  -3   8  -6   10.78    1.42
  -4  -8  -6    9.22    1.40
  -4   8   6    9.05    1.38
   4   8  -6    8.75    1.58
   4  -8   6    5.22    1.61
   4   8   6    7.95    1.58
  -4   8  -6    6.66    1.36
  -5  -8  -6    1.19    1.10
  -5   8   6    1.79    1.18
   5  -8   6    0.23    1.82
  -5   8  -6    1.51    1.19
   0   9  -6   15.45    1.90
   0   9   6   17.14    2.05
  -1   9   6   17.97    2.16
   1   9  -6   16.33    2.13
  -1   9  -6   22.16    2.13
   1   9   6   22.22    2.23
  -2   9   6    7.48    1.44
  -2  -9  -6   10.18    1.33
  -2   9   6   12.29    1.50
   2   9  -6   11.01    1.68
  -2   9  -6   10.37    1.57
   2   9   6   12.06    1.83
  -2   9  -6   12.65    1.50
   3  -9   6   -2.97    1.47
  -3   9   6    2.16    1.08
   3   9  -6    1.04    1.34
  -3  -9  -6    1.62    0.94
  -3   9   6    0.51    1.02
  -3   9  -6    0.59    1.05
  -3   9  -6    1.78    1.11
   3   9   6    0.79    1.31
   4   9  -6    1.94    1.33
  -4   9   6    2.64    1.18
  -4  -9  -6    3.45    1.15
   4  -9   6    0.75    1.52
   4   9   6    1.61    1.33
  -4   9  -6    2.19    1.18
   0  10   6   10.35    1.81
   0  10  -6   12.16    1.75
   1  10  -6    8.15    1.70
  -1  10   6    7.28    1.59
  -1  10  -6    7.40    1.46
   1  10   6    5.61    1.65
  -2  10   6    2.21    1.30
   2  10  -6    3.30    1.41
   2  10   6    3.68    1.61
  -2  10  -6    1.81    1.34
  -3  10   6    9.05    1.61
   3  10  -6    8.80    1.94
  -3 -10  -6   11.35    1.46
  -3  10   6   11.04    1.62
   3  10   6    9.87    1.97
  -3  10  -6    7.40    1.51
  -3  10  -6    6.97    1.45
   4  10  -6   -0.70    1.61
  -4  10   6    1.66    1.30
  -4 -10  -6    0.56    1.14
   4 -10   6   -0.30    1.50
   4  10   6    0.91    1.65
  -4  10  -6    2.06    1.27
   0  11  -6   -0.15    1.23
   0  11   6   -1.13    1.39
   1  11  -6    6.17    1.76
  -1  11   6    4.11    1.55
  -1  11  -6    1.45    1.44
   1  11   6    3.84    1.61
   2  11  -6    3.39    1.86
  -2  11   6    3.32    1.52
   2  11   6    3.69    1.81
  -2  11  -6    1.91    1.32
   3  11  -6    1.13    1.87
  -3  11   6    0.71    1.22
   3 -11   6   -3.14    1.91
  -3  11  -6    0.24    1.30
   3  11   6    1.24    1.80
   0  12  -6    2.20    1.74
   0  12   6    3.25    1.84
  -1  12   6    4.06    1.65
   1  12  -6    4.77    1.81
  -1  12  -6    2.67    1.42
   1  12   6    5.96    2.11
  -2  12   6    2.83    1.46
   2  12  -6    2.50    1.85
  -2  12  -6    1.36    1.50
   2  12   6    1.62    1.97
   3 -12   6   -4.49    2.06
   0  13  -6    1.14    1.96
   0  13   6    1.17    1.77
   1  13  -6    1.18    1.97
  -1  13   6    0.17    1.77
   1  13   6   -2.19    2.15
  -1  13  -6    1.27    1.48
   0   0  -7    0.41    0.42
   0   0   7   -0.55    0.40
   0   0  -7    0.30    0.66
   0   0  -7   -0.02    0.47
   0   0   7    0.31    0.68
   1   0   7    0.09    0.78
   1   0   7    0.32    0.43
   1   0   7    0.85    0.47
   1   0  -7   -0.38    0.79
  -1   0   7   -0.01    0.62
  -1   0  -7    0.32    0.84
  -1   0  -7   -0.05    0.57
   1   0  -7   -0.11    0.39
  -1   0   7    0.03    0.48
  -1   0   7    0.15    0.54
   1   0  -7    0.49    0.64
  -1   0  -7    0.61    0.54
  -2   0   7   18.04    1.68
   2   0  -7   22.09    1.81
   2   0   7   20.04    1.71
  -2   0  -7   20.48    1.69
  -2   0  -7   20.45    2.26
  -2   0   7   20.26    1.78
   2   0   7   22.06    2.38
   3   0  -7    7.91    1.06
   3   0   7    7.61    1.14
  -3   0  -7    8.30    1.14
  -3   0   7    4.69    0.98
  -3   0  -7    6.91    0.92
  -4   0  -7   44.71    3.04
  -4   0   7   45.12    3.16
   4   0   7   39.98    3.35
  -5   0  -7    1.70    0.78
   5   0   7    0.29    1.06
  -5   0   7    0.14    0.88
  -6   0  -7    2.24    0.87
  -6   0   7    2.25    0.92
   6   0   7    3.03    1.56
   0  -1  -7   24.17    1.90
   0  -1  -7   24.91    2.37
   0  -1   7   27.71    2.17
   0   1  -7   26.18    1.91
   0   1  -7   26.39    2.05
   0   1   7   23.14    2.18
   0   1  -7   27.02    2.23
   0   1   7   26.12    1.95
  -1   1   7   85.64    5.62
   1   1  -7   84.94    5.46
   1  -1   7   84.11    5.37
  -1  -1  -7   76.20    5.33
  -1  -1  -7   76.84    5.80
   1   1  -7   81.06    5.31
   1  -1   7   83.89    5.74
  -1   1   7   79.40    5.37
  -1   1   7   86.62    5.42
   1   1  -7   85.70    5.63
   1  -1  -7   87.90    5.34
  -1   1  -7   76.74    5.36
   1   1   7   83.25    5.77
   1   1   7   87.01    5.38
   1   1   7   85.21    5.28
  -1   1  -7   80.64    5.73
  -1   1  -7   89.28    5.50
  -1  -1   7   77.33    5.43
   1  -1  -7   81.77    5.84
  -1  -1   7   82.94    5.42
  -2  -1  -7   23.88    1.67
   2  -1   7   20.31    1.76
  -2   1   7   25.69    2.00
  -2   1   7   22.16    1.78
  -2  -1  -7   23.36    1.86
  -2  -1  -7   21.50    2.69
   2  -1   7   21.75    2.38
   2   1  -7   20.81    1.79
  -2   1  -7   19.46    1.71
  -2  -1   7   18.75    1.58
   2   1   7   16.99    1.64
   2   1   7   15.47    2.20
   2  -1  -7   19.87    1.81
  -2   1  -7   17.80    1.69
  -2   1  -7   16.77    2.16
   3   1  -7   69.66    4.60
  -3   1   7   74.86    4.87
  -3   1   7   63.82    4.57
   3  -1   7   68.83    4.73
  -3  -1  -7   65.53    4.49
  -3   1  -7   71.83    4.54
   3   1   7   66.01    4.66
   3  -1  -7   66.27    4.63
  -3   1  -7   67.95    4.62
  -4   1   7    8.63    1.17
   4  -1   7   11.41    1.57
  -4  -1  -7   10.41    1.13
   4   1   7    8.89    1.38
  -4   1  -7    9.45    1.12
  -5  -1  -7    0.49    0.76
   5  -1   7    0.71    1.22
  -5   1   7    1.38    0.86
  -5   1  -7    1.62    0.74
  -5  -1   7    1.13    0.89
   5   1   7    1.69    1.21
  -6   1   7   -0.16    0.86
  -6  -1  -7    0.62    0.80
   6  -1   7   -0.59    1.50
  -6   1  -7   -0.09    0.77
  -6  -1   7    0.16    0.93
   6   1   7   -0.73    1.43
   0   2   7    6.34    0.55
   0  -2  -7    6.86    1.29
   0  -2  -7    6.15    0.82
   0  -2   7    6.08    0.99
   0   2  -7    7.18    0.87
   0   2  -7    6.66    1.05
   0   2   7    7.31    1.24
   0   2   7    7.35    0.91
   0   2  -7    7.39    1.01
   1  -2   7    5.88    1.21
   1   2  -7    4.81    0.88
  -1   2   7    6.66    0.88
  -1  -2  -7    7.49    1.33
  -1   2   7    6.57    1.22
  -1  -2  -7    6.57    0.84
   1   2  -7    6.41    0.95
   1   2  -7    5.48    0.75
  -1   2  -7    5.22    0.85
  -1  -2   7    5.19    0.76
  -1   2  -7    5.93    1.22
   1   2   7    5.23    0.63
   1   2   7    3.76    1.20
   1  -2  -7    5.25    0.74
   1  -2  -7    6.64    1.37
   1   2   7    4.36    0.79
  -1   2  -7    4.76    0.88
   2  -2   7  145.69    9.85
  -2  -2  -7  135.33    9.50
  -2   2   7  150.30    9.40
  -2   2   7  158.59    9.72
   2   2  -7  151.40    9.48
   2  -2   7  143.61    9.45
  -2  -2  -7  156.28    9.37
  -2   2  -7  144.72    9.84
  -2   2  -7  150.40    9.44
   2  -2  -7  128.23    9.46
  -2   2  -7  157.10    9.38
   2   2   7  154.42    9.36
  -3   2   7   39.47    2.88
  -3   2   7   37.33    3.28
   3   2  -7   38.78    2.93
   3  -2   7   32.36    2.99
  -3  -2  -7   32.49    2.89
  -3  -2  -7   34.95    2.80
   3  -2  -7   36.97    2.93
   3   2   7   44.41    2.91
  -3   2  -7   46.53    2.85
  -3   2  -7   47.87    2.91
   3   2   7   42.61    2.94
   4  -2   7    5.02    1.22
  -4   2   7    4.88    0.94
  -4  -2  -7    4.48    0.82
  -4   2  -7    2.34    0.77
   4   2   7    3.90    1.08
  -5  -2  -7    4.02    0.91
   5  -2   7    5.34    1.57
  -5   2   7    4.17    0.98
   5   2   7    2.71    1.28
  -5   2  -7    3.43    0.92
  -6   2   7    2.46    0.91
  -6  -2  -7    0.47    0.83
   6  -2   7    2.11    1.63
  -6   2  -7    2.10    0.84
  -6  -2   7    1.99    1.00
   6   2   7    1.42    1.55
   0  -3  -7   13.30    1.85
   0   3  -7    8.29    1.20
   0   3  -7    9.49    1.06
   0   3  -7    8.50    1.21
   0   3   7   10.85    1.15
   0   3   7    9.14    1.52
   0  -3   7    9.15    1.21
   0  -3  -7   11.42    1.09
   1  -3   7    2.36    1.02
  -1  -3  -7    2.55    0.62
   1   3  -7    2.84    0.64
  -1  -3  -7    3.12    1.33
  -1  -3  -7    3.29    0.86
  -1   3   7    2.26    0.71
  -1   3   7    2.31    1.08
   1   3  -7    3.94    0.69
   1   3  -7    2.05    0.83
   1  -3  -7    0.97    0.56
   1  -3  -7    0.83    1.07
  -1   3  -7    0.84    0.65
  -1   3  -7    1.30    0.77
  -1  -3   7    1.20    0.51
   1  -3  -7   -0.35    0.59
   1   3   7    1.29    0.65
   1   3   7    1.93    1.10
   1   3   7    1.00    0.38
  -1   3  -7    1.35    0.97
   2   3  -7    9.03    1.16
   2  -3   7    9.36    1.24
  -2   3   7   10.28    1.53
  -2   3   7    8.56    1.04
   2  -3   7    8.32    1.49
  -2  -3  -7    8.83    0.98
  -2  -3  -7    9.64    1.24
   2   3   7    4.85    0.82
  -2   3  -7    4.91    1.57
   2  -3  -7    5.41    1.06
  -2   3  -7    4.81    0.91
   2   3   7    6.09    1.03
  -2   3  -7    5.00    0.97
   3  -3   7   77.11    5.16
  -3   3   7   79.13    5.47
   3   3  -7   71.19    5.00
  -3   3   7   75.14    4.96
  -3   3   7   71.81    4.94
  -3  -3  -7   77.93    4.90
  -3  -3  -7   80.45    5.07
   3   3   7   75.81    4.98
   3  -3  -7   69.38    5.00
  -3   3  -7   70.86    4.92
  -3   3  -7   72.51    4.90
   3   3   7   68.35    4.95
  -4  -3  -7    9.01    1.10
  -4   3   7    8.39    1.14
   4  -3   7    6.46    1.39
   4   3   7    7.46    1.27
  -4   3  -7    8.84    1.11
  -5   3   7    2.27    0.91
  -5  -3  -7    2.41    0.85
   5  -3   7    2.78    1.51
  -5   3  -7    1.38    0.86
   5   3   7    2.56    1.18
   0  -4  -7    0.98    0.54
   0  -4  -7    1.25    1.28
   0   4   7    0.50    0.57
   0  -4  -7   -0.39    0.54
   0   4   7    1.44    1.06
   0   4  -7    0.42    0.76
   0   4   7    0.55    0.78
   0   4  -7    0.67    0.68
   0   4  -7   -0.02    0.57
   1   4  -7   34.71    2.58
  -1   4   7   31.05    3.22
   1   4  -7   36.45    2.86
   1  -4   7   39.11    3.08
  -1   4   7   35.12    2.70
  -1   4   7   35.73    2.76
  -1  -4  -7   37.43    2.67
   1  -4  -7   35.12    3.29
  -1   4  -7   37.15    3.08
   1   4   7   42.23    3.39
   1   4   7   41.90    2.81
  -1   4  -7   40.85    2.72
  -1   4  -7   38.78    2.82
  -2  -4  -7  151.47    9.25
  -2   4   7  148.94    9.29
   2   4  -7  150.95    9.38
   2  -4   7  145.95    9.78
  -2  -4  -7  146.57    9.43
  -2   4   7  143.62    9.33
  -2   4   7  151.97    9.83
  -2   4  -7  144.15    9.37
   2   4   7  145.30    9.99
  -2   4  -7  127.59    9.23
   2  -4  -7  145.74    9.43
   2   4   7  145.14    9.36
  -3   4   7    9.38    1.19
  -3  -4  -7    9.82    1.10
  -3   4   7    7.50    1.11
   3  -4   7    9.34    1.47
   3   4  -7    8.10    1.21
  -3   4   7   10.49    1.78
   3   4   7   10.93    1.21
   3   4   7    9.57    1.24
   3  -4  -7    6.08    1.06
  -3   4  -7    8.27    1.09
  -3   4  -7   10.63    1.27
  -4   4   7    0.83    0.82
   4  -4   7    1.08    1.19
  -4  -4  -7    0.44    0.72
  -4   4  -7    3.02    0.87
   4   4   7    3.74    1.03
   5  -4   7    1.71    1.40
  -5  -4  -7    0.66    0.81
  -5   4   7   -0.05    0.88
   5   4   7    1.26    1.18
  -5   4  -7    0.49    0.88
   0  -5  -7    1.97    0.62
   0   5  -7    0.92    0.73
   0   5   7    0.17    1.11
   0   5  -7    1.51    0.81
   0  -5  -7    2.07    0.81
   0   5  -7    1.31    0.81
   0   5   7    1.14    0.68
   0   5   7    1.65    0.93
  -1   5   7   49.06    3.63
   1   5  -7   53.96    3.77
  -1  -5  -7   50.13    3.56
  -1   5   7   50.97    3.68
  -1   5   7   48.58    4.14
   1   5  -7   46.53    3.72
   1  -5  -7   57.74    3.83
   1   5   7   56.22    3.77
  -1   5  -7   56.64    3.77
   1   5   7   45.99    4.12
  -1   5  -7   53.95    4.00
  -1   5  -7   50.93    3.61
  -2   5   7    6.39    0.99
  -2  -5  -7    5.61    0.90
  -2   5   7    6.34    1.67
  -2   5   7    5.64    1.07
   2   5  -7    6.90    1.15
  -2   5  -7    5.29    1.10
   2   5   7    3.85    0.96
  -2   5  -7    3.95    0.93
   3  -5   7   35.82    2.96
   3   5  -7   32.73    2.70
  -3  -5  -7   32.94    2.54
  -3   5   7   35.33    2.68
  -3   5   7   34.46    3.36
  -3   5   7   32.60    2.59
  -3   5  -7   32.18    2.63
  -3   5  -7   32.57    2.61
   3   5   7   31.57    2.69
   4  -5   7    4.80    1.47
  -4  -5  -7    4.88    0.96
  -4   5   7    4.50    1.06
   4   5  -7    4.77    1.33
  -4   5  -7    3.27    1.00
  -5   5   7    0.14    0.91
   5  -5   7    0.34    1.49
  -5  -5  -7    0.09    0.86
  -5   5  -7    0.32    0.93
   0   6   7    3.97    1.02
   0   6   7    5.61    1.10
   0   6  -7    3.32    1.03
   0   6   7    3.17    1.45
   0   6  -7    4.31    0.99
  -1   6   7   26.26    2.26
   1   6  -7   24.44    2.43
  -1  -6  -7   26.55    2.21
  -1   6   7   25.74    2.41
  -1   6   7   27.33    2.88
  -1   6  -7   28.32    2.31
  -1   6  -7   29.33    2.38
   1   6   7   31.45    2.51
  -1   6  -7   26.19    2.61
  -2  -6  -7    5.50    0.93
  -2   6   7    5.11    1.07
   2   6  -7    6.30    1.22
  -2   6   7    5.60    1.02
  -2   6  -7    3.54    0.97
  -2   6  -7    2.54    0.92
   2   6   7    3.71    1.11
  -3   6   7    4.43    1.01
  -3  -6  -7    5.43    0.92
   3   6  -7    4.26    1.13
  -3   6   7    3.29    0.95
   3  -6   7    4.68    1.35
  -3   6  -7    3.60    0.97
  -3   6  -7    3.32    0.95
   3   6   7    4.59    1.12
   4  -6   7   29.34    3.09
   4   6  -7   31.96    2.70
  -4  -6  -7   27.93    2.47
  -4   6   7   30.39    2.56
  -4   6  -7   25.05    2.53
  -5  -6  -7   -0.66    0.91
   5  -6   7    0.83    1.48
  -5   6   7    2.19    1.01
  -5   6  -7    0.16    1.00
   0   7   7   26.79    2.56
   0   7  -7   28.88    2.55
  -1   7   7   54.63    4.01
   1   7  -7   51.58    4.07
  -1  -7  -7   57.89    3.88
  -1   7   7   44.24    3.81
   1   7   7   56.02    4.09
  -1   7  -7   66.82    3.98
  -1   7  -7   53.94    4.23
  -1   7  -7   58.52    4.10
  -2  -7  -7    2.82    0.87
  -2   7   7    3.58    1.08
   2   7  -7    2.84    1.12
  -2   7   7    4.66    0.97
   2   7   7    2.72    0.99
  -2   7  -7    4.71    1.03
  -2   7  -7    2.78    0.98
  -3   7   7    8.93    1.35
  -3  -7  -7    9.98    1.27
   3  -7   7    9.73    1.75
  -3   7   7    8.66    1.24
   3   7  -7   11.06    1.64
  -3   7  -7    9.20    1.34
   3   7   7    6.97    1.44
  -3   7  -7    9.29    1.38
  -4  -7  -7    7.29    1.23
   4   7  -7    7.89    1.47
   4  -7   7    5.88    1.77
  -4   7   7    6.02    1.27
  -4   7  -7    7.47    1.34
   4   7   7    5.43    2.07
  -5   7   7    2.13    1.17
  -5  -7  -7    2.12    1.06
   5  -7   7    2.03    1.79
  -5   7  -7    0.75    1.17
   0   8   7    5.75    1.24
   0   8  -7    7.60    1.47
  -1   8   7    5.53    1.30
   1   8  -7    5.36    1.27
   1   8   7    3.70    1.27
  -1   8  -7    3.28    1.05
  -2   8   7    9.74    1.48
  -2   8   7   12.11    1.48
  -2  -8  -7   13.21    1.43
   2   8  -7   10.02    1.67
   2   8   7   10.98    1.74
  -2   8  -7   10.47    1.61
  -2   8  -7   11.35    1.41
   3   8  -7    3.44    1.39
  -3   8   7    7.56    1.25
  -3   8   7    5.14    1.26
   3  -8   7    3.55    1.71
  -3  -8  -7    6.87    1.18
  -3   8  -7    6.88    1.22
  -3   8  -7    5.84    1.27
   3   8   7    5.41    1.44
   4   8  -7    5.68    1.57
   4  -8   7    4.83    1.78
  -4   8   7    5.13    1.29
  -4  -8  -7    6.25    1.29
   4   8   7    4.37    1.76
  -4   8  -7    4.70    1.36
   0   9  -7   17.42    2.09
   0   9   7   17.12    2.18
  -1   9   7    0.81    1.25
   1   9  -7   -0.10    1.25
  -1   9  -7    0.44    1.01
   1   9   7    2.21    1.24
   2   9  -7    0.31    1.24
  -2   9   7    0.32    1.19
  -2   9  -7    0.82    1.14
   2   9   7    1.44    1.43
  -3   9   7    5.53    1.36
   3   9  -7    5.99    1.69
  -3  -9  -7    6.35    1.28
  -3   9   7    8.63    1.40
   3  -9   7    3.73    1.91
  -3   9  -7    7.15    1.46
  -3   9  -7    6.20    1.33
   3   9   7    6.94    1.66
  -4   9   7    0.73    1.22
  -4  -9  -7    1.76    1.11
   4  -9   7    1.86    1.64
   4   9  -7   -0.39    1.42
  -4   9  -7    2.99    1.27
   4   9   7    0.45    1.77
   0  10   7    0.47    1.45
  -1  10   7    5.61    1.60
   1  10  -7    6.48    1.64
  -1  10  -7    5.94    1.59
   1  10   7    5.01    1.70
   2  10  -7   21.79    2.63
  -2  10   7   22.76    2.59
   2  10   7   21.84    2.65
  -2  10  -7   17.95    2.29
  -3  10   7    1.79    1.40
   3  10  -7    4.12    1.85
   3 -10   7   -2.67    1.79
  -3  10  -7    2.30    1.38
   3  10   7    2.69    1.73
   4 -10   7    1.71    1.96
   0  11   7   -0.62    1.58
   0  11  -7    0.26    1.43
   1  11  -7    2.82    1.84
  -1  11   7    0.65    1.59
   1  11   7    1.89    1.79
  -1  11  -7    2.75    1.66
   2  11  -7    5.25    2.06
  -2  11   7    5.57    1.78
   2  11   7    4.05    1.77
  -2  11  -7    5.84    1.73
   3  11  -7    2.31    2.00
  -3  11   7    2.74    1.52
   3  11   7    1.08    1.96
  -3  11  -7    2.47    1.44
   0  12  -7    0.98    1.78
   0  12   7   -0.76    1.73
  -1  12   7    3.93    1.86
   1  12  -7    4.08    2.22
   1  12   7    4.83    1.94
   2  12  -7    0.57    2.13
  -2  12   7    0.48    1.64
  -2  12  -7    0.23    1.43
   2  12   7    0.58    2.14
   0  13   7    2.60    2.25
   0  13  -7    3.46    1.97
   0   0  -8  183.09   11.42
   0   0   8  174.86   11.30
   0   0   8  178.67   11.54
   0   0  -8  174.55   11.57
   0   0  -8  183.49   11.25
   1   0   8   92.38    5.41
  -1   0  -8   79.93    5.43
  -1   0   8   86.60    5.61
  -1   0  -8   79.10    5.59
   1   0  -8   79.19    5.48
   1   0   8   87.93    5.93
   1   0  -8   78.96    5.84
   1   0   8   83.95    5.49
   1   0  -8   80.97    5.59
  -1   0  -8   88.99    5.93
  -1   0   8   80.45    5.50
  -2   0   8   -0.69    0.66
  -2   0  -8    0.49    0.77
  -2   0  -8    0.17    0.61
   2   0   8   -0.31    1.00
   2   0   8   -0.10    0.63
   2   0  -8   -0.33    0.74
  -2   0   8   -0.11    0.72
  -3   0   8   14.76    1.54
   3   0   8   16.44    1.66
  -3   0  -8   17.85    1.69
  -3   0  -8   15.13    1.55
   3   0  -8   14.74    1.66
   4   0   8    4.70    1.10
  -4   0  -8    4.80    0.90
  -4   0   8    5.95    1.10
  -5   0   8    4.77    1.14
   5   0   8    3.02    1.33
  -5   0  -8    5.94    1.04
   0   1   8   77.72    5.32
   0  -1   8   72.35    4.98
   0   1  -8   60.56    5.00
   0  -1  -8   82.36    5.18
   0  -1  -8   74.87    4.94
   0   1  -8   79.73    4.95
   0   1  -8   81.26    5.27
   0  -1   8   80.89    5.22
   0  -1  -8   70.39    5.35
   1  -1   8   38.82    3.00
   1   1  -8   39.75    2.78
   1   1  -8   42.30    3.01
  -1   1   8   38.97    2.88
  -1  -1  -8   38.48    2.61
  -1  -1  -8   41.57    3.27
  -1   1   8   38.27    2.68
   1  -1   8   33.17    2.71
   1  -1  -8   30.32    3.03
  -1   1  -8   33.17    2.94
   1   1   8   34.80    2.75
  -1  -1   8   33.99    2.68
   1   1   8   29.17    3.04
   1  -1  -8   27.05    2.69
   1   1   8   34.46    2.44
  -1   1  -8   38.36    2.63
  -1   1  -8   34.64    2.72
   2  -1   8   18.88    1.75
  -2   1   8   20.25    1.89
  -2  -1  -8   19.46    1.70
   2   1  -8   20.19    1.87
  -2   1   8   20.35    1.97
   2  -1   8   17.81    2.23
   2  -1  -8   21.33    1.93
   2   1   8   20.37    2.34
  -2   1  -8   13.62    1.71
  -2   1  -8   22.05    1.76
  -2  -1   8   21.40    1.86
   2   1   8   21.91    1.72
  -3   1   8    4.23    0.97
   3   1  -8    3.30    0.87
  -3  -1  -8    3.37    0.78
  -3  -1  -8    4.60    1.05
   3  -1   8    3.87    0.96
  -3   1  -8    2.17    0.80
   3   1   8    2.03    0.85
  -3   1  -8    4.08    0.90
   3  -1  -8    3.73    0.94
   4  -1   8    8.87    1.43
  -4  -1  -8    8.13    1.11
  -4   1   8    6.46    1.16
  -4   1  -8    8.28    1.12
   4   1   8    8.94    1.33
   5  -1   8   14.75    2.06
  -5  -1  -8   11.81    1.38
  -5   1   8    9.95    1.43
  -5   1  -8   11.97    1.36
   5   1   8    9.68    1.71
  -5  -1   8   14.22    1.56
   0  -2   8   57.87    4.21
   0   2  -8   62.50    4.19
   0   2  -8   56.61    4.00
   0   2   8   67.29    4.09
   0  -2  -8   61.10    4.61
   0  -2  -8   56.29    3.98
   0   2   8   56.33    4.37
   0   2  -8   60.16    4.25
  -1  -2  -8   64.91    4.70
  -1   2   8   66.98    4.50
  -1  -2  -8   67.55    4.09
   1   2  -8   66.15    4.25
   1   2  -8   63.25    4.25
  -1   2   8   54.57    4.08
   1  -2   8   65.28    4.49
  -1   2  -8   57.86    4.06
   1  -2  -8   58.56    4.64
   1   2   8   52.90    4.49
  -1   2  -8   49.64    4.11
  -1  -2   8   54.15    4.05
   1   2   8   64.81    3.90
  -1   2  -8   60.33    4.42
  -2   2   8   18.67    1.73
   2  -2   8   19.19    2.34
   2  -2   8   17.13    1.70
   2   2  -8   14.89    1.71
  -2  -2  -8   15.61    1.78
  -2  -2  -8   16.25    1.60
  -2   2   8   16.51    2.00
   2   2   8   19.02    1.53
  -2   2  -8   17.66    1.63
   2   2   8   17.10    2.24
  -2   2  -8   17.63    1.66
   2  -2  -8   16.21    1.79
  -3  -2  -8    3.16    0.95
  -3  -2  -8    2.61    0.78
   3   2  -8    3.17    0.91
  -3   2   8    0.96    0.81
   3  -2   8    1.80    0.93
  -3   2  -8    2.36    0.78
   3  -2  -8    2.19    0.86
  -3   2  -8    3.28    0.81
   3   2   8    2.55    0.81
   4  -2   8    6.81    1.36
  -4  -2  -8    6.16    1.01
  -4   2   8    5.74    1.09
  -4   2  -8    6.37    1.06
   4   2   8    5.86    1.20
  -5  -2  -8   10.31    1.29
   5  -2   8    7.21    1.73
  -5   2   8    9.74    1.35
   5   2   8    7.39    1.53
  -5   2  -8    7.98    1.26
   0  -3  -8  159.89   10.77
   0   3  -8  158.09   10.29
   0   3   8  148.71   10.54
   0  -3  -8  163.44   10.12
   0   3  -8  144.31   10.09
   0   3   8  158.23   10.13
   0  -3   8  163.54   10.31
   0   3  -8  182.48   10.33
  -1  -3  -8   27.48    2.06
   1   3  -8   25.23    2.09
   1  -3   8   23.11    2.44
  -1   3   8   24.09    2.12
   1   3  -8   25.73    2.22
  -1   3   8   26.52    2.46
  -1   3  -8   25.86    2.08
  -1  -3   8   27.51    1.99
   1  -3  -8   23.52    2.73
   1   3   8   25.44    2.63
  -1   3  -8   26.81    2.30
  -1   3  -8   25.99    2.53
  -2  -3  -8    7.88    1.04
   2  -3   8    9.01    1.68
   2   3  -8    7.67    1.20
  -2  -3  -8    4.85    1.05
   2  -3   8    7.27    1.23
  -2   3   8    6.20    1.45
  -2   3   8    7.24    1.13
  -2   3  -8    7.68    1.02
   2   3   8    8.64    0.94
  -2   3  -8   10.07    1.25
   3  -3   8    5.06    1.18
   3   3  -8    7.92    1.20
  -3  -3  -8    6.12    0.99
  -3   3   8    5.81    1.07
  -3  -3  -8    8.76    1.31
  -3   3   8    6.50    1.67
   3   3   8    6.47    1.11
   3  -3  -8    8.36    1.27
  -3   3  -8    7.68    1.06
   3   3   8    7.77    1.09
  -3   3  -8    7.93    1.13
  -4  -3  -8   15.31    1.53
   4  -3   8   15.23    1.95
  -4   3   8   14.79    1.58
   4   3   8   13.08    1.66
  -4   3  -8   16.05    1.58
   5  -3   8    4.08    1.53
  -5   3   8    3.06    1.07
  -5  -3  -8    2.98    0.98
   5   3   8    0.92    1.13
  -5   3  -8    3.32    1.02
   0   4   8   15.14    1.55
   0  -4  -8   15.54    1.78
   0   4   8   15.66    1.75
   0   4  -8   16.23    1.84
   0   4   8   17.89    2.27
   0  -4  -8   14.58    1.44
   0   4  -8   14.79    1.76
   0  -4   8   18.38    1.76
   0   4  -8   14.74    1.46
   1  -4   8   28.73    2.59
   1   4  -8   25.99    2.49
  -1  -4  -8   22.22    2.44
  -1   4   8   30.34    2.37
  -1   4   8   29.65    2.47
  -1   4   8   25.30    2.80
  -1  -4  -8   27.89    2.27
  -1   4  -8   31.73    2.56
   1   4   8   31.82    3.14
   1   4   8   30.03    2.40
   1  -4  -8   35.89    2.62
  -1   4  -8   32.32    2.76
  -1   4  -8   32.41    2.36
   1  -4  -8   28.20    3.05
  -2   4   8    7.26    1.07
   2   4  -8    6.68    1.23
  -2   4   8    8.60    1.61
   2  -4   8    8.31    1.35
  -2  -4  -8    4.35    1.05
  -2   4   8    7.24    1.15
   2  -4   8    7.02    1.56
  -2  -4  -8    5.99    0.94
   2   4   8    5.55    1.05
   2  -4  -8    7.99    1.34
  -2   4  -8    4.49    1.02
  -2   4  -8    6.84    1.07
  -3   4   8    4.91    1.53
  -3   4   8    6.38    1.10
   3   4  -8    6.13    1.14
   3  -4   8    5.46    1.25
  -3   4   8    5.74    1.05
  -3  -4  -8    4.44    0.91
  -3   4  -8    4.46    0.94
  -3   4  -8    5.75    1.11
   3   4   8    4.90    1.03
   3  -4  -8    5.86    1.06
  -4   4   8   13.49    1.57
  -4  -4  -8   12.88    1.48
   4   4  -8   16.09    2.20
   4  -4   8   14.97    1.95
   4   4   8   16.53    1.74
  -4   4  -8   12.59    1.52
  -5  -4  -8    9.75    1.32
  -5   4   8    9.32    1.41
   5  -4   8    9.75    1.97
  -5   4  -8    9.73    1.39
   5   4   8   10.32    1.70
   0  -5  -8   80.04    5.93
   0   5   8   88.71    5.90
   0   5  -8   86.02    5.88
   0   5   8   85.78    6.36
   0   5  -8   91.84    5.89
  -1  -5  -8   52.51    3.86
  -1   5   8   51.47    3.92
   1   5  -8   57.23    4.07
  -1  -5  -8   58.08    4.18
  -1   5   8   56.40    4.08
  -1   5   8   57.50    4.59
   1  -5  -8   55.25    4.13
  -1   5  -8   60.39    3.94
   1   5   8   58.57    4.05
  -1   5  -8   55.35    4.29
  -1   5  -8   56.39    4.05
  -2   5   8    9.75    1.70
  -2   5   8   12.62    1.45
  -2  -5  -8   10.94    1.22
   2   5  -8   10.39    1.39
  -2   5   8    8.33    1.21
   2  -5  -8    9.15    1.43
  -2   5  -8    9.97    1.21
  -2   5  -8    9.74    1.39
   2   5   8    8.96    1.30
   3  -5   8    1.18    1.12
   3   5  -8    2.25    1.11
  -3   5   8    2.64    0.94
  -3  -5  -8    0.76    0.79
  -3   5   8    2.95    0.94
   3   5   8    2.82    1.01
  -3   5  -8    3.37    0.99
  -3   5  -8    2.63    0.88
   4   5  -8    6.21    1.38
   4  -5   8    3.99    1.47
  -4   5   8    5.19    1.15
  -4  -5  -8    4.95    1.04
  -4   5  -8    3.70    1.07
  -5   5   8    3.24    1.17
  -5  -5  -8    3.00    1.05
   5  -5   8    2.87    1.77
  -5   5  -8    4.67    1.21
   0   6  -8   22.31    2.28
   0   6   8   23.36    2.28
  -1   6   8   22.56    2.13
   1   6  -8   21.11    2.30
  -1  -6  -8   23.36    2.03
  -1   6   8   17.75    2.08
  -1   6  -8   25.82    2.49
  -1   6  -8   27.22    2.14
   1   6   8   24.59    2.32
  -1   6  -8   24.10    2.20
   2   6  -8    6.72    1.33
  -2   6   8    4.53    1.09
  -2  -6  -8    8.71    1.13
  -2   6   8    6.82    1.13
  -2   6  -8    6.93    1.11
   2   6   8    7.86    1.36
  -2   6  -8    7.24    1.31
  -3  -6  -8    8.09    1.18
  -3   6   8    9.43    1.32
   3   6  -8    9.33    1.51
  -3   6   8    8.85    1.38
   3  -6   8    9.03    1.61
   3   6   8    8.96    1.45
  -3   6  -8    8.68    1.42
  -3   6  -8    8.32    1.28
  -4   6   8    7.99    1.35
  -4  -6  -8    9.47    1.32
   4  -6   8    8.69    1.88
   4   6  -8    8.38    1.67
  -4   6  -8    5.42    1.29
  -5  -6  -8    3.06    1.10
  -5   6   8    3.01    1.23
   5  -6   8    4.13    1.88
  -5   6  -8    3.51    1.23
   0   7  -8    5.14    1.29
   0   7   8    9.12    1.48
   1   7  -8   11.84    1.72
  -1   7   8   12.84    1.63
  -1   7  -8   11.61    1.67
   1   7   8   12.62    1.74
  -2  -7  -8    8.62    1.22
  -2   7   8    7.68    1.39
   2   7  -8    7.25    1.44
  -2   7   8    8.22    1.25
  -2   7  -8    8.56    1.48
   2   7   8    8.23    1.54
  -2   7  -8    8.01    1.26
   3  -7   8    5.62    1.73
  -3   7   8    5.46    1.20
  -3   7   8    5.58    1.26
  -3  -7  -8    6.76    1.13
   3   7  -8    9.27    1.64
  -3   7  -8    6.56    1.28
   3   7   8    6.37    1.41
  -3   7  -8    6.60    1.26
  -4   7   8    5.10    1.19
   4  -7   8    2.42    1.66
  -4  -7  -8    1.19    1.00
   4   7  -8    3.75    1.33
  -4   7  -8    3.82    1.24
   0   8  -8    6.32    1.47
   0   8   8    5.12    1.30
  -1   8   8   18.83    2.14
   1   8  -8   18.82    2.22
  -1   8  -8   16.31    2.06
   1   8   8   15.83    2.07
   2   8  -8   17.56    2.19
  -2   8   8   18.73    2.15
   2   8   8   17.36    2.12
  -2   8  -8   21.44    2.27
  -3  -8  -8    1.63    0.99
  -3   8   8    1.07    1.09
   3  -8   8    0.56    1.48
  -3   8   8    2.46    1.15
   3   8  -8   -0.55    1.41
  -3   8  -8    2.23    1.05
   3   8   8    0.06    1.26
  -3   8  -8    3.99    1.14
   4   8  -8    2.62    1.46
  -4   8   8    3.19    1.24
  -4  -8  -8    2.99    1.17
   4  -8   8    0.28    1.71
  -4   8  -8    2.56    1.24
   0   9   8   15.58    2.09
   0   9  -8   13.33    1.91
  -1   9   8    5.40    1.45
   1   9  -8    6.67    1.55
  -1   9  -8    5.54    1.60
   1   9   8    7.17    1.71
   2   9  -8   -0.46    1.44
  -2   9   8    0.48    1.24
   2   9   8    0.08    1.34
  -2   9  -8    0.51    1.31
   3  -9   8    1.06    1.71
   3   9  -8    7.69    1.94
  -3   9   8    5.11    1.53
  -3   9   8    4.80    1.36
  -3   9  -8    7.23    1.53
   3   9   8    6.65    1.79
   4  -9   8    2.15    1.85
   4   9  -8    2.05    1.78
  -4   9   8    2.70    1.38
  -4  -9  -8    4.42    1.33
  -4   9  -8    3.76    1.45
   0  10   8    0.10    1.57
   0  10  -8    0.81    1.32
  -1  10   8    2.33    1.44
   1  10  -8    1.55    1.60
  -1  10  -8    3.52    1.63
   1  10   8    4.44    1.86
  -2  10   8    4.73    1.51
   2  10  -8    6.68    1.92
  -2  10  -8    3.94    1.62
   2  10   8    2.74    1.82
   3  10  -8    2.00    1.82
  -3  10   8    1.56    1.37
   3 -10   8   -2.33    1.69
  -3  10  -8    0.92    1.39
   3  10   8    1.13    1.72
   0  11   8    3.52    1.87
   0  11  -8    5.25    1.78
   1  11  -8    6.63    2.07
  -1  11   8    4.59    1.87
   1  11   8    4.34    2.05
  -1  11  -8    5.01    1.84
   2  11  -8    3.82    2.12
  -2  11   8    2.48    1.72
  -2  11  -8    2.49    1.52
   2  11   8    0.40    1.73
   0  12  -8    3.18    1.86
   0  12   8    1.39    2.00
   1  12  -8    2.28    2.06
  -1  12   8   -0.88    1.84
  -1  12  -8    1.46    1.70
   1  12   8    2.81    2.25
   0   0  -9    0.61    1.00
   0   0   9   -0.33    0.93
   0   0   9   -0.14    0.74
   0   0  -9   -0.46    0.62
   0   0  -9    0.18    0.76
  -1   0   9    5.25    1.09
  -1   0  -9    3.63    1.40
   1   0   9    5.02    0.78
   1   0   9    5.74    1.38
  -1   0  -9    5.78    1.15
  -1   0  -9    5.05    0.83
  -1   0   9    4.79    0.89
   1   0  -9    5.87    1.32
  -2   0  -9   17.43    1.86
  -2   0   9   15.79    1.68
   2   0   9   16.35    1.63
  -2   0  -9   18.18    1.63
   3   0   9   55.99    3.80
  -3   0  -9   55.66    3.71
  -3   0  -9   44.11    3.77
   3   0  -9   56.79    3.92
  -3   0   9   52.01    3.78
   4   0   9    2.52    1.02
  -4   0  -9    1.88    0.88
  -4   0   9    1.38    1.03
  -5   0   9    0.59    1.13
  -5   0  -9   -0.31    0.95
   5   0   9    0.39    1.15
   0  -1  -9   11.57    1.15
   0   1  -9    9.21    1.24
   0  -1   9    7.98    1.36
   0   1   9    9.15    1.17
   0  -1   9   10.23    1.23
   0  -1  -9    9.61    1.39
   0  -1  -9    9.97    1.71
   0   1   9    8.97    1.43
   0   1  -9    9.74    1.12
   0   1  -9    9.41    1.41
  -1   1   9    5.14    1.00
   1  -1   9    6.01    0.89
   1   1  -9    2.12    0.81
  -1   1   9    6.21    1.22
   1  -1   9    2.87    1.12
  -1  -1  -9    3.33    1.03
   1   1  -9    4.44    1.18
  -1  -1  -9    6.21    0.96
  -1  -1   9    3.99    0.96
   1  -1  -9    4.57    1.36
  -1  -1   9    1.99    0.95
   1   1   9    3.05    1.23
   1  -1  -9    2.67    0.96
  -1   1  -9    4.66    0.86
  -1   1  -9    4.91    1.01
   1   1   9    4.82    0.69
  -1   1  -9    4.17    1.27
  -2   1   9   59.65    4.54
   2  -1   9   55.05    4.18
  -2  -1  -9   62.91    4.42
  -2  -1  -9   64.10    4.21
  -2   1   9   59.24    4.26
   2   1  -9   63.65    4.36
   2   1   9   69.62    4.18
  -2   1  -9   54.64    4.17
  -2   1  -9   63.05    4.38
  -3  -1  -9    4.19    0.93
   3   1  -9    4.43    1.08
  -3  -1  -9    2.14    0.90
  -3   1   9    4.30    1.00
   3  -1   9    4.17    1.05
   3  -1  -9    0.85    0.86
  -3   1  -9    5.86    1.06
  -3   1  -9    5.49    0.94
   3   1   9    5.20    1.01
   4  -1   9    9.38    1.50
  -4   1   9    9.66    1.42
  -4  -1  -9    9.63    1.30
  -4   1  -9    8.78    1.26
  -4  -1   9   11.64    1.52
   4   1   9   10.83    1.43
  -5   1   9    1.57    1.10
   5  -1   9   -1.12    1.23
  -5  -1  -9    1.00    0.96
  -5   1  -9    0.77    0.91
   5   1   9   -0.01    1.16
  -5  -1   9   -1.08    1.11
   0   2   9    0.43    0.92
   0   2  -9    1.59    0.97
   0  -2  -9    0.30    0.66
   0  -2   9   -0.25    0.80
   0   2  -9   -0.13    0.70
   0  -2  -9    0.37    0.70
   0   2  -9   -0.37    0.58
   0   2   9    0.38    0.78
   0  -2  -9    0.39    1.18
  -1   2   9   41.44    3.39
  -1   2   9   41.15    3.06
   1   2  -9   46.93    3.23
  -1  -2  -9   40.31    2.97
   1  -2   9   41.84    3.40
  -1   2  -9   41.50    3.46
  -1  -2   9   41.61    3.01
  -1   2  -9   39.89    3.00
   1  -2  -9   39.75    3.61
   1   2   9   39.90    3.57
  -1   2  -9   37.28    3.05
   1  -2  -9   39.41    3.22
  -2  -2  -9    7.04    1.06
   2   2  -9    8.62    1.24
  -2  -2  -9    8.19    1.40
  -2   2   9    9.11    1.18
   2  -2   9    7.31    1.14
  -2   2   9    7.62    1.42
  -2   2  -9    7.00    1.13
   2  -2  -9    4.62    1.22
  -2   2  -9    7.51    1.12
  -3  -2  -9   37.23    2.43
   3  -2   9   31.02    2.55
  -3   2   9   35.40    2.53
  -3  -2  -9   35.21    2.63
   3   2  -9   34.47    2.52
  -3   2  -9   23.51    2.38
   3  -2  -9   20.29    2.46
   3   2   9   26.65    2.35
  -3   2  -9   24.05    2.36
  -4   2   9   -0.24    0.97
  -4  -2  -9   -0.26    0.83
   4  -2   9    1.41    1.07
   4   2   9   -0.64    0.89
  -4   2  -9   -0.03    0.88
   5  -2   9   -0.31    1.35
  -5  -2  -9    0.03    0.95
  -5   2   9    0.02    1.05
  -5   2  -9    1.35    1.02
   5   2   9    0.90    1.18
   0   3   9   -0.30    1.15
   0   3  -9    0.00    0.76
   0  -3  -9    0.42    0.72
   0  -3   9    0.85    0.87
   0   3  -9   -0.07    0.88
   1   3  -9   12.22    1.63
  -1  -3  -9   11.70    1.32
   1  -3   9   11.61    1.68
  -1   3   9   12.57    1.42
  -1   3   9   13.85    1.96
  -1  -3  -9   13.58    1.75
  -1   3  -9   14.42    1.85
   1  -3  -9   15.37    2.12
   1   3   9   12.65    2.10
  -1   3  -9   10.74    1.46
  -1   3  -9   15.77    1.46
   2   3  -9   14.63    1.66
  -2   3   9   12.29    1.45
  -2  -3  -9   11.40    1.34
  -2   3   9   13.76    1.81
   2  -3   9   11.85    1.52
  -2   3  -9   14.25    1.42
  -2   3  -9   14.92    1.64
  -3  -3  -9    3.32    0.91
  -3   3   9    5.07    1.08
  -3  -3  -9    3.34    1.10
   3   3  -9    4.96    1.16
   3  -3   9    3.94    1.16
  -3   3  -9    3.41    0.95
   3   3   9    4.24    1.04
  -3   3  -9    4.01    0.93
   4  -3   9   26.20    2.71
  -4   3   9   27.75    2.56
  -4  -3  -9   24.57    2.38
  -4   3  -9   30.73    2.49
  -5   3   9    0.47    1.13
   5  -3   9    2.73    1.53
  -5  -3  -9    1.50    1.03
  -5   3  -9    2.56    1.13
   0  -4  -9    9.90    1.53
   0  -4   9   10.08    1.37
   0   4  -9   10.63    1.44
   0   4  -9    8.70    1.55
   0   4   9   10.13    1.89
   1  -4   9   31.82    2.78
   1   4  -9   25.91    2.50
  -1   4   9   31.53    2.43
  -1   4   9   29.48    2.86
  -1  -4  -9   34.51    2.37
   1  -4  -9   25.07    2.60
   1   4   9   28.77    2.55
  -1   4  -9   27.43    2.36
  -1   4  -9   28.32    2.77
  -2   4   9    4.69    1.01
  -2  -4  -9    5.76    0.96
   2   4  -9    3.96    1.16
  -2  -4  -9    3.81    1.06
  -2   4   9    5.20    1.12
   2  -4   9    5.33    1.17
  -2   4   9    6.53    1.45
  -2   4  -9    5.41    1.03
   2  -4  -9    3.27    1.09
   2   4   9    2.21    0.94
  -2   4  -9    3.59    1.11
   3  -4   9   16.39    1.97
   3   4  -9   16.77    1.91
  -3  -4  -9   17.14    1.96
  -3   4   9   14.22    1.65
  -3   4   9   17.17    1.81
  -3  -4  -9   19.29    1.82
  -3   4  -9   19.65    1.83
   3  -4  -9   10.53    1.67
  -3   4  -9   19.23    1.81
   3   4   9   14.34    1.72
  -4  -4  -9    2.24    0.99
   4  -4   9    3.56    1.44
   4   4  -9    1.63    1.83
  -4   4   9    3.22    1.11
  -4   4  -9    1.34    1.01
  -5   4   9    2.38    1.20
   5  -4   9    2.08    1.58
  -5  -4  -9    2.21    1.05
  -5   4  -9    0.07    1.15
   0   5   9   26.72    2.45
   0   5  -9   26.28    2.49
   0  -5  -9   24.27    2.45
  -1   5   9    0.04    0.95
   1   5  -9   -0.41    0.99
  -1  -5  -9   -0.01    0.75
  -1   5   9   -1.31    0.75
  -1  -5  -9    0.42    0.98
  -1   5  -9   -0.65    0.81
   1   5   9    0.30    0.99
  -1   5  -9    0.76    0.91
   1  -5  -9   -0.07    1.02
  -1   5  -9    0.38    1.13
  -2   5   9   34.24    2.63
  -2   5   9   31.55    2.71
  -2  -5  -9   25.56    2.64
  -2  -5  -9   34.33    2.54
   2  -5  -9   31.60    2.81
  -2   5  -9   31.65    2.73
  -2   5  -9   31.47    2.53
   2   5   9   30.43    2.72
  -3   5   9    0.56    0.94
   3  -5   9    1.73    1.18
  -3  -5  -9    1.74    0.86
  -3   5   9    0.79    0.94
   3   5  -9    0.43    1.20
   3   5   9    0.97    0.96
  -3   5  -9    0.87    0.88
  -3   5  -9   -0.05    0.95
   4  -5   9    5.28    1.60
  -4   5   9    5.30    1.23
  -4  -5  -9    1.76    1.05
   4   5  -9    4.77    1.50
  -4   5  -9    4.06    1.19
  -5  -5  -9    3.50    1.16
   5  -5   9    3.80    1.88
  -5   5   9    3.23    1.29
  -5   5  -9    3.34    1.28
   0   6   9   11.47    1.54
   0   6  -9   10.60    1.50
  -1   6   9    2.96    1.13
   1   6  -9    2.43    1.05
  -1   6  -9    1.81    1.03
   1   6   9    1.38    1.05
   2   6  -9    6.55    1.44
  -2   6   9    7.86    1.36
  -2  -6  -9    7.15    1.13
  -2   6   9    8.38    1.20
   2   6   9    7.44    1.48
  -2   6  -9    6.22    1.16
  -2   6  -9    6.76    1.43
   3   6  -9   19.55    2.36
  -3   6   9   23.38    2.33
   3  -6   9   20.83    2.52
  -3  -6  -9   23.48    2.16
  -3   6   9   24.88    2.28
   3   6   9   23.77    2.55
  -3   6  -9   22.47    2.27
  -3   6  -9   22.82    2.24
  -4  -6  -9    0.44    0.99
   4  -6   9   -1.18    1.26
  -4   6   9    1.35    1.13
   4   6  -9   -0.15    1.27
  -4   6  -9   -0.30    1.08
   0   7  -9    1.18    1.03
   0   7   9    1.94    1.27
   1   7  -9    5.12    1.34
  -1   7   9    7.51    1.42
   1   7   9    5.72    1.54
  -1   7  -9    4.72    1.24
  -2   7   9   23.25    2.43
   2   7  -9   24.21    2.57
   2   7   9   28.89    2.77
  -2   7  -9   24.66    2.56
  -3  -7  -9    0.84    0.98
   3   7  -9   -0.02    1.37
  -3   7   9    3.07    1.16
   3  -7   9   -0.19    1.40
  -3   7   9    0.24    1.05
  -3   7  -9    0.57    1.06
   3   7   9   -0.13    1.27
  -3   7  -9    0.01    1.03
   4  -7   9    2.03    1.71
  -4   7   9    1.88    1.22
  -4  -7  -9    2.08    1.10
   4   7  -9    0.38    1.59
  -4   7  -9    0.30    1.22
   0   8   9    2.99    1.40
   0   8  -9    1.97    1.21
  -1   8   9    4.87    1.52
   1   8  -9    4.95    1.47
  -1   8  -9    4.36    1.31
   1   8   9    5.33    1.57
   2   8  -9    4.19    1.54
  -2   8   9    3.58    1.36
  -2   8  -9    3.52    1.28
   2   8   9    3.75    1.57
  -3   8   9   10.81    1.57
  -3   8   9   10.10    1.68
   3  -8   9    6.43    1.98
   3   8  -9   11.82    2.02
   3   8   9    9.52    2.00
  -3   8  -9   10.88    2.35
  -3   8  -9    8.04    1.62
   4  -8   9    2.13    1.85
  -4  -8  -9    1.48    1.18
  -4   8   9    1.41    1.34
   4   8  -9   -0.17    1.77
  -4   8  -9   -0.45    1.21
   0   9   9    0.09    1.46
   0   9  -9    2.32    1.37
   1   9  -9    9.04    1.88
  -1   9   9    8.25    1.69
   1   9   9    8.01    1.92
  -1   9  -9    9.56    1.88
   2   9  -9    1.43    1.60
  -2   9   9    3.54    1.57
   2   9   9    4.63    1.86
  -2   9  -9    3.32    1.57
  -3   9   9   -2.03    1.28
   3  -9   9   -2.33    1.79
   3   9  -9    0.52    1.79
  -3   9  -9   -1.11    1.29
   3   9   9   -0.70    1.75
   0  10  -9    4.65    1.61
   0  10   9    5.97    1.83
   1  10  -9    4.49    1.78
  -1  10   9    3.05    1.61
  -1  10  -9    1.91    1.67
   1  10   9    4.26    1.91
  -2  10   9    1.74    1.69
   2  10  -9    1.58    1.82
   2  10   9   -0.03    1.70
  -2  10  -9    0.76    1.48
  -3  10   9    2.15    1.51
   3  10  -9    2.08    2.12
   3 -10   9   -1.07    1.87
  -3  10  -9    1.22    1.27
   3  10   9    2.47    2.05
   0  11   9    1.99    2.01
   0  11  -9    1.75    1.96
  -1  11   9    0.99    1.86
   1  11  -9    3.23    1.89
   1  11   9    0.57    2.08
  -1  11  -9    2.52    1.74
  -2  11   9    1.83    1.58
   2  11  -9    0.71    2.23
  -2  11  -9   -0.12    1.65
   2  11   9    0.98    1.94
   0  12  -9    4.61    2.17
   0   0 -10   22.41    2.38
   0   0  10   17.42    2.17
  -1   0 -10   36.15    2.75
   1   0 -10   38.09    3.07
  -1   0  10   37.80    2.99
   1   0  10   36.52    3.31
  -1   0  10   31.45    2.81
  -1   0 -10   36.57    3.04
   2   0  10   -0.87    0.61
  -2   0  10    0.13    0.88
  -2   0 -10    0.93    0.76
  -2   0 -10    0.47    0.86
   2   0 -10    0.86    0.93
  -3   0  10    1.03    0.92
   3   0  10    1.19    0.84
  -3   0 -10    0.64    0.80
   3   0 -10    0.55    1.01
  -3   0 -10    0.00    0.85
   4   0  10    1.28    0.98
  -4   0  10   -1.50    1.16
  -4   0 -10   -1.56    0.86
  -5   0 -10    5.93    1.29
   5   0  10    5.09    1.50
  -5   0  10    6.00    1.50
   0   1 -10   65.61    4.70
   0  -1 -10   68.74    4.89
   0   1 -10   49.28    4.35
   0   1  10   65.24    4.73
   0  -1  10   65.95    4.60
  -1   1  10    2.91    1.11
   1   1 -10    3.53    1.15
  -1  -1 -10    3.10    0.88
   1  -1  10    3.87    0.82
  -1   1  10    2.43    1.03
   1  -1  10    3.25    1.13
  -1  -1 -10    3.02    1.06
  -1   1 -10    1.84    0.90
  -1   1 -10    2.76    0.76
   1   1  10    4.32    1.32
  -1  -1  10    1.27    0.93
   1  -1 -10    2.51    1.19
   1  -1 -10    4.37    1.38
  -2  -1 -10    6.29    0.97
   2   1 -10    5.66    1.22
  -2   1  10    3.75    1.10
   2  -1  10    4.29    0.94
  -2   1 -10    5.08    1.20
   2  -1 -10    0.90    0.91
  -2  -1  10    5.19    1.15
  -2   1 -10    3.24    0.85
  -3   1  10    2.83    1.10
  -3  -1 -10    1.24    0.87
  -3  -1 -10    0.26    0.87
   3   1 -10    2.97    1.18
   3  -1  10    2.52    0.94
   3  -1 -10    2.39    1.06
  -3  -1  10    3.31    1.07
  -3   1 -10    0.45    0.84
  -3   1 -10    3.24    0.91
  -4  -1 -10   15.94    1.67
  -4   1  10   11.67    1.65
   4  -1  10   13.31    1.80
   4   1  10   12.94    1.94
  -4   1 -10   12.63    1.56
  -4  -1  10   11.95    1.73
   5  -1  10    1.95    1.33
  -5   1  10    0.23    1.22
  -5  -1 -10    1.61    1.07
   5   1  10    0.09    1.68
  -5   1 -10   -0.35    1.02
  -5  -1  10    0.44    1.30
   0   2 -10    1.61    1.07
   0   2  10    0.66    1.06
   0   2 -10    1.50    0.86
   0  -2 -10    0.53    0.80
   0  -2  10    1.20    1.02
   1  -2  10   55.75    4.27
   1   2 -10   53.22    4.11
  -1   2  10   52.84    4.25
  -1   2  10   56.06    4.00
  -1  -2 -10   55.63    3.90
  -1   2 -10   62.31    4.15
   1  -2 -10   57.63    4.54
  -1   2 -10   53.18    3.92
   2  -2  10    2.43    0.92
  -2  -2 -10    3.82    0.94
   2   2 -10    3.22    1.02
  -2  -2 -10    3.90    1.24
  -2   2  10    4.18    1.05
  -2   2 -10    5.44    1.10
   2  -2 -10    0.52    1.03
  -2   2 -10    3.73    0.89
  -3  -2 -10    4.61    1.20
   3  -2  10    6.37    1.24
  -3  -2 -10    6.77    1.10
  -3   2  10    5.24    1.16
   3   2 -10    5.51    1.24
  -3   2 -10    5.97    1.29
  -3   2 -10    6.63    1.15
   3  -2 -10    5.25    1.42
  -4   2  10    2.78    1.20
  -4  -2 -10    1.76    1.02
   4  -2  10    1.50    1.20
  -4   2 -10    2.37    1.06
  -5  -2 -10    3.95    1.23
  -5   2  10    5.08    1.38
   5  -2  10    4.09    1.62
  -5   2 -10    1.75    1.16
  -5  -2  10    4.55    1.42
   0  -3  10   32.90    2.96
   0   3  10   31.11    2.88
   0   3 -10   24.55    2.46
  -1   3  10   11.37    1.53
  -1   3  10   13.33    1.99
   1  -3  10   13.34    1.86
   1   3 -10   11.79    1.72
  -1   3 -10   14.05    1.69
  -1   3 -10   16.42    2.10
   2  -3  10    6.72    1.22
  -2  -3 -10    7.92    1.16
   2   3 -10    6.07    1.30
  -2   3  10    7.75    1.24
  -2   3 -10    8.38    1.40
  -2   3 -10    6.66    1.07
  -3   3  10    2.11    1.06
   3   3 -10    1.21    1.15
  -3  -3 -10    0.40    0.88
   3  -3  10    1.06    0.98
  -3  -3 -10    1.19    1.05
  -3   3 -10    1.14    0.97
   3  -3 -10    0.24    1.07
  -3   3 -10    1.87    0.94
   3   3  10    1.32    1.05
  -4  -3 -10    7.66    1.33
  -4   3  10    9.07    1.45
   4  -3  10    9.25    1.64
  -4   3 -10    9.58    1.46
  -5  -3 -10    0.18    1.09
  -5   3  10   -1.54    1.19
   5  -3  10    1.79    1.64
  -5   3 -10    0.61    1.12
   0   4 -10    0.61    0.87
   0  -4 -10    0.14    0.96
  -1  -4 -10   47.98    3.51
   1  -4  10   40.83    3.47
   1   4 -10   42.61    3.45
   1   4  10   39.61    3.32
   1  -4 -10   35.06    3.40
  -1   4 -10   41.97    3.34
  -2  -4 -10    6.42    1.07
  -2  -4 -10    5.12    1.23
   2   4 -10    6.44    1.51
  -2   4  10    5.44    1.13
   2  -4  10    5.82    1.28
  -2   4  10    6.45    1.74
  -2   4  10    7.38    1.33
  -2   4 -10    6.97    1.11
  -2   4 -10    6.41    1.27
   2   4  10    6.57    1.31
   2  -4 -10    1.51    1.04
  -3   4  10    6.93    1.28
   3  -4  10    7.26    1.37
  -3  -4 -10    7.71    1.24
  -3   4  10    7.74    1.34
  -3  -4 -10    6.92    1.33
   3   4  10    8.45    1.46
  -3   4 -10    4.81    1.16
   3  -4 -10    4.32    1.33
  -3   4 -10    7.44    1.24
  -4   4  10    0.63    1.15
   4  -4  10    1.30    1.43
  -4  -4 -10    1.58    1.04
  -4   4 -10    1.63    1.16
   0   5  10   53.71    4.09
   0  -5 -10   53.75    4.23
   0   5 -10   53.09    4.14
  -1   5  10    7.72    1.43
  -1  -5 -10    7.94    1.58
   1   5 -10    7.51    1.57
  -1   5 -10    5.91    1.28
   1   5  10    6.89    1.50
  -2  -5 -10    0.23    0.78
  -2   5  10    0.27    0.88
   2  -5  10    1.12    1.16
  -2   5  10    1.78    1.13
   2   5 -10    0.02    1.34
  -2  -5 -10    1.75    0.88
  -2   5 -10    1.52    0.97
   2  -5 -10    2.40    1.32
  -2   5 -10    1.83    1.19
   2   5  10    1.78    1.12
  -3   5  10    2.39    1.13
  -3  -5 -10    0.91    0.98
  -3   5  10    0.44    1.06
   3  -5  10    1.46    1.29
   3   5 -10    1.90    1.32
   3   5  10    2.86    1.32
  -3   5 -10    2.83    1.14
   3  -5 -10    2.90    1.32
  -3   5 -10    2.85    1.08
  -4  -5 -10    5.72    1.30
  -4   5  10    5.19    1.40
   4   5 -10    4.70    2.21
   4  -5  10    7.30    1.81
  -4   5 -10    5.13    1.34
   0   6  10    5.17    1.48
   0  -6 -10    5.97    1.44
   0   6 -10    5.11    1.54
   1   6 -10    8.51    1.78
  -1   6  10   11.16    1.68
   1  -6 -10   12.20    1.95
  -1   6 -10    6.82    1.45
   1   6  10    9.61    1.68
   2   6 -10    6.42    1.76
  -2   6  10   10.37    1.64
  -2   6 -10    7.52    1.53
   2   6  10    7.80    1.69
  -3   6  10    2.04    1.18
   3  -6  10   -0.14    1.32
  -3   6  10   -0.20    1.08
  -3  -6 -10    2.35    1.03
   3   6 -10   -1.01    1.47
  -3   6 -10    1.71    1.16
   3   6  10    0.74    1.37
  -3   6 -10    0.72    1.13
   4  -6  10    1.27    1.54
  -4   6  10    3.07    1.33
   4   6 -10    0.91    2.00
  -4  -6 -10    1.24    1.10
  -4   6 -10    0.83    1.26
   0   7 -10   27.24    2.87
   0   7  10   26.64    2.71
   1   7 -10    0.39    1.41
  -1   7  10    1.80    1.39
   1   7  10    0.69    1.49
  -1   7 -10    2.77    1.37
  -2   7  10    0.77    1.34
   2   7 -10   -0.16    1.49
  -2   7 -10   -0.88    1.15
   2   7  10    0.81    1.33
  -3   7  10    7.39    1.56
   3   7 -10    4.76    1.85
   3  -7  10    4.50    1.82
  -3   7  10    6.73    1.83
   3   7  10    5.64    1.71
  -3   7 -10    5.77    1.51
  -4   7  10    4.96    1.37
   4   7 -10    7.48    2.72
   4  -7  10    1.94    1.87
  -4  -7 -10    3.52    1.36
  -4   7 -10    3.02    1.44
   0   8 -10    1.97    1.54
   0   8  10    0.53    1.51
  -1   8  10    6.27    1.58
   1   8 -10    6.87    1.91
  -1   8 -10    6.51    1.63
   1   8  10    7.33    1.70
  -2   8  10    3.45    1.53
   2   8 -10    3.26    1.82
   2   8  10   -0.33    1.62
  -2   8 -10    1.69    1.42
   3   8 -10    0.72    1.77
   3  -8  10    2.67    1.84
  -3   8  10    0.13    1.34
  -3   8 -10    0.25    1.19
   3   8  10   -0.82    1.63
   0   9 -10    3.97    1.79
   0   9  10    5.09    1.68
  -1   9  10    3.55    1.73
   1   9 -10    3.18    1.95
   1   9  10    1.27    1.57
  -1   9 -10    2.65    1.49
   2   9 -10    1.35    1.93
  -2   9  10   -0.41    1.36
   2   9  10    1.14    1.65
  -2   9 -10   -0.21    1.24
   3  -9  10    3.87    2.14
  -3   9  10    3.59    1.67
   3   9 -10    2.68    2.05
   3   9  10    1.88    1.88
  -3   9 -10    2.91    1.51
   0  10 -10    0.59    1.77
   0  10  10    0.14    1.78
  -1  10  10    2.99    1.88
   1  10 -10    3.38    2.14
  -1  10 -10    2.56    1.56
   1  10  10    2.29    1.99
  -2  10  10    3.89    1.88
   2  10 -10    1.49    2.12
   2  10  10    7.22    2.34
  -2  10 -10    4.89    1.82
   0  11  10    3.52    1.97
   0  11 -10    2.90    1.84
  -1  11  10   -1.35    1.68
   1  11 -10    1.21    2.00
   1  11  10    0.21    1.99
  -1  11 -10   -0.62    1.83
   0   0  11    0.03    1.01
   0   0 -11   -0.62    1.01
   1   0 -11   19.29    2.21
  -2   0 -11   26.76    2.57
  -2   0  11   25.60    2.46
   2   0 -11   21.96    2.69
  -2   0 -11   29.72    2.33
  -3   0 -11    5.29    1.11
  -3   0  11    6.67    1.43
   3   0 -11    2.62    1.25
  -3   0 -11    3.03    1.11
  -4   0 -11    1.01    1.14
  -4   0  11    0.84    1.25
   0  -1 -11    0.46    0.95
   0   1 -11    0.96    0.93
   0   1  11    0.29    1.06
   0  -1  11    0.41    0.95
   1   1 -11    3.53    1.37
  -1  -1 -11    5.70    1.39
  -1   1 -11    6.25    1.33
   2   1 -11    1.04    1.09
  -2  -1 -11    6.16    1.07
  -2   1  11    3.70    1.15
  -2  -1 -11    4.30    1.30
   2  -1 -11    2.35    1.31
  -2  -1  11    3.75    1.15
  -2   1 -11    4.28    1.23
  -3   1  11   13.59    1.75
  -3  -1 -11   12.11    1.55
   3  -1  11   10.48    1.56
  -3  -1 -11   15.95    2.02
   3   1 -11   13.13    1.99
  -3  -1  11   18.41    1.87
  -3   1 -11   14.64    1.84
  -3   1 -11   14.88    1.65
  -4  -1 -11    3.87    1.23
   4  -1  11    4.03    1.28
  -4   1  11    1.29    1.33
  -4   1 -11    3.59    1.15
  -4  -1  11    3.36    1.39
   0  -2 -11    2.34    1.18
   0   2 -11    5.34    1.32
   1   2 -11    6.86    1.40
  -1  -2 -11    5.96    1.43
   1  -2  11    5.50    1.82
  -1   2  11    6.51    1.44
   1  -2 -11    0.68    1.19
  -1   2 -11    5.09    1.17
   2   2 -11   18.48    2.10
  -2   2  11   18.92    1.90
  -2  -2 -11   20.12    1.90
   2  -2  11   18.17    1.82
   2  -2 -11   11.11    2.06
  -2   2 -11   15.59    1.95
  -2   2 -11   17.78    1.81
   3  -2  11    5.98    1.24
   3   2 -11    6.00    1.51
  -3  -2 -11    5.63    1.30
  -3   2  11    5.29    1.34
  -3  -2 -11    5.65    1.18
   3  -2 -11    0.28    1.28
  -3   2 -11    8.13    1.47
  -3  -2  11    5.54    1.32
  -3   2 -11    5.71    1.24
   4  -2  11    3.73    1.28
  -4   2  11    5.80    1.46
  -4  -2 -11    3.09    1.17
  -4   2 -11    2.98    1.18
  -4  -2  11    4.06    1.38
   0  -3 -11    0.24    1.02
   0   3 -11    1.79    1.04
   1   3 -11   16.60    1.91
   1  -3  11   17.50    2.19
  -1  -3 -11   11.86    1.96
  -1   3 -11   14.43    1.88
   2   3 -11   14.23    1.89
   2  -3  11   14.19    1.70
  -2   3  11   14.59    1.70
   2  -3 -11   11.33    2.11
  -2   3 -11   13.94    1.76
  -2   3 -11   11.92    1.96
  -3  -3 -11   10.85    1.50
  -3   3  11   11.44    1.61
   3  -3  11    9.56    1.60
   3   3 -11   15.33    1.98
  -3  -3 -11   14.95    1.96
   3   3  11   14.54    1.83
  -3   3 -11   12.53    1.66
   3  -3 -11    6.32    1.70
  -3   3 -11   12.60    1.58
   4  -3  11    1.44    1.30
  -4   3  11   -1.91    1.11
  -4  -3 -11   -0.06    1.08
  -4   3 -11   -0.03    1.13
   0   4 -11    8.80    1.50
   1   4 -11    2.60    1.44
  -1  -4 -11    0.15    1.02
  -1   4 -11    1.54    1.03
   1   4  11    1.22    1.15
   1  -4 -11   -0.42    1.17
  -2   4  11    7.45    1.53
   2   4 -11   10.53    1.86
  -2  -4 -11    6.16    1.53
   2  -4  11    6.63    1.36
   2  -4 -11   10.06    1.91
  -2   4 -11    9.45    1.57
   2   4  11    8.29    1.62
  -3   4  11    6.82    1.42
  -3  -4 -11    7.33    1.28
  -3   4  11    8.63    1.50
   3   4 -11    6.49    1.69
   3  -4  11    5.67    1.39
  -3  -4 -11    7.50    1.60
   3   4  11    7.21    1.55
  -3   4 -11    8.81    1.48
  -3   4 -11    7.93    1.34
   3  -4 -11    4.02    1.50
   4  -4  11    3.14    1.57
  -4  -4 -11    4.30    1.26
  -4   4  11    3.21    1.38
  -4   4 -11    3.50    1.26
   0   5 -11    9.00    1.67
   0   5  11    9.47    1.74
   0  -5 -11    8.26    1.83
  -1   5  11   12.66    1.85
   1   5 -11   12.85    1.96
  -1  -5 -11   10.98    1.86
   1   5  11   11.58    1.90
  -1   5 -11   13.15    1.91
  -2   5  11    2.82    1.23
   2  -5  11    3.62    1.34
  -2  -5 -11    4.98    1.47
   2   5 -11    5.12    1.55
   2  -5 -11    1.64    1.47
   2   5  11    5.83    1.61
  -2   5 -11    4.68    1.48
  -3   5  11    5.96    1.48
   3   5 -11    6.80    1.72
  -3  -5 -11    5.85    1.40
   3  -5  11    4.60    1.56
  -3   5  11    6.28    1.47
  -3   5 -11    5.80    1.42
   3  -5 -11    6.76    1.82
  -3   5 -11    5.73    1.34
   3   5  11    6.25    1.60
  -4   5  11    2.74    1.43
  -4  -5 -11    1.74    1.20
   4  -5  11    0.13    1.51
  -4   5 -11    1.45    1.38
   0  -6 -11    2.41    1.59
   0   6  11    1.38    1.36
   0   6 -11   -0.63    1.41
  -1   6  11    8.80    1.64
  -1  -6 -11    9.92    1.78
   1   6 -11    5.38    1.83
   1   6  11    9.88    1.88
  -1   6 -11    7.57    1.76
   1  -6 -11    3.93    1.52
   2   6 -11    8.79    2.00
  -2   6  11   10.64    1.83
   2   6  11    7.55    1.82
  -2   6 -11    8.88    1.82
  -3   6  11    2.49    1.35
   3   6 -11    3.78    1.78
   3  -6  11    5.13    1.63
   3   6  11    1.97    1.58
  -3   6 -11    2.62    1.36
   0   7 -11    2.88    1.45
   0   7  11    3.55    1.69
  -1   7  11   -0.11    1.36
   1   7 -11    1.30    1.47
  -1   7 -11   -0.66    1.23
   1   7  11   -0.42    1.58
  -2   7  11    2.26    1.62
   2   7 -11    2.79    2.04
  -2   7 -11    2.19    1.53
   2   7  11    2.11    1.73
  -3   7  11    3.12    1.56
   3  -7  11    3.94    1.86
   3   7 -11    1.80    1.93
   3   7  11    4.10    1.79
  -3   7 -11    3.51    1.42
   0   8  11    6.71    2.04
   0   8 -11    7.20    1.96
   1   8 -11    3.17    1.96
  -1   8  11    3.54    1.81
  -1   8 -11    1.44    1.38
   1   8  11    5.87    1.93
   2   8 -11    2.64    2.10
  -2   8  11    1.64    1.57
  -2   8 -11    2.96    1.74
   2   8  11    2.29    1.88
  -3   8  11    2.06    1.60
   3  -8  11    1.60    1.92
   3   8 -11   -0.30    2.07
   3   8  11    2.14    1.96
  -3   8 -11    1.20    1.52
   0   9  11    1.90    1.88
   0   9 -11    3.39    2.02
   1   9 -11    0.63    2.10
  -1   9  11    3.01    1.66
  -1   9 -11    2.23    1.65
   1   9  11    0.04    1.94
  -2   9  11    2.51    1.76
   2   9 -11    3.95    2.21
  -2   9 -11    4.37    1.80
   2   9  11    4.18    2.14
   0  10 -11    0.28    1.99
   0  10  11    0.31    1.76
  -1  10  11    1.87    1.97
   1  10 -11    4.30    2.34
  -1  10 -11    2.96    1.69
   1  10  11    0.64    1.88
   0   0 -12    4.84    1.41
  -1   0 -12    2.74    1.30
   1   0 -12    0.78    1.23
  -2   0 -12    6.24    1.52
   2   0 -12    0.76    1.34
  -3   0 -12    0.46    1.07
  -3   0 -12    0.74    1.17
   3   0 -12    0.33    1.45
  -3   0  12    1.55    1.32
  -4   0  12    1.90    1.53
  -4   0 -12    5.11    1.32
   0   1 -12    0.28    1.27
   0  -1 -12   -0.52    1.04
  -1  -1 -12    6.46    1.44
   1   1 -12   13.32    1.90
   1  -1 -12    1.07    1.23
   2   1 -12    1.38    1.54
  -2  -1 -12    2.63    1.37
  -2   1 -12    1.63    1.17
   2  -1 -12    0.99    1.36
  -3  -1 -12    0.62    1.01
   3   1 -12    1.07    1.56
  -3  -1 -12    2.04    1.12
  -3   1  12   -1.08    1.19
  -3  -1  12   -0.29    1.21
   3  -1 -12    0.09    1.50
  -3   1 -12    1.82    1.28
  -3   1 -12    0.64    0.98
  -4  -1 -12    1.06    1.19
  -4   1  12    1.96    1.42
  -4   1 -12    1.27    1.21
  -4  -1  12    0.23    1.53
   0   2 -12   24.73    2.56
   1   2 -12    3.31    1.57
  -1  -2 -12    0.12    1.13
  -1   2 -12    2.81    1.31
   1  -2 -12   -0.11    1.39
  -2  -2 -12    1.59    1.26
   2   2 -12    2.60    1.56
  -2   2 -12   -0.03    1.01
   2  -2 -12    0.74    1.45
  -3  -2 -12    1.70    1.20
  -3   2  12    2.66    1.31
  -3  -2 -12    2.27    1.37
   3   2 -12    1.05    1.48
  -3   2 -12    2.14    1.29
  -3   2 -12    0.47    1.06
  -3  -2  12    1.83    1.23
   3  -2 -12    3.38    1.66
  -4  -2 -12    3.02    1.25
  -4   2  12    3.40    1.43
  -4   2 -12    1.83    1.25
  -4  -2  12   -0.90    1.36
   0   3 -12    1.35    1.22
   0  -3 -12   -0.50    1.31
  -1  -3 -12    3.59    1.55
   1   3 -12    6.67    1.55
  -1   3 -12    7.16    1.57
   1  -3 -12    4.16    1.72
  -2  -3 -12    1.28    1.23
   2   3 -12    1.05    1.42
   2  -3  12    2.27    1.07
  -2   3 -12    3.30    1.42
   2  -3 -12    3.91    1.87
   3   3 -12   -1.36    1.59
   3  -3  12    0.44    1.01
  -3  -3 -12    0.17    1.24
  -3   3 -12    1.53    1.34
   3  -3 -12    2.78    1.77
   3   3  12   -0.69    1.37
  -4  -3 -12    1.85    1.27
   4  -3  12    3.80    1.48
  -4   3  12    1.76    1.43
  -4  -3  12    3.31    1.66
  -4   3 -12    3.27    1.35
   0   4 -12   21.93    2.46
   0  -4 -12   19.19    2.59
  -1  -4 -12   -0.11    1.23
   1   4 -12    1.62    1.48
  -1   4 -12    1.08    1.29
   1  -4 -12    0.46    1.66
   1   4  12    0.93    1.31
  -2  -4 -12    1.38    1.24
   2   4 -12    1.41    1.47
   2  -4  12    1.49    1.03
  -2   4  12    0.41    1.38
  -2   4 -12    2.40    1.34
   2   4  12    1.73    1.35
   2  -4 -12    2.31    1.90
   3  -4  12    0.46    1.21
   3   4 -12    0.63    1.61
  -3   4  12   -0.23    1.27
  -3  -4 -12    1.70    1.49
   3   4  12    1.74    1.45
   3  -4 -12   -0.18    1.82
  -3   4 -12    1.44    1.14
   0   5 -12    2.24    1.49
   0  -5 -12   -0.42    1.39
   0   5  12    0.74    1.39
  -1   5  12    8.11    1.84
  -1  -5 -12    3.40    1.37
   1   5 -12    9.21    1.90
   1   5  12    6.65    1.64
   1  -5 -12    7.11    2.09
  -1   5 -12    6.81    1.67
  -2  -5 -12    0.00    1.41
  -2   5  12    0.11    1.41
   2  -5  12    0.52    1.18
   2   5 -12   -0.60    1.53
   2   5  12    0.16    1.56
  -2   5 -12   -0.34    1.23
   2  -5 -12    2.14    2.00
   3   5 -12   -0.12    1.78
  -3   5  12    0.14    1.29
   3  -5  12    1.75    1.34
   3  -5 -12    3.69    1.98
   3   5  12    1.80    1.60
  -3   5 -12    0.77    1.29
   0   6  12    5.27    1.67
   0  -6 -12    0.89    1.37
   0   6 -12    4.24    1.57
  -1  -6 -12    1.78    1.56
   1   6 -12    2.16    1.64
  -1   6  12   -0.03    1.57
   1  -6 -12   -0.24    1.70
   1   6  12    1.37    1.72
  -1   6 -12    2.19    1.36
   2   6 -12    2.42    2.07
   2  -6  12    2.59    1.50
  -2   6  12    4.95    1.70
   2   6  12    5.06    1.70
  -2   6 -12    4.77    1.75
   2  -6 -12    5.50    2.06
  -3   6  12    1.08    1.43
   3  -6  12    1.42    1.60
   3   6 -12    1.10    1.83
  -3   6 -12    1.12    1.42
   3   6  12    0.72    1.83
   0   7  12   -0.84    1.71
   0   7 -12    0.21    1.75
   1   7 -12    4.15    2.10
  -1   7  12    5.17    1.74
   1   7  12    5.66    1.83
  -1   7 -12    5.51    1.81
   2   7 -12    4.06    1.97
  -2   7  12    1.80    1.46
  -2   7 -12    2.26    1.49
   2   7  12    2.38    1.80
   0   8 -12    1.80    1.72
   0   8  12    4.75    2.06
  -1   8  12   -0.35    1.59
   1   8 -12   -0.01    1.87
  -1   8 -12    1.38    1.85
   1   8  12    1.30    1.82
   2   8 -12    0.65    2.28
  -2   8  12    0.86    1.72
  -2   8 -12    1.72    1.52
   2   8  12    3.27    2.04
   0   9 -12    0.59    1.77
   0   9  12    2.13    2.06
  -1   9  12    2.11    1.75
   1   9 -12   -2.16    1.92
  -1   9 -12    2.06    2.02
   1   9  12    0.91    2.10
   0   0 -13    0.34    1.24
  -1   0 -13    6.12    1.74
   1   0 -13    4.86    2.05
  -2   0 -13   15.20    2.28
   2   0 -13   15.25    2.49
   3   0 -13   -1.75    1.75
  -3   0 -13    1.29    1.55
   0   1 -13    0.47    1.29
   0  -1 -13    0.70    1.34
  -1  -1 -13    0.23    1.18
   1   1 -13    0.83    1.46
   1  -1 -13    1.07    1.51
  -1   1 -13    0.42    1.21
   2   1 -13    1.24    1.89
  -2  -1 -13    1.31    1.60
   2  -1 -13   -0.88    1.92
  -2   1 -13   -0.14    1.17
  -3  -1 -13   13.77    2.07
   3   1 -13    5.12    2.14
  -3   1 -13    2.61    1.36
   3  -1 -13    5.33    2.25
   0  -2 -13   -0.42    1.46
   0   2 -13    0.65    1.55
   1   2 -13   -1.11    1.58
  -1  -2 -13    0.17    1.32
   1  -2 -13   -1.00    1.68
  -1   2 -13    1.57    1.51
   2   2 -13    3.91    1.79
  -2  -2 -13    1.32    1.31
   2  -2 -13    5.89    2.09
  -2   2 -13   13.39    1.98
   3   2 -13    1.41    1.95
  -3  -2 -13    2.09    1.61
   3  -2 -13    1.28    1.88
  -3   2 -13   -0.01    1.44
   0   3 -13    3.40    1.43
   0  -3 -13   -1.52    1.26
  -1  -3 -13    6.72    1.94
   1   3 -13    9.09    2.06
   1  -3 -13    1.43    1.73
  -1   3 -13    9.58    1.73
   2   3 -13    2.72    1.95
  -2  -3 -13    1.05    1.43
   2  -3 -13    4.30    2.21
  -2   3 -13    4.47    1.56
   3   3 -13    6.29    2.15
  -3  -3 -13    6.34    1.88
   3   3  13    4.40    1.79
   3  -3 -13    3.93    2.23
  -3   3 -13    5.87    1.71
   0   4 -13    0.01    1.67
   0  -4 -13    2.42    1.73
  -1  -4 -13    0.19    1.21
   1   4 -13    0.91    1.79
  -1   4 -13    2.37    1.56
   1   4  13    2.21    1.72
   1  -4 -13    0.32    1.97
   2   4 -13   10.19    2.09
  -2   4  13    6.18    1.70
  -2  -4 -13    7.33    1.96
   2   4  13   10.92    2.11
   2  -4 -13    5.86    2.26
  -2   4 -13   10.25    1.93
  -3   4  13    1.29    1.42
  -3  -4 -13    0.90    1.57
   3   4 -13    3.35    2.08
   3   4  13    0.62    1.67
  -3   4 -13    1.04    1.50
   3  -4 -13    0.97    1.97
   0  -5 -13    9.69    2.36
   0   5  13    8.84    2.07
   0   5 -13    6.88    1.81
  -1  -5 -13    1.95    1.53
   1   5 -13    7.33    2.22
  -1   5  13    6.96    1.94
   1   5  13    5.20    1.75
  -1   5 -13    6.08    1.89
   1  -5 -13    5.01    2.48
   2  -5  13   -0.41    1.24
  -2   5  13   -1.36    1.51
   2   5 -13   -2.37    1.88
  -2  -5 -13    0.44    1.50
  -2   5 -13    1.23    1.51
   2  -5 -13   -2.52    2.12
   2   5  13   -0.91    1.78
   0   6 -13   -0.34    1.55
   0   6  13   -0.55    1.72
   0  -6 -13    0.76    2.09
  -1  -6 -13    2.71    1.62
  -1   6  13    3.73    1.73
   1   6 -13    4.18    1.92
   1  -6 -13   -0.47    1.82
   1   6  13    3.99    1.96
  -1   6 -13    3.90    1.93
   2   6 -13    4.64    2.27
  -2   6  13    3.51    1.63
   2  -6  13    2.44    1.56
  -2   6 -13    3.46    1.67
   2   6  13    4.69    2.10
   2  -6 -13    5.91    2.42
   0   7  13    3.12    1.83
   0   7 -13    3.43    2.17
   1   7 -13    0.49    2.25
  -1   7  13    2.32    1.82
  -1   7 -13    2.02    1.86
   1   7  13    1.78    2.08
   0   8 -13    3.92    2.13
   0   0 -14   12.13    2.35
   1   0 -14    2.93    2.11
  -1   0 -14    2.42    1.63
   2   0 -14    1.70    2.06
  -2   0 -14    0.69    1.35
   0  -1 -14    1.27    1.68
   0   1 -14    3.05    1.85
  -1  -1 -14    0.86    1.39
   1   1 -14    0.81    1.99
  -1   1 -14    1.16    1.45
   1  -1 -14    0.02    1.82
  -2  -1 -14    0.19    1.45
   2   1 -14   -1.07    1.79
  -2   1 -14    0.87    1.66
   2  -1 -14    0.92    2.27
   0  -2 -14   -1.04    1.45
   0   2 -14    3.41    1.93
   1   2 -14    3.51    2.16
  -1  -2 -14    2.43    1.92
   1  -2 -14    0.99    1.91
  -1   2 -14    2.29    1.65
  -2  -2 -14    0.31    1.45
   2   2 -14   -0.98    1.86
  -2   2 -14    1.73    1.47
   2  -2 -14   -1.27    2.33
   0   3 -14    3.13    1.90
   0  -3 -14    6.13    2.39
   1   3 -14    3.03    2.07
  -1  -3 -14    0.95    1.72
   1  -3 -14    1.90    1.95
  -1   3 -14    3.10    1.91
   2   3 -14    2.70    2.27
  -2  -3 -14    2.60    1.83
  -2   3 -14    0.73    1.64
   2  -3 -14   -3.01    2.31
   0  -4 -14    3.07    2.18
   0   4 -14    2.71    1.95
   1   4 -14    5.90    2.19
  -1  -4 -14    1.11    1.54
   1  -4 -14    3.82    2.57
  -1   4 -14    2.78    1.76
   1   4  14    4.38    2.01
   2   4 -14   -0.68    1.91
  -2   4  14    1.44    1.79
  -2  -4 -14    2.05    1.67
   2   4  14    2.97    2.00
  -2   4 -14    0.26    1.59
   2  -4 -14    2.93    2.51
   0  -5 -14    3.02    2.29
   0   5 -14    3.26    2.00
   0   5  14    4.35    2.04
  -1  -5 -14    1.32    2.09
   1   5 -14    1.11    2.10
  -1   5  14    1.90    1.89
   1   5  14    3.13    2.08
   1  -5 -14    2.59    2.64
  -1   5 -14    1.24    1.51
   0   6 -14    3.93    2.26
   0   6  14    2.38    1.90
   0  -6 -14    2.36    2.09
   0   0 -15   -2.10    1.94
   1   0 -15    0.00    2.31
  -1   0 -15    0.54    1.63
   0   1 -15   -0.17    2.34
   0  -1 -15    0.47    2.19
   1   1 -15    1.05    2.58
  -1  -1 -15   -0.06    1.60
   1  -1 -15    2.45    2.55
  -1   1 -15    1.04    1.72
   0   2 -15    0.23    2.17
   0  -2 -15    0.28    2.40
  -1  -2 -15    0.01    1.68
   1   2 -15    1.63    2.42
   1  -2 -15    1.46    2.66
  -1   2 -15    0.96    1.63
   0  -3 -15    2.19    2.17
   0   3 -15    0.13    2.17
   0   0   0    0.00    0.00
;
_shelx_hkl_checksum              4805
loop_
_space_group_symop_operation_xyz
'x, y, z'
'-x+1/2, -y, z+1/2'
'-x, y+1/2, -z+1/2'
'x+1/2, -y+1/2, -z'
loop_
_atom_site_label
_atom_site_type_symbol
_atom_site_fract_x
_atom_site_fract_y
_atom_site_fract_z
_atom_site_U_iso_or_equiv
_atom_site_adp_type
_atom_site_occupancy
_atom_site_site_symmetry_order
_atom_site_calc_flag
_atom_site_refinement_flags_posn
_atom_site_refinement_flags_adp
O1 O 0.5285(19) 0.6777(8) 0.4752(9) 0.054(2) Uani 1 1 d . .
H1A H 0.6711 0.7071 0.4837 0.081 Uiso 1 1 calc R U
Br1 Br 0.1548(2) 0.51278(14) 0.58045(13) 0.0573(6) Uani 1 1 d . .
Cl1 Cl 0.9278(5) 0.6546(3) 0.2901(3) 0.0407(8) Uani 1 1 d . .
C1 C 0.552(2) 0.5675(9) 0.4280(10) 0.033(2) Uani 1 1 d . .
C2 C 0.392(2) 0.4792(12) 0.4654(10) 0.042(3) Uani 1 1 d . .
C3 C 0.409(3) 0.3637(11) 0.4227(12) 0.049(3) Uani 1 1 d . .
H3A H 0.3063 0.3033 0.4519 0.059 Uiso 1 1 calc R U
C4 C 0.581(3) 0.3402(13) 0.3365(14) 0.056(4) Uani 1 1 d . .
H4A H 0.5856 0.2645 0.3041 0.067 Uiso 1 1 calc R U
C5 C 0.747(3) 0.4269(12) 0.2971(12) 0.046(3) Uani 1 1 d . .
H5A H 0.8701 0.4091 0.2423 0.055 Uiso 1 1 calc R U
C6 C 0.726(2) 0.5414(11) 0.3414(10) 0.037(3) Uani 1 1 d . .
loop_
_atom_site_aniso_label
_atom_site_aniso_U_11
_atom_site_aniso_U_22
_atom_site_aniso_U_33
_atom_site_aniso_U_23
_atom_site_aniso_U_13
_atom_site_aniso_U_12
O1 0.051(5) 0.040(5) 0.070(6) -0.013(4) 0.023(5) -0.004(4)
Br1 0.0501(8) 0.0631(10) 0.0588(10) 0.0037(7) 0.0059(6) 0.0041(7)
Cl1 0.0404(14) 0.0291(14) 0.0526(17) 0.0017(13) 0.0140(13) -0.0050(11)
C1 0.035(5) 0.023(5) 0.041(6) -0.005(5) -0.005(5) 0.005(4)
C2 0.040(6) 0.053(7) 0.034(6) 0.003(6) -0.001(5) 0.012(6)
C3 0.054(7) 0.025(5) 0.069(8) 0.001(6) 0.000(7) 0.001(5)
C4 0.056(8) 0.042(8) 0.069(9) -0.010(7) -0.015(8) 0.012(7)
C5 0.051(7) 0.037(7) 0.049(7) -0.001(6) -0.001(6) 0.000(6)
C6 0.041(6) 0.032(6) 0.038(6) 0.002(5) -0.003(5) 0.008(5)
loop_
_atom_type_symbol
_atom_type_description
_atom_type_scat_dispersion_real
_atom_type_scat_dispersion_imag
_atom_type_scat_source
C C 0.0033 0.0016 'International Tables Vol C Tables 4.2.6.8 and 6.1.1.4'
H H 0.0000 0.0000 'International Tables Vol C Tables 4.2.6.8 and 6.1.1.4'
O O 0.0106 0.0060 'International Tables Vol C Tables 4.2.6.8 and 6.1.1.4'
Cl Cl 0.1484 0.1585 'International Tables Vol C Tables 4.2.6.8 and 6.1.1.4'
Br Br -0.2901 2.4595 'International Tables Vol C Tables 4.2.6.8 and 6.1.1.4'
loop_
_geom_angle_atom_site_label_1
_geom_angle_atom_site_label_2
_geom_angle_atom_site_label_3
_geom_angle
O1 C1 C2 118.3(11)
O1 C1 C6 123.1(11)
C2 C1 C6 118.6(10)
C1 C2 C3 121.3(12)
C1 C2 Br1 119.3(10)
C3 C2 Br1 119.3(10)
C4 C3 C2 119.0(13)
C3 C4 C5 121.3(13)
C4 C5 C6 118.4(13)
C5 C6 C1 121.3(12)
C5 C6 Cl1 119.4(10)
C1 C6 Cl1 119.3(9)
loop_
_geom_bond_atom_site_label_1
_geom_bond_atom_site_label_2
_geom_bond_distance
O1 C1 1.359(13)
Br1 C2 1.869(12)
Cl1 C6 1.757(13)
C1 C2 1.367(17)
C1 C6 1.392(17)
C2 C3 1.392(18)
C3 C4 1.38(2)
C4 C5 1.38(2)
C5 C6 1.390(19)
