#------------------------------------------------------------------------------
#$Date: 2019-11-10 06:55:41 +0200 (Sun, 10 Nov 2019) $
#$Revision: 225763 $
#$URL: file:///home/coder/svn-repositories/cod/cif/4/51/56/4515619.cif $
#------------------------------------------------------------------------------
#
# This file is available in the Crystallography Open Database (COD),
# http://www.crystallography.net/
#
# All data on this site have been placed in the public domain by the
# contributors.
#
data_4515619
loop_
_publ_author_name
'Xiong, Xiaodong'
'Yeung, Ying-Yeung'
_publ_section_title
;
 Ammonium Salt-Catalyzed Highly Practical Ortho-Selective Monohalogenation
 and Phenylselenation of Phenols: Scope and Applications
;
_journal_issue                   5
_journal_name_full               'ACS Catalysis'
_journal_page_first              4033
_journal_paper_doi               10.1021/acscatal.8b00327
_journal_volume                  8
_journal_year                    2018
_chemical_formula_sum            'C19 H17 Cl O3'
_chemical_formula_weight         328.77
_space_group_crystal_system      monoclinic
_space_group_IT_number           4
_space_group_name_Hall           'P 2yb'
_space_group_name_H-M_alt        'P 1 21 1'
_atom_sites_solution_hydrogens   geom
_audit_creation_method           SHELXL-2014/6
_cell_angle_alpha                90
_cell_angle_beta                 107.9055(10)
_cell_angle_gamma                90
_cell_formula_units_Z            2
_cell_length_a                   9.6791(5)
_cell_length_b                   7.1917(3)
_cell_length_c                   12.2628(5)
_cell_measurement_reflns_used    304
_cell_measurement_temperature    294(2)
_cell_measurement_theta_max      15
_cell_measurement_theta_min      15
_cell_volume                     812.26(6)
_computing_cell_refinement       'BRUKER D8VENTURE DIFFRACTOMETER'
_computing_data_collection       'BRUKER D8VENTURE DIFFRACTOMETER'
_computing_data_reduction        'BRUKER D8VENTURE DIFFRACTOMETER'
_computing_molecular_graphics    'BRUKER SHELXTL'
_computing_publication_material  'BRUKER SHELXTL'
_computing_structure_refinement  'SHELXL-2014/6 (Sheldrick, 2014)'
_diffrn_ambient_temperature      294(2)
_diffrn_measured_fraction_theta_full 0.996
_diffrn_measured_fraction_theta_max 0.996
_diffrn_measurement_device_type  'BRUKER D8VENTURE DIFFRACTOMETER'
_diffrn_measurement_method       'PHI & OMEGA SCAN'
_diffrn_radiation_type           MoK\a
_diffrn_radiation_wavelength     0.71073
_diffrn_reflns_av_R_equivalents  0.0243
_diffrn_reflns_av_unetI/netI     0.0178
_diffrn_reflns_Laue_measured_fraction_full 0.996
_diffrn_reflns_Laue_measured_fraction_max 0.996
_diffrn_reflns_limit_h_max       11
_diffrn_reflns_limit_h_min       -10
_diffrn_reflns_limit_k_max       8
_diffrn_reflns_limit_k_min       -8
_diffrn_reflns_limit_l_max       14
_diffrn_reflns_limit_l_min       -14
_diffrn_reflns_number            17283
_diffrn_reflns_point_group_measured_fraction_full 0.996
_diffrn_reflns_point_group_measured_fraction_max 0.996
_diffrn_reflns_theta_full        25.242
_diffrn_reflns_theta_max         25.244
_diffrn_reflns_theta_min         2.211
_exptl_absorpt_coefficient_mu    0.247
_exptl_absorpt_correction_T_max  0.7456
_exptl_absorpt_correction_T_min  0.6270
_exptl_absorpt_correction_type   multi-scan
_exptl_crystal_colour            colourless
_exptl_crystal_density_diffrn    1.344
_exptl_crystal_description       block
_exptl_crystal_F_000             344
_exptl_crystal_size_max          0.400
_exptl_crystal_size_mid          0.300
_exptl_crystal_size_min          0.200
_refine_diff_density_max         0.351
_refine_diff_density_min         -0.247
_refine_diff_density_rms         0.047
_refine_ls_abs_structure_details
;
 Flack x determined using 1216 quotients [(I+)-(I-)]/[(I+)+(I-)]
 (Parsons, Flack and Wagner, Acta Cryst. B69 (2013) 249-259).
;
_refine_ls_abs_structure_Flack   0.024(16)
_refine_ls_extinction_method     none
_refine_ls_goodness_of_fit_ref   1.007
_refine_ls_hydrogen_treatment    constr
_refine_ls_matrix_type           full
_refine_ls_number_parameters     208
_refine_ls_number_reflns         2931
_refine_ls_number_restraints     1
_refine_ls_restrained_S_all      1.007
_refine_ls_R_factor_all          0.0387
_refine_ls_R_factor_gt           0.0360
_refine_ls_shift/su_max          0.002
_refine_ls_shift/su_mean         0.000
_refine_ls_structure_factor_coef Fsqd
_refine_ls_weighting_details
'w=1/[\s^2^(Fo^2^)+(0.0689P)^2^+0.1721P] where P=(Fo^2^+2Fc^2^)/3'
_refine_ls_weighting_scheme      calc
_refine_ls_wR_factor_gt          0.1000
_refine_ls_wR_factor_ref         0.1028
_reflns_Friedel_coverage         0.840
_reflns_Friedel_fraction_full    0.996
_reflns_Friedel_fraction_max     0.996
_reflns_number_gt                2767
_reflns_number_total             2931
_reflns_threshold_expression     'I > 2\s(I)'
_cod_data_source_file            cs8b00327_si_010.cif
_cod_data_source_block           XXD311
_cod_original_sg_symbol_H-M      'P 21'
_cod_database_code               4515619
_shelx_space_group_comment
;
The symmetry employed for this shelxl refinement is uniquely defined
by the following loop, which should always be used as a source of
symmetry information in preference to the above space-group names.
They are only intended as comments.
;
_shelx_estimated_absorpt_t_min   0.908
_shelx_estimated_absorpt_t_max   0.952
_shelxl_version_number           2014/6
_shelx_res_file
;
TITL P in P2(1)
CELL 0.71073   9.67910   7.19170  12.26285  90.0000 107.9055  90.0000
ZERR   2.00   0.00050   0.00030   0.00050   0.0000   0.0010   0.0000
LATT -1
SYMM -X, 0.5+Y, -Z
SFAC C  H  O  Cl
UNIT 38 34 6 2
REM
REM D8VENTURE BLOCK COLOURLESS
OMIT -3 50.5
SIZE 0.40 0.30 0.20
L.S. 4
ACTA
FMAP 2
PLAN 20
TEMP 20.720
WGHT    0.068900    0.172100
FVAR       0.53870
CL1   4    0.564604   -0.093758    0.828224    11.00000    0.07321    0.06742 =
         0.07671   -0.00342    0.03750   -0.03044
O1    3    0.662273    0.698667    0.605790    11.00000    0.05198    0.03596 =
         0.07821   -0.00425    0.02908   -0.00287
O2    3    0.658879    0.394000    0.569357    11.00000    0.03346    0.03525 =
         0.04705   -0.00273    0.01336   -0.00390
O3    3    0.781427    0.036266    0.714202    11.00000    0.06315    0.03534 =
         0.05440   -0.00470    0.03305   -0.00526
AFIX  83
H3A   2    0.757829    0.088540    0.651753    11.00000   -1.50000
AFIX   0
C1    1    0.467754    0.510772    0.625473    11.00000    0.04239    0.05302 =
         0.08924   -0.00568    0.02984   -0.00253
AFIX  33
H1A   2    0.445476    0.380761    0.614142    11.00000   -1.50000
H1B   2    0.478543    0.543425    0.703564    11.00000   -1.50000
H1C   2    0.390412    0.582366    0.575220    11.00000   -1.50000
AFIX   0
C2    1    0.605072    0.550598    0.599955    11.00000    0.03495    0.03887 =
         0.04231    0.00124    0.01026    0.00090
C3    1    0.795059    0.399926    0.549620    11.00000    0.03892    0.02716 =
         0.03939   -0.00484    0.01695   -0.00232
C4    1    0.796652    0.400115    0.437062    11.00000    0.05516    0.03665 =
         0.03551   -0.00224    0.01256   -0.00616
AFIX  43
H4A   2    0.710379    0.410410    0.377185    11.00000   -1.20000
AFIX   0
C5    1    0.927258    0.384907    0.414587    11.00000    0.07452    0.04188 =
         0.03904   -0.00304    0.03122   -0.00073
AFIX  43
H5A   2    0.928963    0.388932    0.339210    11.00000   -1.20000
AFIX   0
C6    1    1.055051    0.363859    0.502249    11.00000    0.05775    0.04176 =
         0.05410   -0.00134    0.03831   -0.00015
AFIX  43
H6A   2    1.142632    0.351126    0.486505    11.00000   -1.20000
AFIX   0
C7    1    1.051579    0.361887    0.613830    11.00000    0.04128    0.03334 =
         0.04850   -0.00097    0.02365   -0.00111
C8    1    0.921587    0.381754    0.638560    11.00000    0.03763    0.02672 =
         0.03488   -0.00166    0.01633   -0.00172
C9    1    0.949613    0.390961    0.767165    11.00000    0.03398    0.03749 =
         0.03203   -0.00190    0.01402   -0.00234
C10   1    1.096442    0.286904    0.810078    11.00000    0.03763    0.05156 =
         0.04347    0.00499    0.01133    0.00211
AFIX  23
H10A  2    1.151798    0.328309    0.886270    11.00000   -1.20000
H10B  2    1.081406    0.153723    0.811804    11.00000   -1.20000
AFIX   0
C11   1    1.174822    0.337048    0.722391    11.00000    0.03739    0.05359 =
         0.05773    0.00150    0.02217    0.00237
AFIX  23
H11A  2    1.230402    0.450844    0.743655    11.00000   -1.20000
H11B  2    1.239105    0.237712    0.714925    11.00000   -1.20000
AFIX   0
C12   1    0.966696    0.596289    0.809533    11.00000    0.04703    0.03892 =
         0.03838   -0.00699    0.01374   -0.00872
AFIX  23
H12A  2    1.066900    0.636108    0.826954    11.00000   -1.20000
H12B  2    0.906186    0.677902    0.751254    11.00000   -1.20000
AFIX   0
C13   1    0.919261    0.600933    0.917021    11.00000    0.05697    0.05245 =
         0.03929   -0.01435    0.01723   -0.00908
AFIX  23
H13A  2    1.001854    0.587658    0.985522    11.00000   -1.20000
H13B  2    0.869140    0.716007    0.921751    11.00000   -1.20000
AFIX   0
C14   1    0.818481    0.436648    0.901838    11.00000    0.04549    0.04881 =
         0.03437   -0.00551    0.01425   -0.00164
C15   1    0.721106    0.396503    0.961243    11.00000    0.06256    0.06941 =
         0.04525   -0.01559    0.03127   -0.00888
AFIX  43
H15A  2    0.708827    0.478393    1.016229    11.00000   -1.20000
AFIX   0
C16   1    0.643215    0.234121    0.937607    11.00000    0.05512    0.07984 =
         0.04893   -0.00280    0.03215   -0.01050
AFIX  43
H16A  2    0.577258    0.205026    0.976431    11.00000   -1.20000
AFIX   0
C17   1    0.663331    0.113539    0.855505    11.00000    0.04154    0.05198 =
         0.04538    0.00310    0.01695   -0.00762
C18   1    0.758874    0.151857    0.793974    11.00000    0.03967    0.03840 =
         0.03367    0.00253    0.01400    0.00043
C19   1    0.836180    0.316763    0.817947    11.00000    0.03575    0.03863 =
         0.02986    0.00227    0.01234    0.00040

HKLF 4

REM  P in P2(1)
REM R1 =  0.0360 for    2767 Fo > 4sig(Fo)  and  0.0387 for all    2931 data
REM    208 parameters refined using      1 restraints

END

WGHT      0.0626      0.1511

REM Highest difference peak  0.351,  deepest hole -0.247,  1-sigma level  0.047
Q1    1   0.7019  0.4608  1.0725  11.00000  0.05    0.35
Q2    1   0.7176 -0.0800  0.7015  11.00000  0.05    0.35
Q3    1   0.4126  0.6366  0.6478  11.00000  0.05    0.16
Q4    1   0.3961  0.4265  0.5461  11.00000  0.05    0.15
Q5    1   0.4955  0.4140  0.6814  11.00000  0.05    0.15
Q6    1   0.5309  0.7194  0.7196  11.00000  0.05    0.14
Q7    1   0.6311 -0.0940  0.8830  11.00000  0.05    0.13
Q8    1   0.5396  0.0008  0.7907  11.00000  0.05    0.13
Q9    1   0.4987 -0.0448  0.7200  11.00000  0.05    0.13
Q10   1   0.4595  0.0454  0.8673  11.00000  0.05    0.12
Q11   1   0.8047  0.4739  0.4926  11.00000  0.05    0.12
Q12   1   0.6273  0.2728  0.7274  11.00000  0.05    0.12
Q13   1   0.5946  0.8989  0.6192  11.00000  0.05    0.11
Q14   1   0.5605  0.2784  0.3323  11.00000  0.05    0.11
Q15   1   0.4803 -0.2846  0.8850  11.00000  0.05    0.11
Q16   1   0.4810  0.2129  1.0590  11.00000  0.05    0.11
Q17   1   1.2614  0.5187  0.8392  11.00000  0.05    0.11
Q18   1   0.5827  0.3345  0.5218  11.00000  0.05    0.11
Q19   1   1.2261  0.1523  0.5437  11.00000  0.05    0.11
Q20   1   0.6903  0.6621  1.0882  11.00000  0.05    0.11
;
_shelx_res_checksum              83739
_shelx_hkl_file
;
   2   0   2  145.78    3.51
   2   0   2  140.09    3.40
  -2   0  -2  141.79    3.51
  -2   0  -2  138.17    3.38
  -2   0  -2  142.60    3.48
  -2   0  -2  143.92    3.42
   2   0   2  144.44    3.55
  -2   0  -2  134.29    3.67
  -2   0  -2  141.08    3.49
   2   0   2  147.09    3.55
   3   0   3    2.57    0.33
   3   0   3    2.47    0.34
   3   0   3    2.25    0.26
  -3   0  -3    2.43    0.29
  -3   0  -3    2.54    0.40
  -3   0  -3    2.89    0.30
  -3   0  -3    2.80    0.24
  -3   0  -3    2.49    0.18
  -3   0  -3    2.10    0.34
   3   0   3    1.50    0.32
   4   0   4    2.27    0.37
  -4   0  -4    1.32    0.34
  -4   0  -4    2.28    0.35
  -4   0  -4    1.46    0.24
   4   0   4    2.02    0.36
   4   0   4    2.20    0.32
   4   0   4    1.93    0.38
  -4   0  -4    1.86    0.39
  -4   0  -4    1.94    0.25
  -5   0  -5    1.85    0.31
   5   0   5    1.99    0.37
   5   0   5    2.23    0.41
  -5   0  -5    1.78    0.23
   5   0   5    1.90    0.38
   5   0   5    1.79    0.79
  -5   0  -5    1.37    0.46
  -5   0  -5    1.09    0.33
  -5   0  -5    1.36    0.44
  -6   0  -6    8.75    1.08
  -6   0  -6    7.43    0.38
   6   0   6    7.09    0.89
  -6   0  -6    6.43    0.83
   6   0   6    6.35    0.99
   6   0   6    7.19    0.85
  -6   0  -6    7.91    0.71
   7   0   7    2.73    0.72
   7   0   7    3.82    0.75
   7   0   7    5.38    0.73
  -7   0  -7    4.21    0.82
   8   0   8    0.79    0.61
   8   0   8   -1.14    0.81
   8   0   8   -0.52    0.77
   0   1   0    0.03    0.02
   0   1   0    0.05    0.02
   0   1   0   -0.01    0.06
   0   1   0    0.07    0.02
   0   1   0    0.04    0.02
   0  -1   0    0.13    0.06
   0  -1   0    0.04    0.02
   0  -1   0    0.02    0.07
   0  -1   0    0.11    0.05
   1   1   1  511.20   11.99
   1   1   1  517.97   12.02
  -1  -1  -1  501.62   12.02
  -2   1  -2  557.91   13.10
   2   1   2  559.64   13.15
  -2   1  -2  558.45   13.16
  -2   1  -2  554.36   13.11
  -2   1  -2  565.99   13.08
  -2   1  -2  557.40   13.16
  -2  -1  -2  521.69   13.38
  -2  -1  -2  554.17   13.15
   2  -1   2  557.60   13.14
  -2  -1  -2  566.47   13.27
   2  -1   2  551.95   13.12
   2  -1   2  568.11   13.19
   2  -1   2  594.88   13.18
   3   1   3  303.30    7.44
   3   1   3  308.34    7.52
  -3   1  -3  309.42    7.57
  -3   1  -3  306.67    7.40
   3   1   3  317.51    7.63
  -3   1  -3  308.07    7.46
  -3   1  -3  308.63    7.39
   3   1   3  312.85    7.58
  -3   1  -3  305.83    7.51
   3  -1   3  314.66    7.53
  -3  -1  -3  314.31    7.44
   3  -1   3  307.52    7.46
   3  -1   3  307.38    7.44
  -3  -1  -3  312.10    7.67
  -3  -1  -3  310.96    7.51
  -3  -1  -3  316.73    7.48
  -3  -1  -3  307.64    7.24
  -3  -1  -3  313.25    7.63
   3  -1   3  307.65    7.57
   3  -1   3  318.01    7.50
   4   1   4    3.53    0.50
   4   1   4    3.75    0.36
  -4   1  -4    2.75    0.43
   4   1   4    3.92    0.52
  -4   1  -4    3.02    0.29
  -4   1  -4    2.86    0.27
  -4   1  -4    3.71    0.35
   4   1   4    3.40    0.46
  -4  -1  -4    2.70    0.39
  -4  -1  -4    3.31    0.48
   4  -1   4    2.80    0.44
  -4  -1  -4    3.34    0.17
   4  -1   4    3.12    0.40
  -4  -1  -4    3.11    0.45
   4  -1   4    3.30    0.39
  -4  -1  -4    3.56    0.34
  -4  -1  -4    3.81    0.38
   4  -1   4    3.55    0.46
  -5   1  -5   11.67    0.75
   5   1   5   12.33    0.80
  -5   1  -5   10.92    0.69
  -5   1  -5   11.27    0.64
   5   1   5   11.53    0.64
  -5   1  -5   12.05    0.92
   5   1   5   11.42    0.83
  -5   1  -5   11.56    0.50
  -5  -1  -5   10.91    0.86
   5  -1   5   11.04    0.87
  -5  -1  -5   10.36    0.69
   5  -1   5   10.17    0.68
   5  -1   5   11.15    0.71
   5  -1   5    9.50    0.79
  -5  -1  -5   10.74    0.38
  -5  -1  -5   10.42    0.96
  -6   1  -6   21.37    1.35
   6   1   6   20.22    0.96
  -6   1  -6   18.18    0.72
   6   1   6   20.14    1.23
  -6   1  -6   19.06    1.02
  -6   1  -6   19.11    1.03
  -6  -1  -6   19.15    1.23
   6  -1   6   18.29    1.17
   6  -1   6   19.08    1.12
   6  -1   6   19.73    1.17
   7   1   7   -0.83    0.60
  -7   1  -7    0.06    0.61
   7   1   7   -0.28    0.35
   7   1   7    0.60    0.58
  -7   1  -7    1.36    0.71
   7  -1   7   -0.20    0.54
   7  -1   7    0.62    0.54
  -7  -1  -7    0.31    0.73
   7  -1   7    0.15    0.43
   8   1   8    4.11    0.96
   8   1   8    4.64    0.80
   8   1   8    4.87    1.03
   8  -1   8    3.50    0.84
  -8  -1  -8    2.18    1.53
   8  -1   8    4.11    0.79
  -1   2  -1  222.46    5.26
   1   2   1  199.35    5.34
  -1   2  -1  221.18    5.18
   1   2   1  219.35    5.18
   1   2   1  219.76    5.21
  -1   2  -1  224.49    5.29
  -1   2  -1  223.63    5.29
  -1   2  -1  215.86    5.17
   1   2   1  226.00    5.35
   1   2   1  231.12    5.45
  -1   2  -1  230.25    5.27
   1  -2   1  231.10    5.23
  -1  -2  -1  207.92    5.43
  -1  -2  -1  221.38    5.21
  -1  -2  -1  221.39    5.48
   1  -2   1  218.95    5.26
   1  -2   1  217.05    5.28
   1  -2   1  209.92    5.40
  -1  -2  -1  221.90    5.20
   1  -2   1  208.88    5.25
  -1  -2  -1  225.64    5.32
   1  -2   1  220.99    5.20
  -2   2  -2  132.65    3.27
   2   2   2  134.01    3.31
   2   2   2  133.81    3.38
   2   2   2  132.56    3.28
  -2   2  -2  130.40    3.30
  -2   2  -2  130.23    3.25
   2   2   2  131.09    3.33
   2   2   2  134.13    3.44
  -2   2  -2  133.72    3.29
  -2   2  -2  133.72    3.23
  -2   2  -2  133.08    3.32
   2   2   2  135.84    3.51
   2  -2   2  131.06    3.27
   2  -2   2  133.78    3.23
  -2  -2  -2  132.07    3.53
   2  -2   2  132.30    3.36
  -2  -2  -2  136.69    3.31
  -2  -2  -2  132.56    3.27
  -2  -2  -2  134.39    3.34
   2  -2   2  130.06    3.30
   3   2   3  336.46    8.35
   3   2   3  349.91    8.46
   3   2   3  359.57    8.49
  -3   2  -3  341.68    8.46
   3   2   3  365.78    8.63
  -3   2  -3  360.93    8.36
  -3   2  -3  355.59    8.39
   3   2   3  343.36    8.50
  -3   2  -3  353.30    8.45
  -3   2  -3  352.90    8.40
  -3  -2  -3  350.32    8.40
  -3  -2  -3  351.77    8.44
   3  -2   3  348.98    8.36
  -3  -2  -3  365.75    8.46
   3  -2   3  336.89    8.43
   3  -2   3  340.74    8.49
  -3  -2  -3  346.45    8.67
  -4   2  -4   62.98    1.76
   4   2   4   64.69    1.79
  -4   2  -4   62.54    1.82
  -4   2  -4   64.78    2.03
  -4   2  -4   60.95    1.85
   4   2   4   63.74    1.94
   4   2   4   63.49    2.00
  -4   2  -4   63.60    1.90
   4   2   4   64.25    1.94
   4   2   4   63.28    2.06
  -4  -2  -4   64.30    2.15
   4  -2   4   62.25    1.98
  -4  -2  -4   64.39    1.89
  -4  -2  -4   64.79    1.91
   4  -2   4   61.01    1.88
   4  -2   4   65.30    1.96
   4  -2   4   66.26    1.83
  -4  -2  -4   63.14    1.85
  -5   2  -5    1.21    0.29
   5   2   5    1.15    0.29
   5   2   5    1.28    0.33
  -5   2  -5    1.97    0.49
  -5   2  -5    1.60    0.40
   5   2   5    1.36    0.39
  -5   2  -5    1.84    0.34
   5   2   5    1.23    0.38
   5  -2   5    1.30    0.47
   5  -2   5    1.08    0.36
  -5  -2  -5    0.99    0.54
  -5  -2  -5    1.37    0.45
   5  -2   5    1.52    0.37
  -6   2  -6    6.84    0.90
   6   2   6    7.86    0.99
   6   2   6    7.78    0.86
  -6   2  -6    8.22    0.73
  -6   2  -6    8.28    0.99
   6   2   6    6.92    0.63
  -6   2  -6    7.35    0.71
  -6  -2  -6   10.18    1.15
   6  -2   6    8.82    0.94
   6  -2   6    7.73    0.86
   7   2   7    1.17    0.60
   7   2   7    1.06    0.44
   7   2   7    1.46    0.69
  -7   2  -7    2.06    0.73
   7  -2   7   -0.15    0.60
   7  -2   7    2.21    0.56
   7  -2   7    0.43    0.65
   8   2   8   -0.14    0.93
   8   2   8   -1.50    0.87
   8   2   8    0.65    0.62
   8  -2   8    0.68    0.76
   8  -2   8    0.86    0.88
  -8  -2  -8    1.23    1.20
   0   3   0   -0.15    0.07
   0   3   0   -0.16    0.21
   0   3   0   -0.25    0.15
   0   3   0   -0.30    0.12
   0   3   0   -0.31    0.16
   0   3   0   -0.18    0.07
   0  -3   0   -0.02    0.20
   0  -3   0   -0.41    0.23
  -1   3  -1   38.73    1.17
   1   3   1   39.80    1.25
  -1   3  -1   37.98    1.04
   1   3   1   40.54    1.05
  -1   3  -1   38.89    1.22
   1   3   1   39.12    1.38
  -1   3  -1   39.20    1.20
   1   3   1   39.44    1.08
   1   3   1   38.94    1.06
   1   3   1   39.75    1.19
  -1   3  -1   38.27    1.04
  -1   3  -1   38.49    0.99
  -1  -3  -1   41.96    1.23
  -1  -3  -1   39.78    1.05
  -1  -3  -1   40.57    1.06
   1  -3   1   37.44    1.21
  -1  -3  -1   40.86    1.26
   1  -3   1   37.45    1.21
  -1  -3  -1   40.49    1.40
   1  -3   1   40.70    1.04
  -2   3  -2  180.08    4.26
  -2   3  -2  178.77    4.40
   2   3   2  175.99    4.32
  -2   3  -2  175.49    4.31
  -2   3  -2  175.85    4.35
  -2   3  -2  177.60    4.25
   2   3   2  173.35    4.17
   2   3   2  175.31    4.36
   2   3   2  176.43    4.48
   2   3   2  176.05    4.35
   2   3   2  180.82    4.64
   2   3   2  181.37    4.53
  -2   3  -2  175.90    4.36
  -2  -3  -2  182.22    4.54
   2  -3   2  173.41    4.38
  -2  -3  -2  169.01    4.66
  -2  -3  -2  175.16    4.29
   2  -3   2  174.92    4.26
   2  -3   2  172.16    4.31
  -2  -3  -2  174.37    4.32
   2  -3   2  178.72    4.34
   3   3   3  119.29    3.33
   3   3   3  118.07    3.25
  -3   3  -3  116.47    2.96
   3   3   3  116.14    2.99
   3   3   3  119.42    3.08
  -3   3  -3  115.23    3.00
  -3   3  -3  114.08    2.94
   3   3   3  116.08    3.10
   3   3   3  114.07    3.14
  -3   3  -3  113.56    3.02
  -3   3  -3  117.19    3.03
  -3   3  -3  115.74    3.05
   3  -3   3  118.10    2.94
  -3  -3  -3  116.32    3.04
  -3  -3  -3  118.52    3.00
  -3  -3  -3  117.07    3.12
   3  -3   3  115.66    3.06
   3  -3   3  114.17    3.02
  -4   3  -4    1.55    0.29
  -4   3  -4    1.42    0.26
   4   3   4    1.44    0.34
  -4   3  -4    1.49    0.27
  -4   3  -4    1.15    0.24
   4   3   4    1.65    0.33
  -4   3  -4    1.67    0.38
   4   3   4    1.04    0.43
   4   3   4    1.59    0.30
   4   3   4    1.10    0.30
  -4   3  -4    1.58    0.23
   4  -3   4    0.88    0.26
   4  -3   4    1.18    0.31
   4  -3   4    1.13    0.21
  -4  -3  -4    1.16    0.31
  -4  -3  -4    1.02    0.29
  -4  -3  -4    1.40    0.54
  -4  -3  -4    0.91    0.34
   4  -3   4    1.16    0.35
  -5   3  -5    4.16    0.57
   5   3   5    3.81    0.52
   5   3   5    4.72    0.50
  -5   3  -5    5.24    0.52
   5   3   5    4.71    0.69
  -5   3  -5    4.13    0.52
  -5   3  -5    5.36    0.39
  -5   3  -5    4.33    0.37
   5  -3   5    3.46    0.46
   5  -3   5    4.23    0.62
   5  -3   5    3.97    0.52
   5  -3   5    4.52    0.46
  -5  -3  -5    5.00    0.74
  -6   3  -6    5.09    0.68
   6   3   6    4.17    0.70
  -6   3  -6    5.72    0.81
  -6   3  -6    4.14    0.85
   6   3   6    4.94    0.68
  -6   3  -6    5.61    0.44
   6   3   6    4.86    0.60
   6  -3   6    4.58    0.53
   6  -3   6    5.13    0.82
  -6  -3  -6    4.60    1.03
   6  -3   6    5.89    0.81
   7   3   7    1.16    0.64
   7   3   7    1.22    0.44
   7   3   7   -0.26    0.60
  -7   3  -7    0.85    0.74
  -7  -3  -7   -0.64    0.96
   7  -3   7    0.78    0.41
   0   4   0  705.70   16.41
   0   4   0  691.25   16.29
   0   4   0  652.21   16.22
   0   4   0  696.90   16.16
   0  -4   0  680.61   16.29
   0  -4   0  690.29   16.40
   1   4   1  202.70    5.11
   1   4   1  203.63    4.83
  -1   4  -1  198.59    4.86
  -1   4  -1  204.92    5.07
   1   4   1  200.79    5.15
  -1   4  -1  204.04    5.15
   1   4   1  203.71    4.93
   1   4   1  200.03    4.86
   1   4   1  198.76    5.28
  -1   4  -1  204.46    5.04
   1   4   1  201.32    4.84
  -1  -4  -1  201.82    4.85
   1  -4   1  205.06    4.83
  -1  -4  -1  203.66    4.84
  -1  -4  -1  202.24    5.32
   1  -4   1  201.80    5.12
  -1  -4  -1  208.42    5.16
   1  -4   1  206.78    5.12
   2   4   2   85.32    2.33
   2   4   2   87.19    2.49
   2   4   2   85.19    2.27
  -2   4  -2   85.13    2.20
  -2   4  -2   85.06    2.28
   2   4   2   82.09    2.60
  -2   4  -2   83.71    2.36
   2   4   2   85.62    2.14
   2   4   2   83.99    2.47
  -2   4  -2   87.80    2.40
   2   4   2   86.99    2.24
  -2   4  -2   84.47    2.12
  -2  -4  -2   86.75    2.21
  -2  -4  -2   84.60    2.24
   2  -4   2   86.41    2.21
   2  -4   2   88.55    2.24
   2  -4   2   85.92    2.23
   2  -4   2   86.22    2.41
  -2  -4  -2   85.31    2.44
  -2  -4  -2   87.28    2.70
   3   4   3   60.00    1.92
   3   4   3   64.46    1.77
  -3   4  -3   58.42    1.74
   3   4   3   57.26    2.08
  -3   4  -3   62.70    1.73
  -3   4  -3   59.96    1.62
   3   4   3   61.73    2.00
   3   4   3   61.01    1.77
   3   4   3   62.29    1.82
  -3   4  -3   59.41    1.69
  -3   4  -3   55.62    1.78
   3  -4   3   59.73    1.65
   3  -4   3   61.04    1.77
  -3  -4  -3   60.19    1.70
  -3  -4  -3   60.77    2.19
  -3  -4  -3   57.65    1.73
   3  -4   3   59.43    1.76
  -3  -4  -3   54.51    1.86
   3  -4   3   60.90    1.81
   4   4   4    0.85    0.30
  -4   4  -4    0.93    0.22
  -4   4  -4    0.81    0.30
  -4   4  -4    1.20    0.26
   4   4   4    0.72    0.25
   4   4   4    0.79    0.34
  -4   4  -4    1.19    0.34
  -4   4  -4    0.62    0.22
   4  -4   4    0.90    0.30
   4  -4   4    0.58    0.21
  -4  -4  -4    1.25    0.54
   4  -4   4    0.59    0.40
   4  -4   4    1.46    0.29
   5   4   5    4.92    0.64
  -5   4  -5    6.14    0.68
  -5   4  -5    5.82    0.55
   5   4   5    5.65    0.76
   5   4   5    7.13    0.59
  -5   4  -5    7.06    0.57
   5  -4   5    6.37    0.59
   5  -4   5    6.45    0.57
   5  -4   5    6.36    0.69
   5  -4   5    6.23    0.69
  -5  -4  -5    7.78    1.21
   6   4   6    2.32    0.62
  -6   4  -6    3.95    0.76
   6   4   6    3.25    0.62
   6   4   6    3.20    0.47
   6  -4   6    3.34    0.48
   6  -4   6    3.06    0.62
  -6  -4  -6    3.49    0.98
   7   4   7    1.85    0.81
   7   4   7    1.79    0.75
  -7   4  -7    3.43    0.90
  -7  -4  -7    1.57    1.23
   7  -4   7    3.66    0.99
   0   5   0    0.31    0.26
   0   5   0    0.21    0.20
   0   5   0    0.01    0.35
   0   5   0    0.49    0.21
   0   5   0    0.22    0.27
   0  -5   0    0.29    0.29
   0  -5   0    0.45    0.38
  -1   5  -1   17.13    0.64
   1   5   1   17.09    0.62
   1   5   1   15.66    0.72
   1   5   1   16.83    0.79
   1   5   1   16.36    0.85
   1   5   1   16.43    0.57
  -1   5  -1   16.20    0.73
   1   5   1   16.65    0.51
   1   5   1   16.25    0.50
   1   5   1   16.92    0.98
  -1   5  -1   17.05    0.79
  -1   5  -1   16.61    0.89
  -1  -5  -1   16.58    0.56
  -1  -5  -1   16.36    0.88
  -1  -5  -1   16.83    1.05
   1  -5   1   16.26    0.51
   1  -5   1   17.73    0.87
   1  -5   1   16.74    0.90
  -2   5  -2   22.20    0.63
  -2   5  -2   23.06    0.76
   2   5   2   24.06    0.84
   2   5   2   22.59    0.93
   2   5   2   22.37    0.74
   2   5   2   21.37    1.26
   2   5   2   21.29    1.07
  -2   5  -2   20.64    0.87
  -2   5  -2   22.09    1.00
   2   5   2   23.39    0.80
   2   5   2   25.19    1.30
  -2   5  -2   23.34    0.76
  -2  -5  -2   22.99    0.76
  -2  -5  -2   23.09    1.03
  -2  -5  -2   22.71    0.79
   2  -5   2   22.97    1.03
  -2  -5  -2   22.87    1.27
   2  -5   2   24.58    0.73
   3   5   3   17.10    1.12
   3   5   3   18.29    0.87
   3   5   3   18.21    0.84
  -3   5  -3   18.97    0.64
  -3   5  -3   19.19    0.83
  -3   5  -3   18.62    0.80
  -3   5  -3   19.91    0.88
  -3   5  -3   18.48    0.75
   3   5   3   19.01    0.57
   3   5   3   20.14    0.82
   3  -5   3   20.23    0.98
   3  -5   3   18.80    0.78
  -3  -5  -3   19.04    1.33
   3  -5   3   19.26    0.77
   3  -5   3   19.60    0.73
   4   5   4    5.90    0.79
   4   5   4    7.67    0.68
   4   5   4    7.19    0.69
  -4   5  -4    7.64    0.76
  -4   5  -4    6.66    0.51
  -4   5  -4    7.09    0.45
  -4   5  -4    7.85    0.67
   4  -5   4    6.80    0.49
   4  -5   4    7.50    0.70
   4  -5   4    7.01    0.67
   4  -5   4    8.01    0.60
  -5   5  -5    3.51    0.58
   5   5   5    2.95    0.46
   5   5   5    3.81    0.60
   5   5   5    3.95    0.62
  -5  -5  -5    3.08    0.86
   5  -5   5    3.80    0.61
   5  -5   5    4.35    0.55
   5  -5   5    3.61    0.40
   6   5   6    6.21    0.78
   6   5   6    6.11    0.85
   6   5   6    6.55    0.84
  -6   5  -6    7.01    0.89
   6  -5   6    5.50    0.68
  -6  -5  -6    7.67    1.27
   7   5   7    1.61    0.90
   7   5   7    0.22    0.74
   7   5   7    2.03    1.03
  -7  -5  -7   -0.16    1.40
   0   6   0  162.38    4.33
   0   6   0  172.97    4.50
   0   6   0  170.53    4.28
   0   6   0  163.44    4.70
   0  -6   0  177.61    4.62
   0  -6   0  168.98    4.73
   1   6   1   39.72    1.28
   1   6   1   42.01    1.50
  -1   6  -1   41.10    1.51
   1   6   1   41.57    1.14
  -1   6  -1   41.29    1.22
   1   6   1   40.48    1.15
  -1   6  -1   41.26    1.62
   1   6   1   41.60    1.48
   1  -6   1   42.01    1.61
   1  -6   1   43.22    1.60
  -1  -6  -1   39.68    1.62
  -1  -6  -1   40.79    1.78
   2   6   2   21.95    0.80
   2   6   2   25.49    1.17
  -2   6  -2   25.23    1.14
   2   6   2   22.98    0.81
  -2   6  -2   23.90    0.80
   2   6   2   24.56    1.05
   2   6   2   24.11    0.88
   2   6   2   24.62    0.81
  -2   6  -2   23.54    0.72
   2  -6   2   26.84    1.22
   2  -6   2   22.58    0.76
  -2  -6  -2   24.40    0.83
  -2  -6  -2   25.39    1.51
  -3   6  -3    1.10    0.16
   3   6   3    0.88    0.37
  -3   6  -3    1.25    0.27
   3   6   3    1.03    0.36
   3   6   3    1.16    0.20
  -3   6  -3    0.69    0.30
  -3   6  -3    1.29    0.67
   3   6   3    1.02    0.38
  -3  -6  -3    2.07    0.73
   3  -6   3    1.37    0.45
   3  -6   3    0.48    0.24
   3  -6   3    0.97    0.27
  -4   6  -4    2.72    0.45
  -4   6  -4    3.13    0.46
   4   6   4    2.82    0.50
   4   6   4    3.00    0.45
   4  -6   4    2.58    0.41
   4  -6   4    2.47    0.54
  -4  -6  -4    2.60    0.93
   5   6   5    7.01    0.93
   5   6   5    5.92    0.74
   5   6   5    7.96    0.73
  -5   6  -5    6.32    0.71
  -5  -6  -5    6.42    1.19
   5  -6   5    8.85    0.96
   6   6   6    1.02    0.55
   6   6   6    0.82    0.73
   6   6   6    1.59    0.72
   6  -6   6    1.52    0.96
  -6  -6  -6   -1.29    1.20
   0   7   0    0.02    0.37
   0   7   0   -0.05    0.28
   0  -7   0   -0.32    0.61
   0  -7   0   -0.54    0.56
   1   7   1   23.67    1.08
  -1   7  -1   24.57    0.87
   1   7   1   23.23    1.16
   1   7   1   24.71    1.20
  -1   7  -1   24.31    1.21
   1  -7   1   22.30    1.53
   1  -7   1   23.59    1.35
  -1  -7  -1   25.06    1.33
   2   7   2    9.87    0.56
  -2   7  -2    9.10    0.99
  -2   7  -2    8.68    0.53
   2   7   2    9.21    0.58
   2   7   2    8.85    0.59
  -2   7  -2    9.46    0.93
   2   7   2    9.72    0.79
  -2  -7  -2   10.51    1.28
   2  -7   2    8.95    0.97
   3   7   3   18.44    0.87
  -3   7  -3   19.04    0.89
  -3   7  -3   19.41    0.76
   3   7   3   21.11    1.04
   3   7   3   18.54    0.95
  -3  -7  -3   18.83    1.63
   4   7   4    1.83    0.51
   4   7   4    1.60    0.50
   4   7   4    1.75    0.46
  -4  -7  -4    4.48    1.13
   4  -7   4    2.55    0.63
   5   7   5    1.17    0.64
   5   7   5    2.17    0.67
   5   7   5    0.85    0.50
  -5  -7  -5    2.71    1.31
   5  -7   5    1.60    0.71
   0   8   0   23.92    1.06
   0   8   0   25.00    1.33
   0  -8   0   26.13    1.55
   0  -8   0   22.66    1.46
   1   8   1   10.29    1.27
   1   8   1   10.13    0.92
  -1   8  -1    9.90    0.60
  -1   8  -1   10.02    1.04
   1  -8   1   10.20    1.15
  -1  -8  -1    9.59    1.14
  -1  -8  -1   10.56    1.28
  -2   8  -2    1.73    0.67
   2   8   2    1.48    0.54
   2  -8   2    1.69    0.65
  -2  -8  -2    2.57    0.93
   3   8   3    0.94    0.51
   3   8   3    0.24    0.42
   3  -8   3   -0.72    0.60
  -3  -8  -3    0.53    1.04
   4   8   4   -0.40    0.56
   4   8   4    0.33    0.53
   4   8   4   -0.61    0.57
  -4  -8  -4   -1.59    1.34
   4  -8   4    1.19    0.76
   0   9   0    0.08    0.65
   0  -9   0   -0.23    0.81
   0  -9   0    0.12    0.99
  -1   9  -1    0.35    0.70
   1   9   1   -0.47    0.64
   1  -9   1    1.10    0.80
   1  -9   1    0.97    0.85
  -1  -9  -1    1.29    1.06
   2   9   2    0.18    0.69
  -2   9  -2    0.12    0.77
   2  -9   2   -0.95    0.85
  -2  -9  -2   -0.31    1.21
  -7   0  -8   -0.76    0.77
   7   0   8    0.96    0.71
   7   0   8    0.59    0.48
   7   0   8    1.55    0.66
  -6   0  -7   21.82    0.71
  -6   0  -7   20.30    1.44
  -6   0  -7   21.78    1.23
   6   0   7   15.98    1.37
  -6   0  -7   19.95    1.22
   6   0   7   21.96    1.27
   6   0   7   21.28    1.03
   5   0   6    5.59    0.72
  -5   0  -6    5.15    0.32
  -5   0  -6    4.81    0.72
  -5   0  -6    5.18    0.56
  -5   0  -6    4.91    0.68
   5   0   6    4.68    0.51
   5   0   6    6.02    0.70
   4   0   5   51.32    1.69
   4   0   5   49.50    1.62
  -4   0  -5   48.09    1.30
  -4   0  -5   46.08    1.73
   4   0   5   49.33    1.60
   4   0   5   49.32    1.47
  -4   0  -5   47.85    1.42
  -4   0  -5   47.26    1.55
  -4   0  -5   46.89    1.62
  -4   0  -5   45.37    1.71
  -3   0  -4    1.69    0.25
  -3   0  -4    1.78    0.36
  -3   0  -4    1.34    0.16
  -3   0  -4    1.56    0.34
   3   0   4    1.52    0.31
   3   0   4    1.49    0.22
   3   0   4    1.29    0.27
  -3   0  -4    1.93    0.29
   3   0   4    1.37    0.27
  -3   0  -4    1.76    0.25
  -2   0  -3   53.55    1.49
   2   0   3   53.47    1.39
   2   0   3   54.02    1.55
  -2   0  -3   54.01    1.41
   2   0   3   53.56    1.42
   2   0   3   55.27    1.51
  -2   0  -3   52.63    1.59
  -2   0  -3   54.96    1.38
  -1   0  -2  352.33    8.36
   1   0   2  348.40    8.33
   1   0   2  352.82    8.31
   1   0   2  356.83    8.34
  -1   0   0   88.30    2.19
  -1   0   0   88.98    2.17
   2   0   1  188.25    4.51
   2   0   1  184.76    4.54
  -2   0  -1  186.97    4.55
  -2   0  -1  184.42    4.48
   2   0   1  193.03    4.55
   2   0   1  181.62    4.46
  -2   0  -1  189.35    4.44
   2   0   1  184.69    4.52
  -2   0  -1  192.58    4.54
  -2   0  -1  184.25    4.44
  -2   0  -1  189.80    4.50
  -3   0  -2    8.57    0.41
  -3   0  -2    9.22    0.58
   3   0   2    8.86    0.50
  -3   0  -2    8.45    0.44
  -3   0  -2    8.71    0.36
   3   0   2    8.50    0.41
   3   0   2    8.82    0.49
  -3   0  -2    7.89    0.43
   3   0   2    8.86    0.52
  -3   0  -2    8.14    0.32
   4   0   3    0.69    0.23
   4   0   3    0.57    0.25
  -4   0  -3    0.70    0.31
  -4   0  -3    0.87    0.15
  -4   0  -3    1.33    0.36
  -4   0  -3    0.96    0.21
  -4   0  -3    0.80    0.17
   4   0   3    0.97    0.28
   4   0   3    0.70    0.20
  -4   0  -3    0.55    0.18
   5   0   4    1.73    0.35
  -5   0  -4    1.95    0.44
   5   0   4    2.30    0.38
  -5   0  -4    2.13    0.23
  -5   0  -4    1.97    0.29
   5   0   4    2.17    0.35
  -5   0  -4    2.20    0.33
   5   0   4    1.73    0.34
  -5   0  -4    1.59    0.28
  -5   0  -4    1.84    0.42
  -6   0  -5   17.09    0.90
   6   0   5   17.00    0.90
   6   0   5   17.15    1.07
   6   0   5   18.69    1.08
  -6   0  -5   16.71    0.61
  -6   0  -5   18.73    1.03
  -7   0  -6   20.26    1.22
   7   0   6   20.52    1.34
  -7   0  -6   22.96    0.96
   7   0   6   18.80    1.20
   7   0   6   20.38    1.09
  -8   0  -7    2.19    1.33
   8   0   7    0.83    0.82
   8   0   7    1.88    0.63
   8   0   7    0.31    0.68
   7   1   8    0.36    0.46
  -7   1  -8    1.23    1.16
  -7   1  -8    0.54    0.83
   7   1   8    1.13    0.74
   7   1   8   -0.86    0.64
   7  -1   8   -0.03    0.48
   7  -1   8   -0.17    0.64
   7  -1   8    0.46    0.65
  -7  -1  -8    0.48    0.95
  -6   1  -7    1.85    0.71
   6   1   7    2.67    0.46
  -6   1  -7    1.79    0.45
  -6   1  -7    2.92    0.57
   6   1   7    1.49    0.50
   6   1   7    2.95    0.61
   6   1   7    1.09    0.89
  -6   1  -7    2.69    0.38
   6  -1   7    1.39    0.44
   6  -1   7    2.19    0.57
   6  -1   7    2.48    0.61
  -6  -1  -7    2.60    0.72
   5   1   6   28.67    1.32
   5   1   6   27.09    1.06
  -5   1  -6   26.94    1.21
   5   1   6   28.70    1.27
  -5   1  -6   26.30    1.13
  -5   1  -6   26.17    0.89
  -5   1  -6   26.75    1.40
  -5   1  -6   26.21    1.05
   5  -1   6   27.54    1.12
  -5  -1  -6   27.01    1.16
   5  -1   6   26.59    1.28
  -5  -1  -6   26.59    1.29
  -5  -1  -6   26.86    1.41
   5  -1   6   28.38    1.25
   4   1   5    8.56    0.69
  -4   1  -5    8.78    0.47
   4   1   5    9.47    0.65
  -4   1  -5    8.38    0.58
  -4   1  -5    8.82    0.42
  -4   1  -5    9.06    0.54
  -4   1  -5    9.32    0.79
   4   1   5    8.55    0.69
   4   1   5    9.17    0.52
  -4  -1  -5    8.61    0.76
  -4  -1  -5    8.20    0.57
  -4  -1  -5    7.72    0.55
   4  -1   5    8.77    0.65
   4  -1   5    7.74    0.55
   4  -1   5    8.68    0.56
  -4  -1  -5    8.24    0.80
   4  -1   5    8.93    0.76
  -4  -1  -5    8.64    0.51
   3   1   4   30.42    0.94
   3   1   4   29.55    1.09
  -3   1  -4   30.75    0.91
   3   1   4   30.61    1.13
  -3   1  -4   29.32    1.01
  -3   1  -4   30.30    1.14
   3   1   4   28.92    0.81
  -3   1  -4   29.34    0.90
   3   1   4   30.28    1.06
  -3   1  -4   29.07    0.97
   3  -1   4   29.43    1.04
  -3  -1  -4   31.06    1.00
  -3  -1  -4   30.78    0.97
   3  -1   4   30.06    0.98
   3  -1   4   28.94    1.08
  -3  -1  -4   28.83    1.23
  -3  -1  -4   28.57    1.15
   3  -1   4   29.52    1.01
  -3  -1  -4   29.41    1.19
   3  -1   4   29.74    0.98
   2   1   3  254.40    6.05
   2   1   3  253.80    6.10
  -2   1  -3  256.21    6.10
  -2   1  -3  251.09    6.00
   2   1   3  262.51    6.16
  -2   1  -3  245.47    6.03
  -2   1  -3  247.00    5.96
   2   1   3  245.76    5.85
   2   1   3  245.22    5.97
  -2  -1  -3  242.15    6.06
   2  -1   3  254.58    6.04
   2  -1   3  244.11    5.99
  -2  -1  -3  250.45    6.19
  -2  -1  -3  251.57    6.02
  -2  -1  -3  253.08    6.18
  -2  -1  -3  249.12    6.00
   2  -1   3  250.03    6.01
   2  -1   3  249.31    6.08
   2  -1   3  250.28    6.04
   0   1   1  373.10    8.58
   0   1   1  356.83    8.54
   0  -1  -1  360.88    8.59
   0  -1  -1  365.57    8.54
  -1   1   0  236.86    5.65
   1   1   0  245.63    5.78
  -1   1   0  244.32    5.68
  -1   1   0  248.41    5.70
   1  -1   0  240.08    5.68
  -1  -1   0  243.66    5.67
   1  -1   0  234.87    5.69
  -1  -1   0  239.92    5.78
   1  -1   0  241.41    5.66
   2   1   1 1000.00   23.39
   3   1   2  225.54    5.61
   3   1   2  218.93    5.45
  -3   1  -2  230.19    5.53
   3   1   2  233.34    5.67
  -3   1  -2  225.71    5.59
   3   1   2  229.49    5.58
   3   1   2  211.23    5.74
  -3   1  -2  232.25    5.47
  -3   1  -2  217.41    5.40
  -3   1  -2  226.89    5.57
  -3  -1  -2  236.09    5.54
  -3  -1  -2  230.58    5.57
   3  -1   2  226.16    5.61
   3  -1   2  229.28    5.53
  -3  -1  -2  230.66    5.48
  -3  -1  -2  234.92    5.67
   3  -1   2  230.95    5.60
   4   1   3    6.49    0.52
  -4   1  -3    6.28    0.36
  -4   1  -3    6.28    0.37
  -4   1  -3    6.39    0.40
   4   1   3    7.31    0.57
   4   1   3    8.22    0.55
  -4   1  -3    8.01    0.50
  -4   1  -3    7.25    0.45
   4   1   3    7.74    0.42
  -4   1  -3    7.30    0.59
  -4  -1  -3    6.16    0.61
  -4  -1  -3    6.77    0.24
  -4  -1  -3    6.41    0.38
  -4  -1  -3    7.13    0.47
   4  -1   3    6.69    0.55
   4  -1   3    6.33    0.45
  -4  -1  -3    6.26    0.43
   4  -1   3    6.74    0.49
  -5   1  -4   33.27    1.40
  -5   1  -4   34.67    1.28
  -5   1  -4   34.42    1.07
  -5   1  -4   33.91    1.20
   5   1   4   34.73    1.17
  -5   1  -4   31.76    1.09
   5   1   4   34.84    1.33
   5   1   4   36.27    1.40
   5   1   4   33.07    1.38
  -5   1  -4   33.30    1.22
   5  -1   4   36.65    1.25
  -5  -1  -4   32.62    1.19
  -5  -1  -4   34.04    1.40
  -5  -1  -4   31.95    1.13
   5  -1   4   34.95    1.25
  -5  -1  -4   37.05    1.28
   5  -1   4   34.26    1.33
   5  -1   4   36.91    1.44
  -5  -1  -4   35.08    0.90
   6   1   5   22.32    1.17
  -6   1  -5   20.59    0.74
   6   1   5   19.41    0.94
  -6   1  -5   19.47    0.96
  -6   1  -5   20.12    0.99
   6   1   5   20.42    1.18
  -6   1  -5   20.60    1.25
  -6   1  -5   19.79    1.22
  -6  -1  -5   21.35    1.14
   6  -1   5   20.48    1.15
   6  -1   5   18.81    1.11
  -6  -1  -5   20.98    1.18
   6  -1   5   19.95    1.01
  -6  -1  -5   19.28    0.59
   7   1   6    3.84    0.72
  -7   1  -6    3.58    0.42
  -7   1  -6    3.52    0.64
   7   1   6    2.61    0.58
   7   1   6    3.83    0.55
  -7   1  -6    2.04    0.49
   7  -1   6    3.45    0.53
   7  -1   6    3.99    0.69
  -7  -1  -6    3.56    0.77
   8   1   7   -0.17    0.65
   8   1   7   -1.03    0.70
   8   1   7    0.20    0.48
  -8  -1  -7    0.76    1.05
   8  -1   7    0.33    0.69
   8  -1   7   -0.04    0.67
   8  -1   7   -0.11    0.57
   7   2   8    1.80    0.77
   7   2   8    1.93    0.52
   7   2   8    1.90    0.72
  -7   2  -8    1.81    0.90
   7  -2   8    1.19    0.62
   7  -2   8    0.06    0.66
  -7  -2  -8    0.55    1.07
  -6   2  -7    3.97    0.90
   6   2   7    3.45    0.76
  -6   2  -7    4.50    0.70
   6   2   7    4.67    0.61
  -6   2  -7    4.74    0.62
   6   2   7    4.83    0.70
  -6  -2  -7    4.49    0.97
   6  -2   7    4.77    0.65
   6  -2   7    4.75    0.74
   6  -2   7    4.04    0.60
  -5   2  -6    6.59    0.45
  -5   2  -6    7.48    0.60
  -5   2  -6    6.44    0.87
  -5   2  -6    7.32    0.65
  -5   2  -6    6.23    0.64
   5   2   6    5.97    0.62
   5   2   6    6.84    0.55
   5   2   6    6.53    0.68
   5   2   6    5.39    0.77
   5  -2   6    6.75    0.75
   5  -2   6    7.02    0.67
   5  -2   6    7.12    0.88
  -5  -2  -6    6.60    0.87
   4   2   5   83.30    2.48
  -4   2  -5   82.25    2.47
  -4   2  -5   80.19    2.25
   4   2   5   83.16    2.22
   4   2   5   80.60    2.31
  -4   2  -5   76.52    2.17
  -4   2  -5   81.85    2.17
   4   2   5   75.07    2.48
  -4   2  -5   78.90    2.31
   4   2   5   81.34    2.39
   4  -2   5   80.63    2.37
   4  -2   5   78.48    2.25
  -4  -2  -5   84.09    2.56
  -4  -2  -5   82.67    2.63
   4  -2   5   78.04    2.43
  -4  -2  -5   84.44    2.37
  -4  -2  -5   78.13    2.60
  -4  -2  -5   80.66    2.33
   4  -2   5   82.63    2.33
   3   2   4  215.85    5.27
  -3   2  -4  217.65    5.30
  -3   2  -4  218.33    5.27
   3   2   4  221.73    5.55
   3   2   4  214.96    5.45
  -3   2  -4  208.40    5.39
  -3   2  -4  214.26    5.39
   3   2   4  221.93    5.40
  -3   2  -4  219.02    5.43
   3   2   4  220.89    5.40
  -3  -2  -4  212.89    5.60
   3  -2   4  209.49    5.42
  -3  -2  -4  219.21    5.39
   3  -2   4  220.79    5.39
   3  -2   4  210.03    5.34
  -3  -2  -4  220.19    5.38
   3  -2   4  205.48    5.40
   3  -2   4  217.46    5.38
  -3  -2  -4  215.25    5.62
  -3  -2  -4  215.26    5.33
  -2   2  -3   25.44    0.83
   2   2   3   26.45    0.89
   2   2   3   26.36    0.89
  -2   2  -3   26.57    0.83
  -2   2  -3   26.02    0.87
   2   2   3   25.27    0.85
   2   2   3   26.74    0.82
  -2   2  -3   25.52    0.78
   2   2   3   25.38    0.96
  -2   2  -3   26.27    0.80
   2  -2   3   24.56    0.87
  -2  -2  -3   24.33    1.04
  -2  -2  -3   25.09    0.81
   2  -2   3   24.68    0.77
  -2  -2  -3   24.23    1.00
   2  -2   3   24.96    0.83
  -2  -2  -3   24.90    0.86
  -2  -2  -3   24.07    0.83
   2  -2   3   24.67    0.79
  -1   2  -2   22.18    0.68
   1   2   2   21.96    0.73
   1   2   2   23.08    0.70
   1   2   2   21.65    0.79
   1   2   2   22.63    0.68
  -1   2  -2   22.40    0.71
  -1   2  -2   22.16    0.62
  -1   2  -2   22.58    0.66
  -1   2  -2   22.17    0.65
  -1   2  -2   22.22    0.72
  -1   2  -2   22.23    0.65
   1   2   2   22.84    0.87
   1  -2   2   21.92    0.66
   1  -2   2   22.18    0.65
  -1  -2  -2   23.03    0.76
  -1  -2  -2   20.42    0.90
   1  -2   2   21.84    0.75
  -1  -2  -2   22.12    0.69
  -1  -2  -2   22.17    0.79
   1  -2   2   22.08    0.67
   1  -2   2   21.01    0.69
   0   2  -1  403.04    9.54
   0   2  -1  403.58    9.51
   0   2   1  407.53    9.45
   0   2   1  406.25    9.59
   0   2   1  411.47    9.64
   0   2   1  403.75    9.56
   0   2  -1  405.68    9.49
   0   2  -1  411.74    9.61
   0  -2   1  399.50    9.54
   0  -2  -1  411.88    9.45
   0  -2   1  391.33    9.52
   0  -2   1  399.33    9.59
   0  -2  -1  403.26    9.65
   1   2   0  202.51    4.84
   1   2   0  209.20    4.91
   1   2   0  205.65    4.75
  -1   2   0  207.36    4.78
  -1   2   0  203.23    4.87
  -1   2   0  204.14    4.88
  -1   2   0  202.98    4.86
   1   2   0  203.71    4.78
   1   2   0  212.88    5.02
   1   2   0  208.98    4.77
  -1  -2   0  196.15    4.79
   1  -2   0  204.38    4.79
  -1  -2   0  200.03    4.74
  -1  -2   0  197.24    5.02
   1  -2   0  197.67    4.87
  -1  -2   0  197.32    4.86
   1  -2   0  191.38    4.88
  -1  -2   0  198.21    4.74
  -1  -2   0  196.79    4.91
  -2   2  -1   48.23    1.35
   2   2   1   49.35    1.35
  -2   2  -1   49.29    1.29
   2   2   1   51.14    1.38
   2   2   1   47.57    1.51
   2   2   1   47.37    1.41
  -2   2  -1   48.50    1.32
  -2   2  -1   46.84    1.37
  -2   2  -1   47.22    1.27
   2   2   1   48.36    1.18
   2   2   1   48.50    1.32
  -2  -2  -1   48.74    1.55
   2  -2   1   50.40    1.25
  -2  -2  -1   52.89    1.32
  -2  -2  -1   52.18    1.38
  -2  -2  -1   51.04    1.33
   2  -2   1   51.53    1.35
   3   2   2   50.91    1.49
  -3   2  -2   50.69    1.45
  -3   2  -2   50.29    1.55
   3   2   2   49.27    1.39
   3   2   2   52.98    1.90
  -3   2  -2   48.98    1.47
   3   2   2   51.33    1.64
  -3   2  -2   52.70    1.43
  -3   2  -2   50.99    1.28
  -3   2  -2   53.11    1.44
   3   2   2   51.96    1.52
  -3  -2  -2   50.54    1.45
  -3  -2  -2   50.48    1.46
  -3  -2  -2   48.44    1.67
   3  -2   2   51.62    1.38
  -3  -2  -2   49.53    1.42
   3  -2   2   48.57    1.48
  -4   2  -3   88.13    2.32
  -4   2  -3   84.25    2.11
   4   2   3   85.38    2.45
  -4   2  -3   84.80    2.42
  -4   2  -3   86.34    2.38
   4   2   3   82.68    2.24
  -4   2  -3   86.52    2.26
   4   2   3   87.46    2.41
   4   2   3   86.52    2.54
  -4   2  -3   84.06    2.29
   4  -2   3   86.04    2.28
   4  -2   3   84.44    2.41
  -4  -2  -3   82.06    2.30
  -4  -2  -3   83.49    2.58
  -4  -2  -3   83.78    2.31
   4  -2   3   82.77    2.36
   4  -2   3   85.29    2.45
  -4  -2  -3   83.61    2.35
  -5   2  -4    7.15    0.45
   5   2   4    7.83    0.70
  -5   2  -4    6.48    0.74
  -5   2  -4    8.10    0.61
  -5   2  -4    6.85    0.46
  -5   2  -4    6.84    0.44
   5   2   4    7.12    0.51
   5   2   4    7.25    0.65
  -5  -2  -4    7.07    0.85
   5  -2   4    7.56    0.52
   5  -2   4    6.85    0.63
   5  -2   4    6.53    0.76
  -5  -2  -4    7.28    0.59
   5  -2   4    5.42    0.54
  -6   2  -5   15.09    0.70
   6   2   5   13.27    1.10
  -6   2  -5   14.78    0.82
  -6   2  -5   15.27    0.72
   6   2   5   15.98    1.11
  -6   2  -5   16.42    0.90
   6   2   5   15.49    1.14
  -6   2  -5   15.39    1.08
   6  -2   5   13.92    0.92
  -6  -2  -5   15.86    1.16
   6  -2   5   16.13    1.08
   6  -2   5   15.67    1.03
   7   2   6    7.84    0.73
   7   2   6    6.11    0.79
   7   2   6    9.35    1.11
  -7   2  -6    6.59    1.06
   7  -2   6    9.82    1.05
   7  -2   6    7.11    0.88
   7  -2   6    8.70    1.05
  -7  -2  -6    8.33    1.08
   8   2   7    4.06    0.66
   8   2   7    3.74    0.83
   8   2   7    3.91    0.93
   8  -2   7    3.42    0.76
  -8  -2  -7    5.31    1.19
   8  -2   7    4.23    0.89
   7   3   8    2.32    0.61
   7   3   8    1.99    0.81
   7   3   8    1.82    0.78
  -7   3  -8    2.33    0.91
   7  -3   8    1.21    0.84
  -7  -3  -8    2.10    1.13
   6   3   7    3.71    0.68
  -6   3  -7    5.31    1.01
   6   3   7    3.22    0.63
   6   3   7    3.66    0.50
   6  -3   7    2.59    1.11
   6  -3   7    3.02    0.56
   6  -3   7    3.39    0.66
  -6  -3  -7    4.83    1.06
  -5   3  -6   25.14    1.11
   5   3   6   26.02    1.32
   5   3   6   26.12    1.26
  -5   3  -6   26.29    1.35
  -5   3  -6   25.44    1.05
   5   3   6   26.34    1.04
   5  -3   6   27.15    1.25
  -5  -3  -6   26.42    1.62
   5  -3   6   26.69    0.99
   5  -3   6   24.80    1.24
  -4   3  -5   92.83    2.72
   4   3   5  101.29    2.86
   4   3   5  103.16    2.95
  -4   3  -5   99.36    2.96
  -4   3  -5  100.45    2.65
   4   3   5  102.91    2.71
  -4   3  -5   97.13    2.75
   4   3   5   98.86    2.84
  -4   3  -5  101.75    2.89
   4  -3   5  104.06    2.87
  -4  -3  -5  102.20    3.20
   4  -3   5   96.80    2.86
   4  -3   5  101.72    2.67
   4  -3   5   96.37    2.67
   3   3   4   48.42    1.71
  -3   3  -4   49.21    1.50
  -3   3  -4   50.46    1.49
   3   3   4   49.63    1.60
  -3   3  -4   52.08    1.51
   3   3   4   49.91    1.55
  -3   3  -4   48.98    1.43
   3   3   4   50.02    1.61
  -3   3  -4   49.40    1.57
   3   3   4   49.65    1.48
  -3   3  -4   49.25    1.43
   3  -3   4   51.68    1.62
  -3  -3  -4   49.29    1.60
  -3  -3  -4   47.47    1.48
  -3  -3  -4   51.62    1.88
   3  -3   4   50.93    1.48
  -3  -3  -4   51.63    1.55
   3  -3   4   49.71    1.44
  -2   3  -3   48.53    1.37
  -2   3  -3   47.80    1.30
   2   3   3   48.33    1.43
   2   3   3   48.87    1.56
  -2   3  -3   50.36    1.38
   2   3   3   48.99    1.40
  -2   3  -3   46.85    1.43
   2   3   3   46.96    1.40
  -2   3  -3   46.94    1.41
   2   3   3   46.53    1.20
  -2   3  -3   47.00    1.40
   2   3   3   47.47    1.50
   2   3   3   45.76    1.62
   2  -3   3   48.50    1.40
  -2  -3  -3   48.22    1.72
  -2  -3  -3   48.60    1.37
   2  -3   3   48.52    1.41
   2  -3   3   48.59    1.49
  -2  -3  -3   48.96    1.50
   2  -3   3   49.40    1.34
  -2  -3  -3   48.11    1.40
   2  -3   3   47.18    1.37
   1   3   2   49.27    1.32
  -1   3  -2   49.37    1.41
  -1   3  -2   49.99    1.38
   1   3   2   47.79    1.49
   1   3   2   48.64    1.34
   1   3   2   48.96    1.48
   1   3   2   48.41    1.60
  -1   3  -2   49.39    1.28
   1   3   2   47.98    1.43
  -1   3  -2   49.94    1.24
  -1   3  -2   49.97    1.31
   1   3   2   48.44    1.30
  -1   3  -2   49.53    1.47
   1  -3   2   51.80    1.35
   1  -3   2   50.78    1.31
   1  -3   2   50.50    1.47
   1  -3   2   49.46    1.44
  -1  -3  -2   49.17    1.32
  -1  -3  -2   49.37    1.51
  -1  -3  -2   49.42    1.35
  -1  -3  -2   51.62    1.50
  -1  -3  -2   49.82    1.66
   0   3  -1  136.42    3.31
   0   3   1  129.18    3.16
   0   3   1  129.99    3.34
   0   3   1  134.04    3.38
   0   3   1  134.31    3.19
   0   3   1  132.19    3.27
   0   3   1  135.81    3.17
   0   3   1  125.60    3.14
   0   3  -1  132.86    3.45
   0   3  -1  131.74    3.24
   0   3  -1  137.65    3.35
   0   3   1  134.51    3.47
   0  -3   1  127.78    3.36
   0  -3   1  129.33    3.34
   0  -3   1  129.21    3.41
   0  -3  -1  133.51    3.55
   0  -3  -1  128.48    3.18
   0  -3  -1  129.84    3.17
   0  -3  -1  127.10    3.37
  -1   3   0  335.81    8.02
   1   3   0  345.79    8.17
  -1   3   0  344.09    8.01
   1   3   0  344.61    8.25
  -1   3   0  344.75    8.20
  -1   3   0  345.53    8.18
   1   3   0  343.65    8.01
  -1   3   0  350.09    8.06
   1   3   0  354.04    8.38
  -1   3   0  335.89    8.00
   1   3   0  339.80    7.98
   1   3   0  341.17    8.08
  -1   3   0  343.93    8.24
  -1  -3   0  350.04    8.25
  -1  -3   0  346.71    8.38
   1  -3   0  346.78    8.04
  -1  -3   0  336.28    7.99
   1  -3   0  342.53    8.24
  -1  -3   0  335.28    7.98
  -1  -3   0  317.85    8.18
  -1  -3   0  340.12    8.19
  -2   3  -1  107.95    2.79
  -2   3  -1  109.12    2.66
   2   3   1  109.08    2.79
  -2   3  -1  109.01    2.85
  -2   3  -1  108.91    2.70
   2   3   1  109.95    2.74
   2   3   1  110.89    2.92
   2   3   1  108.25    2.64
   2   3   1  111.75    3.06
   2   3   1  113.63    2.78
  -2   3  -1  110.94    2.76
  -2   3  -1  110.71    2.78
  -2  -3  -1  112.01    2.71
   2  -3   1  106.95    2.86
   2  -3   1  110.19    2.77
  -2  -3  -1  109.56    3.08
  -2  -3  -1  111.89    2.73
   2  -3   1  113.92    3.03
   2  -3   1  104.47    2.75
  -2  -3  -1  104.39    3.07
   2  -3   1  110.78    2.67
   3   3   2  122.97    3.15
  -3   3  -2  123.72    3.23
  -3   3  -2  128.67    3.21
  -3   3  -2  125.72    3.20
   3   3   2  123.81    3.19
   3   3   2  126.17    3.25
   3   3   2  126.48    3.32
  -3   3  -2  124.67    3.13
   3   3   2  127.99    3.41
   3   3   2  124.26    3.47
  -3   3  -2  125.29    3.07
   3  -3   2  119.11    3.20
  -3  -3  -2  124.82    3.26
  -3  -3  -2  122.65    3.17
   3  -3   2  121.78    3.20
   3  -3   2  123.24    3.06
  -3  -3  -2  124.25    3.53
  -3  -3  -2  122.72    3.14
  -4   3  -3   18.80    0.98
   4   3   3   22.05    0.91
   4   3   3   21.83    1.07
  -4   3  -3   20.46    0.63
  -4   3  -3   21.31    0.84
   4   3   3   21.26    0.78
   4   3   3   20.94    1.06
   4   3   3   20.83    0.93
  -4   3  -3   20.17    0.82
   4   3   3   20.65    0.92
  -4   3  -3   22.67    0.94
  -4   3  -3   20.28    0.79
  -4  -3  -3   20.90    1.14
   4  -3   3   19.56    0.72
  -4  -3  -3   19.32    0.85
  -4  -3  -3   19.04    0.84
   4  -3   3   19.88    0.89
   4  -3   3   20.60    0.96
   4  -3   3   20.46    0.81
  -4  -3  -3   19.40    0.82
  -5   3  -4   54.66    1.78
  -5   3  -4   50.08    1.67
   5   3   4   53.43    1.79
   5   3   4   51.85    1.59
   5   3   4   51.44    1.83
  -5   3  -4   53.36    1.61
  -5   3  -4   53.06    1.77
   5  -3   4   49.22    1.53
   5  -3   4   52.82    1.60
  -5  -3  -4   50.78    2.07
   5  -3   4   48.60    1.77
   5  -3   4   51.96    1.77
   6   3   5    0.35    0.45
  -6   3  -5    0.25    0.46
   6   3   5    0.57    0.31
  -6   3  -5    0.26    0.31
   6   3   5   -1.10    0.62
  -6   3  -5    0.37    0.38
   6  -3   5    0.72    0.28
   6  -3   5    0.79    0.42
   6  -3   5    0.18    0.36
  -6  -3  -5   -0.47    0.66
   6  -3   5    0.29    0.47
   7   3   6    9.30    1.11
   7   3   6    8.82    0.80
  -7   3  -6    8.46    1.40
   7   3   6    9.01    1.10
   7  -3   6    8.65    0.73
   7  -3   6   11.37    1.14
  -7  -3  -6    8.13    1.16
   8   3   7    2.01    0.90
   8   3   7   -0.01    0.79
   8   3   7    0.43    0.56
   8  -3   7   -1.70    0.89
  -8  -3  -7    0.29    1.21
   7   4   8    0.57    0.86
   7   4   8    0.39    0.68
   7   4   8   -0.25    0.96
  -7   4  -8    0.32    0.95
  -7  -4  -8    0.13    1.31
   6   4   7    6.84    0.76
   6   4   7    7.78    1.08
   6   4   7    6.23    0.87
   6  -4   7    8.24    1.07
   6  -4   7    7.67    0.74
  -6  -4  -7    4.70    1.21
   5   4   6    7.14    0.64
  -5   4  -6    7.65    0.55
   5   4   6    6.51    0.79
  -5   4  -6    8.57    0.98
  -5   4  -6    7.37    0.62
  -5   4  -6    7.50    0.64
   5   4   6    8.86    0.86
  -5  -4  -6    9.22    1.19
   5  -4   6    6.80    0.81
   5  -4   6    8.73    0.65
   4   4   5    0.20    0.33
  -4   4  -5    0.16    0.33
   4   4   5    0.54    0.34
  -4   4  -5    0.17    0.33
   4   4   5    0.00    0.25
  -4   4  -5    0.63    0.37
  -4   4  -5    0.24    0.21
  -4  -4  -5    1.25    0.67
   4  -4   5    0.01    0.27
   4  -4   5    0.24    0.23
   4  -4   5    0.66    0.36
  -3   4  -4    7.17    0.58
   3   4   4    7.84    0.57
  -3   4  -4    7.13    0.76
  -3   4  -4    6.84    0.47
   3   4   4    7.35    0.76
   3   4   4    6.83    0.64
   3   4   4    7.27    0.50
  -3   4  -4    7.80    0.46
  -3   4  -4    8.00    0.42
   3   4   4    9.35    0.58
   3  -4   4    6.36    0.44
   3  -4   4    6.12    0.49
  -3  -4  -4    6.32    0.50
  -3  -4  -4    7.71    0.88
   3  -4   4    7.07    0.54
   3  -4   4    6.79    0.54
   2   4   3    4.91    0.63
   2   4   3    4.72    0.27
  -2   4  -3    4.93    0.38
  -2   4  -3    4.62    0.41
   2   4   3    5.05    0.58
   2   4   3    5.56    0.43
  -2   4  -3    4.86    0.27
   2   4   3    5.52    0.53
   2   4   3    5.01    0.41
   2   4   3    5.33    0.42
  -2   4  -3    5.14    0.49
  -2   4  -3    4.36    0.40
  -2   4  -3    4.53    0.32
   2  -4   3    5.52    0.51
  -2  -4  -3    4.33    0.33
  -2  -4  -3    5.22    0.75
   2  -4   3    5.20    0.48
   2  -4   3    4.10    0.35
  -2  -4  -3    4.51    0.49
  -2  -4  -3    4.31    0.36
   2  -4   3    4.91    0.36
   1   4   2   11.01    0.74
   1   4   2   12.37    0.62
  -1   4  -2   13.19    0.69
   1   4   2   12.53    0.66
  -1   4  -2   11.24    0.55
   1   4   2   13.12    0.49
   1   4   2   12.25    0.67
  -1   4  -2   12.61    0.50
   1   4   2   11.94    0.48
   1   4   2   12.19    0.49
  -1   4  -2   11.95    0.56
  -1  -4  -2   11.50    0.69
  -1  -4  -2   10.97    0.47
   1  -4   2   12.20    0.65
  -1  -4  -2   12.09    0.47
  -1  -4  -2   11.74    0.63
   1  -4   2   11.23    0.41
   1  -4   2   11.81    0.64
   1  -4   2   11.72    0.63
  -1  -4  -2   11.60    0.82
   0   4   1   30.33    0.83
   0   4   1   29.43    1.05
   0   4  -1   28.63    1.16
   0   4   1   31.00    0.79
   0   4   1   31.64    1.10
   0   4   1   29.77    0.86
   0   4  -1   29.55    0.96
   0   4   1   31.16    0.96
   0   4  -1   28.96    1.02
   0   4  -1   30.05    0.95
   0   4  -1   28.54    1.04
   0   4   1   30.67    1.17
   0  -4  -1   30.61    1.11
   0  -4   1   29.13    1.07
   0  -4   1   28.17    1.01
   0  -4   1   28.51    1.14
   0  -4  -1   27.95    1.19
  -1   4   0  228.74    5.66
   1   4   0  227.36    5.44
   1   4   0  236.59    5.80
  -1   4   0  227.15    5.34
  -1   4   0  225.67    5.35
   1   4   0  228.04    5.30
  -1   4   0  208.02    5.29
  -1   4   0  232.63    5.36
  -1   4   0  224.45    5.53
  -1   4   0  223.96    5.27
  -1   4   0  234.71    5.60
   1   4   0  229.62    5.64
   1   4   0  222.31    5.53
   1  -4   0  223.44    5.65
  -1  -4   0  217.08    5.28
   1  -4   0  225.56    5.63
   1  -4   0  207.07    5.33
  -1  -4   0  221.08    5.62
  -1  -4   0  222.29    5.78
   2   4   1   48.20    1.29
  -2   4  -1   47.44    1.45
  -2   4  -1   47.67    1.22
  -2   4  -1   47.66    1.40
  -2   4  -1   47.66    1.31
   2   4   1   45.08    1.67
  -2   4  -1   47.86    1.48
   2   4   1   45.28    1.40
   2   4   1   47.27    1.29
   2   4   1   44.92    1.52
  -2   4  -1   46.49    1.28
   2   4   1   48.55    1.34
  -2  -4  -1   47.16    1.49
  -2  -4  -1   45.48    1.27
   2  -4   1   47.11    1.50
  -2  -4  -1   47.64    1.27
   2  -4   1   47.08    1.31
   2  -4   1   47.30    1.46
   2  -4   1   47.72    1.31
  -2  -4  -1   45.67    1.71
   3   4   2   35.72    1.36
   3   4   2   36.21    0.93
  -3   4  -2   36.03    1.24
   3   4   2   34.75    1.47
  -3   4  -2   37.13    1.14
   3   4   2   36.35    1.20
   3   4   2   35.29    1.39
   3   4   2   37.24    1.18
  -3   4  -2   34.44    1.23
  -3   4  -2   36.27    1.14
  -3   4  -2   36.65    1.07
   3   4   2   37.07    1.18
  -3  -4  -2   36.11    1.28
  -3  -4  -2   36.06    1.10
   3  -4   2   37.62    1.27
   3  -4   2   36.81    1.05
   3  -4   2   36.25    1.17
  -3  -4  -2   34.56    1.71
   3  -4   2   35.73    1.17
  -3  -4  -2   35.52    1.12
  -4   4  -3   13.37    0.69
   4   4   3   13.58    0.63
  -4   4  -3   13.05    0.76
  -4   4  -3   13.08    0.53
   4   4   3   12.58    1.24
  -4   4  -3   13.31    0.66
   4   4   3   13.50    0.78
   4   4   3   13.00    0.73
  -4   4  -3   13.82    0.61
   4  -4   3   13.01    0.73
   4  -4   3   12.77    0.55
   4  -4   3   13.04    0.70
  -4  -4  -3   13.42    1.04
  -5   4  -4   11.38    0.65
   5   4   4   10.88    0.80
  -5   4  -4    9.74    0.65
  -5   4  -4   11.40    0.83
   5   4   4   10.83    0.86
   5   4   4   11.46    0.66
   5  -4   4   10.35    0.72
   5  -4   4    9.54    0.70
  -5  -4  -4   10.83    1.17
   5  -4   4   10.11    0.58
   5  -4   4   10.31    0.79
  -6   4  -5    7.60    0.95
  -6   4  -5    5.90    0.63
   6   4   5    8.88    0.68
   6   4   5    6.45    0.90
   6   4   5    7.30    0.90
   6  -4   5    8.34    0.93
   6  -4   5    6.15    0.79
  -6  -4  -5    7.31    1.11
   6  -4   5    6.91    0.69
   6  -4   5    6.85    0.68
  -7   4  -6    7.09    0.95
   7   4   6    8.64    0.84
   7   4   6    7.56    1.13
   7   4   6    9.29    1.18
   7  -4   6    8.16    0.89
   7  -4   6    6.18    0.88
  -7  -4  -6    8.06    1.31
   6   5   7    4.18    0.82
   6   5   7    4.61    0.84
   6   5   7    5.76    0.81
  -6  -5  -7    6.56    1.41
   5   5   6    0.68    0.38
   5   5   6    0.71    0.51
   5   5   6    0.59    0.44
  -5   5  -6    0.97    0.54
  -5  -5  -6    2.25    0.95
   5  -5   6    1.01    0.43
   5  -5   6    0.62    0.55
  -4   5  -5   14.00    0.89
  -4   5  -5   11.93    0.66
   4   5   5   11.99    0.88
   4   5   5   12.81    0.74
  -4   5  -5   12.56    0.62
  -4   5  -5   13.22    0.76
   4   5   5    9.60    1.00
   4  -5   5   13.06    0.68
   4  -5   5   12.18    0.77
  -4  -5  -5   12.98    1.32
   4  -5   5   12.12    0.98
   4  -5   5   12.90    0.79
  -3   5  -4   16.24    0.85
   3   5   4   16.54    0.82
  -3   5  -4   16.11    0.69
   3   5   4   16.36    0.81
   3   5   4   16.01    0.85
  -3   5  -4   16.61    0.80
  -3   5  -4   15.76    0.59
  -3   5  -4   15.01    0.75
   3  -5   4   15.95    0.70
  -3  -5  -4   16.14    1.28
   3  -5   4   15.51    0.86
   3  -5   4   16.73    0.75
   3  -5   4   15.53    0.74
  -2   5  -3   21.63    0.63
   2   5   3   21.78    0.85
  -2   5  -3   21.51    0.83
   2   5   3   22.38    1.06
  -2   5  -3   22.09    0.79
   2   5   3   21.26    0.71
  -2   5  -3   22.83    1.01
   2   5   3   22.53    0.94
   2   5   3   22.09    0.83
  -2   5  -3   22.32    0.74
  -2  -5  -3   21.28    1.31
  -2  -5  -3   20.65    0.78
   2  -5   3   22.11    0.74
   2  -5   3   21.70    0.98
   1   5   2   53.88    1.71
   1   5   2   54.47    1.50
  -1   5  -2   53.55    1.65
   1   5   2   54.05    1.47
   1   5   2   55.24    1.73
  -1   5  -2   54.20    1.49
   1   5   2   52.57    1.53
   1   5   2   54.52    1.45
   1   5   2   52.70    1.94
  -1   5  -2   55.83    1.83
   1   5   2   48.49    1.77
  -1   5  -2   54.04    1.66
   1  -5   2   56.34    1.76
  -1  -5  -2   54.90    1.82
  -1  -5  -2   53.76    1.99
  -1  -5  -2   52.78    1.49
  -1  -5  -2   55.08    1.49
   1  -5   2   56.32    1.76
   1  -5   2   53.87    1.38
   0   5  -1   33.15    1.28
   0   5  -1   32.28    1.25
   0   5   1   35.86    1.27
   0   5   1   32.42    1.36
   0   5   1   33.61    0.97
   0   5   1   31.53    1.08
   0   5   1   37.32    1.25
   0   5   1   33.25    0.91
   0   5  -1   30.85    1.32
   0   5  -1   30.68    1.09
   0   5  -1   32.35    1.07
   0  -5   1   31.51    1.24
   0  -5  -1   32.23    1.27
   0  -5   1   31.25    1.33
   0  -5  -1   32.49    1.40
  -1   5   0   37.58    1.36
   1   5   0   39.34    1.54
  -1   5   0   38.69    1.03
  -1   5   0   38.32    1.05
   1   5   0   38.15    1.18
  -1   5   0   38.73    1.34
   1   5   0   37.77    1.31
   1   5   0   39.52    1.59
  -1   5   0   36.61    1.25
  -1   5   0   37.29    1.42
   1  -5   0   38.09    1.41
  -1  -5   0   40.61    1.43
   1  -5   0   37.69    1.44
  -1  -5   0   38.78    1.58
   2   5   1   27.73    0.82
  -2   5  -1   27.12    0.79
   2   5   1   28.66    0.89
  -2   5  -1   27.96    0.87
   2   5   1   26.91    0.85
  -2   5  -1   27.30    1.06
   2   5   1   27.04    1.02
  -2   5  -1   27.02    0.75
   2   5   1   26.41    1.31
  -2   5  -1   26.07    1.00
  -2   5  -1   27.33    1.10
   2   5   1   23.26    1.14
  -2   5  -1   27.44    0.72
   2  -5   1   27.63    0.81
  -2  -5  -1   25.50    0.81
   2  -5   1   28.20    1.16
  -2  -5  -1   27.10    1.08
   2  -5   1   26.46    1.07
  -2  -5  -1   25.09    1.33
  -2  -5  -1   26.24    0.81
   3   5   2   11.57    0.62
  -3   5  -2   11.42    0.57
   3   5   2    9.91    0.41
  -3   5  -2   10.77    0.44
  -3   5  -2   11.45    0.67
  -3   5  -2   12.56    0.68
   3   5   2   12.07    0.91
   3   5   2   10.29    0.62
   3   5   2   10.23    0.60
   3  -5   2   10.75    0.54
  -3  -5  -2    8.79    0.78
   3  -5   2   10.49    0.76
  -3  -5  -2   10.30    1.02
  -3  -5  -2    9.69    0.49
   3  -5   2    8.51    0.52
  -4   5  -3   31.30    1.20
  -4   5  -3   31.16    1.05
   4   5   3   32.05    1.25
  -4   5  -3   31.20    1.11
   4   5   3   32.88    1.21
  -4   5  -3   32.07    1.15
   4   5   3   31.87    1.14
  -4  -5  -3   31.32    1.71
   4  -5   3   30.55    1.15
   4  -5   3   30.08    1.20
   4  -5   3   31.41    1.29
   4  -5   3   31.87    1.01
   5   5   4    3.40    0.54
   5   5   4    3.47    0.50
   5   5   4    3.39    0.52
  -5   5  -4    3.63    0.52
  -5   5  -4    3.27    0.39
  -5   5  -4    3.19    0.46
   5  -5   4    3.37    0.50
   5  -5   4    3.00    0.30
   5  -5   4    3.12    0.45
   5  -5   4    3.43    0.56
  -5  -5  -4    2.53    0.79
   6   5   5    4.25    0.68
   6   5   5    4.88    0.65
  -6   5  -5    2.93    0.73
   6   5   5    4.02    0.65
  -6  -5  -5    5.00    1.11
   6  -5   5    4.71    0.69
   6  -5   5    3.66    0.59
   7   5   6    2.28    0.60
   7   5   6    3.55    0.83
   7   5   6    1.88    0.77
  -7   5  -6    1.09    1.21
  -7  -5  -6    1.50    1.14
   7  -5   6    1.35    0.67
   6   6   7    0.16    0.74
   6   6   7    0.11    0.95
   6   6   7    0.32    0.83
  -6  -6  -7    1.30    1.63
   5   6   6    4.01    0.59
  -5   6  -6    3.87    0.69
   5   6   6    3.36    0.70
   5   6   6    3.54    0.69
  -5  -6  -6    1.98    1.17
   5  -6   6    4.05    0.63
  -4   6  -5    9.58    0.94
   4   6   5    8.55    0.73
   4   6   5    8.72    0.88
  -4   6  -5    9.58    0.85
   4   6   5   10.24    0.87
  -4  -6  -5   10.35    1.45
   4  -6   5   10.12    0.88
  -3   6  -4   11.54    0.61
  -3   6  -4   11.58    0.85
  -3   6  -4   10.90    0.72
  -3   6  -4   11.21    0.46
   3   6   4   11.09    0.79
   3   6   4   11.45    0.76
   3   6   4   11.79    0.75
   3   6   4   10.68    0.43
  -3  -6  -4   11.90    1.30
   3  -6   4   11.32    0.60
   3  -6   4   12.36    0.63
   3  -6   4   12.94    0.88
  -2   6  -3   20.47    1.10
   2   6   3   20.97    0.75
   2   6   3   21.61    1.11
   2   6   3   22.21    1.00
  -2   6  -3   22.24    0.67
   2   6   3   21.42    0.88
   2   6   3   19.78    0.79
  -2   6  -3   22.04    0.79
   2   6   3   19.33    1.13
   2  -6   3   20.23    0.71
   2  -6   3   20.78    1.09
  -2  -6  -3   19.01    1.43
   1   6   2   20.00    0.72
  -1   6  -2   18.06    0.94
   1   6   2   19.29    0.64
   1   6   2   19.47    0.77
  -1   6  -2   17.62    1.06
  -1   6  -2   19.11    0.74
   1   6   2   21.63    1.01
   1   6   2   19.49    0.64
   1   6   2   19.72    0.77
   1   6   2   20.42    0.98
  -1  -6  -2   21.48    1.33
   1  -6   2   19.85    1.05
  -1  -6  -2   19.62    1.13
   1  -6   2   20.04    1.05
  -1  -6  -2   19.55    0.71
   0   6   1  113.95    3.11
   0   6  -1  112.19    2.96
   0   6  -1  110.23    3.13
   0   6   1  113.51    2.74
   0   6   1  115.92    3.05
   0   6  -1  106.07    3.36
   0   6   1  113.88    3.19
   0  -6   1  113.46    3.36
   0  -6  -1  113.68    3.29
   0  -6   1  114.58    3.25
   0  -6  -1  109.53    3.43
   1   6   0    3.40    0.46
   1   6   0    2.65    0.39
   1   6   0    3.29    0.37
  -1   6   0    2.92    0.38
  -1   6   0    2.63    0.53
  -1   6   0    2.95    0.52
  -1  -6   0    2.83    0.51
  -1  -6   0    2.17    0.66
   1  -6   0    4.17    0.65
   1  -6   0    3.78    0.56
   2   6   1   32.88    1.00
  -2   6  -1   31.89    1.32
   2   6   1   32.23    1.03
  -2   6  -1   32.50    0.94
   2   6   1   31.74    1.34
  -2   6  -1   33.64    0.99
   2   6   1   32.77    1.22
  -2  -6  -1   31.11    0.95
   2  -6   1   31.81    0.96
   2  -6   1   34.37    1.33
  -2  -6  -1   32.11    1.64
   2  -6   1   31.42    1.39
  -3   6  -2   13.85    0.70
  -3   6  -2   14.12    0.63
  -3   6  -2   13.62    0.47
   3   6   2   14.62    0.74
  -3   6  -2   14.14    0.85
   3   6   2   14.56    0.78
   3   6   2   13.20    0.67
   3   6   2   14.47    0.54
   3  -6   2   13.86    0.58
   3  -6   2   13.55    0.95
   4   6   3    0.99    0.35
   4   6   3    0.96    0.38
   4   6   3    0.67    0.36
  -4   6  -3    1.11    0.36
  -4   6  -3    1.19    0.21
  -4   6  -3    0.68    0.37
  -4   6  -3    1.08    0.40
  -4  -6  -3    0.01    0.67
   4  -6   3    0.87    0.45
   4  -6   3    0.68    0.36
   4  -6   3    1.10    0.34
   5   6   4    2.01    0.51
   5   6   4    1.39    0.50
   5   6   4    1.41    0.38
  -5   6  -4    1.65    0.48
  -5  -6  -4   -0.27    0.82
   5  -6   4    2.10    0.56
   6   6   5    2.28    0.70
   6   6   5    2.74    0.55
  -6  -6  -5    2.03    1.24
   6  -6   5    2.44    0.76
   5   7   6    0.52    0.62
   5   7   6    0.09    0.82
   5   7   6   -0.94    0.73
  -5  -7  -6    2.11    1.55
   4   7   5    2.50    0.60
   4   7   5    2.71    0.56
   4   7   5    2.27    0.61
   4  -7   5    1.59    1.23
  -4  -7  -5    5.21    1.29
   3   7   4    2.75    0.53
   3   7   4    2.93    0.47
  -3   7  -4    3.12    0.41
   3   7   4    2.91    0.50
  -3   7  -4    2.64    0.46
  -3  -7  -4    2.73    0.95
   3  -7   4    2.89    0.71
   2   7   3   10.12    0.60
  -2   7  -3   10.89    0.62
   2   7   3   10.47    0.68
   2   7   3   11.53    0.56
   2   7   3   10.01    0.81
  -2   7  -3   12.47    1.08
   2   7   3   11.24    0.85
   2   7   3   10.51    0.75
   2  -7   3   11.28    1.01
  -2  -7  -3    9.94    1.32
   1   7   2   41.51    1.39
  -1   7  -2   44.03    1.67
  -1   7  -2   41.96    1.30
   1   7   2   41.69    1.27
   1   7   2   43.08    1.26
   1   7   2   42.61    1.72
   1  -7   2   42.88    1.75
  -1  -7  -2   44.29    2.03
  -1  -7  -2   43.38    1.78
   0   7  -1    5.22    0.63
   0   7  -1    4.00    0.52
   0   7   1    3.69    0.59
   0   7   1    4.14    0.54
   0   7   1    4.30    0.49
   0  -7   1    3.96    0.74
   0  -7   1    3.30    0.72
   0  -7  -1    5.45    0.70
   0  -7  -1    5.58    0.89
   1   7   0   19.47    0.95
   1   7   0   18.49    1.00
  -1   7   0   18.23    1.60
  -1   7   0   19.14    0.77
   1  -7   0   16.89    1.35
  -1  -7   0   19.97    1.21
  -1  -7   0   19.06    1.38
   1  -7   0   18.52    1.22
  -2   7  -1    0.96    0.24
   2   7   1    1.34    0.75
  -2   7  -1    1.44    0.61
  -2   7  -1    0.52    0.48
   2   7   1    1.26    0.42
   2   7   1    0.56    0.30
   2  -7   1    0.73    1.00
   2  -7   1    1.66    0.51
  -2  -7  -1    1.37    0.67
  -3   7  -2    4.12    0.69
  -3   7  -2    4.93    0.37
   3   7   2    4.14    0.45
   3   7   2    4.48    0.62
   3   7   2    4.72    0.57
   3   7   2    5.29    0.44
   3  -7   2    4.70    0.86
  -3  -7  -2    3.85    0.93
  -4   7  -3    6.00    0.55
   4   7   3    5.89    0.71
   4   7   3    6.14    0.76
   4   7   3    5.47    0.75
   4  -7   3    6.90    1.00
  -4  -7  -3    6.30    1.12
   5   7   4    2.04    0.63
   5   7   4    1.05    0.45
   5   7   4    2.29    0.63
   5  -7   4    1.92    0.68
  -5  -7  -4    2.42    1.16
   6   7   5    1.23    0.78
   6   7   5    1.88    0.69
   6   7   5    1.98    1.38
  -6  -7  -5    2.38    1.74
   6  -7   5    0.35    0.77
   4   8   5    2.94    0.68
   4   8   5    2.80    0.73
   4   8   5    1.87    0.77
   4  -8   5    3.16    0.87
   3   8   4    1.82    0.56
   3   8   4    1.67    0.60
  -3  -8  -4    2.76    1.15
   3  -8   4    3.60    0.72
   2   8   3    2.23    0.41
   2   8   3    2.97    0.65
   2   8   3    2.01    0.43
  -2   8  -3    2.69    0.69
   2  -8   3    2.83    0.69
  -2  -8  -3    1.06    0.90
   1   8   2    0.51    0.51
  -1   8  -2    0.37    0.28
  -1   8  -2    1.56    0.61
   1  -8   2    0.96    0.59
  -1  -8  -2    0.22    0.78
  -1  -8  -2    1.57    0.80
   0   8   1    6.33    0.86
   0   8  -1    5.70    0.87
   0   8  -1    5.02    0.54
   0   8   1    5.78    0.72
   0  -8  -1    8.19    1.05
   0  -8   1    6.32    0.94
   0  -8   1    4.94    0.80
   0  -8  -1    7.36    1.06
  -1   8   0    8.80    0.55
   1   8   0    7.43    0.82
   1   8   0    6.84    0.91
  -1   8   0    7.89    1.00
  -1  -8   0    7.51    1.13
   1  -8   0    8.88    1.11
   1  -8   0   10.81    1.40
  -1  -8   0    6.60    0.84
  -2   8  -1    4.75    0.74
   2   8   1    3.91    0.67
   2   8   1    4.67    0.67
   2  -8   1    3.26    0.67
  -2  -8  -1    5.16    0.96
   2  -8   1    5.29    0.80
  -3   8  -2    5.37    0.83
   3   8   2    4.17    0.47
   3   8   2    4.07    0.48
   3   8   2    3.54    0.58
   3  -8   2    5.25    0.83
  -3  -8  -2    5.08    1.12
   4   8   3    0.10    0.48
   4   8   3    0.01    0.51
  -4  -8  -3    1.51    1.14
   4  -8   3   -1.32    0.74
   2   9   3    1.43    0.74
  -2   9  -3    3.33    0.90
  -2  -9  -3    2.02    1.38
   2  -9   3    2.26    0.92
   1   9   2   10.19    1.24
  -1   9  -2   11.42    1.25
   1  -9   2    7.69    1.01
  -1  -9  -2   11.28    1.46
   0   9   1    5.09    0.88
   0   9  -1    6.44    0.88
   0  -9   1    5.91    1.05
   0  -9   1    4.64    0.90
   0  -9  -1    6.16    1.09
   0  -9  -1    5.94    1.02
  -1   9   0    3.37    0.79
   1   9   0    2.91    0.74
   1  -9   0    3.70    0.91
   1  -9   0    3.57    1.01
  -1  -9   0    4.24    1.15
  -2   9  -1   -0.22    0.77
   2   9   1    0.19    0.65
   2  -9   1    0.10    0.87
  -2  -9  -1    0.55    1.12
   3  -9   2   -0.32    0.87
  -7   0  -9    1.07    1.03
   7   0   9    0.44    0.56
   7   0   9   -0.20    0.74
  -7   0  -9    1.75    1.19
   6   0   8    3.06    0.54
  -6   0  -8    3.79    0.73
   6   0   8    2.63    0.61
  -6   0  -8    1.20    0.70
   6   0   8    3.88    0.69
  -5   0  -7   -0.24    0.46
   5   0   7   -0.25    0.38
  -5   0  -7    0.16    0.18
  -5   0  -7    0.34    0.50
  -5   0  -7    0.54    0.37
   5   0   7    0.48    0.39
   5   0   7    0.24    0.30
  -4   0  -6    4.42    0.57
  -4   0  -6    3.32    0.38
   4   0   6    3.34    0.41
   4   0   6    3.22    0.44
  -4   0  -6    4.00    0.60
   4   0   6    3.56    0.49
   4   0   6    2.53    0.42
  -4   0  -6    3.41    0.49
  -4   0  -6    3.69    0.42
   4   0   6    3.36    0.43
  -4   0  -6    3.42    0.26
   3   0   5  123.03    3.12
  -3   0  -5  121.10    3.43
   3   0   5  125.17    3.30
  -3   0  -5  125.93    3.16
   3   0   5  125.93    3.32
  -3   0  -5  124.57    3.23
   3   0   5  125.03    3.37
  -3   0  -5  124.96    3.29
   3   0   5  124.55    3.17
  -3   0  -5  125.18    3.06
  -2   0  -4  556.30   13.01
  -2   0  -4  558.99   12.94
  -2   0  -4  547.35   13.05
  -2   0  -4  545.90   13.16
   2   0   4  545.67   12.91
   2   0   4  529.92   13.08
   2   0   4  576.04   13.09
   2   0   4  549.95   13.04
   1   0   3  321.69    7.55
   1   0   3  309.16    7.45
   1   0   3  310.39    7.51
  -1   0  -3  323.66    7.46
  -1   0  -3  315.44    7.54
  -1   0  -3  319.94    7.43
  -1   0  -3  326.36    7.51
   1   0   3  314.30    7.44
   1   0   3  311.96    7.54
   0   0   2   43.77    1.10
   0   0   2   44.25    1.10
   0   0   2   43.00    1.12
   0   0   2   42.24    1.06
   0   0  -2   43.97    1.04
   0   0   2   42.10    1.07
   0   0  -2   41.85    1.07
   0   0  -2   43.70    1.12
   0   0  -2   42.48    1.10
   2   0   0    0.55    0.10
  -2   0   0    0.51    0.12
  -2   0   0    0.35    0.10
   2   0   0    0.29    0.10
   2   0   0    0.49    0.12
   2   0   0    0.40    0.09
  -2   0   0    0.27    0.09
  -2   0   0    0.25    0.07
  -3   0  -1   85.64    2.11
  -3   0  -1   84.80    2.22
   3   0   1   82.46    2.13
   3   0   1   84.42    2.25
   3   0   1   82.86    2.13
   3   0   1   84.59    2.22
  -3   0  -1   80.37    2.43
   3   0   1   85.75    2.25
  -3   0  -1   83.13    2.15
  -4   0  -2   16.42    0.59
   4   0   2   16.14    0.75
  -4   0  -2   16.31    0.54
   4   0   2   16.51    0.65
  -4   0  -2   15.94    0.69
  -4   0  -2   16.18    0.66
   4   0   2   17.09    0.74
  -4   0  -2   15.50    0.70
   4   0   2   16.94    0.79
  -5   0  -3   96.44    2.57
   5   0   3   97.04    2.65
   5   0   3   98.33    2.80
  -5   0  -3   99.67    2.77
  -5   0  -3   96.32    2.68
  -5   0  -3   97.76    2.71
   5   0   3   97.10    2.79
   5   0   3  102.41    2.87
  -5   0  -3   99.46    2.49
   6   0   4    1.62    0.43
   6   0   4    1.42    0.36
  -6   0  -4    1.01    0.41
  -6   0  -4    1.01    0.35
  -6   0  -4    1.20    0.20
   6   0   4    0.64    0.33
  -6   0  -4    1.15    0.38
  -7   0  -5    1.24    0.56
   7   0   5    0.60    0.46
   7   0   5    1.82    0.44
  -7   0  -5    1.51    0.23
   7   0   5    1.13    0.63
  -7   0  -5    1.22    0.51
  -8   0  -6    5.44    0.80
   8   0   6    5.71    0.86
   8   0   6    6.56    0.82
   8   0   6    4.98    0.88
   9   0   7   -0.89    0.88
   9   0   7   -0.34    0.93
   9   0   7    1.10    0.77
   7   1   9    4.69    0.70
  -7   1  -9    2.88    1.06
   7   1   9    3.96    0.87
   7   1   9    1.13    0.82
  -7  -1  -9    2.97    1.19
   7  -1   9    3.98    0.88
   7  -1   9    2.85    0.67
  -6   1  -8    1.51    0.69
   6   1   8    1.03    0.38
   6   1   8    1.40    0.53
  -6   1  -8    1.51    0.67
   6   1   8    0.73    0.56
  -6  -1  -8    1.02    0.69
  -6  -1  -8    1.85    0.76
   6  -1   8    1.09    0.58
   6  -1   8    1.71    0.74
   6  -1   8    0.44    0.54
   5   1   7    9.42    0.66
   5   1   7   11.75    0.95
   5   1   7   10.00    0.68
  -5   1  -7   11.32    0.81
   5   1   7   10.06    0.82
  -5   1  -7   10.57    0.50
  -5   1  -7   10.43    0.84
  -5   1  -7   11.87    1.11
   5  -1   7   10.29    0.88
  -5  -1  -7   10.07    1.05
   5  -1   7   11.55    0.92
   5  -1   7   10.57    0.76
  -5  -1  -7   12.51    1.02
  -4   1  -6    3.88    0.30
   4   1   6    3.36    0.41
   4   1   6    4.09    0.58
  -4   1  -6    3.54    0.39
  -4   1  -6    3.95    0.50
   4   1   6    3.83    0.56
  -4   1  -6    3.40    0.54
  -4   1  -6    4.62    0.46
   4   1   6    4.71    0.43
   4  -1   6    2.64    0.34
  -4  -1  -6    2.20    0.52
   4  -1   6    4.06    0.45
   4  -1   6    4.41    0.55
  -4  -1  -6    4.46    0.55
   4  -1   6    3.25    0.45
  -4  -1  -6    3.75    0.50
  -4  -1  -6    4.86    0.70
  -4  -1  -6    4.37    0.47
   4  -1   6    3.67    0.60
   3   1   5    5.52    0.58
   3   1   5    7.14    0.44
   3   1   5    7.17    0.50
   3   1   5    7.00    0.34
   3   1   5    8.11    0.57
  -3   1  -5    7.17    0.45
  -3   1  -5    7.40    0.63
  -3   1  -5    7.04    0.39
  -3   1  -5    7.18    0.49
  -3   1  -5    7.32    0.37
   3   1   5    7.50    0.43
  -3  -1  -5    7.61    0.69
   3  -1   5    6.82    0.46
  -3  -1  -5    8.40    0.48
   3  -1   5    7.73    0.52
  -3  -1  -5    7.80    0.68
   3  -1   5    7.34    0.47
   3  -1   5    8.07    0.48
  -3  -1  -5    8.25    0.52
   3  -1   5    6.91    0.57
  -3  -1  -5    8.11    0.46
   2   1   4   25.89    0.71
   2   1   4   26.88    0.94
  -2   1  -4   26.77    0.80
  -2   1  -4   28.16    0.79
   2   1   4   25.24    0.96
   2   1   4   25.96    0.85
  -2   1  -4   25.88    0.87
  -2   1  -4   27.07    0.98
   2   1   4   26.80    0.90
   2   1   4   26.15    0.81
  -2   1  -4   26.36    0.86
   2  -1   4   25.97    0.90
  -2  -1  -4   24.66    1.03
  -2  -1  -4   25.69    0.86
   2  -1   4   25.94    0.87
   2  -1   4   26.40    0.85
   2  -1   4   25.30    0.90
  -2  -1  -4   26.29    0.91
  -2  -1  -4   26.85    0.85
   2  -1   4   26.13    0.83
  -2  -1  -4   24.59    1.03
  -1   1  -3  139.88    3.34
   1   1   3  141.91    3.39
  -1   1  -3  140.99    3.38
   1   1   3  136.01    3.46
  -1   1  -3  139.37    3.39
  -1   1  -3  139.44    3.41
   1   1   3  136.49    3.29
   1   1   3  143.10    3.41
   1   1   3  146.15    3.52
   1   1   3  143.44    3.42
   1  -1   3  134.16    3.43
   1  -1   3  138.10    3.40
   1  -1   3  139.66    3.41
  -1  -1  -3  143.40    3.45
   1  -1   3  129.48    3.45
  -1  -1  -3  138.16    3.43
   1  -1   3  136.91    3.36
  -1  -1  -3  142.42    3.55
   0   1   2  315.84    7.22
   0   1  -2  318.09    7.19
   0   1   2  304.47    7.20
   0   1   2  302.77    7.21
   0   1   2  306.29    7.21
   0   1  -2  317.85    7.15
   0  -1   2  301.47    7.19
   0  -1  -2  295.14    7.21
   0  -1  -2  307.33    7.23
   0  -1  -2  289.71    7.20
   0  -1  -2  315.78    7.20
   0  -1  -2  294.54    7.23
   2   1   0  192.43    4.59
  -2   1   0  202.99    4.69
   2   1   0  190.29    4.57
  -2   1   0  193.59    4.57
   2   1   0  185.89    4.50
   2   1   0  194.03    4.67
  -2   1   0  194.07    4.58
  -2  -1   0  190.02    4.56
  -2  -1   0  187.46    4.58
  -2  -1   0  188.92    4.66
   2  -1   0  183.77    4.51
  -2  -1   0  185.93    4.51
   2  -1   0  186.09    4.58
   2  -1   0  190.01    4.62
   3   1   1   82.04    2.19
   3   1   1   82.23    2.09
  -3   1  -1   83.30    2.12
  -3   1  -1   82.12    2.13
   3   1   1   83.79    2.23
  -3   1  -1   83.15    2.17
  -3   1  -1   83.26    2.21
  -3   1  -1   81.21    1.98
   3   1   1   83.84    2.25
  -3   1  -1   81.74    2.18
   3   1   1   83.86    2.28
  -3  -1  -1   81.84    2.09
   3  -1   1   82.16    2.16
   3  -1   1   81.98    2.23
  -3  -1  -1   84.00    2.16
  -3  -1  -1   84.88    2.20
   3  -1   1   84.12    2.17
   3  -1   1   81.95    2.20
  -4   1  -2  104.34    2.60
   4   1   2  105.79    2.90
  -4   1  -2  106.54    2.76
   4   1   2  101.65    2.67
   4   1   2  102.81    2.81
  -4   1  -2  104.72    2.68
  -4   1  -2  105.38    2.82
   4   1   2  106.59    2.83
  -4   1  -2  105.31    2.67
   4   1   2  104.19    2.86
  -4   1  -2  103.84    2.83
  -4  -1  -2  102.01    2.74
   4  -1   2  107.56    2.79
   4  -1   2  104.94    2.76
   4  -1   2  103.85    2.82
  -4  -1  -2  109.09    2.68
  -4  -1  -2  103.62    2.80
   4  -1   2  103.08    2.86
  -4  -1  -2  104.64    2.52
  -4  -1  -2  103.97    2.87
  -5   1  -3   64.55    1.83
  -5   1  -3   64.53    1.95
   5   1   3   68.04    2.08
  -5   1  -3   67.37    1.84
   5   1   3   66.47    2.13
  -5   1  -3   66.44    2.11
   5   1   3   68.37    1.91
  -5   1  -3   66.99    2.04
  -5   1  -3   65.35    1.85
   5   1   3   65.42    2.12
  -5  -1  -3   67.09    2.10
  -5  -1  -3   67.45    1.66
  -5  -1  -3   68.46    1.97
   5  -1   3   67.87    2.08
   5  -1   3   66.19    2.14
   5  -1   3   66.02    2.24
  -5  -1  -3   67.48    1.88
  -5  -1  -3   69.91    2.05
   5  -1   3   70.42    2.00
  -6   1  -4   39.59    1.62
   6   1   4   39.73    1.37
   6   1   4   41.39    1.57
  -6   1  -4   40.18    1.41
  -6   1  -4   40.07    1.38
   6   1   4   41.52    1.63
  -6   1  -4   39.56    1.22
  -6   1  -4   39.94    1.47
   6  -1   4   39.71    1.45
   6  -1   4   39.26    1.61
  -6  -1  -4   39.99    1.45
  -6  -1  -4   40.15    1.05
  -6  -1  -4   38.17    1.56
   6  -1   4   38.41    1.45
   6  -1   4   40.45    1.58
   7   1   5    0.70    0.46
  -7   1  -5    0.97    0.47
  -7   1  -5    2.01    0.28
   7   1   5    1.29    0.42
  -7   1  -5    1.97    0.43
   7   1   5    1.39    0.53
  -7  -1  -5    1.70    0.56
  -7  -1  -5    1.34    0.17
   7  -1   5    1.05    0.49
   7  -1   5    1.07    0.53
   7  -1   5    1.31    0.46
   8   1   6    1.71    0.67
   8   1   6    2.89    0.71
   8   1   6    3.25    0.59
   8  -1   6    2.96    0.75
   8  -1   6    3.39    0.64
  -8  -1  -6    3.69    0.87
   8  -1   6    1.86    0.76
   9   1   7   -1.65    0.89
   9   1   7   -0.65    1.04
   9   1   7    1.61    0.82
   9  -1   7    0.33    0.89
   9  -1   7    2.09    0.86
   7   2   9    0.06    0.84
   7   2   9    1.11    0.57
   7   2   9    0.64    0.89
  -7   2  -9    2.62    0.97
   7  -2   9    1.43    0.66
  -7  -2  -9    2.40    1.23
   7  -2   9    1.57    0.81
   6   2   8    0.24    0.51
   6   2   8    0.85    0.38
  -6   2  -8   -0.46    0.63
   6   2   8   -0.41    0.48
  -6   2  -8    1.38    0.60
  -6  -2  -8    1.77    0.84
   6  -2   8    0.27    0.59
   6  -2   8    0.95    0.50
   6  -2   8   -0.44    0.64
  -5   2  -7    3.25    0.67
   5   2   7    2.24    0.43
  -5   2  -7    2.35    0.49
  -5   2  -7    1.96    0.39
   5   2   7    2.17    0.55
   5   2   7    2.64    0.43
   5   2   7    2.48    0.51
  -5   2  -7    3.26    0.49
  -5  -2  -7    1.76    0.63
   5  -2   7    1.80    0.52
   5  -2   7    2.60    0.53
   5  -2   7    2.02    0.47
  -4   2  -6    2.30    0.29
   4   2   6    2.74    0.36
   4   2   6    2.15    0.39
  -4   2  -6    2.23    0.50
   4   2   6    2.21    0.41
  -4   2  -6    2.55    0.39
   4   2   6    1.49    0.30
  -4   2  -6    2.06    0.31
  -4   2  -6    2.05    0.29
   4  -2   6    2.81    0.42
  -4  -2  -6    2.55    0.41
  -4  -2  -6    1.86    0.53
   4  -2   6    1.75    0.29
   4  -2   6    2.73    0.45
   4  -2   6    2.47    0.43
   4  -2   6    2.09    0.39
  -4  -2  -6    2.20    0.58
  -3   2  -5   35.32    1.07
  -3   2  -5   34.30    1.11
  -3   2  -5   36.33    1.14
   3   2   5   35.75    1.35
  -3   2  -5   34.95    1.18
   3   2   5   35.76    1.29
   3   2   5   35.75    1.24
   3   2   5   34.79    1.19
   3   2   5   36.15    1.12
  -3   2  -5   36.46    1.32
  -3  -2  -5   34.59    1.45
   3  -2   5   36.39    1.24
   3  -2   5   36.87    1.16
   3  -2   5   34.26    1.20
   3  -2   5   34.06    1.17
  -3  -2  -5   36.65    1.19
   3  -2   5   34.79    1.05
  -3  -2  -5   33.96    1.43
   3  -2   5   35.13    1.26
  -3  -2  -5   35.54    1.23
  -3  -2  -5   35.33    1.21
  -2   2  -4  179.43    4.40
  -2   2  -4  173.14    4.30
  -2   2  -4  178.03    4.36
   2   2   4  180.93    4.42
   2   2   4  174.58    4.32
  -2   2  -4  180.03    4.27
   2   2   4  177.47    4.38
  -2   2  -4  177.94    4.33
   2   2   4  177.21    4.43
   2   2   4  177.86    4.52
  -2  -2  -4  171.31    4.41
  -2  -2  -4  173.01    4.63
   2  -2   4  174.78    4.36
   2  -2   4  175.40    4.33
   2  -2   4  174.73    4.35
   2  -2   4  170.77    4.24
   2  -2   4  175.33    4.41
   2  -2   4  169.92    4.39
  -2  -2  -4  175.41    4.58
  -2  -2  -4  177.47    4.37
  -2  -2  -4  176.46    4.41
   1   2   3  146.21    3.59
  -1   2  -3  145.00    3.60
  -1   2  -3  146.04    3.53
  -1   2  -3  144.78    3.56
  -1   2  -3  153.30    3.55
  -1   2  -3  152.61    3.59
   1   2   3  151.59    3.68
   1   2   3  146.84    3.62
   1   2   3  142.95    3.62
   1   2   3  151.90    3.72
  -1  -2  -3  145.03    3.83
  -1  -2  -3  145.44    3.66
  -1  -2  -3  145.70    3.62
  -1  -2  -3  146.13    3.68
   1  -2   3  141.71    3.54
   1  -2   3  147.49    3.58
   1  -2   3  140.06    3.64
   1  -2   3  141.93    3.55
  -1  -2  -3  141.25    3.58
  -1  -2  -3  148.04    3.75
   0   2   2   81.63    2.10
   0   2   2   81.60    2.01
   0   2  -2   80.68    2.01
   0   2  -2   80.28    2.03
   0   2  -2   79.72    1.93
   0   2  -2   80.14    1.92
   0   2  -2   80.84    2.02
   0   2   2   78.97    2.05
   0   2  -2   82.86    2.13
   0   2   2   79.87    1.99
   0   2   2   82.40    2.11
   0  -2   2   80.87    1.93
   0  -2  -2   78.91    2.03
   0  -2  -2   80.02    2.36
   0  -2  -2   81.35    2.00
   0  -2  -2   76.02    2.33
   0  -2   2   81.19    2.03
   0  -2   2   79.63    2.03
   0  -2   2   78.99    2.07
   0  -2  -2   77.72    2.11
   0  -2  -2   76.19    2.06
   1   2  -1  956.86   22.44
   2   2   0   45.16    1.44
   2   2   0   47.34    1.25
  -2   2   0   46.81    1.20
   2   2   0   47.79    1.14
   2   2   0   42.58    1.27
   2   2   0   45.60    1.22
   2   2   0   45.37    1.33
  -2   2   0   46.23    1.24
  -2   2   0   45.88    1.27
  -2  -2   0   41.60    1.26
  -2  -2   0   47.02    1.21
   2  -2   0   45.78    1.11
  -2  -2   0   46.17    1.15
  -2  -2   0   46.44    1.25
   2  -2   0   44.87    1.19
  -2  -2   0   46.53    1.46
   2  -2   0   46.03    1.25
   2  -2   0   46.56    1.29
   3   2   1  231.76    5.65
   3   2   1  213.67    5.39
  -3   2  -1  224.39    5.47
  -3   2  -1  224.68    5.51
  -3   2  -1  223.91    5.46
  -3   2  -1  228.77    5.50
  -3   2  -1  223.97    5.42
   3   2   1  222.78    5.52
   3   2   1  227.48    5.67
   3   2   1  221.52    5.48
  -3  -2  -1  224.40    5.45
  -3  -2  -1  227.22    5.70
  -3  -2  -1  224.66    5.47
   3  -2   1  225.52    5.51
   3  -2   1  228.97    5.55
   3  -2   1  226.31    5.36
  -3  -2  -1  227.55    5.46
   4   2   2  303.09    7.41
  -4   2  -2  302.00    7.34
  -4   2  -2  307.87    7.31
   4   2   2  308.34    7.56
  -4   2  -2  293.10    7.37
   4   2   2  310.00    7.56
   4   2   2  306.02    7.47
  -4   2  -2  298.27    7.37
   4   2   2  285.71    7.25
  -4   2  -2  303.89    7.42
   4  -2   2  304.90    7.28
  -4  -2  -2  309.88    7.39
  -4  -2  -2  295.54    7.34
   4  -2   2  308.91    7.44
  -4  -2  -2  307.55    7.33
  -4  -2  -2  302.76    7.59
   4  -2   2  301.34    7.47
  -5   2  -3    7.26    0.50
   5   2   3    6.79    0.64
  -5   2  -3    6.18    0.44
  -5   2  -3    5.68    0.42
  -5   2  -3    6.32    0.65
   5   2   3    6.11    0.45
  -5   2  -3    6.36    0.53
   5   2   3    5.46    0.75
   5   2   3    5.85    0.58
   5  -2   3    5.79    0.46
  -5  -2  -3    6.25    0.75
  -5  -2  -3    5.73    0.47
  -5  -2  -3    6.05    0.52
   5  -2   3    6.68    0.64
  -5  -2  -3    6.55    0.51
   5  -2   3    6.02    0.57
   5  -2   3    6.16    0.53
  -6   2  -4    1.40    0.37
   6   2   4    1.00    0.42
  -6   2  -4    0.88    0.19
  -6   2  -4    1.58    0.28
   6   2   4    0.93    0.32
  -6   2  -4    0.74    0.32
  -6   2  -4    0.85    0.42
   6   2   4    1.48    0.47
   6  -2   4    1.17    0.39
   6  -2   4    1.34    0.44
   6  -2   4    0.50    0.43
   6  -2   4    0.72    0.30
  -6  -2  -4    1.44    0.52
  -7   2  -5    5.49    0.73
   7   2   5    4.32    0.72
   7   2   5    4.74    0.68
   7   2   5    5.24    0.67
  -7  -2  -5    5.34    0.91
   7  -2   5    3.53    0.61
   7  -2   5    5.12    0.68
   7  -2   5    4.11    0.70
   8   2   6    1.29    0.45
   8   2   6   -0.43    0.60
   8   2   6    0.73    0.69
   8  -2   6   -0.28    0.81
  -8  -2  -6    0.26    1.68
   8  -2   6    0.03    0.67
   8  -2   6   -0.49    0.55
   7   3   9    0.00    0.64
   7   3   9   -0.28    0.86
  -7   3  -9    1.04    1.02
   7   3   9    0.05    1.03
  -7  -3  -9    1.65    1.34
   7  -3   9    0.20    0.87
   6   3   8    0.42    0.40
   6   3   8   -0.19    0.58
   6   3   8   -0.36    0.55
  -6   3  -8   -0.99    0.71
  -6  -3  -8    1.85    1.06
   6  -3   8   -0.41    0.58
  -5   3  -7    6.23    0.62
  -5   3  -7    7.45    0.73
   5   3   7    5.73    0.88
  -5   3  -7    6.92    0.87
   5   3   7    7.85    0.83
   5   3   7    6.83    0.62
   5  -3   7    7.71    0.79
   5  -3   7    6.10    0.53
   5  -3   7    5.07    0.68
  -4   3  -6   44.39    1.43
   4   3   6   43.02    1.64
   4   3   6   44.59    1.43
  -4   3  -6   48.43    1.58
   4   3   6   45.56    1.62
  -4   3  -6   42.59    1.48
   4   3   6   42.63    1.55
  -4   3  -6   46.12    1.67
   4  -3   6   42.14    1.42
  -4  -3  -6   42.38    1.87
   4  -3   6   44.37    1.35
   4  -3   6   40.51    1.54
   4  -3   6   43.59    1.57
   3   3   5    3.28    0.44
  -3   3  -5    3.66    0.37
  -3   3  -5    3.52    0.32
  -3   3  -5    3.14    0.35
   3   3   5    3.63    0.37
   3   3   5    3.66    0.47
   3   3   5    3.59    0.46
  -3   3  -5    3.64    0.36
  -3   3  -5    4.02    0.56
   3   3   5    2.95    0.49
   3  -3   5    2.34    0.28
   3  -3   5    2.89    0.42
   3  -3   5    2.59    0.38
  -3  -3  -5    3.39    0.51
  -3  -3  -5    3.29    0.42
   3  -3   5    2.66    0.42
  -3  -3  -5    2.83    0.43
   3  -3   5    3.05    0.41
  -3  -3  -5    3.31    0.65
   2   3   4   28.96    0.98
  -2   3  -4   28.37    0.89
  -2   3  -4   29.63    0.97
  -2   3  -4   28.86    0.91
   2   3   4   28.49    1.04
   2   3   4   28.73    1.00
   2   3   4   28.31    0.95
  -2   3  -4   27.08    0.94
   2   3   4   28.79    1.11
  -2   3  -4   28.71    0.87
   2  -3   4   28.30    0.92
   2  -3   4   27.60    0.95
   2  -3   4   26.83    0.93
  -2  -3  -4   27.82    0.97
  -2  -3  -4   28.46    1.27
  -2  -3  -4   26.87    0.92
   2  -3   4   27.11    0.94
   2  -3   4   27.92    1.03
  -2  -3  -4   25.14    1.02
  -1   3  -3   15.74    0.58
  -1   3  -3   16.76    0.63
   1   3   3   15.66    0.60
  -1   3  -3   16.28    0.54
   1   3   3   15.69    0.59
  -1   3  -3   16.25    0.59
  -1   3  -3   15.72    0.50
   1   3   3   15.50    0.71
   1   3   3   15.92    0.70
   1   3   3   16.43    0.66
   1  -3   3   16.77    0.60
  -1  -3  -3   15.94    0.61
  -1  -3  -3   16.05    0.59
   1  -3   3   16.50    0.56
  -1  -3  -3   15.65    0.88
   1  -3   3   16.51    0.55
   1  -3   3   16.56    0.66
  -1  -3  -3   16.91    0.71
   1  -3   3   16.47    0.69
  -1  -3  -3   16.06    0.73
   0   3   2  234.50    5.85
   0   3   2  229.41    5.70
   0   3  -2  233.31    5.76
   0   3   2  237.32    5.72
   0   3   2  243.64    5.79
   0   3  -2  239.03    5.80
   0   3   2  232.97    5.66
   0   3   2  247.13    5.98
   0   3  -2  245.87    5.93
   0   3   2  245.27    5.89
   0  -3  -2  234.39    5.99
   0  -3   2  243.77    5.88
   0  -3  -2  243.05    5.71
   0  -3  -2  235.67    5.73
   0  -3   2  243.15    5.81
   0  -3   2  238.14    5.59
   0  -3   2  232.64    5.80
   0  -3  -2  241.26    5.89
  -1   3   1  666.75   15.71
  -1   3   1  674.91   15.62
  -1   3   1  675.25   15.59
   1   3  -1  676.54   15.90
   1   3  -1  654.95   15.75
  -1   3   1  660.64   15.75
  -1  -3   1  664.43   15.87
   1  -3  -1  665.35   15.60
   1  -3  -1  670.49   15.82
   1  -3  -1  662.04   15.78
  -1  -3   1  674.33   15.75
   2   3   0   92.16    2.29
   2   3   0   92.38    2.32
   2   3   0   90.82    2.27
   2   3   0   91.04    2.36
  -2   3   0   91.08    2.39
   2   3   0   90.41    2.48
  -2   3   0   93.48    2.32
  -2   3   0   92.35    2.36
  -2   3   0   94.23    2.20
  -2   3   0   93.00    2.45
  -2   3   0   93.18    2.39
  -2  -3   0   91.92    2.27
  -2  -3   0   92.74    2.27
  -2  -3   0   92.38    2.42
   2  -3   0   89.83    2.39
   2  -3   0   93.44    2.48
   2  -3   0   91.70    2.35
  -2  -3   0   91.98    2.65
   2  -3   0   96.87    2.46
  -2  -3   0   89.08    2.30
  -3   3  -1    0.80    0.20
   3   3   1    0.88    0.19
   3   3   1    0.62    0.20
  -3   3  -1    0.85    0.15
  -3   3  -1    0.91    0.22
  -3   3  -1    0.69    0.15
  -3   3  -1    0.67    0.16
   3   3   1    0.78    0.20
   3   3   1    0.88    0.32
   3   3   1    0.66    0.20
  -3   3  -1    0.83    0.20
  -3  -3  -1    0.40    0.17
  -3  -3  -1    0.42    0.14
   3  -3   1    0.56    0.19
  -3  -3  -1    0.27    0.32
   3  -3   1    0.43    0.15
  -3  -3  -1    0.49    0.14
   3  -3   1    0.94    0.24
   3  -3   1    0.65    0.10
   4   3   2   13.24    0.57
   4   3   2   13.04    0.69
   4   3   2   13.27    0.71
  -4   3  -2   12.29    0.69
  -4   3  -2   12.09    0.58
   4   3   2   12.23    0.82
  -4   3  -2   13.07    0.64
  -4   3  -2   12.78    0.61
  -4   3  -2   12.11    0.62
   4   3   2   14.05    0.67
   4   3   2   11.96    0.79
   4  -3   2   13.54    0.67
   4  -3   2   12.58    0.50
   4  -3   2   12.84    0.62
  -4  -3  -2   12.71    0.58
  -4  -3  -2   13.10    0.65
  -4  -3  -2   11.93    0.87
   4  -3   2   13.37    0.76
  -4  -3  -2   13.55    0.62
  -5   3  -3   23.01    1.03
  -5   3  -3   22.64    0.97
   5   3   3   23.55    0.88
  -5   3  -3   23.04    0.92
  -5   3  -3   22.39    0.92
   5   3   3   23.31    1.02
   5   3   3   21.73    1.04
  -5   3  -3   23.25    1.03
   5   3   3   22.84    1.14
   5   3   3   23.26    1.08
   5  -3   3   22.49    0.82
  -5  -3  -3   22.68    1.29
   5  -3   3   21.63    1.04
   5  -3   3   24.56    0.92
   5  -3   3   23.64    1.07
   6   3   4   12.25    0.73
  -6   3  -4   13.36    0.94
   6   3   4   10.89    0.98
  -6   3  -4   13.05    0.76
   6   3   4   13.26    0.98
  -6   3  -4   11.99    0.79
   6  -3   4   12.95    0.98
  -6  -3  -4   14.09    1.16
   6  -3   4   14.15    0.92
   6  -3   4   11.67    0.67
   6  -3   4   14.26    0.74
  -7   3  -5   18.57    1.35
   7   3   5   18.97    1.31
   7   3   5   19.12    0.98
  -7   3  -5   18.21    1.12
   7   3   5   19.66    1.26
   7  -3   5   17.06    0.91
   7  -3   5   17.44    1.37
   7  -3   5   18.52    1.22
   8   3   6    0.82    0.73
   8   3   6    0.47    0.46
   8   3   6    0.35    0.66
   8  -3   6    0.03    0.76
   8  -3   6   -0.30    0.45
  -8  -3  -6    0.26    1.07
  -6   4  -8    3.92    0.94
   6   4   8    5.52    0.79
   6   4   8    4.22    0.80
   6   4   8    3.32    0.76
  -6  -4  -8    3.48    1.25
   6  -4   8    3.79    0.83
   5   4   7    6.86    0.89
  -5   4  -7    7.56    0.89
   5   4   7    7.34    0.91
   5   4   7    7.14    0.68
  -5  -4  -7    9.57    1.25
   5  -4   7    6.65    0.78
   5  -4   7    8.70    0.66
   4   4   6    1.50    0.53
  -4   4  -6    1.66    0.32
  -4   4  -6    2.13    0.39
  -4   4  -6    2.10    0.34
  -4   4  -6    0.95    0.44
   4   4   6    2.32    0.41
   4   4   6    0.79    0.63
   4  -4   6    1.80    0.34
  -4  -4  -6    2.15    0.80
   4  -4   6    2.13    0.42
   4  -4   6    1.06    0.32
  -3   4  -5   31.23    1.06
   3   4   5   32.63    1.56
  -3   4  -5   32.86    1.13
   3   4   5   33.93    1.28
  -3   4  -5   33.34    1.22
   3   4   5   34.72    1.22
  -3   4  -5   32.99    1.05
  -3   4  -5   32.45    1.17
   3   4   5   32.66    1.16
   3  -4   5   33.29    1.31
   3  -4   5   34.05    1.16
   3  -4   5   31.85    1.17
   3  -4   5   29.90    1.30
  -3  -4  -5   31.36    1.62
   3  -4   5   31.21    1.13
   2   4   4   27.14    1.16
   2   4   4   30.10    1.02
   2   4   4   29.27    1.05
   2   4   4   29.55    1.15
  -2   4  -4   27.13    1.03
  -2   4  -4   28.60    0.97
  -2   4  -4   28.04    0.93
  -2   4  -4   30.00    0.88
  -2   4  -4   29.60    0.99
   2   4   4   28.27    0.81
  -2   4  -4   29.04    1.10
   2   4   4   29.94    1.06
  -2  -4  -4   27.89    0.97
  -2  -4  -4   26.80    1.01
  -2  -4  -4   29.03    1.18
   2  -4   4   31.06    1.06
   2  -4   4   30.11    0.98
   2  -4   4   28.29    0.97
   2  -4   4   30.34    1.15
   2  -4   4   30.40    0.98
  -2  -4  -4   28.99    1.43
   1   4   3   14.96    0.88
  -1   4  -3   15.65    0.47
  -1   4  -3   15.27    0.60
   1   4   3   14.74    0.77
   1   4   3   15.44    0.72
  -1   4  -3   15.85    0.54
  -1   4  -3   16.66    0.66
   1   4   3   15.01    0.61
   1   4   3   15.88    0.61
  -1   4  -3   15.62    0.67
  -1   4  -3   15.54    0.80
   1   4   3   16.26    0.78
   1  -4   3   16.61    0.55
  -1  -4  -3   16.30    0.96
  -1  -4  -3   16.53    0.64
   1  -4   3   15.85    0.73
  -1  -4  -3   17.34    0.83
  -1  -4  -3   16.72    0.62
   1  -4   3   16.76    0.77
   1  -4   3   17.16    0.66
  -1  -4  -3   16.87    0.80
   0   4  -2   45.28    1.36
   0   4   2   44.80    1.46
   0   4   2   45.30    1.27
   0   4  -2   46.27    1.57
   0   4  -2   47.07    1.43
   0   4   2   45.13    1.34
   0   4   2   46.29    1.28
   0   4   2   45.62    1.59
   0   4   2   47.64    1.24
   0   4  -2   47.65    1.34
   0   4   2   46.62    1.32
   0  -4   2   46.71    1.44
   0  -4   2   48.08    1.46
   0  -4  -2   47.62    1.53
   0  -4  -2   47.49    1.31
   0  -4  -2   46.23    1.65
   0  -4  -2   46.98    1.29
   0  -4   2   46.80    1.52
   1   4  -1   13.17    0.66
  -1   4   1   12.69    0.59
  -1   4   1   13.99    0.52
   1   4  -1   13.12    0.53
  -1   4   1   13.95    0.68
  -1   4   1   13.96    0.44
  -1   4   1   12.99    0.71
  -1   4   1   13.32    0.49
  -1   4   1   12.53    0.68
   1   4  -1   13.34    0.60
  -1   4   1   13.75    0.46
   1   4  -1   12.36    0.77
  -1  -4   1   13.14    0.68
  -1  -4   1   14.07    0.78
  -1  -4   1   13.68    0.61
   1  -4  -1   12.68    0.70
   1  -4  -1   14.25    0.77
  -2   4   0   29.00    0.92
   2   4   0   29.06    1.23
   2   4   0   29.09    1.10
  -2   4   0   29.71    1.02
   2   4   0   29.30    0.91
  -2   4   0   29.00    1.06
   2   4   0   29.27    0.88
  -2   4   0   29.81    0.78
   2   4   0   29.47    0.99
  -2   4   0   29.16    0.86
  -2   4   0   28.63    1.03
   2   4   0   29.27    0.88
   2  -4   0   30.42    1.10
   2  -4   0   31.30    0.91
  -2  -4   0   31.46    0.83
  -2  -4   0   31.23    0.96
   2  -4   0   30.74    0.92
  -2  -4   0   31.99    1.29
  -2  -4   0   30.70    0.83
  -2  -4   0   32.16    1.07
   2  -4   0   29.19    1.10
   3   4   1  114.12    2.91
   3   4   1  115.39    2.94
  -3   4  -1  110.79    2.91
  -3   4  -1  110.22    2.93
  -3   4  -1  110.51    3.04
  -3   4  -1  113.51    2.86
   3   4   1  112.39    3.31
   3   4   1  115.36    2.95
   3   4   1  114.28    3.15
   3   4   1  112.46    2.74
  -3   4  -1  111.94    2.81
  -3  -4  -1  112.81    3.31
   3  -4   1  116.66    2.97
  -3  -4  -1  110.74    3.34
  -3  -4  -1  113.70    2.87
   3  -4   1  115.46    3.09
   3  -4   1  110.52    2.77
  -3  -4  -1  116.45    2.94
   3  -4   1  114.43    2.95
   4   4   2   32.54    1.56
   4   4   2   30.90    1.29
   4   4   2   30.73    1.38
  -4   4  -2   34.87    1.13
  -4   4  -2   31.29    1.12
   4   4   2   32.91    1.07
  -4   4  -2   32.11    1.04
   4   4   2   33.88    1.16
  -4   4  -2   32.90    0.93
   4   4   2   33.75    1.20
  -4   4  -2   29.48    1.17
  -4  -4  -2   29.35    1.18
   4  -4   2   32.39    1.15
  -4  -4  -2   30.27    1.10
  -4  -4  -2   30.69    1.04
  -4  -4  -2   31.13    1.49
   4  -4   2   30.71    1.18
   4  -4   2   31.17    1.18
  -5   4  -3    1.65    0.32
  -5   4  -3    1.32    0.42
  -5   4  -3    1.37    0.31
   5   4   3    1.44    0.39
   5   4   3    1.37    0.39
   5   4   3    1.52    0.31
   5  -4   3    1.57    0.39
   5  -4   3    1.16    0.39
   5  -4   3    1.31    0.34
  -5  -4  -3    1.56    0.64
   5  -4   3    1.27    0.22
  -6   4  -4   15.00    0.92
   6   4   4   13.61    1.00
  -6   4  -4   15.49    0.99
   6   4   4   14.80    0.79
  -6   4  -4   15.59    0.81
   6   4   4   14.07    1.02
   6  -4   4   15.19    0.86
   6  -4   4   14.52    0.97
   6  -4   4   13.02    0.91
   6  -4   4   16.02    0.71
   7   4   5    4.09    0.67
  -7   4  -5    3.93    0.71
   7   4   5    4.63    0.59
   7   4   5    4.45    0.72
  -7  -4  -5    4.97    1.08
   7  -4   5    4.11    0.71
   7  -4   5    3.87    0.56
   8   4   6    1.74    0.91
   8   4   6    3.88    0.67
   8   4   6    3.42    0.90
   8  -4   6    4.14    1.06
   8  -4   6    3.85    0.66
  -8  -4  -6    2.72    1.23
   6   5   8    1.27    0.68
  -6   5  -8    3.30    1.11
   6   5   8    2.99    0.92
   6   5   8    2.01    0.86
  -6  -5  -8    3.36    1.42
   5   5   7    4.35    0.60
   5   5   7    4.62    0.72
  -5   5  -7    4.26    0.80
   5   5   7    6.68    0.96
   5  -5   7    4.43    0.56
  -5  -5  -7    3.58    1.13
   4   5   6    6.83    0.79
  -4   5  -6    6.42    0.57
   4   5   6    7.49    0.64
  -4   5  -6    8.06    1.04
   4   5   6    6.97    0.81
   4  -5   6    6.28    0.70
   4  -5   6    8.35    0.88
   4  -5   6    8.67    0.71
  -4  -5  -6    7.27    1.04
  -3   5  -5    4.20    0.55
   3   5   5    3.64    0.70
  -3   5  -5    3.42    0.48
  -3   5  -5    3.27    0.46
   3   5   5    3.14    0.46
   3   5   5    2.64    0.45
  -3   5  -5    3.59    0.34
  -3   5  -5    4.13    0.42
   3  -5   5    3.13    0.40
  -3  -5  -5    3.79    1.40
   3  -5   5    3.24    0.38
   3  -5   5    2.75    0.34
   3  -5   5    4.03    0.55
   2   5   4   11.00    0.82
  -2   5  -4   12.56    0.63
   2   5   4   12.90    0.72
  -2   5  -4   13.98    0.64
   2   5   4   13.25    0.70
   2   5   4   13.45    0.67
  -2   5  -4   13.41    0.60
  -2   5  -4   14.05    0.83
   2  -5   4   13.25    0.59
   2  -5   4   12.31    0.85
   2  -5   4   12.92    0.63
  -2  -5  -4   12.28    1.11
   2  -5   4   11.94    0.57
   2  -5   4   13.66    0.77
   1   5   3   19.72    1.00
   1   5   3   20.57    0.93
   1   5   3   20.68    0.91
  -1   5  -3   21.17    1.01
   1   5   3   19.19    0.74
   1   5   3   19.78    1.14
   1   5   3   19.85    0.73
  -1   5  -3   22.25    1.00
  -1   5  -3   20.55    0.75
   1   5   3   20.02    0.75
  -1   5  -3   21.37    0.84
   1   5   3   19.09    1.03
  -1  -5  -3   21.61    1.05
  -1  -5  -3   19.33    0.76
  -1  -5  -3   18.45    0.74
  -1  -5  -3   20.27    1.21
   1  -5   3   19.78    0.63
   1  -5   3   20.63    0.94
   1  -5   3   19.94    0.96
   0   5   2    9.80    0.51
   0   5   2    9.45    0.66
   0   5   2    9.42    0.43
   0   5  -2   10.41    0.55
   0   5  -2   10.21    0.61
   0   5   2   10.15    0.41
   0   5   2    9.30    0.76
   0   5  -2   11.61    0.66
   0   5   2    9.97    0.53
   0   5  -2    9.64    0.53
   0   5   2    8.66    0.63
   0   5   2    9.88    0.43
   0   5   2   10.32    0.70
   0   5  -2    9.47    0.75
   0  -5  -2   11.38    0.86
   0  -5  -2   10.73    0.75
   0  -5   2    9.96    0.74
   0  -5   2   12.00    0.72
   0  -5   2   11.84    0.66
  -1   5   1  134.13    3.37
   1   5  -1  129.82    3.40
   1   5  -1  136.11    3.49
   1   5  -1  133.51    3.62
  -1   5   1  134.16    3.22
  -1   5   1  130.38    3.78
  -1   5   1  132.93    3.62
  -1   5   1  133.01    3.27
  -1   5   1  131.33    3.32
  -1   5   1  132.33    3.60
  -1   5   1  135.63    3.35
  -1   5   1  133.36    3.18
   1   5  -1  133.99    3.50
   1   5  -1  130.76    3.79
  -1   5   1  135.51    3.70
  -1  -5   1  135.61    3.79
   1  -5  -1  135.28    3.67
  -1  -5   1  136.52    3.63
   1  -5  -1  137.07    3.74
  -2   5   0  115.94    2.79
   2   5   0  112.87    3.42
  -2   5   0  112.69    3.10
  -2   5   0  109.65    3.12
  -2   5   0  116.62    2.90
   2   5   0  115.72    2.91
   2   5   0  120.22    2.85
  -2   5   0  114.60    2.79
  -2   5   0  114.17    3.17
   2   5   0  119.43    3.06
  -2   5   0  113.36    2.77
  -2   5   0  112.89    3.10
   2   5   0  111.32    3.22
   2  -5   0  112.09    2.88
  -2  -5   0  113.33    3.42
   2  -5   0  119.05    3.19
   2  -5   0  117.30    3.23
  -2  -5   0  115.67    2.80
   3   5   1   10.78    0.61
  -3   5  -1   11.00    0.45
   3   5   1   11.27    0.57
   3   5   1   10.40    0.43
  -3   5  -1   10.15    0.44
  -3   5  -1   10.56    0.56
  -3   5  -1   11.00    0.68
   3   5   1   11.56    0.61
   3  -5   1   10.91    0.52
  -3  -5  -1   11.06    0.99
  -3  -5  -1   10.22    0.69
  -3  -5  -1   10.86    0.62
   3  -5   1   11.52    0.93
  -3  -5  -1   11.24    0.47
   3  -5   1   11.32    0.76
   3  -5   1   11.58    0.61
   4   5   2    3.41    0.48
  -4   5  -2    2.53    0.28
   4   5   2    2.84    0.42
  -4   5  -2    3.01    0.37
   4   5   2    2.28    0.35
  -4   5  -2    2.35    0.33
   4  -5   2    2.22    0.34
   4  -5   2    2.71    0.38
  -4  -5  -2    2.48    0.72
   4  -5   2    2.32    0.30
   4  -5   2    2.37    0.47
  -5   5  -3    1.77    0.40
   5   5   3    1.08    0.37
   5   5   3    0.73    0.40
   5   5   3    1.31    0.59
  -5   5  -3    1.36    0.30
   5  -5   3    0.43    0.41
  -5  -5  -3    1.47    0.74
   5  -5   3    1.08    0.42
   5  -5   3    0.58    0.45
   5  -5   3    0.52    0.22
   6   5   4    3.99    0.58
  -6   5  -4    3.25    0.58
   6   5   4    3.33    0.57
   6   5   4    2.05    0.58
   6  -5   4    2.71    0.59
  -6  -5  -4    4.32    0.96
   6  -5   4    3.60    0.58
   7   5   5   -0.02    0.65
   7   5   5    0.00    0.46
   7   5   5    0.31    0.63
  -7  -5  -5    1.03    1.06
   5   6   7    0.89    0.53
  -5   6  -7    1.12    0.89
   5   6   7   -0.39    0.63
   5   6   7    0.13    0.69
  -5  -6  -7   -0.50    1.19
   4   6   6    0.59    0.36
   4   6   6    0.47    0.47
  -4   6  -6    1.16    0.60
   4   6   6    0.84    0.47
  -4  -6  -6    2.27    1.01
   4  -6   6    0.81    0.46
  -3   6  -5   24.02    1.16
  -3   6  -5   21.90    1.03
   3   6   5   19.64    1.04
  -3   6  -5   21.06    0.90
  -3   6  -5   20.50    0.71
   3   6   5   17.42    1.20
   3   6   5   21.68    1.02
   3  -6   5   21.05    1.07
   3  -6   5   20.22    0.90
   3  -6   5   19.90    0.99
  -3  -6  -5   22.62    1.69
   3  -6   5   23.21    0.94
   2   6   4   27.93    1.04
  -2   6  -4   27.84    0.99
  -2   6  -4   27.93    0.86
   2   6   4   26.77    1.02
  -2   6  -4   30.19    1.32
   2   6   4   22.43    1.27
   2   6   4   27.12    0.88
  -2   6  -4   27.43    1.12
   2  -6   4   25.84    0.90
  -2  -6  -4   28.46    1.68
   2  -6   4   29.60    1.22
  -1   6  -3    0.90    0.24
   1   6   3    0.79    0.38
   1   6   3    1.14    0.24
   1   6   3    1.05    0.27
  -1   6  -3    0.53    0.54
  -1   6  -3    1.56    0.53
   1   6   3    0.89    0.24
   1   6   3    0.90    0.22
   1   6   3    0.65    0.37
  -1  -6  -3    1.91    0.71
   1  -6   3    0.85    0.38
  -1  -6  -3    1.20    0.46
  -1  -6  -3    1.06    0.26
   0   6   2   20.58    0.92
   0   6   2   21.31    0.79
   0   6   2   20.80    0.65
   0   6  -2   20.64    0.85
   0   6  -2   21.14    0.95
   0   6  -2   20.65    1.20
   0   6   2   20.67    0.86
   0   6   2   20.77    0.71
   0   6   2   21.83    1.03
   0   6   2   21.31    0.64
   0  -6   2   21.24    1.16
   0  -6  -2   21.44    1.15
   0  -6   2   19.95    1.09
   0  -6  -2   22.41    1.31
  -1   6   1    0.75    0.15
   1   6  -1    1.00    0.33
  -1   6   1    0.11    0.36
  -1   6   1    0.61    0.29
  -1   6   1    0.10    0.36
  -1   6   1    1.03    0.25
   1   6  -1    0.35    0.27
  -1   6   1    0.87    0.23
  -1   6   1    1.65    0.47
   1   6  -1    0.94    0.26
   1  -6  -1    1.74    0.55
  -1  -6   1    0.26    0.51
  -1  -6   1    1.24    0.42
   1  -6  -1    0.48    0.40
  -2   6   0    4.66    0.40
  -2   6   0    4.56    0.60
   2   6   0    5.33    0.56
   2   6   0    4.15    0.38
  -2   6   0    4.22    0.45
  -2   6   0    3.90    0.26
  -2   6   0    4.19    0.55
   2  -6   0    3.98    0.33
   2  -6   0    3.85    0.57
  -2  -6   0    4.39    0.75
   2  -6   0    4.25    0.58
  -2  -6   0    4.48    0.27
  -3   6  -1   25.52    0.78
   3   6   1   26.54    0.86
  -3   6  -1   25.44    1.12
  -3   6  -1   26.67    0.80
   3   6   1   25.93    0.95
   3   6   1   25.58    0.83
  -3   6  -1   26.71    0.93
   3   6   1   26.70    1.04
  -3   6  -1   25.73    0.74
   3   6   1   25.93    0.80
   3  -6   1   27.15    1.27
   3  -6   1   26.08    1.08
  -3  -6  -1   26.01    0.85
   3  -6   1   25.51    0.85
  -3  -6  -1   26.56    1.55
  -4   6  -2    0.12    0.32
   4   6   2   -0.04    0.29
  -4   6  -2   -0.14    0.17
   4   6   2   -0.09    0.30
  -4   6  -2    0.08    0.24
   4   6   2   -0.09    0.31
  -4   6  -2   -0.46    0.36
   4  -6   2   -0.59    0.29
   4  -6   2    0.13    0.31
   4  -6   2    0.36    0.46
  -4  -6  -2   -0.66    0.62
  -5   6  -3    1.83    0.43
   5   6   3    1.22    0.46
   5   6   3    1.33    0.42
   5   6   3    1.33    0.38
  -5   6  -3    1.35    0.39
   5  -6   3    1.70    0.55
  -5  -6  -3    1.23    0.77
   6   6   4    0.57    0.43
   6   6   4    1.06    0.61
   6   6   4    1.71    0.59
  -6  -6  -4    1.14    1.01
   6  -6   4    1.55    0.59
   7   6   5    4.27    0.71
   7   6   5    2.20    0.86
   7   6   5    3.92    0.87
  -7  -6  -5    1.61    1.34
   7  -6   5    3.20    0.84
   4   7   6    0.74    0.60
   4   7   6    1.10    0.50
   4   7   6    1.91    0.62
   4  -7   6    1.50    0.66
  -4  -7  -6    2.30    1.22
   3   7   5    3.04    0.55
  -3   7  -5    3.18    0.52
   3   7   5    3.93    0.60
   3   7   5    2.71    0.56
  -3   7  -5    3.30    0.48
   3  -7   5    3.37    0.67
  -3  -7  -5    3.67    1.08
  -2   7  -4   13.08    1.21
   2   7   4   14.04    0.92
  -2   7  -4   13.68    0.75
   2   7   4   13.07    0.78
   2   7   4   12.68    0.79
   2   7   4   12.68    0.95
   2  -7   4   12.89    1.03
  -2  -7  -4   11.99    1.39
  -1   7  -3    4.88    0.49
   1   7   3    5.86    0.42
   1   7   3    5.41    0.56
   1   7   3    5.14    0.67
   1   7   3    5.87    0.76
   1   7   3    4.79    0.42
   1   7   3    8.25    0.82
   1   7   3    5.69    0.53
  -1   7  -3    5.39    0.67
  -1  -7  -3    6.05    0.98
  -1  -7  -3    7.36    1.06
   1  -7   3    5.14    0.67
   0   7   2   29.91    1.16
   0   7  -2   28.27    1.06
   0   7   2   28.82    1.16
   0   7  -2   29.04    1.27
   0   7   2   28.28    1.01
   0  -7  -2   28.57    1.66
   0  -7  -2   29.22    1.49
   0  -7   2   29.36    1.43
   0  -7   2   28.51    1.48
   1   7  -1   17.83    0.91
  -1   7   1   17.36    0.84
  -1   7   1   17.85    0.74
   1   7  -1   16.21    0.95
  -1   7   1   20.16    1.11
  -1  -7   1   18.03    1.36
   1  -7  -1   18.30    1.26
   1  -7  -1   19.43    1.21
  -2   7   0    1.08    0.27
  -2   7   0    0.95    0.65
   2   7   0    1.18    0.42
  -2   7   0    1.20    0.49
  -2   7   0    0.90    0.18
   2   7   0    0.97    0.32
   2   7   0    1.08    0.40
   2  -7   0    1.98    0.57
  -2  -7   0    1.37    0.68
   2  -7   0    0.96    0.54
   3   7   1    2.86    0.33
  -3   7  -1    3.03    0.60
   3   7   1    2.80    0.34
  -3   7  -1    3.04    0.37
  -3   7  -1    1.87    0.47
   3   7   1    2.99    0.38
  -3  -7  -1    4.59    0.91
   3  -7   1    2.58    0.65
  -4   7  -2    2.35    0.39
   4   7   2    2.43    0.50
   4   7   2    2.53    0.46
   4   7   2    2.59    0.46
   4  -7   2    3.14    0.60
  -4  -7  -2    1.74    0.83
   5   7   3    3.44    0.61
   5   7   3    3.62    0.55
   5   7   3    4.68    0.67
  -5  -7  -3    6.30    1.21
   5  -7   3    5.11    0.77
   6   7   4    1.70    0.74
   6   7   4    0.23    0.69
   6   7   4    0.79    0.56
  -6  -7  -4    2.83    1.40
   6  -7   4    2.72    0.79
   3   8   5    0.97    0.58
   3   8   5    0.89    0.57
   3   8   5    0.96    0.60
  -3  -8  -5    2.47    1.40
   3  -8   5    1.26    0.71
  -2   8  -4   13.50    1.26
   2   8   4   13.58    0.90
   2   8   4   12.29    0.76
   2   8   4   12.81    1.10
  -2  -8  -4   13.62    1.74
   2  -8   4   13.34    1.20
   1   8   3    6.99    0.60
  -1   8  -3    6.88    0.61
   1   8   3    8.26    0.95
   1   8   3    6.69    0.65
  -1   8  -3    6.05    0.95
  -1  -8  -3    9.48    1.40
  -1  -8  -3    8.63    1.18
   1  -8   3    8.15    1.05
   0   8  -2    2.13    0.44
   0   8   2    1.66    0.45
   0   8   2    2.05    0.57
   0  -8  -2    1.27    0.83
   0  -8  -2    0.79    0.63
   0  -8   2    2.31    0.68
   0  -8   2    3.70    0.82
  -1   8   1   10.58    0.75
   1   8  -1   10.43    0.95
   1   8  -1    9.95    0.85
  -1   8   1    8.50    0.96
   1  -8  -1   11.50    1.26
   1  -8  -1   10.27    1.14
  -1  -8   1    9.13    1.11
  -1  -8   1    9.66    1.42
  -2   8   0    7.88    1.05
   2   8   0    7.97    0.94
   2   8   0    8.70    0.88
   2  -8   0    7.91    1.11
   2  -8   0    8.16    1.11
  -2  -8   0    9.71    1.28
  -3   8  -1    0.63    0.66
   3   8   1    0.78    0.48
   3  -8   1    1.29    0.71
  -3  -8  -1    1.96    0.91
   4   8   2    3.11    0.52
   4   8   2    3.03    0.61
  -4  -8  -2    4.13    1.13
   4  -8   2    4.66    0.83
   5   8   3    0.69    0.62
   5   8   3    0.27    0.51
  -5  -8  -3   -0.88    1.60
   5  -8   3    0.01    0.81
   1   9   3    0.77    0.90
  -1   9  -3    1.34    0.81
  -1  -9  -3    2.21    1.19
   1  -9   3    3.77    0.81
   0   9  -2    1.63    0.71
   0   9   2    2.57    0.76
   0  -9   2    0.53    0.76
   0  -9  -2    2.75    1.02
   0  -9  -2    2.49    1.01
   1   9  -1   12.90    1.19
  -1   9   1   13.22    1.34
   1  -9  -1   11.40    1.50
   1  -9  -1   12.08    1.59
  -1  -9   1   15.24    1.59
  -2   9   0    5.70    0.97
   2   9   0    6.32    0.83
  -2  -9   0    9.22    1.43
   2  -9   0    6.67    1.08
   2  -9   0    5.11    1.03
   3   9   1    1.13    0.79
   3   9   1    1.77    0.62
  -3   9  -1    2.83    0.87
   3  -9   1    1.38    0.90
  -3  -9  -1    2.37    1.52
  -7   0 -10    0.34    1.21
   7   0  10    0.56    0.65
   7   0  10    0.27    0.87
  -6   0  -9    0.14    0.85
   6   0   9    1.08    0.47
   6   0   9    1.43    0.61
   6   0   9    1.32    0.57
  -6   0  -9    0.42    0.80
   5   0   8   -0.24    0.35
   5   0   8   -0.16    0.40
   5   0   8    0.52    0.47
  -5   0  -8    1.32    0.65
   5   0   8    0.11    0.31
  -5   0  -8    0.26    0.21
  -5   0  -8   -0.67    0.52
  -5   0  -8    0.12    0.40
   4   0   7    6.62    0.54
   4   0   7    7.98    0.73
  -4   0  -7    6.77    0.36
  -4   0  -7    7.78    0.89
  -4   0  -7    7.04    0.63
  -4   0  -7    6.66    0.64
   4   0   7    6.72    0.52
  -4   0  -7    7.70    0.78
   4   0   7    7.65    0.74
  -3   0  -6   18.27    0.83
  -3   0  -6   17.67    0.60
   3   0   6   18.16    0.69
   3   0   6   17.35    0.71
   3   0   6   18.27    0.89
  -3   0  -6   17.25    0.75
  -3   0  -6   17.23    0.69
  -3   0  -6   18.39    1.00
   3   0   6   17.73    0.83
   3   0   6   17.76    0.85
  -2   0  -5   86.50    2.25
  -2   0  -5   81.72    2.39
   2   0   5   85.44    2.33
   2   0   5   84.16    2.15
   2   0   5   84.57    2.14
   2   0   5   83.90    2.28
   2   0   5   84.45    2.26
  -2   0  -5   72.59    2.25
  -2   0  -5   85.36    2.16
   1   0   4  252.15    6.00
   1   0   4  257.39    6.13
   1   0   4  251.34    6.03
   1   0   4  263.49    6.16
   1   0   4  247.76    6.05
  -1   0  -4  258.50    6.23
  -1   0  -4  260.02    6.17
   1   0   4  251.65    6.16
  -1   0  -4  254.48    6.03
  -1   0  -4  250.46    6.21
  -1   0  -4  254.93    6.06
   0   0   3  374.82    8.54
   0   0   3  350.64    8.48
   0   0   3  352.79    8.54
   0   0   3  353.17    8.52
   0   0  -3  366.56    8.55
   0   0  -3  375.07    8.54
   0   0  -3  364.36    8.56
   1   0  -2   97.41    2.40
  -1   0   2  105.13    2.50
  -1   0   2   99.43    2.41
   1   0  -2   98.37    2.44
   1   0  -2   98.93    2.43
  -1   0   2   98.24    2.42
   1   0  -2   99.65    2.44
  -1   0   2   98.61    2.43
  -2   0   1  365.89    8.69
   2   0  -1  371.76    8.69
   2   0  -1  358.77    8.67
  -2   0   1  372.66    8.67
  -3   0   0   14.38    0.58
   3   0   0   13.99    0.51
   3   0   0   13.62    0.59
  -3   0   0   14.38    0.56
  -3   0   0   14.66    0.51
   3   0   0   12.91    0.57
  -3   0   0   14.39    0.48
   4   0   1    5.86    0.45
  -4   0  -1    4.07    0.43
   4   0   1    5.10    0.44
  -4   0  -1    4.91    0.29
  -4   0  -1    5.56    0.38
  -4   0  -1    5.38    0.36
   4   0   1    5.28    0.34
   4   0   1    5.39    0.49
   4   0   1    5.50    0.37
   5   0   2  170.94    4.28
   5   0   2  165.97    4.41
   5   0   2  175.34    4.49
   5   0   2  169.34    4.41
  -5   0  -2  170.28    4.33
  -5   0  -2  173.93    4.40
  -5   0  -2  155.22    4.20
  -5   0  -2  169.01    4.19
  -5   0  -2  173.72    4.31
   6   0   3    1.09    0.32
   6   0   3    0.97    0.35
  -6   0  -3    1.70    0.40
   6   0   3    1.02    0.36
  -6   0  -3    1.12    0.21
  -6   0  -3    0.92    0.27
   6   0   3    1.01    0.35
  -6   0  -3    0.65    0.31
   7   0   4   27.82    1.38
   7   0   4   25.25    1.33
  -7   0  -4   27.12    1.19
  -7   0  -4   24.59    1.18
  -7   0  -4   25.48    0.83
   7   0   4   23.70    1.27
   8   0   5    1.65    0.43
   8   0   5    0.83    0.63
   8   0   5    1.30    0.56
  -8   0  -5    1.48    0.68
   9   0   6    0.47    0.74
   9   0   6   -0.39    0.79
   9   0   6    0.00    0.61
   7   1  10    0.73    0.72
   7   1  10   -0.62    0.89
   7   1  10    0.50    0.95
  -7   1 -10    1.36    1.12
  -7  -1 -10    3.24    1.28
   7  -1  10    0.38    0.87
   7  -1  10    1.24    0.70
  -6   1  -9    0.37    0.76
  -6   1  -9    0.24    0.77
   6   1   9   -0.09    0.39
   6   1   9    0.67    0.59
  -6  -1  -9    1.07    0.88
   6  -1   9    0.81    0.64
   6  -1   9    0.97    0.61
   6  -1   9    0.76    0.46
  -5   1  -8    3.39    0.40
   5   1   8    3.94    0.55
  -5   1  -8    4.18    0.68
   5   1   8    3.73    0.61
  -5   1  -8    6.20    0.76
  -5   1  -8    4.07    0.76
   5   1   8    4.10    0.63
   5   1   8    2.95    0.42
   5  -1   8    4.64    0.96
  -5  -1  -8    5.23    0.80
   5  -1   8    3.96    0.64
  -5  -1  -8    4.91    0.81
   5  -1   8    3.30    0.57
   4   1   7    0.29    0.26
   4   1   7    1.06    0.27
  -4   1  -7    0.24    0.19
  -4   1  -7    0.48    0.30
   4   1   7    0.19    0.35
  -4   1  -7    0.92    0.35
  -4   1  -7    0.27    0.43
   4   1   7    0.58    0.31
   4   1   7    0.73    0.28
   4  -1   7    0.11    0.28
   4  -1   7    0.46    0.36
  -4  -1  -7    0.07    0.42
   4  -1   7    0.47    0.36
   4  -1   7    0.77    0.32
  -4  -1  -7    1.38    0.51
  -4  -1  -7    0.94    0.36
  -3   1  -6   31.87    1.00
  -3   1  -6   30.61    0.97
   3   1   6   32.28    1.06
  -3   1  -6   31.65    1.10
  -3   1  -6   33.25    1.33
   3   1   6   33.50    1.05
   3   1   6   32.51    1.24
   3   1   6   29.78    1.23
   3   1   6   31.88    1.18
  -3  -1  -6   31.60    1.09
   3  -1   6   31.39    1.28
  -3  -1  -6   32.34    1.12
   3  -1   6   30.80    1.08
  -3  -1  -6   32.71    1.41
  -3  -1  -6   31.49    1.37
   3  -1   6   32.04    1.08
  -3  -1  -6   31.13    1.17
   3  -1   6   33.23    1.19
   2   1   5   34.33    1.13
  -2   1  -5   34.53    1.00
  -2   1  -5   33.23    1.08
  -2   1  -5   34.65    1.22
  -2   1  -5   33.99    1.00
   2   1   5   34.09    1.20
   2   1   5   34.30    1.03
   2   1   5   29.64    1.11
  -2   1  -5   34.79    1.12
   2   1   5   31.73    1.15
   2   1   5   32.35    0.93
  -2  -1  -5   36.45    1.11
   2  -1   5   34.44    1.05
   2  -1   5   35.73    1.11
  -2  -1  -5   34.16    1.28
  -2  -1  -5   36.44    1.09
   2  -1   5   36.12    1.08
  -2  -1  -5   36.60    1.16
   2  -1   5   34.77    1.16
   2  -1   5   35.71    1.13
  -1   1  -4  163.14    4.01
  -1   1  -4  169.38    4.05
   1   1   4  167.76    4.08
   1   1   4  172.42    4.11
   1   1   4  163.22    4.00
  -1   1  -4  168.91    4.07
  -1   1  -4  164.20    3.92
  -1   1  -4  165.88    3.97
   1   1   4  162.24    3.98
   1   1   4  167.95    4.04
   1   1   4  160.88    3.89
   1  -1   4  166.15    4.01
   1  -1   4  155.39    3.95
   1  -1   4  160.78    4.01
  -1  -1  -4  167.42    4.18
   1  -1   4  165.23    4.03
  -1  -1  -4  148.98    4.16
   1  -1   4  165.03    4.05
  -1  -1  -4  164.54    4.03
  -1  -1  -4  160.36    4.03
   0   1  -3  467.40   10.84
   0   1  -3  461.97   10.86
   0   1   3  448.22   10.86
   0   1   3  469.40   10.89
   0   1   3  447.09   10.89
   0   1  -3  468.48   10.87
   0  -1  -3  463.86   10.88
   0  -1  -3  477.88   10.91
   0  -1   3  468.33   10.87
   0  -1  -3  459.65   10.91
   0  -1  -3  463.13   10.93
   0  -1  -3  461.29   10.86
   1   1  -2  179.13    4.20
  -1   1   2  175.72    4.25
  -1   1   2  178.40    4.23
   1   1  -2  182.14    4.24
  -1   1   2  172.61    4.21
  -1   1   2  184.61    4.25
  -1   1   2  176.91    4.15
   1   1  -2  175.64    4.18
  -1   1   2  180.88    4.26
   1  -1  -2  171.76    4.16
   1  -1  -2  173.60    4.23
   1  -1  -2  176.17    4.24
   1  -1  -2  165.72    4.30
  -1  -1   2  178.36    4.20
  -1  -1   2  177.53    4.19
  -1  -1   2  176.90    4.25
   1  -1  -2  177.11    4.25
  -2   1   1   21.83    0.70
   2   1  -1   21.67    0.59
   2   1  -1   21.40    0.66
   2   1  -1   22.13    0.68
  -2   1   1   22.22    0.69
   2   1  -1   21.95    0.75
  -2  -1   1   21.66    0.74
   2  -1  -1   22.21    0.69
  -2  -1   1   22.19    0.66
  -2  -1   1   22.50    0.59
  -2  -1   1   22.41    0.67
  -3   1   0  330.13    7.91
  -3   1   0  331.41    7.94
   3   1   0  337.79    7.98
   3   1   0  317.98    7.81
   3   1   0  329.43    7.94
  -3   1   0  327.48    7.87
   3   1   0  323.35    7.91
  -3  -1   0  330.75    7.81
  -3  -1   0  331.26    7.90
  -3  -1   0  332.00    7.98
   3  -1   0  333.05    7.86
   3  -1   0  344.74    7.98
   3  -1   0  336.18    7.93
  -4   1  -1   19.68    0.75
  -4   1  -1   18.63    0.79
  -4   1  -1   19.13    0.56
  -4   1  -1   18.70    0.67
   4   1   1   19.20    0.79
   4   1   1   18.39    0.83
   4   1   1   18.85    0.67
   4   1   1   18.91    0.78
   4   1   1   18.73    0.81
  -4   1  -1   19.39    0.69
   4  -1   1   19.18    0.82
   4  -1   1   19.86    0.81
  -4  -1  -1   20.28    0.86
  -4  -1  -1   19.95    0.66
  -4  -1  -1   20.01    0.73
   4  -1   1   19.88    0.76
   4  -1   1   19.44    0.75
  -5   1  -2   14.32    0.54
  -5   1  -2   15.06    0.61
   5   1   2   13.77    0.72
  -5   1  -2   14.50    0.68
   5   1   2   14.02    0.63
   5   1   2   14.88    0.82
  -5   1  -2   15.84    0.76
   5   1   2   15.58    0.77
  -5   1  -2   14.60    0.60
   5   1   2   13.69    0.78
   5  -1   2   13.85    0.72
   5  -1   2   13.53    0.83
  -5  -1  -2   14.86    0.60
  -5  -1  -2   15.49    0.83
  -5  -1  -2   13.91    0.46
  -5  -1  -2   13.59    0.64
  -5  -1  -2   14.54    0.72
   5  -1   2   15.58    0.78
   5  -1   2   13.90    0.69
   6   1   3   29.93    1.51
  -6   1  -3   31.04    1.17
   6   1   3   30.26    1.29
   6   1   3   32.66    1.36
  -6   1  -3   29.62    1.21
  -6   1  -3   29.31    1.00
   6   1   3   31.16    1.12
  -6   1  -3   30.67    1.02
   6  -1   3   30.50    1.31
  -6  -1  -3   30.52    1.20
  -6  -1  -3   30.95    1.31
   6  -1   3   30.20    1.19
  -6  -1  -3   31.62    1.30
  -6  -1  -3   30.16    0.85
   6  -1   3   29.63    1.21
   6  -1   3   30.82    1.35
   7   1   4   20.17    1.20
  -7   1  -4   18.49    0.75
  -7   1  -4   19.10    0.94
  -7   1  -4   18.46    1.03
   7   1   4   20.59    1.22
   7  -1   4   19.56    1.18
   7  -1   4   19.70    1.21
  -7  -1  -4   19.30    0.59
  -7  -1  -4   17.95    1.13
   8   1   5   -0.25    0.40
   8   1   5   -0.05    0.57
   8   1   5    0.52    0.55
  -8   1  -5   -0.39    0.47
   8  -1   5    0.19    0.54
   8  -1   5    0.48    0.45
  -8  -1  -5    0.51    0.66
   8  -1   5    0.39    0.61
   9   1   6    0.35    0.59
   9   1   6    0.31    0.81
   9   1   6   -1.18    0.79
   9  -1   6    0.81    0.81
   9  -1   6    0.98    0.64
   9  -1   6   -1.55    0.90
   6   2   9    2.13    0.46
   6   2   9    1.52    0.70
  -6   2  -9    1.70    0.83
   6   2   9    2.12    0.66
   6  -2   9    2.20    0.70
  -6  -2  -9    2.14    0.98
   6  -2   9    1.22    0.53
   5   2   8    7.52    0.90
  -5   2  -8    7.79    0.82
   5   2   8    7.94    0.97
   5   2   8    8.17    0.92
   5   2   8    7.95    0.65
  -5   2  -8    9.99    1.17
  -5   2  -8    6.80    0.84
  -5  -2  -8    8.94    1.07
  -5  -2  -8   10.36    1.27
   5  -2   8    7.98    0.97
   5  -2   8    7.61    1.11
   5  -2   8    7.71    0.50
   5  -2   8    7.58    0.84
   4   2   7   11.57    0.67
  -4   2  -7   11.37    0.58
   4   2   7   11.30    0.69
   4   2   7   11.87    0.88
  -4   2  -7   13.96    1.02
  -4   2  -7   12.28    0.70
   4   2   7   11.50    0.85
  -4   2  -7   11.65    0.91
   4  -2   7   12.79    0.78
  -4  -2  -7   12.54    1.07
   4  -2   7   12.70    0.76
   4  -2   7   10.61    1.01
   4  -2   7   12.46    0.57
  -4  -2  -7   12.48    1.06
   4  -2   7   13.65    0.85
   3   2   6   13.51    0.66
  -3   2  -6   12.40    0.55
  -3   2  -6   12.60    0.84
  -3   2  -6   12.22    0.63
   3   2   6   13.18    0.77
   3   2   6   12.63    0.73
  -3   2  -6   12.27    0.53
   3   2   6   14.39    0.90
  -3   2  -6   12.70    0.66
   3   2   6   12.75    0.60
  -3  -2  -6   10.93    0.63
  -3  -2  -6   12.70    0.72
   3  -2   6   10.93    0.71
   3  -2   6   11.85    0.62
  -3  -2  -6   11.92    0.88
   3  -2   6   12.42    0.68
  -3  -2  -6   11.60    0.68
   3  -2   6   12.76    0.71
  -3  -2  -6   12.78    0.95
   3  -2   6   11.85    0.65
  -2   2  -5   78.78    2.13
   2   2   5   81.31    2.14
   2   2   5   82.49    2.23
  -2   2  -5   82.22    2.07
  -2   2  -5   80.30    2.15
   2   2   5   79.65    1.95
  -2   2  -5   78.05    2.25
   2   2   5   81.50    2.22
   2   2   5   81.55    2.27
  -2   2  -5   81.03    2.19
   2   2   5   80.89    2.34
  -2  -2  -5   80.10    2.20
   2  -2   5   80.09    2.21
  -2  -2  -5   79.83    2.24
   2  -2   5   80.48    2.17
   2  -2   5   78.86    2.25
   2  -2   5   81.61    2.22
   2  -2   5   79.34    2.16
   2  -2   5   78.11    2.02
  -2  -2  -5   79.44    2.48
  -2  -2  -5   82.84    2.26
  -2  -2  -5   81.14    2.44
   1   2   4    1.18    0.20
  -1   2  -4    1.11    0.19
  -1   2  -4    1.30    0.20
   1   2   4    1.04    0.24
   1   2   4    1.59    0.25
   1   2   4    0.69    0.18
  -1   2  -4    1.37    0.19
  -1   2  -4    1.15    0.16
   1   2   4    1.42    0.24
  -1   2  -4    1.07    0.17
  -1  -2  -4    1.30    0.26
  -1  -2  -4    1.35    0.24
   1  -2   4    1.33    0.22
  -1  -2  -4    1.53    0.23
   1  -2   4    1.29    0.16
  -1  -2  -4    1.19    0.20
  -1  -2  -4    1.20    0.29
   1  -2   4    1.45    0.21
   1  -2   4    1.52    0.20
  -1  -2  -4    1.51    0.34
   0   2   3  101.90    2.59
   0   2  -3   95.49    2.62
   0   2  -3  100.96    2.49
   0   2  -3  107.19    2.57
   0   2  -3   98.51    2.51
   0   2  -3  100.59    2.48
   0   2  -3   99.27    2.56
   0   2   3   99.40    2.55
   0   2   3  103.02    2.61
   0   2   3  102.49    2.63
   0  -2  -3  104.21    2.67
   0  -2   3  105.36    2.60
   0  -2   3  101.08    2.48
   0  -2  -3  105.71    2.65
   0  -2  -3  105.61    2.58
   0  -2   3  101.93    2.52
   0  -2  -3  106.83    2.62
   0  -2   3  102.50    2.60
   0  -2   3  100.91    2.50
   0  -2  -3  104.46    2.66
   0  -2  -3  106.58    2.80
   1   2  -2  212.03    5.08
   1   2  -2  213.58    5.06
  -1   2   2  213.96    4.97
   1   2  -2  210.65    5.01
  -1   2   2  209.36    5.13
   1   2  -2  218.92    5.20
   1   2  -2  207.33    4.97
  -1   2   2  191.49    5.08
  -1   2   2  213.29    5.10
  -1   2   2  208.80    5.05
  -1   2   2  215.62    5.07
  -1   2   2  217.79    5.06
   1  -2  -2  207.43    5.14
   1  -2  -2  210.21    5.05
  -1  -2   2  201.96    5.09
  -1  -2   2  217.07    4.95
  -1  -2   2  210.28    4.94
   1  -2  -2  206.19    4.99
  -1  -2   2  209.31    4.93
   1  -2  -2  211.37    5.17
   2   2  -1  177.06    4.26
  -2   2   1  185.66    4.39
   2   2  -1  184.29    4.32
   2   2  -1  174.17    4.27
  -2   2   1  185.10    4.41
   2   2  -1  169.62    4.67
   2   2  -1  177.67    4.29
   2  -2  -1  179.69    4.40
  -2  -2   1  182.60    4.53
  -2  -2   1  181.38    4.32
  -2  -2   1  180.43    4.30
   2  -2  -1  181.87    4.37
  -2  -2   1  180.01    4.28
   2  -2  -1  175.74    4.35
  -3   2   0  182.53    4.44
   3   2   0  182.88    4.62
   3   2   0  174.47    4.33
  -3   2   0  182.56    4.47
   3   2   0  178.25    4.42
   3   2   0  179.76    4.45
  -3   2   0  181.60    4.43
  -3  -2   0  176.93    4.37
   3  -2   0  180.68    4.48
   3  -2   0  181.10    4.46
  -3  -2   0  181.52    4.62
   3  -2   0  179.29    4.28
  -3  -2   0  182.71    4.42
  -3  -2   0  175.34    4.24
  -3  -2   0  182.22    4.39
  -4   2  -1   78.02    2.20
   4   2   1   79.66    2.32
   4   2   1   77.98    2.06
  -4   2  -1   79.76    2.16
  -4   2  -1   78.63    2.13
   4   2   1   79.33    2.23
   4   2   1   79.48    2.19
   4   2   1   80.54    2.33
  -4  -2  -1   79.59    2.17
   4  -2   1   80.43    2.24
   4  -2   1   76.03    2.23
  -4  -2  -1   77.57    2.34
   4  -2   1   79.22    2.07
  -4  -2  -1   79.61    2.10
  -4  -2  -1   78.08    2.13
  -5   2  -2   31.19    1.16
  -5   2  -2   30.46    1.01
   5   2   2   29.85    1.15
   5   2   2   29.62    1.24
  -5   2  -2   29.86    1.13
  -5   2  -2   30.81    1.08
   5   2   2   29.92    1.21
   5   2   2   31.36    1.21
   5   2   2   29.68    0.99
  -5   2  -2   28.41    1.01
  -5  -2  -2   29.69    1.02
  -5  -2  -2   29.03    1.29
   5  -2   2   29.68    1.16
  -5  -2  -2   29.37    1.05
   5  -2   2   29.27    1.03
   5  -2   2   29.08    1.21
  -5  -2  -2   30.30    1.10
   6   2   3    6.00    0.52
  -6   2  -3    5.33    0.54
   6   2   3    5.65    0.72
  -6   2  -3    5.53    0.45
  -6   2  -3    5.55    0.59
   6   2   3    6.05    0.67
   6  -2   3    6.07    0.53
  -6  -2  -3    6.35    0.81
   6  -2   3    5.87    0.60
   6  -2   3    5.64    0.66
   6  -2   3    5.94    0.85
  -6  -2  -3    6.75    0.68
  -7   2  -4    4.07    0.68
   7   2   4    4.11    0.64
   7   2   4    3.48    0.64
   7   2   4    4.77    0.56
  -7   2  -4    5.72    0.82
   7  -2   4    4.87    0.66
   7  -2   4    4.23    0.62
  -7  -2  -4    7.04    0.98
   7  -2   4    4.42    0.66
   8   2   5    3.55    0.71
   8   2   5    1.71    0.67
   8   2   5    2.13    0.49
   8  -2   5    3.21    0.71
   8  -2   5    3.09    0.70
   8  -2   5    1.83    0.53
  -8  -2  -5    2.43    0.92
   9   2   6    2.77    0.69
   9   2   6    3.25    0.88
   9   2   6    3.52    0.98
  -9  -2  -6    0.49    1.11
   9  -2   6    3.96    0.92
   6   3   9    0.60    0.68
   6   3   9   -0.19    0.65
   6   3   9    0.19    0.47
  -6   3  -9    0.46    0.85
   6  -3   9   -0.80    0.68
  -6  -3  -9    0.35    1.08
  -5   3  -8    3.13    0.80
   5   3   8    4.03    0.52
   5   3   8    3.17    0.62
   5   3   8    3.66    0.65
  -5   3  -8    4.82    0.77
   5  -3   8    3.87    0.40
   5  -3   8    3.61    0.60
  -5  -3  -8    5.81    1.01
  -4   3  -7    2.17    0.35
   4   3   7    1.94    0.56
  -4   3  -7    2.28    0.38
   4   3   7    2.21    0.54
  -4   3  -7    2.04    0.52
   4   3   7    2.26    0.48
   4  -3   7    2.31    0.43
   4  -3   7    2.44    0.32
   4  -3   7    2.00    0.40
  -4  -3  -7    2.46    0.78
   4  -3   7    3.57    0.55
  -3   3  -6    2.64    0.39
   3   3   6    2.37    0.41
  -3   3  -6    2.26    0.32
   3   3   6    2.18    0.39
   3   3   6    2.53    0.38
  -3   3  -6    1.53    0.65
  -3   3  -6    1.97    0.26
   3   3   6    2.25    0.35
   3  -3   6    1.90    0.39
   3  -3   6    2.04    0.34
  -3  -3  -6    2.23    0.59
  -3  -3  -6    0.94    0.42
   3  -3   6    1.81    0.30
   3  -3   6    2.22    0.43
   3  -3   6    2.05    0.30
   2   3   5    7.78    0.52
   2   3   5    8.32    0.64
   2   3   5    8.04    0.54
  -2   3  -5    7.86    0.42
   2   3   5    8.94    0.55
  -2   3  -5    7.92    0.41
  -2   3  -5    7.99    0.46
   2   3   5    7.70    0.49
  -2   3  -5    8.79    0.56
  -2   3  -5    8.15    0.49
  -2  -3  -5    8.28    0.80
   2  -3   5    8.27    0.57
  -2  -3  -5    7.75    0.58
  -2  -3  -5    7.21    0.72
  -2  -3  -5    7.79    0.52
   2  -3   5    6.68    0.48
   2  -3   5    7.36    0.46
   2  -3   5    7.69    0.51
   2  -3   5    8.02    0.50
  -2  -3  -5    7.84    0.49
   1   3   4    4.67    0.35
  -1   3  -4    4.28    0.29
  -1   3  -4    4.08    0.26
   1   3   4    4.44    0.37
  -1   3  -4    4.48    0.35
   1   3   4    4.64    0.36
   1   3   4    4.52    0.45
  -1   3  -4    4.73    0.27
   1   3   4    4.81    0.41
  -1   3  -4    4.40    0.41
  -1   3  -4    4.60    0.30
  -1   3  -4    4.11    0.32
  -1  -3  -4    4.91    0.50
   1  -3   4    4.85    0.34
   1  -3   4    5.04    0.31
  -1  -3  -4    5.21    0.41
   1  -3   4    4.74    0.28
  -1  -3  -4    4.93    0.34
  -1  -3  -4    4.51    0.35
  -1  -3  -4    4.97    0.61
   1  -3   4    5.42    0.42
  -1  -3  -4    4.97    0.46
   0   3  -3   12.35    0.43
   0   3   3   13.29    0.61
   0   3  -3   12.67    0.53
   0   3  -3   13.08    0.52
   0   3   3   12.42    0.51
   0   3  -3   12.26    0.58
   0   3  -3   12.38    0.64
   0   3   3   10.62    0.60
   0   3   3   13.27    0.50
   0   3   3   13.22    0.53
   0   3   3   13.01    0.61
   0   3  -3   12.85    0.42
   0  -3  -3   12.23    0.51
   0  -3   3   12.51    0.57
   0  -3  -3   12.80    0.61
   0  -3   3   12.86    0.41
   0  -3  -3   12.40    0.50
   0  -3   3   12.42    0.57
   0  -3  -3   12.66    0.63
   0  -3   3   13.36    0.54
   0  -3  -3   13.05    0.76
  -1   3   2   10.26    0.41
  -1   3   2   10.36    0.42
   1   3  -2    9.96    0.41
  -1   3   2   10.06    0.43
  -1   3   2    9.86    0.43
  -1   3   2    9.93    0.54
   1   3  -2    9.58    0.59
  -1   3   2   10.06    0.50
   1   3  -2   10.12    0.49
  -1   3   2    9.86    0.39
   1   3  -2    9.44    0.42
   1   3  -2    9.92    0.49
   1  -3  -2   10.21    0.63
  -1  -3   2    9.71    0.60
  -1  -3   2   10.83    0.53
  -1  -3   2   10.21    0.46
   1  -3  -2    9.50    0.55
   2   3  -1  338.50    8.06
   2   3  -1  347.65    8.02
  -2   3   1  331.19    8.15
   2   3  -1  352.21    8.39
   2   3  -1  347.01    8.22
   2   3  -1  313.90    8.00
   2   3  -1  340.27    8.02
  -2   3   1  347.81    8.14
  -2   3   1  347.27    8.08
  -2  -3   1  324.86    8.14
  -2  -3   1  346.38    7.97
   2  -3  -1  340.73    8.10
  -2  -3   1  326.98    8.02
   2  -3  -1  347.63    8.11
   2  -3  -1  346.20    8.19
   2  -3  -1  340.34    8.22
  -2  -3   1  344.37    8.37
   3   3   0  226.58    5.45
  -3   3   0  235.51    5.72
   3   3   0  230.43    5.76
   3   3   0  232.38    5.59
   3   3   0  226.69    5.56
  -3   3   0  236.85    5.67
  -3   3   0  226.76    5.44
   3   3   0  231.60    5.92
   3   3   0  233.37    5.63
  -3   3   0  234.82    5.61
  -3  -3   0  237.54    5.66
   3  -3   0  232.94    5.71
   3  -3   0  229.65    5.41
  -3  -3   0  232.07    5.57
  -3  -3   0  231.13    5.56
  -3  -3   0  228.66    5.49
  -3  -3   0  227.39    5.92
   3  -3   0  226.11    5.52
   3  -3   0  232.31    5.66
   4   3   1   11.99    0.77
   4   3   1   11.97    0.66
   4   3   1   11.68    0.51
   4   3   1   11.34    0.62
  -4   3  -1   11.50    0.57
   4   3   1   12.21    0.75
  -4   3  -1   10.83    0.58
   4   3   1   12.02    0.60
  -4   3  -1   11.73    0.57
  -4   3  -1   11.00    0.55
  -4   3  -1   12.47    0.61
   4  -3   1   11.35    0.41
  -4  -3  -1   10.97    0.80
  -4  -3  -1   10.94    0.52
   4  -3   1   10.54    0.59
   4  -3   1   10.91    0.58
  -4  -3  -1   11.62    0.54
  -4  -3  -1   10.91    0.56
  -5   3  -2   10.48    0.58
   5   3   2   11.07    0.68
  -5   3  -2    9.44    0.59
   5   3   2   11.89    0.58
   5   3   2   10.62    0.79
  -5   3  -2   11.67    0.71
   5   3   2   11.69    0.94
  -5   3  -2   10.54    0.64
  -5   3  -2   10.02    0.59
   5   3   2   11.18    0.71
   5   3   2   11.37    0.73
   5  -3   2   12.30    0.77
   5  -3   2    9.41    0.67
  -5  -3  -2    9.76    0.59
   5  -3   2   11.91    0.63
  -5  -3  -2   12.98    0.93
  -5  -3  -2    9.67    0.61
   5  -3   2   10.57    0.49
  -5  -3  -2   11.34    0.64
  -6   3  -3    4.41    0.53
  -6   3  -3    3.89    0.50
  -6   3  -3    5.06    0.66
   6   3   3    4.96    0.66
   6   3   3    3.61    0.57
   6   3   3    3.47    0.49
   6  -3   3    3.09    0.52
  -6  -3  -3    3.73    0.66
   6  -3   3    3.22    0.41
   6  -3   3    5.74    0.71
   7   3   4    4.60    0.66
  -7   3  -4    4.02    0.56
   7   3   4    5.40    0.75
   7   3   4    5.04    0.61
   7  -3   4    4.68    0.65
   7  -3   4    3.35    0.56
   7  -3   4    4.34    0.77
  -7  -3  -4    6.21    0.92
   8   3   5   10.33    1.22
   8   3   5   10.53    0.87
   8   3   5   13.05    1.30
  -8  -3  -5   11.63    1.53
   9   3   6   -0.30    1.13
   9   3   6    1.22    0.72
   9   3   6    3.10    1.02
   9  -3   6    2.29    0.78
  -9  -3  -6    1.88    1.27
   9  -3   6    3.73    0.99
  -6   4  -9    2.90    1.00
   6   4   9    1.17    0.61
   6   4   9    0.90    0.85
   6   4   9   -0.72    0.74
  -6  -4  -9    1.28    1.32
   5   4   8    0.20    0.48
  -5   4  -8    0.75    0.70
   5   4   8   -0.58    0.49
   5   4   8    0.69    0.39
  -5  -4  -8    0.19    0.97
   5  -4   8    0.82    0.57
   4   4   7    1.59    0.46
  -4   4  -7    1.51    0.44
   4   4   7    1.23    0.40
  -4   4  -7    2.03    0.36
   4   4   7    2.08    0.39
  -4   4  -7    1.43    0.53
  -4   4  -7    2.07    0.37
  -4  -4  -7    1.28    0.80
   4  -4   7    1.27    0.32
   4  -4   7    0.87    0.35
   4  -4   7    1.96    0.42
   3   4   6    1.13    0.33
  -3   4  -6    0.52    0.21
  -3   4  -6    0.73    0.23
   3   4   6    0.57    0.27
  -3   4  -6    1.32    0.25
  -3   4  -6    1.15    0.38
   3   4   6    1.48    0.37
   3  -4   6    0.91    0.28
   3  -4   6    0.26    0.26
   3  -4   6    0.09    0.36
   3  -4   6    0.30    0.37
  -3  -4  -6    1.41    0.72
   3  -4   6    0.89    0.28
   2   4   5    8.45    0.58
  -2   4  -5    9.10    0.48
   2   4   5    7.31    0.69
   2   4   5    8.64    0.65
  -2   4  -5    9.29    0.48
   2   4   5   10.11    0.59
  -2   4  -5    9.67    0.60
   2   4   5    8.74    0.58
  -2   4  -5    8.29    0.63
  -2   4  -5    9.01    0.44
   2   4   5    8.87    0.37
  -2  -4  -5    8.79    0.94
   2  -4   5    9.50    0.53
   2  -4   5    8.85    0.51
  -2  -4  -5    8.44    0.61
   2  -4   5   10.16    0.59
   2  -4   5    9.35    0.53
   2  -4   5    8.42    0.65
   1   4   4   26.57    1.10
   1   4   4   27.11    1.08
  -1   4  -4   27.72    0.91
  -1   4  -4   27.61    0.90
  -1   4  -4   28.06    0.85
  -1   4  -4   28.01    1.12
   1   4   4   26.86    0.95
   1   4   4   27.33    1.03
   1   4   4   27.84    0.92
  -1   4  -4   27.39    0.79
  -1   4  -4   28.88    0.93
  -1   4  -4   26.19    0.96
   1  -4   4   27.85    0.96
   1  -4   4   27.97    1.08
   1  -4   4   28.92    0.88
  -1  -4  -4   27.14    0.97
  -1  -4  -4   26.07    1.32
  -1  -4  -4   29.02    1.14
  -1  -4  -4   27.56    1.09
   1  -4   4   28.11    0.86
   1  -4   4   28.36    1.00
  -1  -4  -4   27.71    0.94
   0   4   3  151.02    3.77
   0   4  -3  156.60    4.07
   0   4   3  149.01    3.72
   0   4   3  153.16    3.96
   0   4  -3  146.11    3.82
   0   4   3  144.97    3.84
   0   4   3  149.42    3.96
   0   4  -3  151.55    3.86
   0   4   3  150.68    3.99
   0   4   3  164.08    4.28
   0   4  -3  151.58    3.79
   0  -4   3  154.95    3.62
   0  -4   3  153.20    3.89
   0  -4  -3  154.29    3.79
   0  -4  -3  148.86    3.81
   0  -4  -3  152.13    4.18
   0  -4  -3  156.56    4.02
   0  -4   3  150.67    3.92
  -1   4   2  122.46    3.14
  -1   4   2  123.06    3.32
  -1   4   2  122.77    3.21
  -1   4   2  127.03    3.10
   1   4  -2  122.61    3.17
  -1   4   2  124.42    3.04
  -1   4   2  123.34    3.10
   1   4  -2  125.11    3.21
   1   4  -2  121.08    3.20
   1   4  -2  127.41    3.46
   1   4  -2  123.55    3.34
  -1   4   2  122.79    3.10
  -1   4   2  126.19    3.31
  -1  -4   2  126.15    3.41
  -1  -4   2  123.70    3.22
  -1  -4   2  125.61    3.28
   1  -4  -2  124.12    3.43
   1  -4  -2  126.58    3.35
  -2   4   1    7.11    0.36
   2   4  -1    7.42    0.52
  -2   4   1    8.38    0.56
  -2   4   1    7.61    0.42
   2   4  -1    7.10    0.36
   2   4  -1    7.69    0.32
   2   4  -1    7.62    0.44
  -2   4   1    6.95    0.46
  -2   4   1    6.85    0.38
  -2   4   1    7.60    0.27
  -2   4   1    7.40    0.48
   2   4  -1    6.49    0.62
  -2  -4   1    7.35    0.67
  -2  -4   1    7.08    0.45
  -2  -4   1    7.65    0.28
   2  -4  -1    8.20    0.59
   2  -4  -1    7.83    0.37
   2  -4  -1    7.05    0.55
  -2  -4   1    7.53    0.43
   3   4   0   38.00    1.17
   3   4   0   39.19    1.17
   3   4   0   38.92    1.51
   3   4   0   39.41    1.13
  -3   4   0   38.97    1.14
  -3   4   0   37.93    1.29
  -3   4   0   39.53    1.21
   3   4   0   37.77    1.35
   3  -4   0   38.74    1.20
  -3  -4   0   37.10    1.08
  -3  -4   0   37.45    1.26
  -3  -4   0   37.67    1.54
  -3  -4   0   38.21    1.08
  -3  -4   0   37.92    1.13
   3  -4   0   39.59    1.20
   3  -4   0   38.35    1.34
  -4   4  -1    3.83    0.46
   4   4   1    4.32    0.45
   4   4   1    3.47    0.60
   4   4   1    3.85    0.36
  -4   4  -1    4.14    0.37
   4   4   1    3.32    0.44
  -4   4  -1    3.96    0.41
   4   4   1    4.08    0.52
   4   4   1    4.29    0.58
  -4   4  -1    4.83    0.47
  -4   4  -1    3.78    0.34
  -4  -4  -1    3.69    0.37
  -4  -4  -1    4.60    0.44
   4  -4   1    3.18    0.38
  -4  -4  -1    3.38    0.34
   4  -4   1    3.76    0.23
   4  -4   1    3.82    0.48
   4  -4   1    3.38    0.49
  -4  -4  -1    4.02    0.68
  -5   4  -2   32.55    1.14
   5   4   2   31.18    1.07
   5   4   2   30.29    1.26
  -5   4  -2   30.46    1.16
   5   4   2   29.63    1.19
   5  -4   2   31.62    1.29
  -5  -4  -2   32.12    1.57
   5  -4   2   31.82    1.23
   5  -4   2   31.86    0.95
  -6   4  -3    5.33    0.58
   6   4   3    6.57    0.80
   6   4   3    5.72    1.14
  -6   4  -3    5.19    0.57
  -6   4  -3    6.10    0.61
   6   4   3    5.81    0.85
   6  -4   3    5.72    0.66
   6  -4   3    6.37    0.68
   6  -4   3    5.74    0.45
   6  -4   3    5.52    0.75
  -6  -4  -3    6.34    0.98
   7   4   4    4.55    0.67
   7   4   4    4.40    0.61
   7   4   4    4.46    0.67
  -7  -4  -4    4.43    0.97
   7  -4   4    3.85    0.63
   7  -4   4    3.16    0.53
   8   4   5    4.01    0.65
   8   4   5    2.83    0.79
   8   4   5    4.01    0.85
   8  -4   5    4.41    0.88
   8  -4   5    3.56    0.66
  -8  -4  -5    5.83    1.21
  -5   5  -8   -0.57    0.75
   5   5   8    0.46    0.45
   5   5   8    0.22    0.63
   5   5   8   -0.25    0.57
  -5  -5  -8   -0.21    1.20
   4   5   7    4.43    0.62
   4   5   7    4.93    0.67
  -4   5  -7    5.06    0.75
   4   5   7    5.40    0.80
   4  -5   7    7.14    0.67
   4  -5   7    6.70    0.87
  -4  -5  -7    6.09    1.11
  -3   5  -6    3.13    0.45
  -3   5  -6    3.32    0.45
  -3   5  -6    3.54    0.51
   3   5   6    3.32    0.45
  -3   5  -6    4.90    0.71
   3   5   6    3.60    0.50
   3   5   6    2.43    0.60
  -3   5  -6    3.99    0.49
   3  -5   6    3.41    0.63
   3  -5   6    3.57    0.47
  -3  -5  -6    3.29    0.84
   3  -5   6    3.63    0.45
   3  -5   6    2.83    0.38
   3  -5   6    3.45    0.57
  -2   5  -5    2.26    0.46
   2   5   5    2.44    0.43
   2   5   5    1.83    0.28
   2   5   5    1.86    0.35
  -2   5  -5    2.41    0.26
  -2   5  -5    1.84    0.32
   2   5   5    1.53    0.49
  -2   5  -5    2.22    0.30
   2   5   5    0.62    0.62
   2  -5   5    2.07    0.31
   2  -5   5    2.07    0.30
   2  -5   5    1.86    0.28
   2  -5   5    1.43    0.48
  -2  -5  -5    2.04    0.66
   2  -5   5    1.95    0.35
  -1   5  -4    3.07    0.36
   1   5   4    2.43    0.40
   1   5   4    2.99    0.50
   1   5   4    2.37    0.42
   1   5   4    2.47    0.33
  -1   5  -4    3.45    0.52
  -1   5  -4    2.63    0.33
   1   5   4    2.29    0.32
   1   5   4    2.82    0.38
  -1   5  -4    3.45    0.30
  -1  -5  -4    2.03    0.45
   1  -5   4    2.12    0.42
   1  -5   4    2.71    0.40
   1  -5   4    3.02    0.28
  -1  -5  -4    3.51    0.70
   1  -5   4    2.89    0.41
  -1  -5  -4    2.14    0.29
   0   5   3    1.59    0.26
   0   5  -3    1.70    0.32
   0   5   3    2.20    0.44
   0   5  -3    1.65    0.31
   0   5   3    1.62    0.29
   0   5   3    1.76    0.24
   0   5  -3    1.41    0.26
   0   5  -3    1.97    0.42
   0   5   3    1.77    0.24
   0   5   3    1.84    0.38
   0   5   3    1.52    0.21
   0   5   3    1.68    0.31
   0   5  -3    2.35    0.33
   0  -5  -3    1.86    0.24
   0  -5   3    2.68    0.57
   0  -5  -3    1.88    0.51
   0  -5   3    1.81    0.36
   0  -5  -3    2.52    0.47
  -1   5   2    2.23    0.40
  -1   5   2    1.95    0.41
  -1   5   2    2.25    0.28
   1   5  -2    1.90    0.32
   1   5  -2    2.32    0.47
  -1   5   2    1.75    0.25
  -1   5   2    1.60    0.35
  -1   5   2    1.81    0.23
  -1   5   2    1.95    0.31
   1   5  -2    2.31    0.37
   1   5  -2    2.58    0.32
  -1   5   2    1.63    0.27
   1   5  -2    2.21    0.33
  -1   5   2    2.05    0.24
  -1  -5   2    1.53    0.31
   1  -5  -2    1.89    0.49
   1  -5  -2    2.22    0.42
  -1  -5   2    1.86    0.48
  -1  -5   2    1.68    0.38
  -2   5   1    0.72    0.27
   2   5  -1    0.87    0.31
  -2   5   1    1.09    0.18
  -2   5   1    0.87    0.17
   2   5  -1    1.26    0.27
  -2   5   1    1.55    0.38
  -2   5   1    1.29    0.26
  -2   5   1    1.00    0.11
  -2   5   1    0.97    0.21
   2   5  -1    1.09    0.22
   2   5  -1    0.57    0.47
  -2   5   1    1.43    0.33
  -2  -5   1    0.84    0.45
  -2  -5   1    1.32    0.28
   2  -5  -1    1.36    0.40
   2  -5  -1    0.96    0.17
   2  -5  -1    0.93    0.34
  -3   5   0    4.89    0.33
   3   5   0    4.91    0.44
  -3   5   0    5.03    0.54
   3   5   0    3.88    0.99
   3   5   0    3.93    0.60
  -3   5   0    4.68    0.70
  -3   5   0    4.67    0.43
   3   5   0    4.67    0.31
   3   5   0    5.26    0.35
   3   5   0    5.36    0.39
  -3  -5   0    4.46    0.28
  -3  -5   0    4.94    0.50
  -3  -5   0    5.89    0.81
   3  -5   0    4.76    0.57
   3  -5   0    4.95    0.58
  -3  -5   0    4.17    0.28
   3  -5   0    4.34    0.39
   3  -5   0    4.35    0.37
   4   5   1   62.59    1.84
  -4   5  -1   59.77    1.56
  -4   5  -1   59.56    1.68
   4   5   1   62.13    1.78
  -4   5  -1   62.29    1.81
   4   5   1   61.42    1.78
  -4  -5  -1   58.75    1.69
   4  -5   1   59.79    1.81
  -4  -5  -1   60.90    2.32
   4  -5   1   59.39    1.83
  -4  -5  -1   55.70    2.30
   4  -5   1   63.43    2.03
  -5   5  -2   12.98    0.76
   5   5   2   13.13    0.78
   5   5   2   13.52    0.71
  -5   5  -2   12.99    0.66
   5  -5   2   13.51    0.80
  -5  -5  -2   13.54    1.39
   5  -5   2   10.90    0.93
   5  -5   2   12.39    0.91
   6   5   3    9.59    0.69
  -6   5  -3    9.84    0.74
   6   5   3   11.54    1.03
   6  -5   3    9.45    0.92
   6  -5   3   10.92    0.88
  -6  -5  -3    8.98    1.28
   7   5   4    5.36    0.73
   7   5   4    5.51    0.79
   7   5   4    4.78    0.73
  -7  -5  -4    6.52    1.24
   7  -5   4    6.21    0.86
   8   5   5    2.99    0.93
   8   5   5    3.19    0.72
   8   5   5    2.58    0.95
   8  -5   5    1.81    1.07
  -8  -5  -5    2.64    1.41
   5   6   8    1.66    0.71
   5   6   8    1.50    0.83
   5   6   8    0.08    0.81
  -5  -6  -8    1.70    1.71
  -4   6  -7    1.43    0.67
   4   6   7    0.41    0.42
   4   6   7    1.23    0.57
   4   6   7    0.76    0.51
   4  -6   7    0.56    0.46
  -4  -6  -7    2.06    1.12
  -3   6  -6   14.49    0.98
  -3   6  -6   17.01    0.84
   3   6   6   16.52    1.03
   3   6   6   15.03    0.91
   3   6   6   15.37    1.00
   3  -6   6   15.87    1.22
   3  -6   6   16.27    0.94
  -3  -6  -6   16.34    1.60
   2   6   5    6.02    0.60
  -2   6  -5    5.86    0.58
   2   6   5    6.27    0.64
   2   6   5    4.49    0.63
   2   6   5    7.02    0.42
  -2   6  -5    5.87    0.58
  -2   6  -5    5.96    0.85
  -2   6  -5    6.60    0.46
   2   6   5    6.26    0.96
  -2  -6  -5    5.90    0.96
   2  -6   5    5.67    0.68
   2  -6   5    5.60    0.42
   1   6   4    5.47    0.65
   1   6   4    3.97    0.67
   1   6   4    4.68    0.48
  -1   6  -4    4.57    0.53
   1   6   4    3.93    0.44
  -1   6  -4    5.32    0.69
   1   6   4    4.31    0.45
   1   6   4    3.39    0.48
   1   6   4    3.89    0.44
  -1   6  -4    4.34    0.45
   1  -6   4    6.16    0.74
   1  -6   4    5.22    0.66
  -1  -6  -4    4.97    0.70
   1  -6   4    4.45    0.31
  -1  -6  -4    6.54    0.98
   0   6  -3   36.20    1.59
   0   6   3   34.80    1.10
   0   6  -3   38.91    1.34
   0   6  -3   38.74    1.86
   0   6   3   37.55    1.32
   0   6   3   37.60    1.07
   0   6   3   33.38    1.48
   0   6   3   37.06    1.13
   0   6  -3   38.01    1.23
   0   6   3   35.75    1.43
   0   6   3   34.02    1.21
   0  -6  -3   35.38    1.59
   0  -6  -3   35.55    1.71
   0  -6   3   36.62    1.41
   0  -6   3   35.85    1.41
  -1   6   2   17.89    0.63
   1   6  -2   18.25    0.83
  -1   6   2   15.20    0.80
  -1   6   2   17.82    0.55
  -1   6   2   17.38    0.74
  -1   6   2   18.20    0.98
   1   6  -2   18.10    0.98
  -1   6   2   15.72    0.57
   1   6  -2   18.55    0.85
  -1   6   2   16.33    0.74
  -1  -6   2   16.58    1.13
   1  -6  -2   17.04    1.13
  -1  -6   2   16.31    0.97
   1  -6  -2   14.82    1.02
   2   6  -1    7.86    0.66
  -2   6   1    8.36    0.75
  -2   6   1    8.23    0.42
   2   6  -1    8.77    0.60
  -2   6   1    8.65    0.35
  -2   6   1    9.11    0.54
  -2   6   1    8.08    0.33
   2   6  -1    7.77    0.46
  -2   6   1    8.49    0.33
  -2   6   1    8.87    0.78
  -2   6   1    8.38    0.45
   2  -6  -1    7.96    0.83
  -2  -6   1    8.75    0.96
   2  -6  -1    8.65    0.84
  -3   6   0   19.70    0.78
  -3   6   0   18.81    0.81
   3   6   0   19.39    0.70
  -3   6   0   19.05    0.62
   3   6   0   18.80    0.83
  -3   6   0   19.08    0.64
   3   6   0   19.84    0.72
   3  -6   0   18.93    0.69
   3  -6   0   17.52    0.72
   3  -6   0   18.56    0.96
  -3  -6   0   19.95    1.36
  -3  -6   0   18.36    0.62
   3  -6   0   19.91    1.12
   4   6   1    2.86    0.42
  -4   6  -1    2.05    0.47
   4   6   1    2.37    0.44
  -4   6  -1    2.31    0.32
   4   6   1    2.45    0.35
   4   6   1    2.26    0.28
   4  -6   1    3.45    0.61
  -4  -6  -1    3.61    0.80
   4  -6   1    2.81    0.34
   4  -6   1    2.20    0.34
   5   6   2   15.57    0.95
   5   6   2   15.68    0.92
  -5   6  -2   16.35    0.88
   5   6   2   14.91    0.79
   5  -6   2   16.03    1.12
  -5  -6  -2   15.34    1.45
   5  -6   2   14.91    0.94
   6   6   3    1.18    0.40
   6   6   3    1.02    0.60
   6   6   3    0.90    0.49
   6  -6   3    0.99    0.55
  -6  -6  -3    1.47    0.96
   7   6   4    0.57    0.69
   7   6   4    1.54    0.72
   7   6   4    1.59    0.55
   7  -6   4    0.87    0.69
  -7  -6  -4    0.63    1.18
   4   7   7    0.86    0.60
   4   7   7    1.34    0.77
   4   7   7   -0.47    0.68
  -4  -7  -7    3.20    1.56
  -3   7  -6    3.51    0.61
   3   7   6    3.53    0.61
   3   7   6    3.34    0.64
   3   7   6    3.23    0.58
   3  -7   6    4.35    0.65
  -3  -7  -6    5.29    1.24
   2   7   5    0.65    0.39
   2   7   5    0.79    0.45
  -2   7  -5    0.29    0.36
   2   7   5    0.15    0.50
   2  -7   5    0.87    0.52
  -2  -7  -5    0.93    0.83
  -1   7  -4    2.21    0.55
   1   7   4    2.28    0.37
   1   7   4    2.98    0.49
   1   7   4    2.21    0.54
   1   7   4    2.37    0.52
   1   7   4    2.51    0.57
   1   7   4    2.33    0.38
  -1   7  -4    2.45    0.35
   1   7   4    1.61    0.71
  -1  -7  -4    3.13    0.70
   1  -7   4    1.86    0.58
  -1  -7  -4    3.91    0.84
   0   7  -3   15.27    0.77
   0   7   3   14.95    0.59
   0   7   3   15.17    0.78
   0   7   3   15.04    0.56
   0   7   3   16.09    1.01
   0   7  -3   14.88    0.93
   0   7   3   14.50    0.87
   0   7   3   15.22    0.68
   0  -7   3   15.55    1.07
   0  -7  -3   14.56    1.74
   0  -7  -3   16.46    1.18
   1   7  -2   18.44    0.96
  -1   7   2   18.14    0.64
  -1   7   2   18.27    0.82
   1   7  -2   17.34    0.89
  -1   7   2   17.42    0.72
  -1   7   2   13.99    1.34
  -1   7   2   18.49    0.77
  -1  -7   2   18.01    1.15
  -1  -7   2   16.13    1.27
   1  -7  -2   18.18    1.22
   1  -7  -2   18.33    1.29
  -2   7   1   16.49    0.52
  -2   7   1   15.99    0.59
  -2   7   1   15.25    1.02
   2   7  -1   17.29    0.98
   2   7  -1   16.26    0.89
  -2   7   1   15.59    0.62
   2  -7  -1   16.79    1.13
   2  -7  -1   17.78    1.18
  -2  -7   1   15.90    1.32
   3   7   0    0.31    0.33
  -3   7   0    1.47    0.30
   3   7   0    1.47    0.42
  -3   7   0    1.05    0.31
   3  -7   0    1.37    0.58
   3  -7   0    1.43    0.34
   3  -7   0    0.67    0.57
  -3  -7   0    1.27    0.22
  -3  -7   0    1.70    0.74
  -4   7  -1    1.53    0.23
   4   7   1    1.47    0.39
  -4   7  -1    1.93    0.39
   4   7   1    1.68    0.37
  -4  -7  -1    2.58    0.84
   4  -7   1    2.01    0.61
   5   7   2    0.85    0.51
   5   7   2    1.01    0.40
   5   7   2    1.86    0.54
  -5  -7  -2    1.59    1.00
   5  -7   2    1.41    0.63
   6   7   3    0.34    0.60
   6   7   3    1.33    0.48
   6   7   3    1.98    0.67
   6  -7   3    1.92    0.70
  -6  -7  -3    1.71    1.14
   3   8   6    0.87    0.63
   3   8   6    1.39    0.77
   3   8   6    0.10    0.70
  -3  -8  -6   -0.56    1.74
   2   8   5   -0.19    0.46
  -2   8  -5    0.62    0.69
   2   8   5   -0.13    0.59
   2   8   5    0.49    0.48
   2  -8   5    0.00    0.68
  -2  -8  -5    0.02    1.10
   1   8   4    1.63    0.58
   1   8   4    2.10    0.46
  -1   8  -4    1.27    0.46
  -1   8  -4    1.65    0.72
  -1  -8  -4    0.99    0.82
  -1  -8  -4    3.01    0.99
   1  -8   4    1.85    0.62
   0   8   3    0.55    0.55
   0   8  -3    1.41    0.43
   0   8   3    1.99    0.65
   0   8  -3    2.25    0.60
   0   8   3    1.75    0.39
   0  -8  -3    4.90    0.96
   0  -8  -3    2.99    0.76
   0  -8   3    2.61    0.62
   1   8  -2    2.29    0.46
  -1   8   2    2.28    0.60
   1   8  -2    2.45    0.57
   1  -8  -2    2.29    0.70
   1  -8  -2    3.78    0.87
  -1  -8   2    2.53    0.79
  -2   8   1    1.60    0.62
   2   8  -1    1.50    0.53
   2   8  -1    1.37    0.52
   2  -8  -1    1.25    0.73
   2  -8  -1    3.26    0.73
  -2  -8   1    2.58    0.80
  -3   8   0    9.80    1.16
   3   8   0    9.18    0.82
   3   8   0    5.94    1.03
   3  -8   0   10.74    1.10
  -3  -8   0   11.40    1.40
   3  -8   0    9.35    1.27
   4   8   1   10.15    0.87
  -4   8  -1   10.23    0.59
  -4  -8  -1   10.38    1.58
   4  -8   1    8.21    0.97
   5   8   2   -0.06    0.54
   5   8   2    0.44    0.47
  -5  -8  -2    0.00    1.24
   5  -8   2    2.14    0.83
   1   9   4    0.65    0.75
  -1   9  -4    1.15    0.73
   1  -9   4    0.26    0.78
  -1  -9  -4   -0.91    1.37
   0   9   3    0.45    0.69
   0   9  -3   -0.18    0.67
   0  -9  -3    0.86    0.92
   0  -9  -3    0.36    1.11
   1   9  -2    0.99    1.07
  -1   9   2    0.99    0.75
   1  -9  -2    2.44    1.01
   1  -9  -2    1.47    1.02
   2   9  -1    0.52    0.59
   2   9  -1    0.74    0.86
  -2   9   1    0.20    0.80
   2  -9  -1    0.16    0.97
   2  -9  -1    1.50    0.96
  -2  -9   1    0.87    1.00
   3   9   0    0.43    0.87
   3   9   0    0.98    0.59
  -3   9   0    0.06    0.84
  -3  -9   0    0.33    1.26
   3  -9   0   -0.54    0.93
   6   0  10    1.58    0.64
   6   0  10    1.37    0.52
   6   0  10    0.52    0.72
  -6   0 -10    0.35    0.91
   5   0   9    0.27    0.37
   5   0   9    0.44    0.48
  -5   0  -9    1.10    0.67
  -5   0  -9    0.45    0.68
   5   0   9   -0.51    0.42
  -4   0  -8    4.30    0.69
   4   0   8    4.05    0.54
   4   0   8    4.07    0.59
   4   0   8    3.88    0.49
  -4   0  -8    3.64    0.68
   4   0   8    3.16    0.40
   4   0   8    3.76    0.57
  -4   0  -8    3.24    0.49
  -3   0  -7    1.68    0.34
  -3   0  -7    0.96    0.23
   3   0   7    1.16    0.26
  -3   0  -7    0.63    0.26
  -3   0  -7    1.22    0.19
   3   0   7    0.54    0.31
   3   0   7    0.65    0.27
  -3   0  -7    1.15    0.44
   3   0   7    0.95    0.20
   3   0   7    0.79    0.25
   3   0   7    1.47    0.36
   2   0   6   76.36    1.98
  -2   0  -6   78.60    1.99
   2   0   6   74.30    2.16
  -2   0  -6   76.53    2.47
  -2   0  -6   76.51    2.33
   2   0   6   77.71    2.18
  -2   0  -6   78.70    2.15
  -2   0  -6   79.98    2.07
   2   0   6   77.32    2.03
   2   0   6   75.52    2.04
   2   0   6   79.75    2.25
  -1   0  -5   58.15    1.58
   1   0   5   57.68    1.62
   1   0   5   57.48    1.52
   1   0   5   57.49    1.61
  -1   0  -5   58.82    1.62
   1   0   5   56.56    1.64
   1   0   5   56.65    1.51
  -1   0  -5   58.60    1.67
   1   0   5   58.86    1.46
   0   0   4  205.37    5.00
   0   0   4  199.03    5.02
   0   0  -4  212.64    5.04
   0   0  -4  210.23    5.02
   0   0   4  202.70    4.93
   0   0   4  203.48    4.91
   0   0  -4  227.28    4.97
   0   0  -4  207.34    5.04
   0   0   4  200.42    4.86
   0   0  -4  206.54    4.94
  -1   0   3  180.07    4.28
  -1   0   3  170.64    4.27
   1   0  -3  177.88    4.29
  -1   0   3  184.83    4.30
   1   0  -3  180.36    4.27
   1   0  -3  175.52    4.23
  -1   0   3  177.47    4.26
  -1   0   3  171.52    4.19
  -1   0   3  178.42    4.24
   1   0  -3  173.87    4.20
   2   0  -2   -0.83    0.08
   2   0  -2   -0.73    0.11
  -2   0   2   -0.86    0.07
  -2   0   2   -0.89    0.09
  -3   0   1    1.55    0.18
  -3   0   1    1.94    0.24
   3   0  -1    1.42    0.22
   3   0  -1    1.11    0.22
   3   0  -1    1.74    0.21
   3   0  -1    1.78    0.22
  -3   0   1    1.86    0.25
   4   0   0   30.94    0.95
   4   0   0   31.30    1.10
   4   0   0   30.90    0.97
   4   0   0   31.80    1.06
   4   0   0   30.55    1.05
  -4   0   0   30.94    0.95
  -4   0   0   30.91    0.91
  -4   0   0   29.45    1.15
  -4   0   0   31.19    1.02
  -5   0  -1   26.17    0.95
   5   0   1   24.78    0.86
   5   0   1   25.02    0.90
  -5   0  -1   24.52    0.97
   5   0   1   24.01    1.00
  -5   0  -1   24.40    0.82
  -5   0  -1   25.43    0.92
   5   0   1   26.51    1.06
   5   0   1   25.69    1.00
  -6   0  -2   29.42    1.09
   6   0   2   27.58    1.15
   6   0   2   25.58    1.18
  -6   0  -2   27.95    0.89
  -6   0  -2   28.74    1.09
   6   0   2   26.95    1.15
  -6   0  -2   26.01    1.11
   6   0   2   28.03    1.06
  -6   0  -2   26.47    0.94
  -7   0  -3    2.01    0.45
   7   0   3    0.99    0.42
  -7   0  -3    0.84    0.33
  -7   0  -3    1.85    0.25
   7   0   3    1.50    0.36
   7   0   3    1.72    0.49
   8   0   4   11.96    1.06
  -8   0  -4   10.49    0.50
   8   0   4    8.77    1.07
  -8   0  -4    9.52    0.88
   8   0   4   12.02    0.87
   9   0   5    1.34    0.75
   9   0   5    0.77    0.54
   6   1  10    1.91    0.75
   6   1  10    2.80    0.54
  -6   1 -10    2.74    0.97
  -6   1 -10    1.24    0.99
   6   1  10    1.31    0.74
  -6  -1 -10    3.20    1.78
  -6  -1 -10    1.07    1.02
   6  -1  10    3.13    0.59
   6  -1  10    2.53    0.70
   5   1   9    3.54    0.66
   5   1   9    2.53    0.46
  -5   1  -9    3.45    0.76
  -5   1  -9    3.36    0.83
   5   1   9    1.84    0.64
   5  -1   9    3.14    0.54
  -5  -1  -9    2.52    0.87
   5  -1   9    2.27    0.62
  -5  -1  -9    2.71    0.73
   5  -1   9    1.39    0.94
  -4   1  -8    4.37    0.74
   4   1   8    4.25    0.47
   4   1   8    4.64    0.85
  -4   1  -8    3.62    0.35
  -4   1  -8    3.59    0.81
   4   1   8    4.02    0.46
   4   1   8    5.02    0.72
  -4   1  -8    3.43    0.51
   4  -1   8    4.06    0.51
  -4  -1  -8    4.62    0.75
  -4  -1  -8    4.37    0.59
   4  -1   8    4.37    0.62
   4  -1   8    4.13    0.58
   4  -1   8    3.07    0.52
   3   1   7    2.66    0.35
   3   1   7    2.74    0.44
  -3   1  -7    2.91    0.38
  -3   1  -7    2.18    0.27
   3   1   7    2.86    0.33
  -3   1  -7    2.37    0.32
   3   1   7    2.19    0.30
  -3   1  -7    2.94    0.53
   3   1   7    1.96    0.36
  -3   1  -7    2.89    0.43
   3  -1   7    2.18    0.35
   3  -1   7    2.89    0.40
  -3  -1  -7    2.86    0.39
  -3  -1  -7    2.58    0.39
  -3  -1  -7    3.49    0.45
  -3  -1  -7    2.03    0.54
   3  -1   7    2.08    0.39
   3  -1   7    2.17    0.44
  -3  -1  -7    2.98    0.62
   3  -1   7    2.77    0.43
  -2   1  -6   62.05    1.95
  -2   1  -6   64.67    1.86
   2   1   6   64.05    1.74
   2   1   6   63.54    1.64
  -2   1  -6   64.85    1.69
   2   1   6   61.95    1.87
   2   1   6   64.35    1.91
  -2   1  -6   62.74    1.79
  -2   1  -6   63.27    1.69
   2   1   6   61.15    1.83
   2   1   6   63.20    1.72
  -2  -1  -6   63.45    1.88
  -2  -1  -6   62.06    1.82
   2  -1   6   61.69    1.76
  -2  -1  -6   63.16    1.79
   2  -1   6   62.63    1.89
  -2  -1  -6   61.83    2.03
   2  -1   6   60.35    1.82
   2  -1   6   61.52    1.73
  -1   1  -5   36.74    1.15
  -1   1  -5   37.07    1.11
   1   1   5   35.27    1.17
   1   1   5   36.03    0.99
   1   1   5   37.43    1.08
  -1   1  -5   37.13    1.06
   1   1   5   36.21    1.13
   1   1   5   36.43    1.17
   1   1   5   37.05    1.07
  -1   1  -5   35.43    1.18
  -1   1  -5   35.02    1.06
  -1  -1  -5   40.02    1.16
   1  -1   5   36.73    1.15
  -1  -1  -5   37.15    1.28
   1  -1   5   38.50    1.14
   1  -1   5   37.53    1.05
  -1  -1  -5   39.52    1.14
   1  -1   5   37.80    1.10
  -1  -1  -5   39.33    1.20
   1  -1   5   38.01    1.14
   0   1   4   33.43    0.99
   0   1  -4   32.55    0.98
   0   1  -4   33.50    0.96
   0   1   4   33.11    0.95
   0   1  -4   34.12    0.96
   0   1  -4   32.92    0.86
   0   1  -4   33.61    0.99
   0   1   4   32.79    0.96
   0  -1  -4   35.15    1.01
   0  -1   4   32.68    0.87
   0  -1  -4   33.38    1.07
   0  -1   4   33.15    0.95
   0  -1  -4   33.82    1.03
   0  -1   4   34.17    0.96
   0  -1   4   35.52    1.00
   0  -1   4   33.08    0.98
   0  -1  -4   33.95    0.96
   0  -1  -4   31.03    1.01
   1   1  -3  165.54    4.02
  -1   1   3  165.87    4.02
  -1   1   3  179.22    4.12
   1   1  -3  167.28    4.05
  -1   1   3  169.47    4.07
  -1   1   3  173.57    4.12
  -1   1   3  162.84    4.09
   1   1  -3  168.11    4.07
  -1   1   3  164.85    4.03
  -1   1   3  162.75    4.07
  -1  -1   3  172.62    4.06
   1  -1  -3  165.33    4.05
  -1  -1   3  162.69    4.02
   1  -1  -3  167.50    4.03
   1  -1  -3  167.79    4.11
   1  -1  -3  172.15    4.09
  -1  -1   3  172.41    4.09
  -1  -1   3  164.54    4.03
  -2   1   2  116.40    2.88
   2   1  -2  113.79    2.86
  -2   1   2  118.37    2.86
   2   1  -2  111.42    2.70
   2   1  -2  115.90    2.81
   2   1  -2  117.82    2.91
   2   1  -2  113.88    2.83
  -2   1   2  111.14    2.74
   2  -1  -2  113.80    2.73
  -2  -1   2  114.33    2.77
   2  -1  -2  113.86    2.87
  -2  -1   2  109.68    2.70
  -2  -1   2  116.48    2.83
   2  -1  -2  113.40    2.87
  -2  -1   2  115.67    2.81
   3   1  -1   69.49    1.74
   3   1  -1   71.99    1.92
   3   1  -1   71.23    1.86
  -3   1   1   71.65    1.87
  -3   1   1   73.36    1.91
   3   1  -1   70.88    1.88
   3  -1  -1   66.27    1.87
  -3  -1   1   66.29    1.94
  -3  -1   1   68.50    1.91
   3  -1  -1   67.02    1.89
  -3  -1   1   67.96    1.74
   4   1   0  272.30    6.72
   4   1   0  268.55    6.54
  -4   1   0  279.47    6.58
  -4   1   0  280.99    6.71
   4   1   0  257.70    6.84
   4   1   0  281.14    6.69
  -4   1   0  284.13    6.68
   4  -1   0  265.35    6.63
   4  -1   0  265.61    6.42
  -4  -1   0  280.36    6.72
  -4  -1   0  273.78    6.68
   4  -1   0  274.82    6.62
  -4  -1   0  265.78    6.52
   4  -1   0  271.85    6.74
  -4  -1   0  282.21    6.65
   4  -1   0  274.26    6.70
   5   1   1   23.74    1.00
  -5   1  -1   26.33    0.97
   5   1   1   25.33    1.06
  -5   1  -1   25.33    0.88
  -5   1  -1   25.73    0.87
   5   1   1   26.05    0.90
   5   1   1   25.52    1.08
   5   1   1   25.88    1.00
   5  -1   1   26.93    1.14
  -5  -1  -1   26.92    1.05
  -5  -1  -1   25.46    1.00
   5  -1   1   28.48    1.00
  -5  -1  -1   27.20    0.86
   5  -1   1   27.88    0.99
  -5  -1  -1   27.03    0.96
   5  -1   1   27.27    1.05
   6   1   2    9.82    0.58
  -6   1  -2    9.21    0.61
  -6   1  -2    9.56    0.55
  -6   1  -2    9.85    0.47
   6   1   2    9.85    0.78
   6   1   2   10.47    0.66
   6   1   2    9.08    0.77
  -6   1  -2   11.67    0.71
  -6   1  -2   10.14    0.51
   6   1   2   10.62    0.75
   6  -1   2    9.28    0.65
  -6  -1  -2    9.81    0.63
  -6  -1  -2    9.81    0.54
   6  -1   2   10.58    0.81
   6  -1   2   10.94    0.67
  -6  -1  -2   10.75    0.40
  -6  -1  -2   10.05    0.77
   6  -1   2   11.27    0.77
  -6  -1  -2    9.53    0.64
   7   1   3   23.16    1.19
  -7   1  -3   24.72    0.89
  -7   1  -3   23.58    0.88
  -7   1  -3   28.53    1.70
  -7   1  -3   24.38    1.13
   7   1   3   25.47    1.31
   7   1   3   25.52    1.04
   7  -1   3   23.88    1.25
  -7  -1  -3   24.03    1.18
   7  -1   3   23.75    1.21
  -7  -1  -3   23.91    0.75
   7  -1   3   23.67    1.26
   7  -1   3   20.66    1.36
  -7  -1  -3   24.35    1.28
  -8   1  -4    2.52    0.67
   8   1   4    3.23    0.57
  -8   1  -4    3.03    0.58
   8   1   4    3.12    0.66
   8   1   4    1.76    0.59
  -8   1  -4    2.72    0.38
  -8  -1  -4    2.68    0.66
   8  -1   4    2.59    0.55
   8  -1   4    2.64    0.81
   8  -1   4    3.06    0.68
   9   1   5    0.42    0.68
   9   1   5    1.12    0.56
   9   1   5    1.51    0.72
   9  -1   5    2.00    0.65
   9  -1   5    0.99    0.74
   9  -1   5    0.06    0.69
  -9  -1  -5    0.31    0.80
   6   2  10   -0.99    0.70
  -6   2 -10    0.41    0.94
   6   2  10    0.30    0.50
   6   2  10   -0.37    0.67
   6  -2  10   -1.29    0.67
   6  -2  10    1.21    0.61
  -6  -2 -10    0.19    1.05
   5   2   9    8.48    0.93
  -5   2  -9    8.61    1.01
   5   2   9    8.19    1.20
   5   2   9    9.84    0.72
  -5   2  -9   10.09    1.37
   5  -2   9    9.39    0.86
   5  -2   9    9.31    1.09
  -5  -2  -9   10.41    1.42
   5  -2   9    7.89    1.00
  -5  -2  -9    8.98    1.12
  -4   2  -8    9.70    0.78
   4   2   8    9.67    0.85
   4   2   8    9.43    0.86
  -4   2  -8    9.10    1.04
   4   2   8    8.73    0.67
  -4   2  -8    9.24    0.69
   4  -2   8   10.88    1.01
   4  -2   8   10.73    1.18
  -4  -2  -8   10.31    1.15
   4  -2   8    8.78    0.72
   4  -2   8   11.77    0.85
  -4  -2  -8    9.99    1.15
   4  -2   8    9.92    0.54
   3   2   7   19.67    0.65
  -3   2  -7   21.48    1.13
   3   2   7   21.32    0.83
   3   2   7   18.71    0.89
   3   2   7   19.98    1.01
  -3   2  -7   20.30    0.74
  -3   2  -7   19.64    0.84
  -3   2  -7   18.98    0.75
  -3   2  -7   20.33    0.92
   3   2   7   18.80    0.94
  -3  -2  -7   20.43    0.98
   3  -2   7   18.67    0.89
   3  -2   7   21.38    0.93
   3  -2   7   18.98    0.86
   3  -2   7   20.30    0.66
  -3  -2  -7   20.78    1.23
   3  -2   7   21.83    0.96
   3  -2   7   20.47    1.00
  -3  -2  -7   19.84    1.24
   2   2   6    8.25    0.46
   2   2   6    7.91    0.57
   2   2   6    8.09    0.33
  -2   2  -6    8.29    0.49
  -2   2  -6    8.67    0.65
  -2   2  -6    7.92    0.39
  -2   2  -6    7.42    0.41
   2   2   6    8.22    0.50
  -2   2  -6    8.00    0.68
   2   2   6    8.18    0.55
   2   2   6    8.27    0.61
   2  -2   6    7.84    0.52
  -2  -2  -6    7.71    0.52
   2  -2   6    7.33    0.33
   2  -2   6    7.98    0.51
  -2  -2  -6    8.12    0.55
  -2  -2  -6    7.38    0.54
   2  -2   6    7.75    0.53
   2  -2   6    8.04    0.48
  -2  -2  -6    8.48    0.75
  -2  -2  -6    8.07    0.79
   2  -2   6    8.62    0.55
  -1   2  -5   48.07    1.38
   1   2   5   47.55    1.41
  -1   2  -5   42.20    1.25
  -1   2  -5   46.30    1.30
   1   2   5   46.21    1.36
  -1   2  -5   49.06    1.45
   1   2   5   46.96    1.34
   1   2   5   46.34    1.38
  -1   2  -5   46.33    1.31
   1   2   5   47.87    1.44
   1  -2   5   45.21    1.32
  -1  -2  -5   46.13    1.42
  -1  -2  -5   44.45    1.62
   1  -2   5   45.76    1.37
   1  -2   5   46.59    1.35
  -1  -2  -5   43.53    1.52
   1  -2   5   45.10    1.34
   1  -2   5   44.55    1.18
  -1  -2  -5   46.70    1.42
  -1  -2  -5   43.97    1.41
   1  -2   5   45.85    1.30
   0   2   4   10.95    0.50
   0   2   4   10.43    0.47
   0   2  -4   11.22    0.44
   0   2  -4   11.38    0.42
   0   2   4   11.33    0.51
   0   2   4   10.99    0.50
   0   2  -4   10.48    0.36
   0   2   4   11.59    0.52
   0   2  -4   11.33    0.48
   0   2  -4   11.37    0.36
   0   2  -4   12.11    0.44
   0  -2  -4   10.95    0.48
   0  -2   4   10.67    0.37
   0  -2   4   10.99    0.49
   0  -2  -4   10.48    0.54
   0  -2   4   10.27    0.40
   0  -2  -4   10.25    0.52
   0  -2  -4   10.69    0.61
   0  -2   4   10.26    0.41
   0  -2  -4   10.94    0.50
  -1   2   3  188.98    5.09
  -1   2   3  206.10    5.05
  -1   2   3  208.83    4.97
   1   2  -3  212.16    4.95
   1   2  -3  201.45    4.94
   1   2  -3  206.93    4.91
   1   2  -3  191.15    5.20
  -1   2   3  208.31    4.91
  -1   2   3  212.72    5.04
   1   2  -3  196.62    4.85
  -1   2   3  214.07    5.02
  -1   2   3  209.15    5.01
   1   2  -3  209.64    5.01
   1  -2  -3  215.52    5.03
  -1  -2   3  204.27    4.97
   1  -2  -3  208.74    5.00
  -1  -2   3  206.31    4.92
   1  -2  -3  207.50    4.97
   1  -2  -3  204.67    5.04
  -1  -2   3  208.57    4.88
  -1  -2   3  201.84    4.92
  -1  -2   3  210.89    4.90
   2   2  -2  245.41    5.70
  -2   2   2  248.29    5.78
   2   2  -2  233.52    5.62
   2   2  -2  247.36    5.92
  -2   2   2  231.94    5.74
   2   2  -2  233.88    5.67
  -2   2   2  232.09    5.57
  -2   2   2  250.00    5.80
   2   2  -2  238.51    5.66
  -2  -2   2  248.68    5.68
   2  -2  -2  232.52    5.59
  -2  -2   2  222.96    5.74
  -2  -2   2  243.03    5.69
   2  -2  -2  237.75    5.76
  -2  -2   2  237.66    5.66
   2  -2  -2  238.32    5.79
   2  -2  -2  239.87    5.78
  -2  -2   2  244.81    5.90
  -3   2   1   48.86    1.38
   3   2  -1   48.01    1.34
  -3   2   1   47.76    1.34
   3   2  -1   46.89    1.30
   3   2  -1   47.88    1.49
   3  -2  -1   45.66    1.22
   3  -2  -1   46.01    1.15
  -3  -2   1   46.90    1.30
  -3  -2   1   45.79    1.18
   3  -2  -1   44.85    1.31
   3  -2  -1   45.03    1.35
  -3  -2   1   45.63    1.24
   3  -2  -1   42.72    1.44
  -3  -2   1   44.70    1.48
  -3  -2   1   46.32    1.29
   4   2   0  123.52    3.37
   4   2   0  120.79    3.25
   4   2   0  124.62    3.23
   4   2   0  120.58    3.08
  -4   2   0  124.61    3.19
  -4   2   0  124.43    3.21
  -4   2   0  123.46    3.26
   4  -2   0  125.61    3.30
  -4  -2   0  121.00    2.96
  -4  -2   0  127.86    3.22
  -4  -2   0  122.98    3.37
   4  -2   0  127.30    3.27
  -4  -2   0  126.93    3.12
   4  -2   0  124.16    3.08
  -4  -2   0  125.47    3.18
   5   2   1   46.22    1.32
  -5   2  -1   46.41    1.43
  -5   2  -1   43.91    1.35
   5   2   1   44.25    1.46
   5   2   1   45.71    1.52
  -5   2  -1   45.92    1.48
   5   2   1   45.13    1.56
  -5   2  -1   45.81    1.40
   5   2   1   47.66    1.62
   5  -2   1   42.26    1.49
   5  -2   1   43.26    1.53
   5  -2   1   43.90    1.35
  -5  -2  -1   44.91    1.44
  -5  -2  -1   41.38    1.37
  -5  -2  -1   42.32    1.57
  -5  -2  -1   43.26    1.33
   6   2   2   16.20    0.74
  -6   2  -2   17.50    0.82
   6   2   2   17.75    0.93
   6   2   2   17.32    0.95
  -6   2  -2   17.06    0.74
   6   2   2   17.43    0.92
  -6   2  -2   15.98    0.88
   6  -2   2   16.56    0.76
  -6  -2  -2   15.60    0.83
   6  -2   2   16.77    0.94
  -6  -2  -2   17.17    0.91
  -6  -2  -2   16.19    1.00
   6  -2   2   17.78    1.12
   7   2   3    4.45    0.54
   7   2   3    2.24    0.53
  -7   2  -3    3.49    0.60
  -7   2  -3    3.38    0.46
   7   2   3    3.06    0.57
  -7   2  -3    4.43    0.50
   7  -2   3    3.75    0.61
  -7  -2  -3    4.01    1.04
   7  -2   3    5.21    0.72
   7  -2   3    4.67    0.60
   8   2   4    1.17    0.40
   8   2   4    1.33    0.58
   8   2   4    1.04    0.59
  -8  -2  -4    1.73    0.71
   8  -2   4    0.87    0.54
   8  -2   4    1.03    0.58
   9   2   5    0.31    0.70
   9   2   5    0.67    0.75
   9   2   5    0.17    0.50
   9  -2   5   -0.63    0.71
  -6   3 -10    2.42    1.05
   6   3  10    2.73    0.97
   6   3  10    2.16    0.66
   6   3  10    0.95    0.75
   6  -3  10    0.80    0.88
  -6  -3 -10    0.75    1.49
   5   3   9    0.43    0.42
   5   3   9    0.98    0.57
   5   3   9    1.39    0.56
  -5   3  -9    1.12    0.78
  -5  -3  -9    1.55    0.90
   5  -3   9    0.47    0.57
  -4   3  -8    6.72    0.97
  -4   3  -8    5.87    0.66
   4   3   8    5.40    0.77
  -4   3  -8    4.64    0.68
   4   3   8    6.89    0.58
   4  -3   8    5.33    0.51
   4  -3   8    5.20    0.74
  -4  -3  -8    5.50    0.84
  -4  -3  -8    5.25    1.03
   4  -3   8    5.14    0.68
   4  -3   8    5.24    0.74
  -3   3  -7   30.76    1.08
   3   3   7   29.16    1.08
   3   3   7   29.00    1.27
  -3   3  -7   29.77    1.14
  -3   3  -7   29.61    0.96
  -3   3  -7   30.20    1.34
   3   3   7   28.72    1.16
   3   3   7   28.69    1.27
   3  -3   7   29.75    1.15
   3  -3   7   30.05    1.18
   3  -3   7   32.27    1.25
   3  -3   7   28.96    1.20
  -3  -3  -7   29.02    1.56
  -3  -3  -7   28.81    1.51
   3  -3   7   30.30    1.28
  -2   3  -6   21.51    0.73
   2   3   6   21.01    0.89
   2   3   6   20.48    0.89
  -2   3  -6   20.97    0.80
   2   3   6   20.17    1.01
   2   3   6   22.50    0.75
   2   3   6   20.96    0.92
  -2   3  -6   21.35    0.83
  -2   3  -6   19.33    0.79
   2   3   6   21.64    0.85
  -2   3  -6   23.33    0.96
   2  -3   6   20.79    0.85
  -2  -3  -6   22.84    1.16
   2  -3   6   22.50    0.96
  -2  -3  -6   21.38    1.01
   2  -3   6   21.81    0.74
  -2  -3  -6   22.39    1.26
  -2  -3  -6   18.81    0.87
  -2  -3  -6   21.05    0.92
   2  -3   6   22.16    0.94
   1   3   5   11.97    0.59
   1   3   5   11.62    0.58
  -1   3  -5   10.93    0.57
   1   3   5   11.28    0.62
  -1   3  -5   11.66    0.48
  -1   3  -5   11.15    0.57
  -1   3  -5   12.71    0.47
   1   3   5   12.10    0.68
  -1   3  -5   11.94    0.53
   1   3   5   11.53    0.56
   1  -3   5   12.59    0.64
  -1  -3  -5   12.12    0.68
  -1  -3  -5   11.25    0.58
   1  -3   5   11.70    0.51
  -1  -3  -5   12.15    0.67
   1  -3   5   11.78    0.50
  -1  -3  -5   12.89    0.77
   1  -3   5   12.33    0.57
  -1  -3  -5   13.14    0.89
   1  -3   5   11.96    0.57
  -1  -3  -5   11.21    0.55
   0   3  -4   75.72    2.18
   0   3   4   74.99    2.02
   0   3   4   74.89    2.13
   0   3   4   76.52    2.16
   0   3  -4   82.43    2.06
   0   3   4   71.34    2.05
   0   3   4   74.99    2.09
   0   3  -4   80.49    2.25
   0   3  -4   76.74    1.94
   0  -3   4   83.71    2.12
   0  -3   4   77.52    1.96
   0  -3  -4   75.84    2.36
   0  -3   4   80.93    2.13
   0  -3  -4   74.11    2.06
   0  -3  -4   74.08    2.16
   0  -3   4   74.54    2.11
   0  -3  -4   74.95    2.27
   0  -3   4   84.44    1.94
   0  -3  -4   75.21    2.09
   0  -3  -4   72.05    2.15
  -1   3   3   77.65    2.07
   1   3  -3   77.11    2.10
  -1   3   3   78.84    2.10
  -1   3   3   77.99    2.15
   1   3  -3   77.65    2.05
   1   3  -3   79.04    2.27
   1   3  -3   77.13    1.99
  -1   3   3   77.54    2.08
   1   3  -3   77.70    2.10
  -1   3   3   78.66    2.03
  -1   3   3   78.50    2.01
  -1  -3   3   80.47    2.10
  -1  -3   3   78.04    1.90
  -1  -3   3   78.26    2.10
  -1  -3   3   81.19    1.93
   1  -3  -3   76.80    2.19
   1  -3  -3   80.69    2.11
  -1  -3   3   80.13    1.89
   1  -3  -3   79.61    2.08
   1  -3  -3   79.43    2.30
  -2   3   2  133.78    3.37
   2   3  -2  131.83    3.41
  -2   3   2  132.23    3.31
  -2   3   2  129.60    3.38
   2   3  -2  131.60    3.16
  -2   3   2  140.92    3.51
  -2   3   2  135.18    3.36
   2   3  -2  139.74    3.41
   2   3  -2  136.17    3.22
   2   3  -2  135.20    3.59
   2   3  -2  128.67    3.25
  -2  -3   2  129.53    3.29
  -2  -3   2  134.70    3.19
  -2  -3   2  134.01    3.21
  -2  -3   2  132.65    3.31
   2  -3  -2  135.83    3.47
   2  -3  -2  127.87    3.44
   2  -3  -2  134.15    3.34
  -2  -3   2  130.32    3.55
   3   3  -1  106.13    2.60
   3   3  -1  108.61    2.68
   3   3  -1  107.75    3.02
  -3   3   1  106.57    2.74
   3   3  -1  108.13    2.76
  -3   3   1  106.17    2.78
   3   3  -1  106.58    2.65
   3   3  -1  107.66    2.85
  -3  -3   1  108.38    2.67
   3  -3  -1  106.01    2.83
  -3  -3   1   97.22    2.74
   3  -3  -1  110.83    2.85
  -3  -3   1  105.32    2.73
  -3  -3   1  101.20    2.99
  -3  -3   1  113.78    2.79
   3  -3  -1  100.68    2.70
   4   3   0   62.10    1.76
  -4   3   0   60.54    1.80
  -4   3   0   61.42    1.80
   4   3   0   59.80    2.00
   4   3   0   61.74    1.66
  -4   3   0   59.70    1.78
   4   3   0   60.41    1.79
  -4   3   0   63.83    1.79
  -4  -3   0   61.79    1.55
  -4  -3   0   63.58    1.75
   4  -3   0   62.02    1.83
   4  -3   0   58.48    1.77
   4  -3   0   58.84    1.94
   4  -3   0   60.50    1.52
  -4  -3   0   63.31    1.73
  -4  -3   0   63.50    2.04
  -4  -3   0   62.20    1.71
  -5   3  -1    5.61    0.66
   5   3   1    4.92    0.52
   5   3   1    5.06    0.39
   5   3   1    5.10    0.63
  -5   3  -1    4.48    0.49
  -5   3  -1    4.44    0.46
  -5   3  -1    5.06    0.45
   5   3   1    3.95    0.55
   5   3   1    4.78    0.50
   5  -3   1    3.84    0.47
  -5  -3  -1    3.95    0.42
   5  -3   1    4.23    0.53
  -5  -3  -1    4.30    0.41
   5  -3   1    4.82    0.44
  -5  -3  -1    5.38    0.71
  -5  -3  -1    4.51    0.41
  -6   3  -2    4.46    0.55
  -6   3  -2    4.39    0.51
   6   3   2    4.01    0.65
   6   3   2    4.79    0.60
   6   3   2    5.09    0.46
   6   3   2    5.35    0.65
   6  -3   2    3.17    0.38
   6  -3   2    4.28    0.62
  -6  -3  -2    5.66    0.84
   6  -3   2    4.40    0.65
   7   3   3   11.32    0.92
  -7   3  -3   10.17    0.83
  -7   3  -3    9.69    0.78
   7   3   3    9.60    0.69
   7  -3   3   10.80    0.92
  -7  -3  -3   10.72    1.08
   7  -3   3    9.65    0.65
   7  -3   3   10.90    1.19
   8   3   4    3.87    0.72
   8   3   4    3.75    0.71
   8   3   4    4.16    0.56
   8  -3   4    5.46    0.84
  -8  -3  -4    4.46    1.07
   8  -3   4    4.08    0.73
   9   3   5   -0.71    0.76
   9   3   5    1.49    0.61
   9   3   5    0.29    0.85
  -9  -3  -5    1.46    1.12
   9  -3   5    0.43    0.83
   5   4   9    1.97    0.49
   5   4   9    2.15    0.67
  -5   4  -9    2.21    0.85
   5  -4   9    1.96    0.71
  -5  -4  -9    0.57    1.14
   4   4   8    4.49    0.60
   4   4   8    4.13    0.64
   4   4   8    4.02    0.63
  -4   4  -8    4.15    0.77
   4  -4   8    5.43    0.78
  -4  -4  -8    3.45    1.10
   4  -4   8    4.28    0.53
   4  -4   8    4.17    0.69
   3   4   7    1.58    0.53
   3   4   7    1.22    0.32
  -3   4  -7    1.48    0.44
   3   4   7    1.35    0.40
  -3   4  -7    1.58    0.30
  -3   4  -7    1.68    0.41
  -3   4  -7    1.55    0.27
   3  -4   7    2.15    0.36
   3  -4   7    1.66    0.32
   3  -4   7    1.57    0.43
   3  -4   7    1.98    0.56
   2   4   6   27.38    1.11
   2   4   6   28.59    1.31
  -2   4  -6   27.14    0.96
  -2   4  -6   26.91    1.12
   2   4   6   27.81    1.05
   2   4   6   27.63    1.06
  -2   4  -6   28.68    1.08
  -2   4  -6   26.60    0.89
  -2   4  -6   26.60    0.91
   2  -4   6   25.99    1.15
   2  -4   6   24.97    1.00
   2  -4   6   26.15    1.02
  -2  -4  -6   23.10    1.46
   2  -4   6   26.33    1.01
   2  -4   6   26.06    1.00
  -1   4  -5   25.12    0.89
  -1   4  -5   24.42    0.81
   1   4   5   24.72    0.93
   1   4   5   23.98    1.01
  -1   4  -5   23.36    0.91
  -1   4  -5   23.99    0.82
  -1   4  -5   25.05    0.80
  -1   4  -5   23.73    0.76
   1   4   5   23.27    1.02
   1   4   5   24.89    0.97
   1   4   5   24.79    0.89
  -1   4  -5   25.70    1.05
   1  -4   5   24.40    0.84
  -1  -4  -5   22.87    0.90
   1  -4   5   23.56    1.02
   1  -4   5   24.81    0.91
  -1  -4  -5   26.00    1.70
  -1  -4  -5   24.43    1.07
  -1  -4  -5   22.37    0.94
   1  -4   5   23.63    0.80
   1  -4   5   24.83    0.91
  -1  -4  -5   22.19    1.07
   0   4  -4   15.56    0.65
   0   4   4   15.02    0.61
   0   4   4   16.85    0.79
   0   4  -4   16.54    0.66
   0   4  -4   16.52    0.83
   0   4  -4   16.22    0.84
   0   4   4   13.66    0.95
   0   4   4   15.91    0.77
   0   4   4   16.57    0.66
   0   4   4   16.22    0.70
   0   4  -4   15.88    0.61
   0  -4   4   16.20    0.51
   0  -4  -4   15.60    0.71
   0  -4   4   15.45    0.51
   0  -4   4   16.41    0.72
   0  -4  -4   14.60    0.66
   0  -4   4   16.46    0.71
   0  -4   4   16.07    0.54
   0  -4  -4   16.20    0.83
   0  -4  -4   15.27    0.98
   0  -4   4   15.42    0.74
   1   4  -3  172.18    4.24
  -1   4   3  162.42    4.35
  -1   4   3  159.95    4.27
   1   4  -3  176.49    4.52
   1   4  -3  167.26    4.18
   1   4  -3  172.29    4.28
  -1   4   3  166.99    4.35
  -1   4   3  164.93    4.10
  -1   4   3  166.28    4.16
   1   4  -3  170.31    4.17
  -1   4   3  170.61    4.14
   1  -4  -3  171.91    4.40
  -1  -4   3  172.24    4.28
  -1  -4   3  168.10    4.27
   1  -4  -3  164.80    4.50
  -2   4   2   95.58    2.37
   2   4  -2   99.77    2.72
  -2   4   2  100.38    2.56
  -2   4   2  100.16    2.58
   2   4  -2  100.30    2.92
  -2   4   2  101.64    2.61
   2   4  -2  101.99    2.54
  -2   4   2   98.92    2.36
   2   4  -2  100.74    2.70
  -2   4   2  100.78    2.52
   2   4  -2  100.28    2.55
  -2   4   2   97.69    2.68
  -2  -4   2   98.94    2.89
  -2  -4   2   93.78    2.39
  -2  -4   2   98.86    2.61
   2  -4  -2   95.35    2.56
   2  -4  -2   99.74    2.56
   2  -4  -2   98.39    2.77
   2  -4  -2   98.71    2.79
  -3   4   1   22.91    0.92
   3   4  -1   24.37    0.74
  -3   4   1   24.73    0.89
   3   4  -1   23.83    0.74
   3   4  -1   24.50    0.79
   3   4  -1   22.76    0.97
  -3   4   1   23.53    0.82
   3   4  -1   23.15    1.12
   3   4  -1   24.07    0.80
   3  -4  -1   24.95    0.85
   3  -4  -1   22.59    0.85
  -3  -4   1   23.49    0.88
  -3  -4   1   24.56    0.73
  -3  -4   1   24.59    0.74
   3  -4  -1   23.02    0.96
  -3  -4   1   23.88    0.81
   3  -4  -1   24.86    1.01
  -3  -4   1   23.25    1.14
   4   4   0    3.37    0.56
   4   4   0    2.75    0.45
   4   4   0    2.74    0.33
   4   4   0    2.70    0.35
  -4   4   0    2.69    0.34
  -4   4   0    2.54    0.38
  -4   4   0    2.58    0.36
   4   4   0    2.78    0.38
  -4  -4   0    2.67    0.30
   4  -4   0    2.82    0.43
  -4  -4   0    2.26    0.32
   4  -4   0    2.39    0.35
  -4  -4   0    2.43    0.33
   4  -4   0    2.64    0.39
  -4  -4   0    2.53    0.54
  -4  -4   0    2.44    0.28
   4  -4   0    2.94    0.28
   5   4   1   17.56    0.72
  -5   4  -1   17.06    0.81
   5   4   1   17.41    1.14
  -5   4  -1   14.99    0.85
   5   4   1   18.30    0.85
   5  -4   1   17.65    0.95
   5  -4   1   16.65    0.56
  -5  -4  -1   18.84    1.17
  -5  -4  -1   17.58    0.86
  -5  -4  -1   16.90    0.81
   5  -4   1   15.46    0.87
   6   4   2   24.67    1.13
   6   4   2   22.42    0.93
   6   4   2   22.55    1.16
  -6   4  -2   22.81    1.05
  -6   4  -2   21.85    1.09
   6  -4   2   21.12    1.09
  -6  -4  -2   21.65    1.40
   6  -4   2   22.06    1.06
   6  -4   2   24.20    0.79
   6  -4   2   21.89    1.09
   7   4   3    4.10    0.61
  -7   4  -3    5.02    0.54
   7   4   3    3.79    0.64
   7   4   3    4.47    0.58
   7  -4   3    4.19    0.63
  -7  -4  -3    4.55    0.92
   7  -4   3    4.65    0.48
   7  -4   3    6.13    0.74
   7  -4   3    3.75    0.62
   8   4   4    4.58    0.77
   8   4   4    4.95    0.85
   8   4   4    4.88    0.64
   8  -4   4    4.82    0.85
  -8  -4  -4    3.33    1.05
   8  -4   4    3.84    0.59
   9   4   5    2.69    1.14
   9   4   5    1.87    0.96
   9   4   5    0.69    0.72
   9  -4   5    0.82    0.67
  -9  -4  -5    1.10    1.24
   9  -4   5   -0.37    1.13
   5   5   9   -0.01    0.57
  -5   5  -9    0.06    1.30
   5   5   9    0.51    0.71
   5   5   9    0.92    0.76
  -5  -5  -9    0.53    1.35
   4   5   8    2.32    0.60
   4   5   8    2.84    0.52
   4   5   8    2.61    0.58
  -4  -5  -8    2.26    1.12
  -3   5  -7    0.41    0.46
  -3   5  -7    0.00    0.54
  -3   5  -7    0.76    0.29
   3   5   7    0.94    0.39
   3   5   7    0.70    0.37
   3   5   7    1.06    0.42
   3  -5   7    0.35    0.48
   3  -5   7    1.55    0.53
  -3  -5  -7    1.29    0.82
   3  -5   7    0.84    0.33
  -2   5  -6    3.61    0.41
  -2   5  -6    4.02    0.35
   2   5   6    4.00    0.32
  -2   5  -6    3.69    0.46
  -2   5  -6    4.00    0.47
   2   5   6    4.35    0.58
  -2   5  -6    5.15    0.63
   2  -5   6    3.90    0.47
   2  -5   6    3.05    0.56
   2  -5   6    4.20    0.52
   2  -5   6    2.77    0.38
  -1   5  -5   71.78    2.29
   1   5   5   71.54    2.11
  -1   5  -5   73.50    2.02
   1   5   5   69.81    1.94
  -1   5  -5   69.27    1.97
  -1   5  -5   71.07    1.97
   1   5   5   73.94    2.04
  -1   5  -5   74.48    1.91
   1   5   5   71.88    2.08
  -1   5  -5   69.72    1.80
   1   5   5   70.25    2.18
   1   5   5   73.19    2.19
   1  -5   5   71.85    1.91
   1  -5   5   70.36    2.09
   1  -5   5   70.37    2.26
  -1  -5  -5   73.24    2.30
   1  -5   5   72.19    2.10
  -1  -5  -5   72.41    2.65
   0   5  -4   91.27    2.57
   0   5   4   89.87    2.62
   0   5   4   91.20    2.60
   0   5   4   86.42    2.40
   0   5  -4   87.45    2.71
   0   5   4   88.60    2.32
   0   5   4   88.53    2.38
   0   5  -4   87.84    2.39
   0   5   4   87.01    2.45
   0   5  -4   88.57    2.46
   0   5   4   91.83    2.69
   0  -5  -4   89.44    2.67
   0  -5  -4   85.11    2.39
   0  -5   4   88.91    2.58
   0  -5   4   86.96    2.17
   0  -5  -4   87.19    2.89
   0  -5   4   89.41    2.51
   1   5  -3   10.37    0.53
  -1   5   3   10.21    0.50
   1   5  -3    9.95    0.57
   1   5  -3   10.71    0.60
  -1   5   3   10.07    0.54
   1   5  -3    9.94    0.63
  -1   5   3    9.56    0.50
  -1   5   3   10.40    0.45
  -1   5   3    9.62    0.71
   1   5  -3   10.68    0.83
  -1   5   3    9.36    0.58
  -1   5   3   10.73    0.71
  -1  -5   3    9.58    0.64
   1  -5  -3    8.67    0.74
   1  -5  -3   10.70    0.89
  -1  -5   3   10.47    0.69
  -2   5   2   14.93    0.74
  -2   5   2   14.72    0.55
  -2   5   2   13.15    0.75
  -2   5   2   14.93    0.62
   2   5  -2   14.53    0.99
   2   5  -2   13.44    0.59
   2   5  -2   14.49    0.66
   2   5  -2   15.06    0.79
  -2   5   2   14.21    0.82
  -2   5   2   15.06    0.59
   2   5  -2   15.19    0.76
  -2   5   2   14.51    0.45
  -2   5   2   15.04    0.67
  -2   5   2   15.44    0.48
   2  -5  -2   14.49    0.61
   2  -5  -2   15.10    0.86
   2  -5  -2   15.10    0.90
  -2  -5   2   15.15    0.72
  -2  -5   2   14.05    1.07
   3   5  -1   18.58    0.66
  -3   5   1   16.68    0.80
  -3   5   1   18.68    0.84
   3   5  -1   18.58    1.18
  -3   5   1   18.30    0.88
   3   5  -1   19.51    0.68
   3   5  -1   18.92    0.75
  -3   5   1   19.25    0.71
   3   5  -1   18.99    0.97
  -3   5   1   19.60    0.70
   3  -5  -1   19.42    0.93
   3  -5  -1   19.47    0.75
  -3  -5   1   19.59    0.59
   3  -5  -1   19.46    0.98
  -3  -5   1   19.05    1.14
  -3  -5   1   19.75    0.83
  -3  -5   1   19.37    0.85
  -3  -5   1   16.57    0.66
   3  -5  -1   20.02    0.73
  -4   5   0   22.21    0.82
   4   5   0   23.39    0.89
   4   5   0   22.37    0.70
   4   5   0   22.01    0.82
   4   5   0   22.42    0.85
  -4   5   0   20.99    0.89
   4  -5   0   21.48    1.08
  -4  -5   0   21.90    0.98
   4  -5   0   22.39    0.87
  -4  -5   0   21.81    0.76
  -4  -5   0   22.49    1.32
   4  -5   0   22.36    0.93
   4  -5   0   23.38    0.92
   5   5   1    6.35    0.49
   5   5   1    7.41    0.66
   5   5   1    5.94    0.61
  -5   5  -1    6.57    0.52
  -5  -5  -1    6.74    1.01
   5  -5   1    6.82    0.74
   5  -5   1    5.71    0.79
   5  -5   1    5.90    0.56
  -6   5  -2    1.41    0.33
  -6   5  -2    1.04    0.35
   6   5   2    1.74    0.43
   6   5   2    1.03    0.44
   6  -5   2    1.63    0.48
   6  -5   2    1.56    0.22
   6  -5   2    1.31    0.39
  -6  -5  -2    0.60    0.67
   6  -5   2    0.67    0.45
   7   5   3    3.57    0.65
   7   5   3    4.11    0.70
   7   5   3    4.18    0.62
   7  -5   3    2.99    0.64
   7  -5   3    4.55    0.70
  -7  -5  -3    4.27    1.02
   8   5   4    0.48    0.56
   8   5   4   -0.17    0.69
   8   5   4   -0.59    0.74
  -8  -5  -4    0.68    1.14
   8  -5   4    0.18    0.62
   4   6   8    1.74    0.66
  -4   6  -8    2.95    0.84
   4   6   8    2.56    0.56
   4   6   8    2.18    0.72
  -4  -6  -8    2.57    1.27
   3   6   7    2.60    0.50
   3   6   7    1.82    0.54
   3   6   7    2.35    0.53
  -3   6  -7    2.91    0.59
   3  -6   7    3.10    0.48
  -3  -6  -7    3.01    1.05
   2   6   6    8.00    0.74
   2   6   6    7.62    0.75
  -2   6  -6    7.61    0.78
   2   6   6    7.90    0.72
  -2   6  -6    8.42    0.56
  -2   6  -6    8.02    0.60
  -2   6  -6    8.07    0.44
  -2   6  -6    8.42    1.00
   2  -6   6    6.71    0.54
   2  -6   6    7.08    0.81
   2  -6   6    9.98    0.78
   2  -6   6    8.15    0.72
  -2  -6  -6    8.70    1.32
   2  -6   6    8.30    1.03
   1   6   5   13.67    0.62
   1   6   5   13.60    0.74
  -1   6  -5   12.07    0.68
   1   6   5   12.92    0.69
   1   6   5   14.06    0.88
   1   6   5   12.24    0.74
   1   6   5   12.17    0.89
  -1   6  -5   12.60    0.69
  -1   6  -5   12.55    0.67
  -1   6  -5   13.84    1.08
  -1  -6  -5   11.76    1.26
  -1  -6  -5   11.56    1.17
   1  -6   5   14.65    0.72
   1  -6   5   14.01    0.96
   1  -6   5   12.32    0.81
   0   6   4    5.58    0.69
   0   6   4    4.98    0.43
   0   6  -4    4.97    0.54
   0   6   4    4.84    0.51
   0   6  -4    4.63    0.70
   0   6  -4    5.24    0.49
   0   6   4    5.69    0.58
   0   6   4    5.19    0.41
   0   6   4    4.70    0.47
   0   6   4    4.24    0.44
   0   6  -4    4.96    0.59
   0  -6  -4    3.93    0.81
   0  -6   4    5.58    0.65
   0  -6   4    4.64    0.62
   0  -6  -4    5.73    0.75
   1   6  -3   43.16    1.42
  -1   6   3   41.04    1.43
   1   6  -3   42.20    1.41
  -1   6   3   43.33    1.61
  -1   6   3   42.51    1.32
  -1   6   3   40.58    1.25
  -1   6   3   41.93    1.26
  -1   6   3   42.70    1.19
   1   6  -3   44.36    1.84
   1  -6  -3   41.54    1.82
   1  -6  -3   42.05    1.68
  -1  -6   3   43.11    1.55
  -1  -6   3   41.35    1.56
   2   6  -2   60.41    1.79
  -2   6   2   62.65    1.68
  -2   6   2   60.08    1.56
  -2   6   2   60.83    2.06
   2   6  -2   61.90    1.91
  -2   6   2   57.80    1.51
  -2   6   2   62.24    1.78
  -2   6   2   57.17    1.54
   2   6  -2   58.63    1.74
   2  -6  -2   57.13    2.08
   2  -6  -2   59.69    2.12
  -2  -6   2   59.64    2.20
  -2  -6   2   59.10    1.89
  -3   6   1   35.20    1.18
   3   6  -1   36.35    1.22
  -3   6   1   35.75    1.06
  -3   6   1   38.23    1.27
   3   6  -1   34.79    1.10
  -3  -6   1   34.95    0.96
  -3  -6   1   36.04    1.75
   3  -6  -1   35.50    1.41
   3  -6  -1   37.48    1.57
   4   6   0    1.10    0.23
   4   6   0    1.01    0.30
   4   6   0    0.98    0.29
  -4   6   0    1.46    0.53
  -4   6   0    1.00    0.22
   4   6   0    1.10    0.21
  -4  -6   0    1.19    0.23
   4  -6   0    1.31    0.37
   4  -6   0    1.11    0.48
   4  -6   0    1.00    0.29
   4  -6   0    0.64    0.29
  -4  -6   0    0.34    0.73
   5   6   1   15.27    0.86
  -5   6  -1   13.39    0.74
  -5   6  -1   14.24    0.83
   5   6   1   13.73    0.74
   5   6   1   14.07    0.84
  -5  -6  -1   13.28    1.35
   5  -6   1   15.90    0.92
   5  -6   1   14.23    1.22
   5  -6   1   14.80    0.78
   6   6   2    7.54    0.67
   6   6   2    7.43    0.86
   6   6   2    7.08    0.87
   6  -6   2    8.56    1.00
   6  -6   2    8.30    1.24
  -6  -6  -2    6.03    1.00
   7   6   3    0.89    0.60
   7   6   3    1.41    0.46
   7   6   3    1.69    0.71
  -7  -6  -3    1.69    1.06
   7  -6   3    1.03    0.61
   3   7   7    0.76    0.55
  -3   7  -7    1.66    0.80
   3   7   7    1.20    0.55
   3   7   7    0.25    0.59
  -3  -7  -7    1.79    1.34
   2   7   6    2.34    0.50
   2   7   6    2.63    0.56
  -2   7  -6    1.87    0.49
   2   7   6    1.90    0.50
  -2  -7  -6    1.25    1.04
   2  -7   6    2.64    0.59
   1   7   5    0.08    0.30
   1   7   5    0.07    0.50
   1   7   5    0.36    0.44
  -1   7  -5    0.33    0.29
   1   7   5    0.07    0.39
  -1   7  -5    0.32    0.40
  -1  -7  -5    0.37    0.76
   1  -7   5   -0.94    0.42
  -1  -7  -5    0.40    0.60
   0   7   4    2.39    0.32
   0   7   4    1.71    0.40
   0   7  -4    1.91    0.35
   0   7   4    2.62    0.35
   0   7   4    3.02    0.68
   0   7   4    1.76    0.50
   0   7   4    2.06    0.42
   0  -7  -4    3.54    0.84
   0  -7  -4    2.00    0.61
   0  -7   4    2.55    0.56
  -1   7   3   15.99    1.08
  -1   7   3   14.83    0.59
   1   7  -3   16.29    0.86
  -1   7   3   16.23    0.56
   1   7  -3   14.63    0.92
  -1   7   3   15.32    0.67
  -1   7   3   15.25    0.80
  -1   7   3   15.88    0.74
   1  -7  -3   13.96    1.31
   1  -7  -3   15.33    1.17
  -2   7   2    0.36    0.18
  -2   7   2    0.43    0.30
   2   7  -2    0.30    0.36
   2   7  -2    0.72    0.33
  -2   7   2    0.23    0.13
  -2   7   2   -0.19    0.46
   2  -7  -2    0.69    0.54
   2  -7  -2    0.49    0.59
  -2  -7   2    0.07    0.61
  -3   7   1   45.22    1.87
  -3   7   1   45.86    1.46
   3   7  -1   48.74    1.70
   3   7  -1   47.13    1.79
   3   7  -1   47.94    1.56
  -3   7   1   44.88    1.39
   3  -7  -1   45.24    1.76
  -3  -7   1   47.07    2.13
   3  -7  -1   45.02    1.90
  -4   7   0   17.83    0.64
  -4   7   0   16.89    0.61
  -4   7   0   17.03    0.88
   4   7   0   17.62    0.94
   4   7   0   16.84    0.75
  -4   7   0   16.33    0.81
   4  -7   0   17.47    0.95
   4  -7   0   17.16    1.24
  -4  -7   0   17.43    1.45
   5   7   1    6.20    0.76
   5   7   1    5.89    0.66
   5   7   1    6.62    0.64
   5  -7   1    5.52    0.79
  -5  -7  -1    5.61    1.15
   6   7   2    3.02    0.55
   6   7   2    3.47    0.66
   6   7   2    3.70    0.65
  -6  -7  -2    1.24    1.10
   6  -7   2    4.33    0.74
   7   7   3    0.97    0.80
   7   7   3    1.12    0.56
   7   7   3    1.11    0.89
   7  -7   3    0.51    0.81
  -7  -7  -3   -1.20    1.45
  -2   8  -6    2.21    0.91
   2   8   6    1.51    0.66
   2   8   6    2.38    0.62
   2   8   6    2.90    0.66
   2  -8   6    3.08    0.77
  -2  -8  -6    1.91    1.43
   1   8   5    3.74    0.52
   1   8   5    3.06    0.67
  -1   8  -5    2.90    0.50
  -1   8  -5    3.45    0.74
  -1  -8  -5    6.11    1.23
   1  -8   5    3.82    0.71
   0   8  -4    0.71    0.38
   0   8  -4    0.43    0.52
   0   8   4    0.22    0.56
   0   8   4    0.15    0.32
   0  -8  -4    1.20    0.75
   0  -8   4    0.15    0.55
   0  -8  -4    0.85    0.85
   1   8  -3    0.43    0.54
  -1   8   3   -0.09    0.36
   1   8  -3   -0.07    0.48
  -1   8   3   -0.20    0.56
  -1   8   3   -0.40    0.33
   1  -8  -3    0.37    0.66
   1  -8  -3   -0.26    0.76
  -2   8   2   14.81    1.25
   2   8  -2   13.81    0.97
   2   8  -2   14.56    1.07
   2  -8  -2   13.23    1.51
   2  -8  -2   16.04    1.65
  -2  -8   2   15.48    1.32
   3   8  -1    3.66    0.58
  -3   8   1    4.64    0.86
   3   8  -1    2.75    1.19
  -3  -8   1    5.70    1.01
   3  -8  -1    6.13    0.88
   3  -8  -1    6.75    0.89
  -4   8   0    0.85    0.70
  -4   8   0    0.62    0.31
   4   8   0    0.46    0.46
  -4   8   0    0.26    0.61
  -4  -8   0    0.31    0.97
   4  -8   0   -0.86    0.71
  -5   8  -1    4.89    0.56
   5   8   1    4.48    0.61
   5   8   1    5.59    0.92
  -5  -8  -1    6.52    1.39
   5  -8   1    6.85    0.94
   0   9  -4   -0.12    0.68
   0   9   4    1.55    0.81
   0  -9  -4    2.40    1.29
   0  -9  -4   -0.90    1.14
  -1   9   3    2.77    0.85
   1   9  -3    1.72    0.71
   1  -9  -3    2.64    1.04
   1  -9  -3    0.78    1.03
   2   9  -2    2.32    0.67
  -2   9   2    3.96    0.95
   2   9  -2    3.92    0.76
   2  -9  -2    2.88    1.07
  -2  -9   2    6.34    1.24
   2  -9  -2    4.12    1.04
   3   9  -1   -1.77    1.09
   3   9  -1   -0.99    0.50
  -3   9   1    0.21    0.87
   3  -9  -1    1.89    1.01
  -3  -9   1    0.49    1.15
   3  -9  -1   -0.21    1.08
  -6   0 -11    1.59    1.24
  -6   0 -11   -0.90    1.05
   6   0  11   -1.37    0.73
   6   0  11    0.36    0.60
  -5   0 -10    1.55    0.77
   5   0  10    1.39    0.45
   5   0  10    1.15    0.64
  -5   0 -10    1.90    0.86
   5   0  10    1.14    0.58
   4   0   9    1.53    0.39
   4   0   9    1.00    0.46
  -4   0  -9    0.68    0.58
   4   0   9    1.91    0.48
  -4   0  -9    2.11    0.69
   4   0   9    1.63    0.27
   4   0   9    1.75    0.41
  -4   0  -9    1.36    0.41
   3   0   8    5.88    0.49
  -3   0  -8    6.67    0.63
  -3   0  -8    5.65    0.60
   3   0   8    5.79    0.65
   3   0   8    5.17    0.44
   3   0   8    6.06    0.51
  -3   0  -8    6.64    0.61
   3   0   8    6.29    0.65
  -3   0  -8    6.28    0.90
   2   0   7   39.10    1.17
  -2   0  -7   38.45    1.34
  -2   0  -7   39.22    1.49
   2   0   7   38.53    1.18
   2   0   7   37.80    1.08
  -2   0  -7   38.15    1.20
  -2   0  -7   36.48    1.26
   2   0   7   38.80    1.38
   2   0   7   39.39    1.32
   2   0   7   37.39    1.29
   1   0   6   46.53    1.31
  -1   0  -6   47.09    1.34
   1   0   6   47.99    1.48
  -1   0  -6   47.47    1.43
  -1   0  -6   46.96    1.55
   1   0   6   48.19    1.43
   1   0   6   47.64    1.30
   1   0   6   48.11    1.42
   1   0   6   47.92    1.26
   0   0   5  534.29   12.59
   0   0  -5  531.95   12.52
   0   0  -5  528.10   12.62
   0   0   5  533.27   12.51
   0   0   5  532.25   12.62
   0   0  -5  526.36   12.65
   0   0  -5  536.28   12.64
   0   0   5  547.82   12.60
   1   0  -4   76.26    1.92
   1   0  -4   73.63    1.82
   1   0  -4   71.55    1.77
   1   0  -4   69.05    1.92
  -1   0   4   70.68    1.79
  -1   0   4   72.31    1.91
  -1   0   4   74.53    1.88
   1   0  -4   73.73    1.94
  -1   0   4   71.75    1.89
  -2   0   3  665.25   15.59
   4   0  -1    6.67    0.49
  -4   0   1    6.18    0.31
  -4   0   1    6.21    0.40
   4   0  -1    6.29    0.37
   4   0  -1    5.52    0.44
  -4   0   1    5.69    0.47
   4   0  -1    5.80    0.35
   5   0   0   24.54    0.98
  -5   0   0   25.40    0.98
   5   0   0   25.53    0.90
   5   0   0   24.70    1.03
  -5   0   0   26.25    0.89
  -5   0   0   24.97    0.81
   5   0   0   25.31    1.00
  -5   0   0   26.17    0.95
   5   0   0   25.68    0.87
  -6   0  -1   44.81    1.50
  -6   0  -1   41.66    1.37
   6   0   1   43.19    1.40
   6   0   1   42.77    1.50
   6   0   1   43.36    1.68
  -6   0  -1   42.94    1.28
   6   0   1   41.66    1.52
  -6   0  -1   40.59    1.41
  -7   0  -2   81.29    2.31
   7   0   2   81.10    2.62
   7   0   2   80.26    2.54
   7   0   2   78.88    2.53
  -7   0  -2   79.46    2.14
  -7   0  -2   78.55    2.46
   7   0   2   79.92    2.38
  -8   0  -3   19.65    0.74
   8   0   3   20.73    1.08
  -8   0  -3   20.66    1.02
   8   0   3   19.91    1.27
   9   0   4    1.55    0.69
   9   0   4    2.14    0.60
   9   0   4    1.71    0.71
  -9   0  -4    2.07    0.57
  10   0   5    1.22    0.97
  10   0   5    3.15    0.84
  10   0   5    1.81    0.89
  -6   1 -11    4.15    1.20
   6   1  11   -0.19    0.89
   6   1  11    1.63    0.66
   6   1  11    1.78    0.87
   6  -1  11    1.36    0.66
  -6  -1 -11    0.00    1.44
   6  -1  11    0.89    0.77
  -6  -1 -11    1.56    1.26
   5   1  10    2.42    0.47
   5   1  10    1.88    0.59
  -5   1 -10    1.16    0.80
   5   1  10    1.59    0.62
  -5   1 -10    3.19    0.87
   5  -1  10    2.96    0.70
  -5  -1 -10    2.60    0.94
   5  -1  10    1.78    0.60
   5  -1  10    2.26    0.52
  -5  -1 -10    3.05    0.92
   4   1   9    0.81    0.45
  -4   1  -9    0.49    0.45
   4   1   9    0.97    0.36
   4   1   9    0.65    0.30
   4   1   9    0.40    0.33
   4   1   9    0.28    0.39
  -4   1  -9   -0.32    0.57
  -4   1  -9    0.39    0.41
  -4  -1  -9    1.59    0.69
  -4  -1  -9    0.92    0.60
   4  -1   9    0.87    0.42
   4  -1   9    0.43    0.39
   4  -1   9    1.49    0.57
   4  -1   9    0.50    0.43
   3   1   8   20.71    1.00
   3   1   8   20.80    0.79
  -3   1  -8   18.82    0.89
   3   1   8   20.78    0.85
  -3   1  -8   18.75    0.80
  -3   1  -8   20.51    0.98
  -3   1  -8   20.19    0.77
   3   1   8   19.99    1.05
   3   1   8   19.04    0.78
  -3   1  -8   20.49    1.19
  -3  -1  -8   19.29    1.25
   3  -1   8   21.29    1.08
   3  -1   8   21.68    0.89
  -3  -1  -8   22.23    1.02
   3  -1   8   19.53    0.64
   3  -1   8   21.44    1.02
  -3  -1  -8   21.28    1.22
   3  -1   8   20.06    0.87
  -2   1  -7   53.17    1.63
   2   1   7   53.36    1.53
  -2   1  -7   54.65    1.51
   2   1   7   53.43    1.74
   2   1   7   52.98    1.67
   2   1   7   54.44    1.54
  -2   1  -7   53.96    1.50
  -2   1  -7   57.05    1.74
  -2   1  -7   54.40    1.82
   2   1   7   52.74    1.71
   2   1   7   54.06    1.46
  -2  -1  -7   50.77    1.63
   2  -1   7   54.45    1.59
   2  -1   7   52.57    1.66
   2  -1   7   52.85    1.35
   2  -1   7   52.68    1.55
  -2  -1  -7   52.73    1.62
  -2  -1  -7   53.19    1.90
   2  -1   7   54.59    1.65
  -2  -1  -7   53.62    1.72
  -1   1  -6   56.09    1.50
  -1   1  -6   55.92    1.62
   1   1   6   53.49    1.49
   1   1   6   52.55    1.67
  -1   1  -6   55.28    1.45
  -1   1  -6   55.24    1.67
   1   1   6   53.67    1.49
  -1   1  -6   56.29    1.58
   1   1   6   55.21    1.44
   1   1   6   56.47    1.65
   1   1   6   54.06    1.59
   1  -1   6   53.83    1.53
   1  -1   6   53.76    1.48
   1  -1   6   53.11    1.58
  -1  -1  -6   55.02    1.76
  -1  -1  -6   55.15    1.61
   1  -1   6   54.70    1.58
   1  -1   6   52.45    1.60
  -1  -1  -6   53.61    1.59
  -1  -1  -6   55.69    1.66
   0   1  -5  125.49    3.10
   0   1  -5  123.16    3.13
   0   1  -5  123.94    3.12
   0   1   5  123.07    3.04
   0   1   5  120.49    3.05
   0   1   5  119.89    3.11
   0   1  -5  123.49    3.05
   0   1  -5  122.34    2.96
   0   1   5  123.07    3.15
   0   1   5  124.24    3.11
   0  -1  -5  126.33    3.19
   0  -1   5  122.34    3.06
   0  -1  -5  124.92    3.21
   0  -1   5  123.50    3.08
   0  -1  -5  122.10    3.04
   0  -1   5  125.15    3.12
   0  -1  -5  123.28    3.12
   0  -1   5  118.03    2.97
   0  -1  -5  126.50    3.15
   0  -1   5  120.90    3.10
  -1   1   4  156.24    3.85
  -1   1   4  155.02    3.83
   1   1  -4  149.66    3.78
   1   1  -4  147.19    3.61
  -1   1   4  147.81    3.71
   1   1  -4  152.91    3.77
   1   1  -4  152.86    3.76
  -1   1   4  153.87    3.73
  -1   1   4  157.73    3.84
  -1   1   4  144.77    3.78
  -1   1   4  152.56    3.78
  -1  -1   4  158.10    3.74
   1  -1  -4  156.91    3.80
   1  -1  -4  153.81    3.75
  -1  -1   4  159.72    3.81
   1  -1  -4  149.01    3.92
  -1  -1   4  156.68    3.76
   1  -1  -4  162.55    3.85
  -1  -1   4  160.92    3.75
   1  -1  -4  151.18    3.78
  -2   1   3   55.60    1.51
  -2   1   3   55.37    1.49
  -2   1   3   54.84    1.38
   2   1  -3   54.05    1.45
  -2   1   3   54.08    1.51
   2   1  -3   50.65    1.74
  -2  -1   3   56.18    1.46
   2  -1  -3   53.75    1.36
   2  -1  -3   52.52    1.41
  -2  -1   3   55.46    1.44
   2  -1  -3   54.61    1.50
   2  -1  -3   54.25    1.50
  -2  -1   3   51.79    1.28
  -2  -1   3   50.10    1.44
  -2  -1   3   52.75    1.52
  -2  -1   3   56.00    1.49
  -3   1   2   24.31    0.85
   3   1  -2   25.46    0.88
   3   1  -2   23.82    0.69
  -3   1   2   25.48    0.84
   3   1  -2   24.86    0.85
   3   1  -2   25.10    0.82
   3  -1  -2   24.62    0.71
  -3  -1   2   24.42    0.67
   3  -1  -2   24.85    0.85
   3  -1  -2   23.81    0.83
  -4   1   1   98.29    2.57
   4   1  -1   96.94    2.43
  -4   1   1   96.76    2.48
   4   1  -1   99.35    2.61
  -4   1   1   97.89    2.61
   4   1  -1   87.94    2.71
   4   1  -1   97.13    2.57
  -4  -1   1   98.16    2.60
  -4  -1   1   94.84    2.40
  -4  -1   1   97.20    2.57
   4  -1  -1   96.07    2.62
  -4  -1   1   98.03    2.55
   4  -1  -1   95.90    2.37
   5   1   0  103.46    2.62
  -5   1   0  101.27    2.62
   5   1   0   99.51    2.75
  -5   1   0   97.54    2.76
   5   1   0  101.58    2.82
   5   1   0  102.55    2.77
   5  -1   0   99.44    2.71
   5  -1   0  100.78    2.70
  -5  -1   0  100.06    2.71
  -5  -1   0  103.02    2.77
   5  -1   0  100.25    2.78
  -5  -1   0  100.95    2.57
  -5  -1   0   98.58    2.75
   5  -1   0   98.37    2.47
   5  -1   0  104.63    2.87
  -6   1  -1   15.80    0.83
   6   1   1   16.39    0.74
   6   1   1   15.98    0.81
   6   1   1   15.56    0.89
  -6   1  -1   16.49    0.80
   6   1   1   15.45    0.85
   6   1   1   16.66    0.91
  -6   1  -1   16.50    0.68
  -6   1  -1   17.06    0.70
   6  -1   1   17.16    0.81
   6  -1   1   17.08    0.96
  -6  -1  -1   16.47    0.66
  -6  -1  -1   16.79    0.79
   6  -1   1   17.77    0.81
  -6  -1  -1   16.82    0.86
  -6  -1  -1   15.87    0.88
   6  -1   1   17.47    0.90
  -7   1  -2    0.92    0.34
   7   1   2    0.34    0.37
  -7   1  -2    1.05    0.26
   7   1   2    0.28    0.39
   7   1   2    0.88    0.36
  -7   1  -2    0.91    0.38
   7  -1   2    0.54    0.36
  -7  -1  -2    0.56    0.33
   7  -1   2    0.81    0.32
   7  -1   2    0.78    0.40
   7  -1   2    0.92    0.35
  -7  -1  -2    1.20    0.47
  -8   1  -3   -0.37    0.29
   8   1   3   -0.28    0.32
  -8   1  -3   -0.33    0.44
   8   1   3   -0.35    0.48
   8   1   3   -0.81    0.50
  -8  -1  -3   -0.67    0.49
  -8  -1  -3   -0.38    0.18
   8  -1   3    0.45    0.41
   8  -1   3   -1.27    0.49
   8  -1   3    0.38    0.46
   9   1   4    3.34    0.67
   9   1   4    4.77    0.78
   9   1   4    2.73    0.58
   9  -1   4    2.92    0.72
   9  -1   4    2.60    0.61
  -9  -1  -4    3.53    1.03
   9  -1   4    1.90    0.75
  10   1   5    2.30    1.42
  10   1   5    2.61    0.91
  10   1   5    0.47    1.05
  10  -1   5    2.53    0.86
  10  -1   5    2.61    1.03
   5   2  10    7.31    0.94
  -5   2 -10    6.58    0.99
   5   2  10    7.91    1.04
   5   2  10    7.15    0.72
  -5   2 -10    6.38    1.19
  -5  -2 -10    6.97    1.16
   5  -2  10    5.82    0.84
  -5  -2 -10    8.16    1.17
   5  -2  10    7.69    0.86
   4   2   9    9.42    0.72
   4   2   9    8.63    0.96
   4   2   9   10.72    0.70
  -4   2  -9   11.51    0.87
  -4   2  -9   12.75    1.25
   4   2   9   10.94    0.94
   4   2   9   10.23    0.85
  -4  -2  -9   11.47    1.26
   4  -2   9    9.93    0.45
   4  -2   9   10.50    0.80
   4  -2   9    9.94    0.88
   4  -2   9   10.52    1.04
   4  -2   9   11.83    0.90
   3   2   8    8.98    0.72
   3   2   8    9.34    0.80
  -3   2  -8   10.15    0.53
   3   2   8   10.52    0.52
  -3   2  -8   10.74    0.71
  -3   2  -8    9.88    0.65
   3   2   8    9.77    0.61
   3   2   8   10.37    0.61
  -3   2  -8   10.19    0.74
  -3   2  -8   11.09    0.94
  -3  -2  -8    8.08    1.02
   3  -2   8    8.73    0.64
   3  -2   8    9.36    0.37
  -3  -2  -8   10.74    1.08
   3  -2   8    8.47    0.86
   3  -2   8   10.09    0.70
   3  -2   8   10.50    0.73
   2   2   7    1.36    0.26
  -2   2  -7    0.79    0.18
   2   2   7    1.78    0.35
  -2   2  -7    0.96    0.35
   2   2   7    0.41    0.33
  -2   2  -7    0.64    0.19
   2   2   7    1.35    0.24
   2   2   7    0.52    0.23
   2   2   7    0.80    0.28
  -2   2  -7    1.14    0.26
  -2   2  -7    1.15    0.27
   2  -2   7    1.26    0.33
  -2  -2  -7    0.98    0.28
  -2  -2  -7    0.94    0.51
   2  -2   7    1.03    0.26
  -2  -2  -7    0.81    0.31
   2  -2   7    1.08    0.24
   2  -2   7    1.36    0.31
   2  -2   7    0.72    0.25
  -2  -2  -7    0.20    0.39
   2  -2   7    1.09    0.14
  -2  -2  -7    0.94    0.27
  -1   2  -6   33.01    1.03
  -1   2  -6   33.03    1.10
   1   2   6   33.05    1.00
   1   2   6   34.26    1.10
   1   2   6   33.76    1.07
  -1   2  -6   32.68    1.06
  -1   2  -6   33.26    1.04
  -1   2  -6   33.42    1.15
   1   2   6   33.33    1.12
   1   2   6   34.18    1.17
   1   2   6   32.16    1.16
  -1  -2  -6   33.96    1.13
   1  -2   6   34.84    1.13
   1  -2   6   33.67    1.11
   1  -2   6   34.69    1.12
  -1  -2  -6   33.68    1.30
  -1  -2  -6   34.03    1.17
   1  -2   6   35.69    1.04
  -1  -2  -6   34.17    1.18
   0   2  -5   53.78    1.51
   0   2   5   53.44    1.57
   0   2  -5   53.68    1.51
   0   2  -5   53.91    1.39
   0   2   5   56.48    1.58
   0   2  -5   55.07    1.56
   0   2   5   57.32    1.57
   0   2   5   55.83    1.58
   0   2   5   54.88    1.59
   0   2  -5   54.51    1.54
   0  -2  -5   55.79    1.59
   0  -2   5   56.08    1.58
   0  -2   5   55.56    1.52
   0  -2  -5   60.26    1.68
   0  -2  -5   58.68    1.65
   0  -2  -5   54.53    1.69
   0  -2  -5   56.44    1.64
   0  -2   5   53.87    1.56
  -1   2   4   77.67    2.06
   1   2  -4   76.44    1.82
  -1   2   4   76.59    1.95
  -1   2   4   77.54    2.13
  -1   2   4   76.42    2.03
  -1   2   4   74.63    2.01
   1   2  -4   74.87    1.97
   1   2  -4   76.48    2.03
   1   2  -4   77.74    1.93
   1   2  -4   76.48    1.98
  -1   2   4   77.40    2.07
  -1   2   4   77.63    2.08
   1  -2  -4   76.91    2.07
  -1  -2   4   77.06    2.07
  -1  -2   4   77.69    2.01
   1  -2  -4   72.10    2.05
   1  -2  -4   76.91    2.08
  -1  -2   4   77.49    1.94
   1  -2  -4   76.69    2.05
  -1  -2   4   76.34    1.93
  -1  -2   4   80.39    1.99
   2   2  -3   36.28    0.89
  -2   2   3   34.10    1.05
   2   2  -3   36.70    1.03
  -2   2   3   34.72    1.11
  -2   2   3   35.00    1.11
   2   2  -3   36.04    1.20
   2   2  -3   37.14    1.13
   2   2  -3   36.19    1.00
  -2   2   3   36.57    1.09
  -2   2   3   35.61    0.94
  -2   2   3   36.40    1.10
  -2  -2   3   38.17    1.04
   2  -2  -3   37.52    1.12
   2  -2  -3   37.59    1.13
   2  -2  -3   35.61    0.97
  -2  -2   3   35.90    0.93
  -2  -2   3   38.30    1.03
  -2  -2   3   36.40    1.02
   2  -2  -3   36.18    1.10
  -2  -2   3   36.90    1.01
   3   2  -2  131.78    3.24
   3   2  -2  127.21    3.13
  -3   2   2  128.00    3.34
   3   2  -2  131.81    3.45
  -3   2   2  139.75    3.53
   3   2  -2  131.25    3.27
  -3  -2   2  130.08    3.16
  -3  -2   2  120.93    3.22
  -3  -2   2  131.12    3.43
  -3  -2   2  134.68    3.26
   3  -2  -2  129.67    3.34
  -3  -2   2  132.88    3.24
   3  -2  -2  125.22    3.28
   3  -2  -2  133.48    3.33
   4   2  -1   58.77    1.56
  -4   2   1   59.29    1.75
  -4   2   1   61.29    1.72
   4   2  -1   59.67    1.70
   4   2  -1   59.12    1.85
   4   2  -1   58.05    1.72
  -4   2   1   59.32    1.69
   4  -2  -1   59.48    1.77
   4  -2  -1   60.04    1.55
  -4  -2   1   59.37    1.67
   4  -2  -1   60.79    1.77
  -4  -2   1   60.17    1.69
  -4  -2   1   58.30    1.50
   4  -2  -1   60.21    1.49
  -4  -2   1   59.65    1.85
  -4  -2   1   59.28    1.59
  -5   2   0   35.93    1.19
   5   2   0   34.86    1.29
   5   2   0   35.17    1.25
  -5   2   0   34.44    1.23
   5   2   0   33.88    1.19
   5   2   0   34.16    1.05
  -5   2   0   33.60    1.11
  -5  -2   0   31.39    1.12
  -5  -2   0   33.73    1.17
  -5  -2   0   33.49    1.05
   5  -2   0   34.00    1.24
  -5  -2   0   34.74    1.33
   5  -2   0   35.40    1.28
  -6   2  -1   15.08    0.76
   6   2   1   14.28    0.98
  -6   2  -1   15.24    0.69
   6   2   1   14.15    0.82
   6   2   1   14.68    0.85
   6   2   1   14.83    0.83
  -6   2  -1   14.43    0.70
   6   2   1   14.11    0.66
  -6  -2  -1   13.99    0.75
   6  -2   1   15.34    0.72
  -6  -2  -1   13.63    0.64
   6  -2   1   15.03    0.86
   6  -2   1   15.43    1.00
  -6  -2  -1   16.29    0.95
  -6  -2  -1   13.02    0.72
   7   2   2   38.78    1.63
   7   2   2   39.24    1.34
   7   2   2   38.81    1.56
  -7   2  -2   37.56    1.40
  -7   2  -2   37.88    1.51
   7   2   2   37.28    1.48
  -7   2  -2   37.31    1.29
   7  -2   2   39.18    1.60
   7  -2   2   36.47    1.62
   7  -2   2   38.66    1.36
  -7  -2  -2   38.67    1.59
  -8   2  -3   10.72    0.90
   8   2   3   10.78    1.00
   8   2   3    9.65    0.75
   8  -2   3   12.55    1.10
  -8  -2  -3   11.76    1.13
   8  -2   3   10.20    1.04
   9   2   4    2.62    0.78
   9   2   4    3.02    0.73
   9   2   4    2.33    0.58
   9  -2   4    1.35    0.66
  -9  -2  -4    1.86    0.91
   9  -2   4    0.88    0.70
  10   2   5    2.46    1.12
  10   2   5    2.42    1.45
  10   2   5    2.12    1.00
  10  -2   5    1.06    0.99
   5   3  10    4.14    0.57
  -5   3 -10    5.05    1.53
   5   3  10    4.43    0.77
   5   3  10    3.55    0.71
  -5  -3 -10    3.91    1.27
   4   3   9    8.99    0.69
  -4   3  -9   10.72    1.19
   4   3   9    9.14    0.91
   4   3   9   10.04    0.96
   4  -3   9   10.64    0.89
  -4  -3  -9   10.51    1.27
   4  -3   9   10.05    0.98
  -4  -3  -9   10.75    1.39
   3   3   8   37.49    1.56
  -3   3  -8   38.71    1.34
  -3   3  -8   39.12    1.62
   3   3   8   34.85    1.63
   3   3   8   38.81    1.72
  -3   3  -8   39.15    1.41
   3   3   8   37.43    1.40
  -3   3  -8   37.67    1.19
  -3  -3  -8   41.07    1.95
   3  -3   8   37.13    1.44
   3  -3   8   40.18    1.52
   3  -3   8   37.86    1.42
   3  -3   8   35.26    1.06
  -3  -3  -8   41.27    2.13
   2   3   7   24.50    1.05
   2   3   7   23.03    0.98
   2   3   7   25.78    1.09
  -2   3  -7   24.17    0.93
  -2   3  -7   24.66    0.96
  -2   3  -7   25.77    1.10
   2   3   7   24.00    0.72
   2   3   7   25.34    0.96
  -2   3  -7   24.91    0.81
   2  -3   7   26.88    1.07
   2  -3   7   24.09    1.04
   2  -3   7   23.25    0.75
  -2  -3  -7   26.09    1.41
   2  -3   7   23.61    0.97
   2  -3   7   25.49    1.02
  -2  -3  -7   23.18    1.28
   1   3   6   10.00    0.54
   1   3   6   10.39    0.57
  -1   3  -6    8.91    0.49
   1   3   6    9.51    0.59
  -1   3  -6    9.65    0.49
  -1   3  -6   10.50    0.59
  -1   3  -6    9.66    0.41
   1   3   6   10.33    0.64
   1   3   6   10.40    0.59
  -1   3  -6    9.30    0.50
  -1  -3  -6    8.40    0.57
   1  -3   6    8.28    0.58
  -1  -3  -6   10.44    0.64
   1  -3   6    9.31    0.52
   1  -3   6   10.15    0.51
  -1  -3  -6    9.49    0.58
  -1  -3  -6   10.67    0.80
   1  -3   6    9.35    0.41
   1  -3   6    9.25    0.59
  -1  -3  -6   10.13    0.66
  -1  -3  -6   11.90    1.01
   0   3  -5   52.66    1.52
   0   3   5   52.31    1.56
   0   3  -5   51.80    1.42
   0   3   5   54.01    1.57
   0   3   5   53.14    1.59
   0   3  -5   52.03    1.46
   0   3   5   52.74    1.51
   0   3  -5   53.59    1.42
   0   3  -5   52.16    1.37
   0   3  -5   52.50    1.50
   0   3   5   53.00    1.61
   0  -3  -5   54.67    1.87
   0  -3  -5   53.09    1.63
   0  -3  -5   53.89    1.67
   0  -3  -5   52.84    1.56
   0  -3  -5   50.93    1.58
   0  -3   5   53.82    1.45
   0  -3   5   52.03    1.42
   0  -3   5   51.75    1.57
   0  -3  -5   53.12    1.69
   0  -3   5   53.54    1.57
   0  -3   5   51.88    1.43
   1   3  -4    2.79    0.32
  -1   3   4    4.42    0.30
   1   3  -4    3.67    0.25
  -1   3   4    3.19    0.31
   1   3  -4    3.34    0.26
  -1   3   4    4.01    0.35
   1   3  -4    3.07    0.34
  -1   3   4    3.12    0.32
  -1   3   4    3.80    0.32
  -1   3   4    2.99    0.36
  -1   3   4    3.55    0.32
   1   3  -4    3.55    0.42
   1  -3  -4    3.74    0.42
   1  -3  -4    3.65    0.51
  -1  -3   4    3.94    0.34
  -1  -3   4    3.12    0.35
  -1  -3   4    3.81    0.26
   1  -3  -4    3.80    0.34
   1  -3  -4    3.54    0.50
   1  -3  -4    3.67    0.33
  -1  -3   4    3.87    0.23
  -1  -3   4    3.44    0.25
  -2   3   3    5.62    0.37
  -2   3   3    5.53    0.39
   2   3  -3    6.36    0.40
  -2   3   3    5.73    0.38
   2   3  -3    4.82    0.42
   2   3  -3    5.52    0.26
   2   3  -3    5.83    0.31
  -2   3   3    5.61    0.37
   2   3  -3    5.81    0.28
   2   3  -3    5.73    0.50
  -2   3   3    5.08    0.37
  -2   3   3    5.58    0.22
  -2  -3   3    5.80    0.25
   2  -3  -3    6.15    0.47
  -2  -3   3    6.21    0.29
  -2  -3   3    5.87    0.28
   2  -3  -3    5.66    0.38
   2  -3  -3    6.22    0.53
  -2  -3   3    6.47    0.37
   3   3  -2   40.14    1.17
  -3   3   2   40.43    1.28
   3   3  -2   40.58    1.45
   3   3  -2   40.48    1.14
   3   3  -2   39.16    1.28
  -3   3   2   39.83    1.26
   3   3  -2   40.24    1.11
   3   3  -2   41.45    1.10
   3  -3  -2   39.92    1.28
  -3  -3   2   42.10    1.14
  -3  -3   2   40.86    1.15
  -3  -3   2   40.47    1.44
  -3  -3   2   41.32    1.14
   3  -3  -2   40.08    1.25
  -3  -3   2   40.51    1.18
   3  -3  -2   41.77    1.32
   4   3  -1    9.94    0.51
  -4   3   1    9.05    0.54
   4   3  -1    9.97    0.72
   4   3  -1    9.99    0.44
   4   3  -1    9.89    0.54
  -4   3   1    9.39    0.55
   4  -3  -1   10.86    0.57
   4  -3  -1   10.92    0.56
  -4  -3   1   10.51    0.48
  -4  -3   1   10.18    0.45
  -4  -3   1   10.81    0.75
  -4  -3   1    9.81    0.48
  -4  -3   1   10.09    0.49
   4  -3  -1    9.95    0.41
   5   3   0   37.56    1.14
   5   3   0   37.32    1.47
  -5   3   0   38.15    1.28
  -5   3   0   38.84    1.44
   5   3   0   38.03    1.33
  -5   3   0   37.85    1.29
  -5   3   0   37.13    1.26
   5   3   0   36.43    1.27
  -5  -3   0   37.14    1.28
   5  -3   0   37.08    1.26
   5  -3   0   36.55    1.33
  -5  -3   0   38.20    1.53
  -5  -3   0   37.48    0.99
   5  -3   0   36.88    1.04
  -5  -3   0   37.32    1.24
  -5  -3   0   38.95    1.21
   5  -3   0   37.22    1.36
   6   3   1   15.63    0.70
   6   3   1   15.23    0.86
   6   3   1   14.49    0.89
  -6   3  -1   15.16    1.06
  -6   3  -1   16.05    0.81
   6   3   1   17.51    0.99
  -6   3  -1   16.14    0.86
  -6  -3  -1   15.28    0.77
  -6  -3  -1   15.72    1.06
   6  -3   1   14.89    0.63
   6  -3   1   15.95    0.91
   6  -3   1   16.38    0.94
  -7   3  -2   13.92    0.93
   7   3   2   14.97    0.77
  -7   3  -2   13.81    0.81
   7   3   2   15.52    1.14
   7   3   2   14.28    1.02
   7  -3   2   14.98    1.19
  -7  -3  -2   13.57    1.16
   7  -3   2   15.36    0.99
   7  -3   2   13.73    0.69
   8   3   3    3.98    0.58
   8   3   3    2.84    0.61
   8   3   3    3.34    0.67
   8  -3   3    3.09    0.64
   8  -3   3    3.57    0.69
  -8  -3  -3    3.87    0.88
   9   3   4    0.28    0.74
   9   3   4    0.12    0.50
  -9  -3  -4    1.09    1.32
   9  -3   4    0.10    0.81
   5   4  10    0.42    0.58
   5   4  10    1.07    0.69
  -5   4 -10    0.23    0.95
   5   4  10   -0.38    0.77
  -5  -4 -10    2.55    1.35
  -4   4  -9   -0.26    0.67
   4   4   9    0.45    0.45
   4   4   9   -0.64    0.55
   4   4   9   -0.05    0.36
   4  -4   9    0.19    0.58
   4  -4   9   -0.96    0.48
  -4  -4  -9    0.89    0.98
   3   4   8    8.98    0.65
   3   4   8    8.92    0.83
  -3   4  -8    8.26    0.79
   3   4   8    9.52    0.83
  -3   4  -8    9.27    0.79
  -3   4  -8    8.76    0.64
  -3   4  -8    9.23    1.00
  -3   4  -8    8.72    0.66
  -3  -4  -8   10.24    1.24
   3  -4   8    8.80    0.59
   3  -4   8    8.73    0.77
   3  -4   8    8.73    0.90
   2   4   7   32.78    1.24
   2   4   7   32.04    0.88
  -2   4  -7   31.76    1.27
  -2   4  -7   32.51    1.27
   2   4   7   33.63    1.33
  -2   4  -7   32.59    1.10
  -2   4  -7   29.64    1.30
   2   4   7   34.22    1.23
  -2   4  -7   33.22    1.01
   2  -4   7   32.05    1.23
  -2  -4  -7   30.97    1.72
   2  -4   7   31.69    1.07
   2  -4   7   30.85    1.16
   2  -4   7   32.38    1.26
   2  -4   7   32.70    1.34
   1   4   6   79.05    2.23
   1   4   6   74.23    2.28
   1   4   6   75.01    2.20
  -1   4  -6   75.85    2.02
  -1   4  -6   74.56    2.08
   1   4   6   75.01    2.15
   1   4   6   76.01    2.27
  -1   4  -6   78.43    2.16
  -1   4  -6   73.69    1.98
  -1   4  -6   75.16    2.30
   1  -4   6   76.24    2.07
  -1  -4  -6   78.57    2.31
   1  -4   6   73.81    2.18
   1  -4   6   76.91    2.30
   1  -4   6   74.00    2.06
   1  -4   6   76.09    2.11
  -1  -4  -6   79.26    2.69
   0   4  -5   60.24    1.96
   0   4   5   62.90    1.83
   0   4  -5   61.24    1.77
   0   4  -5   60.68    1.83
   0   4   5   61.48    1.83
   0   4   5   62.25    1.73
   0   4   5   60.11    1.89
   0   4  -5   60.60    1.61
   0   4   5   62.86    1.79
   0   4  -5   61.35    1.66
   0   4   5   62.53    1.89
   0   4  -5   60.80    1.63
   0   4  -5   59.20    1.76
   0  -4   5   64.23    1.64
   0  -4  -5   57.43    1.81
   0  -4  -5   63.15    1.94
   0  -4   5   62.83    1.83
   0  -4  -5   61.75    1.79
   0  -4   5   59.81    1.67
   0  -4   5   61.61    1.88
   0  -4  -5   63.76    2.21
   0  -4  -5   58.88    1.95
   0  -4   5   63.05    1.75
  -1   4   4   56.68    1.58
   1   4  -4   54.70    1.83
   1   4  -4   58.50    1.67
  -1   4   4   55.72    1.94
  -1   4   4   55.18    1.77
  -1   4   4   57.77    1.69
   1   4  -4   56.94    1.89
  -1   4   4   57.21    1.63
   1   4  -4   55.23    1.60
   1   4  -4   56.35    1.66
  -1   4   4   57.05    1.57
  -1   4   4   59.16    1.76
  -1  -4   4   55.88    1.69
  -1  -4   4   57.26    1.45
   1  -4  -4   52.57    1.91
   1  -4  -4   58.35    1.82
  -1  -4   4   56.27    1.41
   1  -4  -4   56.11    1.95
   2   4  -3   17.89    0.64
   2   4  -3   17.72    0.77
  -2   4   3   16.09    0.74
   2   4  -3   17.36    0.63
  -2   4   3   16.15    0.80
  -2   4   3   17.16    0.69
  -2   4   3   16.79    0.68
  -2   4   3   16.85    0.65
  -2   4   3   16.83    0.70
   2   4  -3   16.79    0.76
  -2   4   3   16.43    0.50
  -2  -4   3   16.72    0.49
   2  -4  -3   17.46    0.91
   2  -4  -3   16.54    0.69
  -2  -4   3   17.38    0.51
   2  -4  -3   16.53    0.83
  -2  -4   3   16.83    0.70
  -2  -4   3   16.84    0.90
   3   4  -2    9.55    0.43
   3   4  -2    9.90    0.45
   3   4  -2    9.47    0.74
  -3   4   2    8.97    0.52
   3   4  -2    9.15    0.61
  -3   4   2    9.29    0.50
  -3   4   2    9.05    0.52
   3   4  -2    9.75    0.43
   3   4  -2    9.88    0.38
   3  -4  -2   10.73    0.52
  -3  -4   2   10.63    0.51
  -3  -4   2   11.02    0.52
  -3  -4   2   11.25    0.42
   3  -4  -2   10.31    0.54
   3  -4  -2   10.70    0.68
  -3  -4   2    9.77    0.77
  -3  -4   2   10.84    0.38
   3  -4  -2   10.41    0.66
  -4   4   1   18.06    0.83
   4   4  -1   18.30    0.70
  -4   4   1   17.47    0.77
   4   4  -1   18.75    0.87
  -4   4   1   17.41    0.74
   4   4  -1   18.00    0.65
   4   4  -1   17.59    0.74
   4   4  -1   17.18    1.02
   4  -4  -1   17.00    0.71
   4  -4  -1   18.18    0.87
  -4  -4   1   17.93    0.66
  -4  -4   1   17.32    1.14
  -4  -4   1   17.29    0.69
  -4  -4   1   16.34    0.73
  -4  -4   1   16.36    0.64
   4  -4  -1   15.80    0.72
   4  -4  -1   17.44    0.81
  -5   4   0    2.26    0.36
   5   4   0    2.54    0.38
   5   4   0    2.71    0.73
   5   4   0    2.26    0.36
  -5   4   0    2.37    0.41
   5   4   0    2.83    0.34
  -5   4   0    2.90    0.39
   5  -4   0    2.42    0.44
  -5  -4   0    2.61    0.36
  -5  -4   0    2.23    0.55
   5  -4   0    2.60    0.49
  -5  -4   0    2.86    0.26
   5  -4   0    2.55    0.40
   5  -4   0    2.96    0.19
  -5  -4   0    2.54    0.37
   6   4   1    0.15    0.33
  -6   4  -1    0.38    0.32
   6   4   1    0.57    0.35
   6   4   1    0.49    0.24
  -6   4  -1    0.22    0.33
   6  -4   1    0.33    0.32
   6  -4   1    0.71    0.36
   6  -4   1    0.45    0.37
  -6  -4  -1    1.24    0.54
  -7   4  -2    6.03    0.71
   7   4   2    5.87    0.80
  -7   4  -2    6.12    0.68
   7   4   2    5.96    0.74
   7   4   2    6.16    0.60
   7  -4   2    5.17    0.70
   7  -4   2    5.50    0.72
   7  -4   2    6.08    0.70
   7  -4   2    5.52    0.45
   8   4   3   12.39    1.19
   8   4   3   14.25    0.90
   8   4   3   12.56    1.16
  -8  -4  -3   15.30    1.58
   8  -4   3   11.48    1.21
   8  -4   3   15.06    1.04
   9   4   4   -0.13    0.84
   9   4   4    1.02    0.54
   9   4   4    1.27    0.83
  -9  -4  -4    0.16    1.13
   9  -4   4    0.43    0.86
   9  -4   4    0.01    0.58
   4   5   9    0.32    0.46
   4   5   9    0.86    0.63
   4   5   9    1.99    0.65
  -4   5  -9    0.21    0.78
  -4  -5  -9    0.57    1.23
   3   5   8    2.92    0.55
   3   5   8    2.27    0.47
   3   5   8    2.15    0.43
  -3   5  -8    3.04    0.63
  -3  -5  -8    2.98    0.97
   3  -5   8    2.98    0.39
   3  -5   8    1.96    0.55
   3  -5   8    2.84    0.68
  -2   5  -7   12.79    0.60
   2   5   7   12.95    0.53
  -2   5  -7   13.16    0.98
   2   5   7   13.30    0.81
   2   5   7   13.68    0.86
  -2   5  -7   12.34    0.62
   2   5   7   13.10    0.83
  -2   5  -7   13.91    0.73
  -2   5  -7   12.10    0.84
   2  -5   7   12.82    0.74
  -2  -5  -7   14.82    1.34
   2  -5   7   13.33    0.73
   2  -5   7   11.80    0.94
   2  -5   7   12.93    0.69
   1   5   6   12.27    0.86
   1   5   6   12.45    0.77
  -1   5  -6   13.51    0.69
  -1   5  -6   12.17    0.56
  -1   5  -6   13.18    0.92
   1   5   6   13.20    0.70
  -1   5  -6   13.84    0.65
   1   5   6   12.98    0.73
   1  -5   6   12.83    0.60
   1  -5   6   12.45    0.68
   1  -5   6   11.76    0.72
   1  -5   6   12.53    0.90
   1  -5   6   11.74    0.59
  -1  -5  -6   11.82    1.37
  -1  -5  -6   12.51    0.89
   0   5   5   77.70    2.26
   0   5  -5   76.56    2.16
   0   5  -5   75.08    2.07
   0   5   5   74.86    2.22
   0   5  -5   78.58    2.16
   0   5   5   77.74    2.34
   0   5   5   76.32    2.18
   0   5  -5   79.17    1.98
   0   5   5   78.19    2.12
   0   5   5   72.46    2.20
   0   5  -5   74.63    2.46
   0  -5  -5   76.58    2.41
   0  -5   5   76.75    1.97
   0  -5   5   79.35    2.22
   0  -5  -5   85.04    2.75
   0  -5   5   76.82    2.35
   0  -5  -5   76.59    2.69
   1   5  -4   40.40    1.32
  -1   5   4   38.65    1.30
  -1   5   4   41.49    1.48
   1   5  -4   37.37    1.26
  -1   5   4   38.05    1.23
   1   5  -4   40.28    1.35
  -1   5   4   39.02    1.65
  -1   5   4   38.42    1.47
  -1   5   4   40.51    1.24
   1   5  -4   39.74    1.59
   1   5  -4   40.29    1.26
  -1   5   4   40.02    1.19
   1  -5  -4   39.59    1.68
  -1  -5   4   39.42    1.38
   1  -5  -4   38.02    1.50
  -2   5   3    6.03    0.45
  -2   5   3    4.93    0.58
   2   5  -3    5.49    0.39
   2   5  -3    6.23    0.56
   2   5  -3    5.70    0.77
   2   5  -3    4.99    0.53
   2   5  -3    5.79    0.44
  -2   5   3    5.57    0.40
  -2   5   3    6.16    0.39
  -2   5   3    5.59    0.29
  -2   5   3    4.97    0.84
  -2   5   3    6.07    0.44
   2  -5  -3    6.15    0.66
   2  -5  -3    6.28    0.73
  -2  -5   3    6.90    0.72
  -2  -5   3    6.02    0.51
  -3   5   2    7.10    0.49
  -3   5   2    6.84    0.51
  -3   5   2    7.72    0.46
   3   5  -2    7.33    0.35
  -3   5   2    7.91    0.46
   3   5  -2    7.59    0.67
  -3   5   2    6.00    0.56
   3   5  -2    7.09    1.00
  -3   5   2    6.95    0.60
   3   5  -2    7.42    0.45
   3   5  -2    7.50    0.42
  -3  -5   2    7.63    0.84
   3  -5  -2    6.82    0.47
   3  -5  -2    8.23    0.69
   3  -5  -2    7.30    0.68
   3  -5  -2    7.67    0.45
  -3  -5   2    8.16    0.51
  -3  -5   2    7.74    0.31
  -4   5   1    4.78    0.42
  -4   5   1    4.96    0.48
   4   5  -1    5.30    0.32
   4   5  -1    5.72    0.42
   4   5  -1    4.05    0.43
   4   5  -1    4.34    0.38
  -4  -5   1    5.94    0.82
   4  -5  -1    4.53    0.59
  -4  -5   1    4.90    0.48
  -4  -5   1    4.93    0.33
   4  -5  -1    4.96    0.44
  -4  -5   1    4.83    0.42
   4  -5  -1    3.41    0.50
   4  -5  -1    4.14    0.51
  -5   5   0    6.92    0.53
   5   5   0    7.11    0.49
  -5   5   0    5.25    0.60
   5   5   0    7.86    0.65
   5   5   0    6.46    0.55
   5  -5   0    7.30    0.82
  -5  -5   0    5.74    0.82
   5  -5   0    6.39    0.72
   5  -5   0    6.67    0.55
  -5  -5   0    6.57    0.99
   6   5   1    0.52    0.27
   6   5   1    0.96    0.39
   6   5   1    0.16    0.37
  -6   5  -1   -0.05    0.34
  -6   5  -1    0.34    0.32
  -6  -5  -1    0.06    0.61
   6  -5   1    0.49    0.37
   6  -5   1   -0.04    0.45
   6  -5   1   -0.66    0.43
   7   5   2    0.73    0.45
   7   5   2    0.45    0.48
   7   5   2    1.11    0.50
   7  -5   2    1.01    0.51
   7  -5   2    0.12    0.55
  -7  -5  -2    2.02    0.86
   8   5   3    1.86    0.50
   8   5   3    0.93    0.62
   8   5   3   -0.82    0.66
   8  -5   3    0.59    0.71
   8  -5   3    1.07    0.58
  -8  -5  -3    3.33    1.11
  -4   6  -9   -0.45    0.88
   4   6   9    0.24    0.65
   4   6   9   -0.28    0.77
   4   6   9    0.42    0.76
  -4  -6  -9    0.26    1.62
   3   6   8    1.55    0.57
   3   6   8    1.79    0.52
   3   6   8    2.10    0.52
  -3  -6  -8    1.54    1.19
  -2   6  -7   14.80    0.80
   2   6   7   13.88    0.93
   2   6   7   15.12    0.93
  -2   6  -7   14.13    0.96
   2  -6   7   13.57    0.88
  -2  -6  -7   11.43    1.51
   2  -6   7   13.37    1.11
  -1   6  -6    0.85    0.29
   1   6   6    0.73    0.37
  -1   6  -6    0.68    0.31
  -1   6  -6    1.08    0.24
   1   6   6    2.00    0.69
  -1   6  -6    0.29    0.69
   1   6   6    1.38    0.32
   1   6   6    1.03    0.34
   1   6   6    0.60    0.35
   1   6   6    0.15    0.30
  -1  -6  -6    0.80    0.55
  -1  -6  -6    1.68    0.78
   1  -6   6    0.26    0.35
   1  -6   6    0.39    0.24
   1  -6   6    0.99    0.46
   0   6   5    9.46    0.65
   0   6  -5   10.38    0.67
   0   6   5    9.39    0.63
   0   6   5    9.84    0.56
   0   6  -5   10.70    0.63
   0   6   5   11.47    0.76
   0   6  -5   10.68    0.69
   0   6   5   11.11    0.68
   0  -6  -5   11.60    1.25
   0  -6   5   10.49    0.99
   0  -6  -5   11.79    1.46
   0  -6   5    9.90    0.74
  -1   6   4    5.90    0.48
  -1   6   4    6.18    0.76
  -1   6   4    6.10    0.46
   1   6  -4    5.97    0.54
  -1   6   4    6.03    0.55
   1   6  -4    7.27    0.75
   1   6  -4    5.59    0.54
  -1   6   4    5.51    0.57
  -1   6   4    5.40    0.53
  -1   6   4    6.04    0.41
   1  -6  -4    8.07    1.00
   1  -6  -4    7.62    0.82
  -1  -6   4    7.06    0.71
   2   6  -3   70.20    2.13
  -2   6   3   71.00    1.85
  -2   6   3   66.73    1.78
  -2   6   3   67.86    1.92
  -2   6   3   67.47    1.94
   2   6  -3   70.09    2.00
  -2   6   3   69.35    2.30
  -2   6   3   67.51    1.77
  -2   6   3   68.43    2.05
   2  -6  -3   71.97    2.37
  -2  -6   3   71.91    2.17
   2  -6  -3   71.23    2.43
  -2  -6   3   73.83    2.47
  -3   6   2   10.39    0.54
   3   6  -2   11.44    0.82
  -3   6   2   10.02    0.89
   3   6  -2   11.86    0.63
  -3   6   2   11.42    0.53
   3   6  -2   12.24    0.57
  -3   6   2   11.06    0.61
  -3   6   2   11.20    0.74
  -3  -6   2   12.95    0.72
   3  -6  -2   12.78    0.99
  -3  -6   2   12.87    1.17
   3  -6  -2   10.83    0.60
   4   6  -1    2.48    0.32
  -4   6   1    2.55    0.29
   4   6  -1    2.59    0.32
  -4   6   1    2.46    0.33
  -4   6   1    2.73    0.41
   4   6  -1    2.65    0.37
   4  -6  -1    2.24    0.32
   4  -6  -1    2.25    0.46
  -4  -6   1    2.35    0.45
   4  -6  -1    2.86    0.61
   4  -6  -1    2.92    0.37
   5   6   0    6.89    0.66
   5   6   0    6.90    0.55
   5   6   0    7.14    0.59
  -5   6   0    7.29    0.69
  -5   6   0    6.95    0.66
   5  -6   0    8.07    0.75
   5  -6   0    7.50    0.62
  -5  -6   0    7.68    1.06
   6   6   1    2.32    0.42
   6   6   1    2.04    0.47
   6   6   1    2.58    0.90
  -6  -6  -1    1.53    0.81
   6  -6   1    1.76    0.58
   6  -6   1    2.16    0.61
   7   6   2    5.03    0.75
   7   6   2    3.96    0.71
   7   6   2    4.32    0.71
   7  -6   2    4.03    0.76
  -7  -6  -2    3.27    1.10
   8   6   3    5.60    1.02
   8   6   3    8.11    0.99
   8   6   3    7.66    1.14
  -8  -6  -3    8.52    1.56
   8  -6   3    9.26    1.33
   3   7   8   14.80    1.32
   3   7   8   14.86    1.46
   3   7   8   14.05    1.20
  -3  -7  -8   11.97    2.12
   2   7   7    2.01    0.58
   2   7   7    1.90    0.54
   2   7   7    2.09    0.58
  -2   7  -7    2.38    0.59
  -2   7  -7    2.21    0.73
  -2  -7  -7    6.03    1.29
   2  -7   7    0.82    0.55
   1   7   6    6.60    0.79
   1   7   6    5.91    0.72
  -1   7  -6    5.77    0.71
   1   7   6    6.84    0.70
  -1   7  -6    7.46    0.80
  -1  -7  -6    8.13    1.17
   1  -7   6    6.94    0.84
  -1  -7  -6    5.90    0.86
   1  -7   6    8.17    1.03
   0   7  -5    4.57    0.67
   0   7   5    2.89    0.48
   0   7  -5    4.58    0.61
   0   7   5    4.86    0.64
   0   7   5    4.46    0.52
   0   7   5    3.54    0.83
   0   7   5    4.86    0.60
   0  -7   5    4.16    0.59
   0  -7  -5    5.05    0.92
   0  -7  -5    4.48    0.77
   0  -7   5    4.19    0.63
   1   7  -4    2.32    0.43
  -1   7   4    2.16    0.44
   1   7  -4    2.15    0.40
  -1   7   4    2.76    0.59
  -1   7   4    2.05    0.34
  -1   7   4    2.03    0.31
  -1   7   4    1.82    0.28
  -1   7   4    2.01    0.49
  -1  -7   4    2.13    0.55
   1  -7  -4    2.08    0.60
  -2   7   3    7.29    0.50
   2   7  -3    8.57    0.64
   2   7  -3    7.41    0.76
  -2   7   3    6.66    0.45
  -2   7   3    7.18    0.37
  -2   7   3    7.54    0.69
  -2   7   3    7.75    0.40
  -2   7   3    6.78    0.87
  -2  -7   3    7.96    0.79
   2  -7  -3    7.97    0.97
   2  -7  -3    8.96    1.09
   3   7  -2   10.01    0.68
   3   7  -2    9.17    0.92
  -3   7   2    8.66    0.58
  -3   7   2    8.78    0.48
  -3   7   2   10.23    0.44
  -3   7   2    8.22    0.96
  -3   7   2    9.32    0.71
   3  -7  -2   10.28    0.99
   3  -7  -2    8.88    1.04
  -3  -7   2    9.18    1.11
  -4   7   1    3.84    0.52
   4   7  -1    3.24    0.46
  -4   7   1    3.03    0.40
  -4   7   1    3.02    0.37
   4   7  -1    3.24    0.36
  -4   7   1    2.98    0.49
  -4  -7   1    3.50    0.80
   4  -7  -1    4.33    0.59
  -4  -7   1    3.25    0.35
   4  -7  -1    4.14    0.70
  -5   7   0    8.20    0.68
   5   7   0    7.58    0.69
   5   7   0    6.91    0.66
  -5  -7   0    8.38    1.11
   5  -7   0    8.55    1.06
   6   7   1    0.29    0.40
   6   7   1   -0.21    0.48
   6   7   1    0.86    0.50
  -6  -7  -1    1.53    1.07
   6  -7   1   -0.27    0.65
   7   7   2   -0.23    0.66
   7   7   2    1.11    0.71
   7   7   2   -0.25    0.50
  -7  -7  -2    1.74    1.28
   7  -7   2   -1.15    0.76
   2   8   7    1.00    0.63
   2   8   7    0.76    0.80
   2   8   7   -0.56    0.83
  -2  -8  -7    0.74    1.95
  -1   8  -6   -0.04    0.76
   1   8   6   -0.86    0.47
   1   8   6    0.42    0.47
  -1   8  -6   -0.76    0.54
   1   8   6   -0.75    0.55
   1  -8   6    0.35    0.67
  -1  -8  -6   -0.76    1.11
   0   8  -5    4.42    0.67
   0   8   5    4.77    0.66
   0   8  -5    4.23    0.54
   0   8   5    4.25    0.54
   0   8   5    4.68    0.81
   0  -8  -5    6.87    0.96
   0  -8  -5    7.01    1.15
  -1   8   4    0.87    0.31
   1   8  -4    0.98    0.49
   1   8  -4    1.59    0.73
  -1   8   4    0.89    0.63
   1  -8  -4    0.76    0.71
   1  -8  -4    2.66    0.85
  -2   8   3    1.30    0.60
  -2   8   3    1.17    0.40
  -2   8   3    1.32    0.28
   2   8  -3    0.33    0.45
   2   8  -3    0.81    0.53
   2  -8  -3    1.63    0.68
   2  -8  -3    1.33    0.82
  -3   8   2    0.37    0.24
   3   8  -2    0.14    0.40
  -3   8   2    0.03    0.63
   3   8  -2    0.12    0.56
  -3   8   2    0.98    0.36
  -3  -8   2   -0.30    0.81
   3  -8  -2    0.29    0.77
   3  -8  -2    2.04    0.74
  -4   8   1    4.42    0.56
   4   8  -1    4.22    0.57
  -4   8   1    5.89    0.89
   4   8  -1    3.74    0.72
   4  -8  -1    5.09    0.86
   4  -8  -1    4.44    0.81
  -4  -8   1    5.68    1.10
  -5   8   0    3.34    0.48
   5   8   0    2.53    0.51
   5  -8   0    2.88    0.88
  -5  -8   0    5.71    1.22
   6   8   1    3.71    0.65
   6   8   1    2.51    0.59
   6  -8   1    1.55    0.89
  -6  -8  -1    3.29    1.87
  -1   9   4    2.87    0.89
   1  -9  -4    3.40    1.14
   1  -9  -4    2.01    1.20
   2   9  -3   -0.12    0.58
  -2   9   3    0.33    0.83
   2   9  -3    0.73    0.65
   2  -9  -3    0.77    1.02
   2  -9  -3    2.06    1.13
   3   9  -2   -0.37    0.57
   3   9  -2   -0.84    0.76
  -3   9   2   -0.15    0.88
   3  -9  -2    0.41    0.97
  -3  -9   2    2.11    1.18
   3  -9  -2    0.31    1.03
  -5   0 -11   -0.30    0.92
   5   0  11   -0.05    0.61
  -5   0 -11    0.91    0.97
   5   0  11   -0.05    0.75
   5   0  11    0.83    0.48
   4   0  10    6.70    0.78
  -4   0 -10   10.60    1.58
  -4   0 -10    7.88    0.95
  -4   0 -10    5.28    0.90
   4   0  10    8.57    0.71
   4   0  10    8.35    0.72
   4   0  10    6.88    0.91
   3   0   9    2.36    0.37
   3   0   9    2.28    0.49
   3   0   9    1.80    0.39
   3   0   9    1.39    0.33
  -3   0  -9    2.68    0.82
  -3   0  -9    1.35    0.60
   2   0   8  210.12    5.17
   2   0   8  210.04    5.43
  -2   0  -8  207.18    5.22
   2   0   8  218.05    5.37
  -2   0  -8  210.91    5.34
   2   0   8  202.16    5.02
  -2   0  -8  207.05    5.56
  -2   0  -8  204.80    5.40
   2   0   8  213.78    5.17
  -1   0  -7  134.83    3.38
  -1   0  -7  135.55    3.64
   1   0   7  135.90    3.53
   1   0   7  131.55    3.21
   1   0   7  132.11    3.34
   1   0   7  132.69    3.47
   1   0   7  132.60    3.32
  -1   0  -7  127.23    3.83
  -1   0  -7  135.94    3.49
   1   0   7  135.57    3.47
   0   0  -6   28.82    0.97
   0   0   6   28.69    0.94
   0   0  -6   29.17    0.89
   0   0   6   27.57    0.74
   0   0  -6   28.60    1.02
   0   0   6   29.77    0.95
   0   0   6   29.09    0.84
   0   0   6   29.12    0.87
   0   0   6   28.60    0.98
   1   0  -5   10.43    0.34
  -1   0   5   10.08    0.49
   1   0  -5    9.11    0.50
   1   0  -5   10.91    0.50
  -1   0   5   10.23    0.37
   1   0  -5   10.18    0.41
  -1   0   5   10.81    0.46
  -1   0   5   10.41    0.42
   1   0  -5   10.65    0.48
  -1   0   5    9.96    0.48
  -2   0   4   79.07    2.03
   2   0  -4   75.33    2.25
   2   0  -4   81.84    2.17
  -2   0   4   82.01    2.16
  -2   0   4   87.35    2.19
   2   0  -4   84.51    2.16
  -2   0   4   81.33    2.14
  -2   0   4   83.79    2.11
   3   0  -3   56.04    1.52
  -3   0   3   55.84    1.44
   3   0  -3   54.60    1.60
   3   0  -3   56.71    1.58
   4   0  -2  355.95    8.55
   4   0  -2  364.79    8.59
  -4   0   2  345.67    8.39
  -4   0   2  356.38    8.53
   4   0  -2  352.52    8.46
   4   0  -2  352.65    8.43
  -5   0   1    3.01    0.42
  -5   0   1    3.67    0.27
   5   0  -1    3.01    0.43
   5   0  -1    3.76    0.34
  -5   0   1    3.07    0.38
   5   0  -1    3.64    0.33
   5   0  -1    3.64    0.43
  -6   0   0    6.70    0.57
  -6   0   0    7.27    0.53
   6   0   0    5.93    0.67
   6   0   0    7.15    0.51
   6   0   0    8.05    0.60
  -6   0   0    6.98    0.57
  -6   0   0    7.24    0.40
   6   0   0    7.89    0.65
   6   0   0    7.00    0.55
   7   0   1   29.40    1.33
   7   0   1   28.55    1.14
   7   0   1   28.62    1.22
  -7   0  -1   29.20    1.09
  -7   0  -1   27.75    1.24
  -7   0  -1   27.97    0.95
   7   0   1   26.35    1.22
  -7   0  -1   26.85    1.18
   8   0   2    3.61    0.67
   8   0   2    6.36    0.87
  -8   0  -2    5.00    0.66
  -8   0  -2    5.34    0.41
  -8   0  -2    5.14    0.67
   9   0   3    0.13    0.45
  -9   0  -3    0.26    0.51
   9   0   3   -0.13    0.60
   9   0   3   -1.33    0.56
  10   0   4    3.66    0.89
  10   0   4    3.26    0.88
  10   0   4    4.02    0.75
   5   1  11    0.78    0.67
   5   1  11    0.34    0.73
   5   1  11    0.72    0.46
  -5   1 -11    2.39    1.02
   5  -1  11    1.53    0.67
   5  -1  11    1.37    0.52
  -5  -1 -11    1.41    1.06
  -5  -1 -11    1.25    0.94
  -4   1 -10    2.61    0.76
   4   1  10    2.80    0.61
   4   1  10    2.76    0.48
   4   1  10    2.51    0.56
   4   1  10    3.06    0.45
   4  -1  10    3.18    0.56
  -4  -1 -10    4.91    0.90
  -4  -1 -10    3.06    1.06
   4  -1  10    4.10    0.60
   4  -1  10    3.09    0.60
   3   1   9   11.55    0.86
   3   1   9   12.22    0.99
  -3   1  -9   11.80    0.84
   3   1   9   11.94    0.61
  -3   1  -9   13.00    0.85
   3   1   9   12.74    0.72
   3   1   9   11.59    0.62
  -3   1  -9   11.56    0.57
  -3   1  -9   12.05    1.15
   3  -1   9   12.08    0.74
  -3  -1  -9   13.65    1.13
   3  -1   9   12.39    0.84
   3  -1   9   12.94    0.72
   3  -1   9   14.08    0.90
   3  -1   9   11.57    0.49
  -3  -1  -9   12.25    0.90
   2   1   8   14.15    0.60
   2   1   8   15.69    0.67
   2   1   8   13.11    0.77
  -2   1  -8   15.37    0.96
   2   1   8   13.85    0.60
  -2   1  -8   15.54    0.82
  -2   1  -8   13.86    0.61
  -2   1  -8   14.06    0.58
   2   1   8   15.24    0.86
  -2   1  -8   14.87    0.75
   2  -1   8   14.40    0.67
  -2  -1  -8   13.97    0.80
  -2  -1  -8   14.10    0.76
  -2  -1  -8   13.71    0.78
   2  -1   8   14.86    0.72
   2  -1   8   14.74    0.77
   2  -1   8   14.92    0.89
  -2  -1  -8   14.96    1.05
  -1   1  -7   16.77    0.60
  -1   1  -7   18.32    0.85
   1   1   7   17.09    0.63
   1   1   7   16.61    0.61
  -1   1  -7   17.04    0.72
   1   1   7   16.15    0.72
  -1   1  -7   16.93    0.76
   1   1   7   15.91    0.77
  -1   1  -7   16.37    0.61
   1   1   7   15.51    0.73
   1   1   7   16.13    0.59
   1  -1   7   16.38    0.72
  -1  -1  -7   16.18    0.91
  -1  -1  -7   16.72    0.77
   1  -1   7   16.27    0.62
   1  -1   7   14.84    0.75
   1  -1   7   15.36    0.71
  -1  -1  -7   15.68    0.73
  -1  -1  -7   15.78    0.70
   1  -1   7   16.52    0.67
   0   1  -6   96.38    2.41
   0   1  -6   98.91    2.49
   0   1  -6   99.13    2.60
   0   1   6   95.87    2.46
   0   1   6   96.38    2.49
   0   1   6   96.35    2.57
   0   1  -6   98.06    2.60
   0   1   6   98.28    2.57
   0   1   6   96.80    2.61
   0   1   6   96.31    2.44
   0  -1   6   98.68    2.51
   0  -1   6  101.48    2.56
   0  -1  -6   98.11    2.69
   0  -1  -6  100.37    2.58
   0  -1  -6   99.87    2.62
   0  -1   6   95.86    2.57
   0  -1   6   99.26    2.58
   0  -1   6   93.01    2.43
   0  -1  -6   96.80    2.47
   1   1  -5  409.11    9.67
   1   1  -5  409.80    9.53
  -1   1   5  405.58    9.72
  -1   1   5  390.92    9.67
  -1   1   5  407.57    9.64
   1   1  -5  408.18    9.70
   1   1  -5  415.18    9.67
  -1   1   5  410.23    9.63
  -1   1   5  400.82    9.57
  -1  -1   5  414.49    9.68
  -1  -1   5  401.95    9.62
   1  -1  -5  414.73    9.68
   1  -1  -5  402.74    9.61
   1  -1  -5  426.03    9.73
  -1  -1   5  408.55    9.64
   1  -1  -5  373.57    9.77
  -1  -1   5  419.56    9.70
  -2   1   4  353.21    8.40
  -2   1   4  362.24    8.55
  -2   1   4  328.40    8.55
   2   1  -4  363.14    8.49
   2   1  -4  363.61    8.49
  -2   1   4  325.54    8.63
  -2   1   4  366.71    8.50
  -2   1   4  374.25    8.54
   2  -1  -4  364.28    8.53
   2  -1  -4  357.86    8.53
   2  -1  -4  339.47    8.43
  -2  -1   4  348.92    8.44
  -2  -1   4  364.70    8.51
  -2  -1   4  362.99    8.49
  -2  -1   4  349.31    8.41
   2  -1  -4  357.59    8.39
  -2  -1   4  356.06    8.47
  -2  -1   4  367.07    8.48
   3   1  -3  249.85    5.94
   3   1  -3  238.98    5.79
  -3   1   3  255.98    6.00
   3   1  -3  248.96    5.97
  -3   1   3  248.01    6.02
   3   1  -3  256.05    5.98
  -3  -1   3  230.33    5.76
   3  -1  -3  240.36    5.83
  -3  -1   3  248.38    5.97
   3  -1  -3  243.49    6.01
  -3  -1   3  244.88    5.94
   3  -1  -3  243.66    6.00
  -4   1   2  335.99    8.03
  -4   1   2  349.08    8.18
   4   1  -2  349.72    8.15
   4   1  -2  329.42    8.09
   4   1  -2  338.43    8.15
   4   1  -2  340.90    7.96
  -4   1   2  348.31    8.13
   4  -1  -2  328.25    8.12
  -4  -1   2  345.24    8.13
  -4  -1   2  293.21    7.94
   4  -1  -2  338.62    8.17
  -4  -1   2  334.99    8.08
  -5   1   1   99.50    2.65
   5   1  -1   97.83    2.70
   5   1  -1   94.84    2.66
   5   1  -1   96.08    2.51
   5   1  -1   94.44    2.65
  -5  -1   1   98.49    2.66
   5  -1  -1   96.18    2.68
   5  -1  -1   94.87    2.42
  -5  -1   1   97.54    2.72
   5  -1  -1   97.56    2.58
  -5  -1   1   94.85    2.45
   5  -1  -1  100.17    2.76
  -5  -1   1   96.07    2.64
   6   1   0   73.01    2.15
   6   1   0   74.27    2.26
   6   1   0   72.27    2.05
  -6   1   0   71.31    2.15
   6   1   0   73.09    2.22
  -6   1   0   79.18    2.60
   6   1   0   71.19    2.28
  -6   1   0   71.90    2.01
  -6  -1   0   72.50    1.97
   6  -1   0   72.38    2.30
  -6  -1   0   71.95    2.17
   6  -1   0   73.31    1.88
  -6  -1   0   74.17    2.21
   6  -1   0   75.11    2.14
   6  -1   0   71.50    2.13
   6  -1   0   75.84    2.25
   7   1   1    5.07    0.51
   7   1   1    5.00    0.60
   7   1   1    6.70    0.74
  -7   1  -1    5.62    0.44
   7   1   1    5.29    0.78
   7   1   1    5.18    0.56
  -7   1  -1    4.37    0.57
  -7   1  -1    4.65    0.59
   7  -1   1    7.15    0.95
  -7  -1  -1    6.03    0.61
   7  -1   1    5.39    0.59
   7  -1   1    5.88    0.73
  -7  -1  -1    6.51    0.67
   7  -1   1    5.68    0.58
  -8   1  -2    7.29    0.54
   8   1   2    6.97    0.94
  -8   1  -2    7.74    0.81
   8   1   2    7.77    1.10
  -8  -1  -2    8.25    0.41
  -8  -1  -2    8.37    0.82
   8  -1   2    6.30    0.72
   8  -1   2    7.31    0.90
   8  -1   2    9.72    1.00
   9   1   3   -0.11    0.42
   9   1   3   -0.15    0.73
   9   1   3    1.54    0.57
  -9  -1  -3    1.26    0.60
   9  -1   3    0.28    0.46
   9  -1   3    0.68    0.65
   9  -1   3    0.17    0.59
  10   1   4    1.88    0.66
  10   1   4    1.05    0.78
  10   1   4    3.94    0.92
  10  -1   4    1.74    0.76
  10  -1   4    0.88    0.83
  10  -1   4    1.96    0.94
  -5   2 -11    5.97    1.21
   5   2  11    6.60    0.97
   5   2  11    5.85    0.81
   5   2  11    8.53    1.23
   5  -2  11    5.71    0.84
  -5  -2 -11    6.72    1.28
   5  -2  11    7.49    1.00
  -5  -2 -11    6.57    1.26
   4   2  10   26.38    1.25
  -4   2 -10   25.15    1.64
   4   2  10   24.95    1.07
   4   2  10   24.44    1.34
   4   2  10   23.37    1.43
   4  -2  10   25.31    1.52
   4  -2  10   25.72    1.43
  -4  -2 -10   23.83    1.65
  -4  -2 -10   21.99    1.72
   4  -2  10   25.47    1.33
  -3   2  -9    4.02    0.49
   3   2   9    2.89    0.47
  -3   2  -9    4.01    0.56
   3   2   9    4.06    0.58
   3   2   9    3.78    0.49
   3   2   9    3.65    0.42
  -3   2  -9    3.23    0.70
   3   2   9    3.80    0.41
  -3  -2  -9    4.30    0.87
   3  -2   9    4.62    0.62
   3  -2   9    4.18    0.56
   3  -2   9    3.65    0.49
   3  -2   9    5.04    0.71
  -3  -2  -9    3.05    0.78
   2   2   8   57.84    1.90
  -2   2  -8   57.36    1.75
  -2   2  -8   56.76    1.58
  -2   2  -8   56.00    1.94
   2   2   8   57.98    1.84
   2   2   8   57.25    1.52
  -2   2  -8   56.79    1.81
   2   2   8   59.97    1.69
   2   2   8   54.61    1.68
  -2   2  -8   54.66    1.64
  -2  -2  -8   58.21    2.16
   2  -2   8   53.49    1.68
  -2  -2  -8   54.98    1.87
  -2  -2  -8   58.63    2.13
   2  -2   8   54.66    1.84
   2  -2   8   57.26    1.79
   2  -2   8   56.78    1.78
   1   2   7   64.28    1.67
  -1   2  -7   63.70    1.89
   1   2   7   64.44    1.89
  -1   2  -7   64.43    1.68
   1   2   7   64.72    1.93
  -1   2  -7   66.62    1.89
  -1   2  -7   65.02    1.95
   1   2   7   62.69    1.83
  -1   2  -7   64.59    1.79
   1   2   7   63.56    1.81
   1   2   7   65.11    1.96
   1  -2   7   64.50    1.89
   1  -2   7   65.01    1.86
  -1  -2  -7   61.89    2.09
   1  -2   7   65.66    1.78
   1  -2   7   64.68    1.88
   1  -2   7   63.85    1.88
  -1  -2  -7   64.68    1.97
  -1  -2  -7   63.23    1.92
   0   2   6    3.36    0.38
   0   2   6    2.91    0.34
   0   2   6    3.61    0.34
   0   2  -6    3.93    0.30
   0   2   6    3.95    0.36
   0   2  -6    3.31    0.36
   0   2  -6    3.36    0.21
   0   2   6    3.48    0.34
   0   2  -6    4.48    0.38
   0   2  -6    3.65    0.32
   0  -2  -6    4.04    0.39
   0  -2  -6    4.63    0.41
   0  -2   6    4.78    0.34
   0  -2  -6    4.19    0.39
   0  -2   6    4.46    0.37
   0  -2   6    4.21    0.27
   0  -2   6    4.09    0.31
   0  -2  -6    4.20    0.41
   0  -2  -6    5.06    0.53
   0  -2   6    4.15    0.36
  -1   2   5   34.29    1.07
  -1   2   5   31.50    1.01
   1   2  -5   32.28    0.98
   1   2  -5   31.48    0.87
  -1   2   5   33.40    0.97
   1   2  -5   33.04    0.96
  -1   2   5   35.01    1.09
  -1   2   5   33.37    1.00
   1   2  -5   32.50    0.78
  -1   2   5   33.62    1.10
   1   2  -5   32.15    0.96
   1   2  -5   31.82    1.00
  -1   2   5   32.73    1.05
  -1  -2   5   29.83    0.92
  -1  -2   5   31.50    0.98
  -1  -2   5   30.03    1.03
   1  -2  -5   30.35    1.03
   1  -2  -5   29.47    1.06
  -1  -2   5   30.42    0.98
   1  -2  -5   29.87    1.03
   1  -2  -5   31.02    1.07
   1  -2  -5   29.30    1.06
  -2   2   4    6.41    0.41
   2   2  -4    6.99    0.36
  -2   2   4    6.75    0.43
  -2   2   4    6.72    0.29
  -2   2   4    6.93    0.41
   2   2  -4    6.20    0.42
   2   2  -4    6.64    0.32
  -2   2   4    6.19    0.40
  -2   2   4    6.59    0.35
  -2   2   4    6.27    0.42
  -2  -2   4    6.50    0.35
  -2  -2   4    6.31    0.31
   2  -2  -4    6.32    0.42
  -2  -2   4    6.26    0.31
  -2  -2   4    6.54    0.41
  -2  -2   4    5.96    0.33
  -2  -2   4    6.55    0.34
   2  -2  -4    6.38    0.34
   3   2  -3   58.85    1.77
   3   2  -3   58.50    1.57
  -3   2   3   57.58    1.67
   3   2  -3   59.35    1.60
  -3   2   3   59.54    1.66
   3   2  -3   56.24    1.42
   3   2  -3   57.67    1.68
   3  -2  -3   56.65    1.66
  -3  -2   3   59.64    1.53
  -3  -2   3   59.02    1.59
   3  -2  -3   58.20    1.62
   3  -2  -3   56.89    1.42
   3  -2  -3   50.55    1.72
  -3  -2   3   57.92    1.45
  -3  -2   3   58.51    1.57
   4   2  -2   27.39    0.95
   4   2  -2   26.00    0.90
  -4   2   2   26.11    0.96
   4   2  -2   25.38    1.03
   4   2  -2   25.58    0.76
   4  -2  -2   24.36    0.72
  -4  -2   2   24.55    1.01
  -4  -2   2   25.81    0.88
   4  -2  -2   25.41    0.95
   4  -2  -2   25.09    0.97
  -4  -2   2   25.90    0.77
  -4  -2   2   26.20    0.94
   5   2  -1   35.45    1.35
   5   2  -1   38.05    1.31
  -5   2   1   38.37    1.31
   5   2  -1   37.58    1.11
   5   2  -1   37.68    1.26
  -5   2   1   37.02    1.26
  -5   2   1   38.13    1.27
  -5  -2   1   37.46    1.37
   5  -2  -1   37.14    1.31
  -5  -2   1   37.34    1.22
  -5  -2   1   38.03    1.25
  -5  -2   1   37.18    1.10
   5  -2  -1   35.78    1.32
   5  -2  -1   38.05    1.13
  -6   2   0   13.91    0.75
   6   2   0   13.72    0.81
   6   2   0   13.99    0.77
   6   2   0   13.08    0.79
   6   2   0   14.26    0.63
  -6  -2   0   12.54    0.71
  -6  -2   0   13.36    0.58
   6  -2   0   14.17    0.66
   6  -2   0   13.30    0.95
  -6  -2   0   13.23    0.72
  -6  -2   0   13.22    0.87
   6  -2   0   12.12    0.79
  -7   2  -1   51.80    1.67
  -7   2  -1   53.79    1.86
   7   2   1   54.42    1.94
   7   2   1   54.94    1.68
   7   2   1   53.59    1.87
  -7   2  -1   53.65    1.78
   7   2   1   52.79    1.87
   7  -2   1   53.78    1.70
   7  -2   1   54.42    2.00
   7  -2   1   53.95    1.90
  -7  -2  -1   55.33    1.93
   8   2   2   14.65    1.13
   8   2   2   13.98    0.82
   8   2   2   13.53    1.29
   8   2   2   13.95    1.06
  -8   2  -2   15.07    0.96
   8  -2   2   14.54    1.00
   8  -2   2   13.19    1.07
  -8  -2  -2   12.51    1.06
   8  -2   2   14.33    1.08
   9   2   3    2.14    0.70
   9   2   3    2.77    0.54
   9   2   3    2.75    0.66
  -9  -2  -3    3.82    0.84
   9  -2   3    3.34    0.77
   9  -2   3    2.50    0.66
  10   2   4   -0.04    0.87
  10   2   4   -0.24    0.77
  10   2   4    0.39    0.66
  10  -2   4   -0.36    0.85
 -10  -2  -4    2.00    1.27
   5   3  11   -1.59    0.68
   5   3  11    0.74    0.62
  -5   3 -11   -1.18    0.99
   5   3  11    0.17    0.82
   5  -3  11    0.55    0.77
  -5  -3 -11    1.52    1.44
   4   3  10    2.72    0.58
   4   3  10    3.09    0.46
  -4   3 -10    2.96    0.81
   4   3  10    2.95    0.62
  -4  -3 -10    1.66    0.87
   4  -3  10    4.38    0.82
   4  -3  10    2.54    0.63
  -4  -3 -10    1.97    1.04
   3   3   9   22.00    1.13
   3   3   9   21.13    0.94
  -3   3  -9   22.52    1.03
  -3   3  -9   22.22    1.08
   3   3   9   20.48    0.81
   3   3   9   27.40    1.68
  -3  -3  -9   20.84    1.58
   3  -3   9   22.62    1.84
  -3  -3  -9   22.85    1.53
   3  -3   9   22.03    1.08
   3  -3   9   20.93    1.12
  -2   3  -8   53.13    1.66
   2   3   8   49.24    1.67
   2   3   8   52.68    1.63
   2   3   8   53.20    1.76
   2   3   8   51.44    1.81
  -2   3  -8   53.47    1.84
  -2   3  -8   51.52    1.69
   2   3   8   52.65    1.40
  -2   3  -8   51.08    1.46
   2  -3   8   54.01    1.72
   2  -3   8   53.25    1.76
  -2  -3  -8   53.06    2.08
  -2  -3  -8   54.08    2.21
   1   3   7   24.60    1.03
  -1   3  -7   26.29    0.96
  -1   3  -7   25.42    0.78
   1   3   7   25.83    1.04
   1   3   7   25.54    0.96
  -1   3  -7   25.52    0.92
  -1   3  -7   26.67    1.04
   1   3   7   23.91    0.98
  -1   3  -7   22.97    0.90
   1   3   7   25.93    0.99
   1  -3   7   25.82    0.99
   1  -3   7   24.78    1.01
  -1  -3  -7   26.16    1.38
  -1  -3  -7   25.20    1.07
  -1  -3  -7   24.82    1.11
  -1  -3  -7   27.33    1.25
   1  -3   7   25.52    0.98
   0   3   6   30.68    1.02
   0   3  -6   29.68    0.82
   0   3  -6   29.91    0.83
   0   3   6   29.59    1.06
   0   3  -6   29.93    0.95
   0   3   6   28.71    1.05
   0   3   6   30.41    1.05
   0   3   6   30.63    1.08
   0   3  -6   28.93    0.98
   0   3  -6   31.44    1.04
   0  -3   6   29.83    1.08
   0  -3  -6   31.29    1.22
   0  -3   6   29.43    0.96
   0  -3   6   29.37    1.07
   0  -3  -6   29.25    1.14
   0  -3  -6   30.27    1.12
   0  -3  -6   29.82    1.10
   0  -3  -6   29.96    1.07
   0  -3  -6   29.30    1.36
   0  -3   6   29.57    0.93
  -1   3   5   66.17    1.81
  -1   3   5   67.84    1.98
   1   3  -5   65.15    2.03
   1   3  -5   67.99    1.66
  -1   3   5   66.55    1.97
  -1   3   5   68.34    1.92
  -1   3   5   68.08    1.86
   1   3  -5   67.87    1.80
   1   3  -5   69.12    2.08
  -1   3   5   67.18    1.93
   1   3  -5   65.62    1.84
   1   3  -5   67.38    1.81
  -1  -3   5   67.10    1.90
   1  -3  -5   68.03    2.19
   1  -3  -5   67.71    1.92
   1  -3  -5   68.57    1.99
   1  -3  -5   68.94    1.97
   1  -3  -5   68.19    1.99
  -1  -3   5   70.47    1.81
  -1  -3   5   69.47    1.95
  -1  -3   5   68.05    1.75
  -2   3   4   55.36    1.61
  -2   3   4   57.59    1.65
   2   3  -4   56.62    1.63
   2   3  -4   57.49    1.52
  -2   3   4   55.42    1.41
   2   3  -4   55.48    1.37
  -2   3   4   56.90    1.61
  -2   3   4   55.59    1.57
  -2   3   4   54.82    1.68
   2   3  -4   55.10    1.77
   2   3  -4   56.21    1.57
  -2   3   4   55.88    1.61
   2  -3  -4   53.78    1.67
  -2  -3   4   54.86    1.56
  -2  -3   4   56.92    1.47
   2  -3  -4   54.14    1.77
  -2  -3   4   54.73    1.47
  -2  -3   4   49.78    1.54
  -2  -3   4   54.12    1.42
   2  -3  -4   53.22    1.51
   3   3  -3   79.17    2.57
   3   3  -3   73.21    1.87
  -3   3   3   74.36    2.02
   3   3  -3   76.21    1.92
   3   3  -3   71.71    1.79
   3   3  -3   74.90    1.88
   3   3  -3   74.05    2.03
  -3   3   3   74.69    2.06
   3   3  -3   75.07    2.09
   3  -3  -3   69.66    2.08
  -3  -3   3   69.42    1.86
   3  -3  -3   67.53    2.01
   3  -3  -3   69.41    2.01
  -3  -3   3   70.24    1.89
   3  -3  -3   70.81    2.07
  -3  -3   3   70.47    1.91
  -3  -3   3   70.87    1.88
   4   3  -2  108.91    2.85
  -4   3   2  110.73    2.90
   4   3  -2  107.56    2.80
   4   3  -2  107.31    3.12
   4   3  -2  107.77    2.69
  -4   3   2  107.77    2.95
  -4  -3   2  108.67    2.81
   4  -3  -2  107.32    2.92
  -4  -3   2  112.91    2.81
  -4  -3   2  111.12    2.78
   4  -3  -2  106.61    2.79
  -4  -3   2  110.49    2.72
   4  -3  -2  105.20    3.38
   4  -3  -2  108.59    2.96
  -4  -3   2  109.53    3.11
   5   3  -1   21.83    0.75
  -5   3   1   21.15    0.88
  -5   3   1   22.64    0.92
  -5   3   1   21.58    0.96
   5   3  -1   22.06    0.88
   5   3  -1   22.06    1.06
   5   3  -1   21.62    0.92
   5  -3  -1   21.46    0.64
  -5  -3   1   21.48    1.08
   5  -3  -1   22.63    0.89
   5  -3  -1   21.41    0.98
  -5  -3   1   22.94    0.84
   5  -3  -1   22.18    0.95
  -5  -3   1   22.33    0.81
  -5  -3   1   20.67    0.84
   6   3   0   17.27    0.71
  -6   3   0   16.92    0.82
   6   3   0   17.15    1.01
   6   3   0   17.12    0.91
  -6   3   0   17.64    0.89
   6   3   0   16.98    0.88
  -6   3   0   16.51    0.85
   6  -3   0   15.99    0.92
   6  -3   0   17.04    0.91
   6  -3   0   14.54    0.70
  -6  -3   0   17.33    0.92
  -6  -3   0   16.53    0.51
  -6  -3   0   18.40    1.09
  -6  -3   0   15.60    0.72
   7   3   1   56.64    2.02
   7   3   1   54.96    1.69
   7   3   1   55.22    1.92
  -7   3  -1   53.52    1.80
  -7  -3  -1   54.75    2.10
   7  -3   1   55.77    1.97
   7  -3   1   56.31    2.39
   7  -3   1   50.90    1.60
  -8   3  -2    4.73    0.61
   8   3   2    4.86    0.70
   8   3   2    4.46    0.59
  -8   3  -2    4.42    0.72
   8   3   2    3.80    0.65
   8  -3   2    4.01    0.70
  -8  -3  -2    5.44    0.92
   8  -3   2    3.91    0.45
   8  -3   2    5.15    0.74
   9   3   3    3.72    0.73
   9   3   3    2.83    0.73
   9   3   3    3.55    0.61
  -9  -3  -3    3.71    1.00
   9  -3   3    3.90    0.83
  10   3   4    3.67    1.21
  10   3   4    3.49    0.90
  10   3   4    1.81    0.97
  10  -3   4    2.21    0.98
 -10  -3  -4    3.85    1.30
  -4   4 -10    1.66    0.79
   4   4  10    1.21    0.68
   4   4  10    0.45    0.51
   4   4  10    0.78    0.46
   4  -4  10    0.77    0.75
  -4  -4 -10    1.36    1.14
   3   4   9    3.73    0.57
   3   4   9    5.14    0.78
  -3   4  -9    4.58    0.79
   3   4   9    5.40    0.60
  -3  -4  -9    5.26    1.02
   3  -4   9    4.40    0.68
   3  -4   9    5.75    0.77
  -2   4  -8   50.39    1.44
   2   4   8   52.58    1.77
   2   4   8   50.80    1.45
  -2   4  -8   50.91    1.61
   2   4   8   48.29    2.21
   2   4   8   52.83    1.68
  -2   4  -8   50.25    1.64
  -2   4  -8   53.67    1.80
  -2  -4  -8   50.46    2.10
  -2  -4  -8   51.56    2.29
   2  -4   8   51.52    1.69
   2  -4   8   48.22    1.38
   2  -4   8   50.48    1.69
  -1   4  -7   83.13    2.32
   1   4   7   79.60    2.30
   1   4   7   82.15    2.34
  -1   4  -7   76.48    2.42
  -1   4  -7   80.66    2.07
   1   4   7   77.50    2.40
   1   4   7   78.94    2.36
  -1   4  -7   77.08    2.22
   1   4   7   77.76    2.41
  -1   4  -7   76.93    2.54
  -1  -4  -7   79.77    2.62
   1  -4   7   79.80    2.22
   1  -4   7   80.24    2.26
  -1  -4  -7   80.86    2.85
   1  -4   7   84.60    2.17
   1  -4   7   81.66    2.44
   1  -4   7   77.53    2.34
  -1  -4  -7   86.03    2.45
   0   4  -6    9.77    0.42
   0   4   6    9.49    0.64
   0   4   6    9.56    0.54
   0   4   6    9.69    0.64
   0   4  -6    8.76    0.50
   0   4  -6    9.33    0.46
   0   4  -6   10.77    0.59
   0   4   6    9.41    0.59
   0   4  -6    8.86    0.73
   0   4  -6    8.69    0.62
   0   4  -6    9.46    0.45
   0   4   6    9.81    0.63
   0   4   6    9.54    0.59
   0  -4  -6   10.85    0.77
   0  -4  -6   11.42    0.75
   0  -4   6   10.72    0.67
   0  -4   6   10.65    0.45
   0  -4  -6    9.69    0.65
   0  -4   6   10.23    0.49
   0  -4  -6   10.47    0.80
   0  -4   6   10.62    0.62
   0  -4  -6   11.14    0.99
   0  -4  -6   10.61    0.94
   1   4  -5    3.17    0.49
   1   4  -5    2.84    0.36
   1   4  -5    2.73    0.24
   1   4  -5    3.29    0.31
   1   4  -5    3.10    0.32
  -1   4   5    3.97    0.36
   1   4  -5    3.07    0.37
  -1  -4   5    2.74    0.27
   1  -4  -5    2.84    0.56
  -1  -4   5    3.01    0.41
  -1  -4   5    2.43    0.25
   2   4  -4   70.75    2.03
   2   4  -4   69.75    1.90
   2   4  -4   67.11    2.22
  -2   4   4   70.40    1.98
  -2   4   4   70.86    1.92
  -2   4   4   70.73    2.04
   2   4  -4   68.74    1.99
  -2   4   4   67.08    2.11
  -2   4   4   72.43    1.77
  -2   4   4   70.23    2.02
  -2   4   4   70.56    1.99
   2   4  -4   70.39    1.81
   2  -4  -4   68.21    2.12
  -2  -4   4   71.85    2.00
   2  -4  -4   69.49    2.23
  -2  -4   4   68.22    1.74
  -2  -4   4   70.83    1.78
   3   4  -3   28.81    1.28
  -3   4   3   29.06    1.00
   3   4  -3   29.87    1.12
  -3   4   3   29.01    1.04
  -3   4   3   29.47    1.03
   3   4  -3   29.23    1.09
   3   4  -3   28.80    0.86
  -3   4   3   29.23    1.05
   3   4  -3   30.43    0.88
  -3   4   3   27.85    1.02
   3   4  -3   29.96    0.91
   3  -4  -3   28.90    1.16
  -3  -4   3   29.75    0.99
  -3  -4   3   28.95    0.82
   3  -4  -3   28.04    1.04
   3  -4  -3   29.42    1.16
  -3  -4   3   28.65    1.24
  -3  -4   3   28.90    0.86
   4   4  -2  101.74    2.53
   4   4  -2  100.08    2.59
   4   4  -2   98.17    2.48
  -4   4   2   98.13    2.65
  -4   4   2   98.67    2.72
   4   4  -2   96.50    2.99
   4   4  -2   98.60    2.78
   4  -4  -2   96.14    2.66
  -4  -4   2  102.01    2.55
  -4  -4   2   97.10    2.97
  -4  -4   2   97.72    2.62
  -4  -4   2   96.58    2.52
   4  -4  -2   91.13    2.82
  -4  -4   2   97.75    2.51
   4  -4  -2   97.16    2.79
  -5   4   1   32.26    1.23
   5   4  -1   34.70    1.17
   5   4  -1   33.16    1.21
  -5   4   1   32.22    1.34
   5   4  -1   35.14    1.28
   5   4  -1   30.91    1.44
   5   4  -1   31.21    1.64
   5  -4  -1   33.64    1.29
   5  -4  -1   34.48    1.24
  -5  -4   1   34.08    1.02
   5  -4  -1   35.01    1.32
  -5  -4   1   34.29    1.18
  -5  -4   1   36.36    1.54
  -5  -4   1   33.10    1.13
   5  -4  -1   32.10    0.94
  -5  -4   1   31.92    1.09
   6   4   0   19.90    0.93
   6   4   0   17.19    0.75
  -6   4   0   16.77    0.91
   6   4   0   17.40    0.97
  -6   4   0   18.03    0.88
  -6  -4   0   18.13    1.28
   6  -4   0   19.40    0.97
  -6  -4   0   18.53    1.19
   6  -4   0   17.71    0.55
   6  -4   0   17.86    0.96
   6  -4   0   17.47    0.92
  -7   4  -1   21.51    1.04
   7   4   1   21.79    1.51
  -7   4  -1   21.00    1.08
   7   4   1   22.38    0.93
   7  -4   1   19.93    1.15
   7  -4   1   21.51    1.11
  -7  -4  -1   21.37    1.42
   7  -4   1   20.20    0.73
   7  -4   1   20.47    1.13
   8   4   2    5.28    0.75
   8   4   2    5.58    0.66
   8   4   2    5.25    0.74
   8  -4   2    3.19    0.65
  -8  -4  -2    5.09    1.02
   8  -4   2    7.24    0.82
   9   4   3    1.83    0.79
   9   4   3    3.58    0.82
   9   4   3    3.02    0.62
  -9  -4  -3    2.84    1.12
   9  -4   3    5.40    1.58
   9  -4   3    1.89    0.62
   4   5  10   -0.38    0.65
  -4   5 -10   -0.90    0.88
   4   5  10   -0.78    0.51
   4   5  10    0.78    0.71
  -4  -5 -10    1.05    1.45
   3   5   9    0.26    0.37
  -3   5  -9    0.03    0.61
   3   5   9   -0.23    0.48
   3   5   9    0.20    0.42
  -3  -5  -9   -0.21    0.97
   3  -5   9    0.17    0.61
   2   5   8    5.05    0.72
  -2   5  -8    7.00    0.93
   2   5   8    5.23    0.74
   2   5   8    4.92    0.71
  -2   5  -8    5.07    0.58
  -2   5  -8    4.40    0.47
  -2   5  -8    5.01    0.66
   2  -5   8    4.93    0.77
   2  -5   8    5.14    0.53
   2  -5   8    6.39    0.79
  -2  -5  -8    6.47    1.11
   1   5   7    0.85    0.38
  -1   5  -7    0.58    0.51
   1   5   7    0.88    0.37
  -1   5  -7    0.77    0.22
  -1   5  -7    0.62    0.66
   1   5   7    1.20    0.35
  -1   5  -7    1.16    0.32
  -1   5  -7    0.73    0.22
   1  -5   7    0.74    0.26
  -1  -5  -7    0.83    0.73
  -1  -5  -7    0.49    0.48
   1  -5   7    0.85    0.28
   1  -5   7    0.96    0.28
   1  -5   7    0.98    0.47
   0   5   6   22.11    0.99
   0   5   6   21.39    0.99
   0   5  -6   23.31    0.81
   0   5   6   22.52    0.89
   0   5   6   22.99    1.08
   0   5  -6   23.11    0.91
   0   5  -6   21.75    0.83
   0   5   6   23.54    0.96
   0   5  -6   22.56    0.76
   0   5   6   22.61    0.95
   0   5  -6   22.44    1.18
   0  -5   6   24.57    1.11
   0  -5   6   21.45    0.74
   0  -5  -6   21.20    1.44
   0  -5  -6   21.72    1.13
   0  -5   6   21.57    0.99
   0  -5   6   23.76    0.92
   1   5  -5   59.63    2.11
  -1   5   5   56.52    1.81
  -1   5   5   58.31    1.74
  -1   5   5   59.38    2.08
  -1   5   5   58.82    1.68
   1   5  -5   59.20    1.78
  -1   5   5   58.51    1.68
   1   5  -5   55.47    1.98
  -1   5   5   57.17    1.77
   1   5  -5   58.85    1.67
   1  -5  -5   62.50    2.01
   1  -5  -5   61.49    2.23
  -1  -5   5   54.02    1.62
  -1  -5   5   59.46    1.88
  -1  -5   5   57.62    1.48
   2   5  -4   26.78    0.90
  -2   5   4   26.90    0.91
  -2   5   4   26.70    0.79
   2   5  -4   26.45    1.06
   2   5  -4   25.66    1.05
  -2   5   4   26.65    0.98
  -2   5   4   26.53    1.16
   2   5  -4   26.12    0.93
  -2   5   4   26.09    0.98
   2   5  -4   25.01    1.33
   2  -5  -4   27.90    1.31
   2  -5  -4   26.96    1.22
  -2  -5   4   28.72    1.08
   3   5  -3   22.40    1.02
  -3   5   3   22.28    0.91
   3   5  -3   24.70    1.56
   3   5  -3   23.36    0.80
   3   5  -3   23.27    1.03
  -3   5   3   22.66    0.93
   3   5  -3   23.51    0.82
  -3   5   3   22.64    0.97
  -3   5   3   23.62    0.84
   3  -5  -3   22.16    1.11
  -3  -5   3   24.32    0.94
  -3  -5   3   24.47    1.23
   3  -5  -3   23.89    1.13
   3  -5  -3   22.09    0.90
  -3  -5   3   23.02    0.67
   4   5  -2   92.05    2.32
   4   5  -2   92.34    2.40
  -4   5   2   91.83    2.53
  -4   5   2   93.92    2.67
   4   5  -2   93.32    2.44
   4   5  -2   95.33    2.43
  -4  -5   2   92.32    2.37
   4  -5  -2   91.69    2.80
   4  -5  -2   93.34    2.65
   4  -5  -2   92.60    2.57
  -4  -5   2   95.80    3.02
   4  -5  -2   93.47    2.61
  -4  -5   2   88.98    2.32
  -4  -5   2   90.92    2.60
  -4  -5   2   94.71    2.51
   5   5  -1   16.17    0.67
   5   5  -1   17.14    0.82
  -5   5   1   15.32    0.81
   5   5  -1   17.07    0.73
  -5   5   1   16.03    0.79
  -5  -5   1   16.60    1.22
   5  -5  -1   14.62    0.77
   5  -5  -1   15.71    0.98
  -5  -5   1   17.36    0.83
   5  -5  -1   16.79    0.98
   5  -5  -1   13.50    0.80
  -5  -5   1   16.27    0.67
   6   5   0   29.59    1.05
  -6   5   0   30.24    1.17
  -6   5   0   27.72    1.19
   6   5   0   29.29    1.19
   6   5   0   28.67    1.26
   6  -5   0   28.61    1.31
   6  -5   0   29.03    1.38
   7   5   1   23.03    1.24
   7   5   1   21.47    1.25
   7   5   1   24.03    1.04
   7  -5   1   24.46    1.29
  -7  -5  -1   25.64    1.78
   7  -5   1   26.06    1.33
   8   5   2    2.01    0.52
   8   5   2    0.85    0.63
   8   5   2    1.57    0.59
  -8  -5  -2    0.38    0.90
   8  -5   2    2.17    0.63
   8  -5   2    0.59    0.66
   9   5   3   -0.25    0.86
   9   5   3    1.25    0.83
   9   5   3    1.63    0.61
   9  -5   3    2.68    0.75
  -9  -5  -3    1.54    1.23
   3   6   9    0.75    0.67
  -3   6  -9   -0.65    0.89
   3   6   9    0.55    0.59
   3   6   9    0.54    0.48
  -3  -6  -9    0.57    1.33
   3  -6   9   -0.82    0.71
   2   6   8   19.15    1.08
   2   6   8   21.12    1.14
   2   6   8   18.73    1.12
  -2   6  -8   18.16    1.23
   2  -6   8   20.32    1.36
   2  -6   8   19.16    0.97
  -2  -6  -8   20.73    1.94
   1   6   7    5.79    0.65
   1   6   7    5.26    0.71
  -1   6  -7    5.17    0.69
   1   6   7    4.33    0.67
  -1   6  -7    5.14    0.49
  -1   6  -7    5.29    0.51
  -1  -6  -7    3.96    0.80
  -1  -6  -7    7.38    1.05
   1  -6   7    4.59    0.71
   1  -6   7    6.04    0.63
   1  -6   7    4.95    0.47
   0   6   6   13.26    0.79
   0   6  -6   12.91    0.69
   0   6  -6   13.43    0.61
   0   6  -6   12.78    0.72
   0   6   6   11.57    0.70
   0   6   6   12.38    0.82
   0   6   6   11.85    0.80
   0   6   6   13.00    0.71
   0   6  -6   12.49    0.73
   0   6   6   12.17    0.86
   0   6   6   12.27    0.70
   0  -6  -6   13.22    1.31
   0  -6   6   12.42    0.93
   0  -6   6   11.08    0.51
   0  -6   6   11.58    0.50
   0  -6  -6   13.14    1.05
  -1   6   5    0.68    0.24
  -1   6   5    0.72    0.27
  -1   6   5    0.74    0.31
   1   6  -5    0.54    0.28
  -1   6   5    0.42    0.30
  -1   6   5    0.94    0.37
  -1   6   5    0.42    0.26
   1   6  -5    0.33    0.27
   1   6  -5    0.67    0.37
  -1  -6   5    1.49    0.42
   1  -6  -5    1.51    0.68
   1  -6  -5    0.35    0.53
  -2   6   4   20.75    0.78
   2   6  -4   23.74    1.02
  -2   6   4   22.08    1.15
  -2   6   4   20.78    0.94
  -2   6   4   21.97    0.70
   2   6  -4   21.66    0.84
  -2   6   4   21.17    0.86
  -2   6   4   20.23    0.85
   2  -6  -4   23.35    1.37
  -2  -6   4   23.69    1.07
   2  -6  -4   21.31    1.22
  -3   6   3    2.51    0.36
  -3   6   3    3.08    0.61
   3   6  -3    2.44    0.33
  -3   6   3    2.46    0.34
   3   6  -3    2.05    0.44
   3   6  -3    1.67    0.31
  -3   6   3    2.65    0.32
  -3   6   3    2.30    0.40
   3  -6  -3    2.58    0.62
  -3  -6   3    3.50    0.74
   3  -6  -3    2.41    0.54
  -3  -6   3    2.72    0.43
  -4   6   2    2.93    0.42
   4   6  -2    3.65    0.42
  -4   6   2    3.67    0.44
  -4   6   2    3.49    0.45
  -4   6   2    3.91    0.45
   4   6  -2    3.21    0.36
  -4  -6   2    3.97    0.49
   4  -6  -2    3.17    0.60
   4  -6  -2    3.49    0.44
   4  -6  -2    3.17    0.52
   4  -6  -2    3.84    0.53
  -4  -6   2    3.97    0.28
  -5   6   1    2.53    0.36
   5   6  -1    2.15    0.53
   5   6  -1    2.53    0.31
   5   6  -1    2.80    0.43
  -5   6   1    2.61    0.43
  -5  -6   1    3.11    0.42
   5  -6  -1    2.93    0.45
   5  -6  -1    3.40    0.38
   5  -6  -1    3.08    0.58
   5  -6  -1    2.68    0.65
  -5  -6   1    3.36    0.81
   6   6   0    7.45    0.76
   6   6   0    7.86    0.76
  -6   6   0    7.19    0.81
   6   6   0    7.43    0.67
  -6  -6   0    9.48    1.24
   6  -6   0    7.07    0.90
   6  -6   0    8.11    0.99
   7   6   1   27.65    1.24
   7   6   1   30.70    1.43
   7   6   1   28.83    1.45
  -7  -6  -1   30.82    2.00
   7  -6   1   28.06    1.54
   8   6   2    1.48    0.85
   8   6   2    2.96    0.59
   8   6   2    0.83    0.76
   8  -6   2    0.94    0.77
  -8  -6  -2    1.82    1.22
  -2   7  -8   -1.04    0.62
   2   7   8    0.64    0.61
   2   7   8   -0.26    0.54
   2   7   8    1.21    0.61
  -2  -7  -8   -2.60    1.21
   1   7   7    6.97    0.82
   1   7   7    8.12    1.14
  -1   7  -7    6.28    0.83
  -1   7  -7    7.73    1.10
   1   7   7    7.72    0.95
  -1  -7  -7    6.36    1.27
   1  -7   7    7.74    1.00
   0   7  -6    3.02    0.50
   0   7   6    1.62    0.50
   0   7   6    2.72    0.40
   0   7   6    2.46    0.44
   0   7  -6    2.07    0.45
   0  -7  -6    2.82    0.72
   0  -7  -6    1.80    0.91
   0  -7   6    3.11    0.63
   1   7  -5   11.89    0.84
   1   7  -5   11.53    0.75
  -1   7   5   12.38    1.00
  -1   7   5   12.33    0.74
  -1   7   5   11.18    0.67
  -1   7   5   13.38    1.33
  -1  -7   5   13.67    0.98
   1  -7  -5   12.10    1.18
   1  -7  -5   12.39    1.37
  -2   7   4    1.35    0.45
   2   7  -4    1.48    0.37
  -2   7   4    1.46    0.30
  -2   7   4    1.44    0.27
  -2   7   4    1.48    0.29
  -2   7   4    1.74    0.50
   2   7  -4    0.55    0.39
  -2   7   4    1.42    0.32
  -2   7   4    2.06    0.55
   2  -7  -4    1.75    0.63
   2  -7  -4    2.69    0.77
  -3   7   3    9.09    0.58
  -3   7   3    8.16    0.47
  -3   7   3    7.70    0.93
  -3   7   3    8.89    0.77
   3   7  -3    8.02    0.61
   3   7  -3    7.85    0.91
  -3  -7   3    7.94    1.11
   3  -7  -3    9.61    1.05
   3  -7  -3    8.01    0.97
  -3  -7   3    8.78    0.80
  -4   7   2   22.81    1.12
  -4   7   2   21.61    1.05
  -4   7   2   23.51    1.38
   4   7  -2   22.91    1.01
  -4   7   2   23.75    0.86
  -4  -7   2   24.65    1.52
   4  -7  -2   25.50    1.43
   4  -7  -2   22.40    1.21
   5   7  -1   12.90    0.70
  -5   7   1   12.84    0.86
  -5   7   1   13.32    0.81
   5   7  -1   12.46    0.76
  -5  -7   1   11.97    1.37
   5  -7  -1   14.95    0.86
   5  -7  -1   13.00    1.24
   6   7   0   14.40    1.13
   6   7   0   14.11    0.84
   6   7   0   11.74    0.95
   6  -7   0   12.87    1.22
  -6  -7   0   14.88    1.68
   7   7   1    6.69    1.03
   7   7   1    5.35    0.81
   7   7   1    5.81    0.80
  -7  -7  -1    6.97    1.38
   7  -7   1    5.95    0.87
   1   8   7    2.46    0.76
   1   8   7    2.05    0.61
   1   8   7    1.99    0.60
  -1  -8  -7    4.14    1.52
   0   8   6   -0.20    0.65
   0   8   6    0.40    0.43
   0   8   6    0.48    0.49
   0   8  -6   -0.10    0.47
   0  -8  -6    0.23    1.11
   0  -8  -6    0.33    0.85
   1   8  -5    2.65    0.51
  -1   8   5    3.47    0.80
  -1   8   5    2.93    0.44
  -1   8   5    2.85    0.41
   1   8  -5    2.98    0.56
   1  -8  -5    1.84    0.85
   1  -8  -5    3.39    1.04
   2   8  -4    0.26    0.55
   2   8  -4    0.65    0.48
  -2   8   4    1.65    0.64
  -2   8   4    0.41    0.44
  -2   8   4    0.37    0.31
   2  -8  -4   -0.61    0.76
   2  -8  -4   -0.18    0.73
  -3   8   3   12.97    0.69
   3   8  -3   11.56    1.18
  -3   8   3   12.73    1.28
   3   8  -3   13.61    1.14
   3  -8  -3   11.33    1.27
   4   8  -2    8.89    1.17
  -4   8   2    6.39    0.84
  -4   8   2    8.06    1.22
  -4  -8   2    8.41    1.15
   4  -8  -2    7.13    0.92
   4  -8  -2    7.48    1.12
   5   8  -1    0.67    0.73
  -5   8   1    2.23    0.43
   5   8  -1    1.32    0.44
  -5   8   1    1.58    0.34
  -5  -8   1    2.96    1.08
   5  -8  -1    2.30    0.92
   6   8   0   10.30    1.01
  -6   8   0   12.50    1.10
  -6   8   0    9.22    1.02
   6   8   0    9.05    0.90
   6  -8   0   12.57    1.66
  -6  -8   0    9.70    1.74
   1  -9  -5    1.19    1.31
  -2   9   4    1.88    0.95
   2   9  -4    2.84    0.68
  -2   9   4    3.62    0.43
   2  -9  -4    2.28    1.23
   2  -9  -4    4.98    1.18
   3   9  -3    4.33    0.82
  -3   9   3    3.19    0.37
  -3   9   3    3.36    1.03
   3  -9  -3    2.99    1.21
   3  -9  -3    4.64    1.12
   4  -9  -2    0.86    1.29
   5   0  12    1.14    0.58
  -5   0 -12    1.52    1.24
  -5   0 -12    0.55    1.25
   5   0  12    0.58    0.75
  -4   0 -11    4.12    0.84
   4   0  11    3.39    0.60
   4   0  11    3.12    0.64
  -4   0 -11    2.41    1.01
   4   0  11    2.33    0.64
   3   0  10    1.03    0.45
   3   0  10    0.56    0.41
  -3   0 -10    1.48    0.81
   3   0  10    0.95    0.34
   3   0  10    1.51    0.39
  -3   0 -10    1.49    0.62
   3   0  10    0.72    0.21
   2   0   9   29.28    1.22
  -2   0  -9   29.34    1.12
  -2   0  -9   29.89    1.20
   2   0   9   29.48    0.85
   2   0   9   30.40    1.27
  -2   0  -9   29.24    1.24
   2   0   9   30.42    1.06
  -2   0  -9   31.19    1.49
   2   0   9   31.11    1.38
   1   0   8    0.53    0.27
   1   0   8    0.24    0.25
  -1   0  -8    0.43    0.20
   1   0   8   -0.11    0.20
   1   0   8    0.39    0.25
  -1   0  -8    0.15    0.23
  -1   0  -8    0.01    0.33
   1   0   8   -0.04    0.09
   1   0   8    0.18    0.18
  -1   0  -8   -0.04    0.24
   0   0  -7    1.46    0.33
   0   0   7    0.59    0.18
   0   0   7    1.13    0.18
   0   0  -7    1.44    0.31
   0   0   7    1.73    0.24
   0   0   7    1.02    0.24
   0   0  -7    1.18    0.21
   0   0   7    1.36    0.28
   0   0  -7    0.68    0.20
   1   0  -6    0.27    0.19
  -1   0   6    0.01    0.17
   1   0  -6    0.31    0.10
   1   0  -6    0.18    0.17
  -1   0   6    0.30    0.19
   1   0  -6    0.12    0.15
   1   0  -6    0.17    0.13
  -1   0   6    0.08    0.13
  -2   0   5  193.03    4.87
  -2   0   5  195.94    4.84
  -2   0   5  200.63    4.91
  -2   0   5  189.61    4.71
   2   0  -5  198.37    4.80
  -2   0   5  201.12    4.88
  -2   0   5  201.73    4.83
   2   0  -5  197.10    4.90
   3   0  -4  103.32    2.71
  -3   0   4  105.75    2.72
   3   0  -4  102.73    2.64
   3   0  -4  103.69    2.73
   4   0  -3   97.29    2.58
   4   0  -3   94.56    2.60
  -4   0   3   96.93    2.57
  -4   0   3   91.67    2.46
  -4   0   3   96.93    2.60
   4   0  -3   97.79    2.51
  -5   0   2  103.68    2.83
   5   0  -2  101.71    2.68
  -5   0   2  103.46    2.79
  -5   0   2  105.81    2.61
   5   0  -2  102.01    2.69
   5   0  -2   99.37    2.83
   6   0  -1   13.17    0.74
  -6   0   1   13.48    0.70
  -6   0   1   13.19    0.73
  -6   0   1   13.55    0.55
   6   0  -1   13.09    0.65
   6   0  -1   12.38    0.78
   7   0   0   96.47    2.64
   7   0   0   98.15    2.75
   7   0   0  100.24    2.91
   7   0   0   99.22    2.97
  -7   0   0   93.51    2.79
   7   0   0   98.29    2.88
  -7   0   0   95.82    2.86
   8   0   1    3.39    0.47
   8   0   1    2.64    0.57
  -8   0  -1    3.06    0.40
   8   0   1    3.14    0.59
  -8   0  -1    3.63    0.51
   9   0   2    2.58    0.62
  -9   0  -2    2.34    0.33
   9   0   2    1.32    0.47
   9   0   2    2.10    0.64
  10   0   3    4.62    0.92
  10   0   3    4.95    0.81
  10   0   3    6.78    0.96
  -5   1 -12    4.29    1.44
   5   1  12    3.62    0.91
  -5   1 -12    2.66    1.36
   5   1  12    1.49    0.77
   5   1  12    1.16    0.57
  -5  -1 -12    2.64    1.29
  -5  -1 -12    5.07    1.74
   5  -1  12    0.99    0.62
   5  -1  12    1.58    0.78
   4   1  11   -0.22    0.37
   4   1  11   -0.70    0.58
   4   1  11    0.72    0.56
   4   1  11    0.64    0.47
  -4   1 -11    0.50    0.83
   4  -1  11    0.46    0.45
   4  -1  11   -0.35    0.53
  -4  -1 -11    0.44    0.93
   4  -1  11   -0.23    0.53
   4  -1  11   -0.31    0.56
  -4  -1 -11    0.29    0.78
   3   1  10    9.30    0.56
   3   1  10    9.85    0.78
  -3   1 -10   11.11    1.18
   3   1  10    9.77    0.63
  -3   1 -10   10.17    1.04
   3   1  10   10.04    0.78
   3   1  10    9.30    0.85
  -3  -1 -10    9.16    1.19
   3  -1  10    8.52    0.69
   3  -1  10    8.35    0.82
   3  -1  10    9.32    0.76
  -3  -1 -10    8.33    0.98
   3  -1  10    9.36    0.85
   2   1   9   11.49    0.56
   2   1   9   11.93    0.82
  -2   1  -9   12.62    0.57
   2   1   9   11.99    0.59
  -2   1  -9   12.27    0.82
  -2   1  -9   12.06    0.73
  -2   1  -9   11.29    0.60
   2   1   9   12.23    0.78
   2   1   9   12.27    0.64
  -2   1  -9   12.45    1.03
   2  -1   9   12.82    0.85
  -2  -1  -9   12.72    0.82
  -2  -1  -9   10.72    1.07
   2  -1   9   13.79    0.79
   2  -1   9   13.20    0.69
   2  -1   9   12.66    0.65
   1   1   8   43.67    1.48
   1   1   8   46.93    1.50
  -1   1  -8   44.84    1.35
   1   1   8   47.07    1.36
  -1   1  -8   47.32    1.63
   1   1   8   47.06    1.32
  -1   1  -8   47.61    1.50
  -1   1  -8   46.21    1.56
   1   1   8   46.40    1.55
  -1   1  -8   46.77    1.34
  -1  -1  -8   47.72    1.73
  -1  -1  -8   42.79    1.45
  -1  -1  -8   44.02    1.55
   1  -1   8   44.07    1.48
   1  -1   8   46.18    1.47
  -1  -1  -8   45.41    1.52
   1  -1   8   47.51    1.43
   1  -1   8   45.80    1.34
   0   1   7   88.91    2.31
   0   1  -7   89.94    2.26
   0   1  -7   89.70    2.47
   0   1   7   89.66    2.47
   0   1  -7   92.31    2.47
   0   1   7   87.29    2.40
   0   1   7   90.65    2.27
   0   1  -7   92.76    2.44
   0   1   7   89.01    2.42
   0   1   7   89.32    2.27
   0  -1   7   85.88    2.42
   0  -1   7   89.46    2.39
   0  -1   7   85.54    2.42
   0  -1   7   87.06    2.34
   0  -1   7   88.03    2.24
   0  -1  -7   90.65    2.57
   0  -1  -7   90.02    2.53
   0  -1  -7   87.72    2.29
   0  -1  -7   86.08    2.45
   0  -1  -7   87.72    2.41
   1   1  -6  293.00    7.06
   1   1  -6  295.20    7.05
  -1   1   6  290.53    7.10
  -1   1   6  292.59    7.05
  -1   1   6  294.21    7.01
  -1   1   6  281.77    6.90
  -1   1   6  281.62    6.97
   1   1  -6  293.26    7.09
   1   1  -6  286.14    6.87
  -1  -1   6  287.71    6.86
  -1  -1   6  289.33    6.98
   1  -1  -6  296.49    7.08
  -1  -1   6  283.89    7.04
  -1  -1   6  294.68    7.07
   1  -1  -6  294.68    7.10
   1  -1  -6  297.58    7.15
  -1  -1   6  292.97    7.02
   1  -1  -6  304.96    7.13
   1  -1  -6  285.63    6.95
  -2   1   5  211.35    5.15
   2   1  -5  206.56    5.11
   2   1  -5  206.66    5.08
  -2   1   5  205.11    5.10
  -2   1   5  220.34    5.17
  -2   1   5  208.57    5.02
  -2   1   5  204.57    5.06
  -2  -1   5  211.19    5.10
  -2  -1   5  205.05    5.02
   2  -1  -5  208.94    5.02
  -2  -1   5  216.06    5.13
  -2  -1   5  193.92    4.84
  -2  -1   5  209.66    5.12
  -2  -1   5  203.66    5.06
  -2  -1   5  203.24    5.10
  -3   1   4  169.43    4.13
   3   1  -4  172.59    4.21
  -3   1   4  174.24    4.30
   3   1  -4  172.09    4.23
  -3   1   4  174.81    4.30
   3   1  -4  168.20    4.23
  -3   1   4  174.45    4.27
   3  -1  -4  167.71    4.26
   3  -1  -4  164.14    4.09
   3  -1  -4  166.82    4.27
  -3  -1   4  167.16    4.23
  -3  -1   4  160.48    3.99
  -3  -1   4  171.01    4.21
  -4   1   3   41.69    1.29
   4   1  -3   39.60    1.26
   4   1  -3   39.24    1.29
   4   1  -3   40.00    1.28
  -4   1   3   41.45    1.31
   4   1  -3   40.44    1.11
   4  -1  -3   40.13    1.14
  -4  -1   3   41.39    1.07
   4  -1  -3   39.41    1.31
  -4  -1   3   39.54    1.24
   4  -1  -3   40.14    1.28
  -4  -1   3   40.12    1.27
   5   1  -2    1.10    0.28
  -5   1   2    0.94    0.20
   5   1  -2    0.93    0.20
  -5   1   2    0.70    0.24
   5   1  -2    0.62    0.24
   5   1  -2    0.47    0.21
   5  -1  -2    0.74    0.23
  -5  -1   2    0.36    0.18
  -5  -1   2    0.60    0.13
  -5  -1   2    0.53    0.18
   5  -1  -2    0.84    0.16
   5  -1  -2    0.26    0.30
   6   1  -1   62.58    2.03
   6   1  -1   61.61    1.92
  -6   1   1   64.64    1.94
   6   1  -1   65.75    1.81
   6   1  -1   63.07    1.96
  -6   1   1   61.48    1.97
  -6   1   1   63.27    1.78
   6  -1  -1   62.76    2.03
  -6  -1   1   63.18    1.92
  -6  -1   1   60.83    1.89
  -6  -1   1   65.28    1.97
   6  -1  -1   64.91    1.88
   6  -1  -1   61.79    2.03
  -6  -1   1   62.42    1.95
   6  -1  -1   60.84    1.67
  -7   1   0    0.46    0.29
  -7   1   0    0.82    0.29
   7   1   0    0.41    0.31
   7   1   0    0.01    0.31
   7   1   0    0.01    0.24
   7   1   0   -0.06    0.30
   7   1   0    0.39    0.40
   7  -1   0    0.08    0.29
   7  -1   0    0.14    0.36
  -7  -1   0   -0.01    0.34
  -7  -1   0    0.45    0.25
   7  -1   0    0.03    0.29
  -7  -1   0    0.21    0.20
   7  -1   0    0.11    0.33
  -7  -1   0    0.13    0.34
   8   1   1   15.03    1.11
   8   1   1   13.93    0.81
  -8   1  -1   14.20    0.92
   8   1   1   14.84    1.06
   8   1   1   13.34    0.82
  -8   1  -1   13.17    0.68
   8  -1   1   14.13    1.02
   8  -1   1   14.84    0.91
   8  -1   1   14.06    1.03
  -8  -1  -1   12.58    0.57
   8  -1   1   12.39    0.88
  -8  -1  -1   14.98    0.94
   9   1   2   15.25    1.22
   9   1   2   15.56    1.25
  -9   1  -2   13.76    0.86
  -9   1  -2   16.15    1.34
   9   1   2   16.84    1.01
   9  -1   2   16.70    1.26
   9  -1   2   16.40    1.09
   9  -1   2   15.82    1.24
  -9  -1  -2   15.59    1.09
  10   1   3   -0.19    0.70
  10   1   3    1.23    0.64
  10   1   3   -0.44    0.70
 -10  -1  -3   -0.37    0.71
  10  -1   3    1.24    0.61
  10  -1   3    0.67    0.75
  10  -1   3    0.51    0.76
  -4   2 -11    2.21    0.84
   4   2  11    2.98    0.52
   4   2  11    2.98    0.69
   4   2  11    3.31    0.71
   4  -2  11    2.96    0.68
   4  -2  11    2.78    0.55
  -4  -2 -11    3.86    0.99
   4  -2  11    3.81    0.78
  -4  -2 -11    4.84    1.22
   3   2  10    0.48    0.32
  -3   2 -10   -0.05    0.44
   3   2  10   -0.40    0.40
   3   2  10    0.26    0.30
   3   2  10    0.27    0.41
  -3   2 -10    0.13    0.57
   3   2  10   -0.04    0.34
   3  -2  10   -0.47    0.46
   3  -2  10    0.04    0.46
   3  -2  10   -0.15    0.35
  -3  -2 -10    0.31    0.74
   3  -2  10    0.62    0.43
  -3  -2 -10   -0.27    0.63
  -2   2  -9   53.45    1.71
  -2   2  -9   51.66    1.52
  -2   2  -9   52.18    1.78
  -2   2  -9   54.63    1.98
   2   2   9   51.63    1.77
   2   2   9   52.70    1.60
   2   2   9   53.66    1.61
   2   2   9   50.95    1.46
   2   2   9   53.18    1.86
   2  -2   9   51.44    1.82
   2  -2   9   52.96    1.75
   2  -2   9   53.52    1.73
   2  -2   9   47.19    1.60
  -2  -2  -9   53.11    2.19
  -2  -2  -9   54.71    2.12
   1   2   8   86.80    2.59
  -1   2  -8   92.23    2.56
  -1   2  -8   96.10    2.69
   1   2   8   95.48    2.49
   1   2   8   92.63    2.59
  -1   2  -8   91.50    2.61
   1   2   8   92.53    2.35
   1   2   8   91.74    2.65
  -1   2  -8   91.49    2.36
  -1   2  -8   88.79    2.46
   1   2   8   90.20    2.48
  -1  -2  -8   88.82    2.65
  -1  -2  -8   93.50    2.80
   1  -2   8   89.65    2.59
   1  -2   8   91.24    2.44
   1  -2   8   95.18    2.58
  -1  -2  -8   93.66    2.87
  -1  -2  -8   90.95    2.69
   1  -2   8   90.68    2.55
   1  -2   8   97.29    2.93
   0   2   7   40.43    1.30
   0   2   7   41.41    1.25
   0   2  -7   40.62    1.22
   0   2  -7   40.93    1.09
   0   2  -7   38.79    1.35
   0   2   7   41.14    1.29
   0   2  -7   40.89    1.32
   0   2   7   40.79    1.36
   0   2  -7   41.94    1.32
   0   2   7   40.90    1.25
   0  -2   7   40.07    1.28
   0  -2  -7   38.34    1.38
   0  -2   7   39.97    1.22
   0  -2  -7   39.55    1.34
   0  -2   7   40.45    1.32
   0  -2  -7   39.97    1.36
   0  -2  -7   40.72    1.28
   0  -2  -7   40.94    1.47
   0  -2   7   39.48    1.25
  -1   2   6  221.25    5.36
  -1   2   6  218.31    5.31
  -1   2   6  217.36    5.36
  -1   2   6  227.56    5.47
   1   2  -6  214.96    5.12
  -1   2   6  217.54    5.41
   1   2  -6  221.91    5.36
   1   2  -6  216.99    5.35
   1   2  -6  222.35    5.32
   1   2  -6  208.42    5.09
  -1   2   6  215.24    5.36
   1   2  -6  215.52    5.29
  -1  -2   6  218.73    5.41
   1  -2  -6  215.48    5.42
   1  -2  -6  220.21    5.47
   1  -2  -6  212.56    5.42
   1  -2  -6  219.48    5.44
  -1  -2   6  216.66    5.36
   1  -2  -6  212.47    5.35
  -1  -2   6  216.30    5.32
  -1  -2   6  211.92    5.27
   2   2  -5  171.10    4.21
   2   2  -5  172.94    4.25
  -2   2   5  172.12    4.24
  -2   2   5  169.04    4.17
  -2   2   5  175.94    4.34
  -2   2   5  176.95    4.31
  -2   2   5  167.90    4.27
  -2   2   5  171.37    4.29
  -2  -2   5  169.42    4.18
  -2  -2   5  167.65    4.22
  -2  -2   5  175.19    4.30
   2  -2  -5  171.29    4.18
  -2  -2   5  142.35    4.17
   2  -2  -5  172.66    4.33
  -2  -2   5  163.58    4.14
   2  -2  -5  168.92    4.24
  -2  -2   5  172.09    4.21
   3   2  -4   46.71    1.30
  -3   2   4   46.94    1.25
   3   2  -4   45.29    1.47
   3   2  -4   46.60    1.32
   3   2  -4   45.69    1.39
  -3   2   4   45.46    1.42
   3   2  -4   47.03    1.12
  -3   2   4   45.18    1.41
  -3   2   4   46.57    1.39
  -3  -2   4   44.38    1.31
   3  -2  -4   44.50    1.35
   3  -2  -4   43.27    1.39
  -3  -2   4   44.54    1.32
   3  -2  -4   43.51    1.39
   3  -2  -4   44.22    1.18
  -3  -2   4   45.14    1.27
  -3  -2   4   44.37    1.12
   4   2  -3   21.17    0.78
  -4   2   3   21.35    0.86
   4   2  -3   20.75    0.92
  -4   2   3   21.21    0.84
   4   2  -3   21.36    0.64
   4   2  -3   20.71    0.80
  -4  -2   3   20.73    0.84
  -4  -2   3   20.92    0.77
   4  -2  -3   20.18    0.84
   4  -2  -3   20.02    0.64
   4  -2  -3   21.80    0.87
  -4  -2   3   21.66    0.63
  -4  -2   3   20.77    0.68
   5   2  -2   42.29    1.46
   5   2  -2   39.05    1.32
  -5   2   2   41.04    1.35
   5   2  -2   40.74    1.36
   5   2  -2   41.29    1.17
  -5   2   2   39.04    1.28
   5  -2  -2   41.73    1.18
   5  -2  -2   40.20    1.38
  -5  -2   2   40.81    1.16
  -5  -2   2   41.18    1.33
   5  -2  -2   40.21    1.42
  -5  -2   2   39.84    1.30
  -5  -2   2   42.71    1.55
   6   2  -1   40.93    1.49
   6   2  -1   41.78    1.29
   6   2  -1   40.99    1.71
   6   2  -1   40.52    1.45
  -6   2   1   40.91    1.34
  -6   2   1   42.45    1.45
  -6  -2   1   42.77    1.55
  -6  -2   1   42.75    1.41
   6  -2  -1   42.19    1.50
   6  -2  -1   47.75    1.66
  -6  -2   1   40.25    1.43
   6  -2  -1   44.03    1.33
  -6  -2   1   40.84    1.45
  -7   2   0    0.09    0.31
  -7   2   0    0.25    0.32
   7   2   0    0.21    0.25
   7   2   0    0.04    0.31
   7   2   0    0.91    0.39
   7   2   0   -0.01    0.32
   7  -2   0    0.21    0.40
  -7  -2   0   -0.89    0.40
  -7  -2   0   -0.67    0.33
   7  -2   0    0.31    0.37
   7  -2   0   -0.02    0.25
   8   2   1    4.64    0.59
  -8   2  -1    4.50    0.60
   8   2   1    3.70    0.66
   8   2   1    3.94    0.58
   8   2   1    3.72    0.79
   8  -2   1    4.11    0.66
  -8  -2  -1    4.15    0.68
   8  -2   1    3.33    0.42
   8  -2   1    4.00    0.67
  -8  -2  -1    3.72    0.29
   9   2   2    7.32    0.75
   9   2   2    8.57    1.03
   9   2   2    9.39    1.09
   9  -2   2    8.36    1.07
  -9  -2  -2    7.65    1.06
   9  -2   2    6.14    0.85
  10   2   3    1.01    0.60
  10   2   3    0.89    0.75
  10   2   3    0.13    0.79
  10  -2   3    1.49    0.80
 -10  -2  -3    2.79    1.02
   4   3  11    0.34    0.64
   4   3  11    0.74    0.60
  -4   3 -11    1.76    0.86
   4   3  11    0.98    0.46
   4  -3  11    0.59    0.73
  -4  -3 -11    1.69    1.07
  -4  -3 -11    1.71    0.96
   4  -3  11    1.17    0.72
  -3   3 -10    1.34    0.65
   3   3  10    2.69    0.40
   3   3  10    2.64    0.61
   3   3  10    2.01    0.51
   3   3  10    2.91    0.46
   3  -3  10    2.65    0.54
  -3  -3 -10    1.81    0.72
  -3  -3 -10    2.50    0.91
   3  -3  10    2.45    0.63
  -2   3  -9    7.58    0.67
  -2   3  -9    6.92    0.45
  -2   3  -9    7.41    0.86
   2   3   9    7.27    0.72
   2   3   9    6.09    0.62
   2   3   9    7.42    0.77
  -2   3  -9    8.28    0.85
   2   3   9    7.07    0.79
   2   3   9    7.23    0.42
   2  -3   9    6.68    0.64
   2  -3   9    7.80    0.69
  -2  -3  -9    7.04    1.31
  -2  -3  -9    7.13    1.53
   2  -3   9    7.05    0.72
   1   3   8    3.71    0.46
  -1   3  -8    3.00    0.44
   1   3   8    4.01    0.50
   1   3   8    3.37    0.50
   1   3   8    3.12    0.38
  -1   3  -8    2.68    0.41
   1   3   8    2.90    0.36
  -1   3  -8    3.32    0.28
  -1   3  -8    3.04    0.37
  -1  -3  -8    3.35    0.62
   1  -3   8    2.45    0.37
   1  -3   8    2.73    0.39
   1  -3   8    3.58    0.50
  -1  -3  -8    3.65    0.79
   0   3  -7   46.19    1.37
   0   3  -7   43.27    1.37
   0   3  -7   45.13    1.19
   0   3   7   46.79    1.50
   0   3   7   45.46    1.45
   0   3   7   43.74    1.42
   0   3  -7   46.92    1.42
   0   3   7   45.46    1.43
   0   3  -7   47.07    1.45
   0   3   7   44.26    1.44
   0  -3  -7   45.81    1.83
   0  -3   7   43.20    1.46
   0  -3   7   45.27    1.37
   0  -3  -7   43.84    1.49
   0  -3   7   45.43    1.35
   0  -3  -7   46.20    1.49
   0  -3  -7   46.13    1.58
   0  -3  -7   44.79    1.53
   0  -3   7   43.94    1.46
   0  -3  -7   44.09    1.64
   1   3  -6  124.07    3.18
  -1   3   6  128.03    3.34
  -1   3   6  124.08    3.30
   1   3  -6  125.74    3.24
   1   3  -6  123.37    3.17
   1   3  -6  122.17    3.07
   1   3  -6  121.39    2.94
  -1   3   6  124.58    3.22
  -1   3   6  122.43    3.65
  -1   3   6  125.13    3.26
  -1   3   6  127.44    3.17
  -1   3   6  124.22    3.27
  -1  -3   6  125.40    3.18
  -1  -3   6  125.41    3.61
   1  -3  -6  125.38    3.34
  -1  -3   6  124.89    3.25
  -1  -3   6  124.69    3.12
   1  -3  -6  125.65    3.31
  -1  -3   6  123.19    3.10
   1  -3  -6  119.63    3.28
   1  -3  -6  119.58    3.33
  -2   3   5   14.36    0.67
   2   3  -5   14.23    0.56
   2   3  -5   13.18    0.64
  -2   3   5   13.26    0.54
  -2   3   5   13.06    0.60
  -2   3   5   14.47    0.62
  -2   3   5   12.70    0.79
  -2   3   5   13.91    0.69
  -2   3   5   13.50    0.67
   2   3  -5   13.90    0.75
   2   3  -5   13.25    0.61
  -2  -3   5   13.04    0.53
   2  -3  -5   13.52    0.67
  -2  -3   5   13.96    0.67
  -2  -3   5   13.39    0.53
  -2  -3   5   14.06    0.50
  -2  -3   5   13.85    0.61
   2  -3  -5   13.55    0.71
  -3   3   4  128.32    3.34
   3   3  -4  127.03    3.16
  -3   3   4  125.37    3.29
  -3   3   4  124.49    3.02
   3   3  -4  127.18    3.16
   3   3  -4  125.68    3.25
  -3   3   4  127.66    3.32
   3   3  -4  122.02    2.98
   3   3  -4  123.41    3.47
  -3   3   4  127.64    3.26
   3   3  -4  127.53    3.33
  -3  -3   4  125.18    3.18
   3  -3  -4  125.52    3.30
   3  -3  -4  124.61    3.30
   3  -3  -4  119.87    3.06
  -3  -3   4  128.94    3.17
   3  -3  -4  125.94    3.33
  -3  -3   4  123.87    3.13
  -3  -3   4  126.33    3.15
   4   3  -3   18.26    0.69
   4   3  -3   18.47    0.72
  -4   3   3   19.21    0.82
   4   3  -3   19.05    0.58
   4   3  -3   18.39    0.94
  -4  -3   3   16.69    0.67
  -4  -3   3   17.09    0.67
  -4  -3   3   17.60    0.65
   4  -3  -3   16.59    0.76
   4  -3  -3   17.89    0.83
   4  -3  -3   17.87    0.79
   4  -3  -3   18.16    0.85
  -5   3   2    3.25    0.41
   5   3  -2    3.09    0.42
   5   3  -2    3.23    0.47
  -5   3   2    3.00    0.46
   5   3  -2    3.40    0.43
   5   3  -2    3.29    0.30
   5  -3  -2    2.99    0.43
  -5  -3   2    3.91    0.32
   5  -3  -2    3.80    0.18
   5  -3  -2    3.93    0.43
  -5  -3   2    2.95    0.37
  -5  -3   2    3.97    0.58
  -5  -3   2    3.85    0.39
  -5  -3   2    3.90    0.30
   5  -3  -2    3.75    0.33
   5  -3  -2    3.98    0.49
   5  -3  -2    3.49    0.20
   6   3  -1   60.81    1.66
   6   3  -1   58.10    1.89
   6   3  -1   57.66    2.02
  -6   3   1   49.11    1.93
  -6   3   1   60.20    1.92
  -6   3   1   59.07    1.84
   6   3  -1   61.61    2.02
  -6  -3   1   60.20    2.06
  -6  -3   1   53.51    1.75
   6  -3  -1   60.16    1.92
  -6  -3   1   55.40    1.81
   6  -3  -1   57.26    1.95
  -6  -3   1   59.37    1.70
   6  -3  -1   57.32    1.57
  -6  -3   1   60.59    1.53
   7   3   0   13.89    0.70
  -7   3   0   13.59    0.82
   7   3   0   14.11    0.95
   7   3   0   13.90    0.90
   7  -3   0   13.30    1.28
   7  -3   0   13.40    0.94
  -7  -3   0   14.25    0.46
   7  -3   0   12.18    0.63
  -7  -3   0   13.50    1.01
  -8   3  -1   22.86    1.22
  -8   3  -1   22.37    1.16
   8   3   1   20.60    1.16
   8   3   1   23.29    1.23
   8   3   1   23.75    1.33
   8  -3   1   23.82    1.40
   8  -3   1   22.93    1.28
  -8  -3  -1   23.56    1.39
   8  -3   1   23.05    0.95
   9   3   2    9.75    0.85
   9   3   2   10.97    1.13
   9   3   2   10.15    1.16
  -9  -3  -2    9.50    1.51
   9  -3   2    8.09    1.17
   9  -3   2   12.78    1.83
  10   3   3   -0.79    0.78
  10   3   3   -0.12    0.60
  10   3   3   -0.24    0.86
  10  -3   3   -0.67    0.78
 -10  -3  -3    0.04    1.20
   4   4  11    1.07    0.83
  -4   4 -11    0.35    0.93
   4   4  11   -0.03    0.67
   4   4  11    0.44    0.56
  -4  -4 -11    0.48    1.31
   4  -4  11    0.22    0.91
   3   4  10    5.85    0.87
   3   4  10    3.68    0.65
   3   4  10    4.29    0.65
  -3   4 -10    3.50    0.84
   3  -4  10    3.63    0.64
  -3  -4 -10    5.13    0.88
  -3  -4 -10    6.59    1.23
   3  -4  10    5.78    0.84
  -2   4  -9   17.49    0.70
  -2   4  -9   18.41    0.91
   2   4   9   18.11    1.08
  -2   4  -9   17.07    1.16
   2   4   9   17.84    0.89
   2   4   9   18.44    0.65
   2   4   9   18.79    1.05
  -2   4  -9   19.03    0.93
  -2  -4  -9   18.34    1.36
   2  -4   9   17.12    0.95
   2  -4   9   17.87    1.00
  -2  -4  -9   19.22    1.54
   2  -4   9   19.61    1.13
   1   4   8   52.04    1.74
  -1   4  -8   52.44    1.44
  -1   4  -8   50.78    1.61
   1   4   8   53.90    1.73
  -1   4  -8   53.45    1.72
  -1   4  -8   54.23    1.76
   1   4   8   52.63    1.79
   1  -4   8   52.89    1.70
   1  -4   8   53.10    1.68
  -1  -4  -8   55.98    2.36
  -1  -4  -8   53.17    2.05
   1  -4   8   54.91    1.86
   0   4  -7    1.04    0.25
   0   4  -7    1.26    0.39
   0   4   7    0.88    0.32
   0   4  -7    0.73    0.22
   0   4   7    1.14    0.30
   0   4  -7    1.07    0.29
   0   4   7    1.33    0.34
   0   4   7    1.47    0.33
   0   4   7    0.99    0.29
   0   4  -7    1.16    0.17
   0   4   7    0.66    0.28
   0  -4   7    0.82    0.33
   0  -4  -7    1.38    0.44
   0  -4   7    1.13    0.22
   0  -4   7    1.11    0.31
   0  -4  -7    1.78    0.63
   0  -4  -7    1.78    0.41
   0  -4   7    1.58    0.26
  -1   4   6   15.96    0.80
   1   4  -6   15.11    0.48
   1   4  -6   16.63    0.73
  -1   4   6   15.35    0.68
  -1   4   6   15.34    0.77
  -1   4   6   15.01    0.72
   1   4  -6   15.22    0.64
  -1   4   6   15.67    0.76
  -1   4   6   14.92    0.80
   1   4  -6   13.55    0.66
   1   4  -6   14.13    0.88
  -1   4   6   14.89    0.66
   1   4  -6   15.45    0.64
   1  -4  -6   15.66    0.81
   1  -4  -6   15.23    0.85
  -1  -4   6   14.70    0.54
   1  -4  -6   13.57    0.81
  -1  -4   6   14.23    0.76
  -1  -4   6   15.26    0.56
   1  -4  -6   15.75    1.06
   1  -4  -6   13.89    0.73
  -1  -4   6   14.77    0.60
  -1  -4   6   15.58    0.77
  -1  -4   6   14.84    0.59
  -2   4   5    3.41    0.42
   2   4  -5    4.01    0.43
   2   4  -5    4.07    0.34
  -2   4   5    4.09    0.49
  -2   4   5    4.27    0.37
   2   4  -5    4.22    0.62
  -2   4   5    4.01    0.45
   2   4  -5    4.32    0.25
  -2   4   5    4.06    0.42
  -2   4   5    3.24    0.42
   2   4  -5    3.55    0.42
  -2  -4   5    4.77    0.26
   2  -4  -5    4.86    0.58
   2  -4  -5    4.35    0.53
   2  -4  -5    5.43    0.73
  -2  -4   5    4.15    0.43
  -2  -4   5    4.91    0.31
  -2  -4   5    4.23    0.29
  -3   4   4    9.27    0.57
  -3   4   4   10.22    0.56
   3   4  -4    9.62    0.62
   3   4  -4   10.02    0.43
  -3   4   4    9.58    0.58
   3   4  -4    9.68    0.46
  -3   4   4    9.90    0.32
   3   4  -4    9.34    0.80
  -3   4   4   10.87    0.61
   3   4  -4    9.55    0.59
   3   4  -4    9.38    0.39
  -3   4   4    9.49    0.54
   3  -4  -4    9.11    0.59
  -3  -4   4    9.55    0.54
  -3  -4   4   10.24    0.40
   3  -4  -4    9.54    0.67
   3  -4  -4   10.30    0.77
  -3  -4   4   10.39    0.43
   3  -4  -4   10.22    0.70
  -4   4   3   22.98    0.95
   4   4  -3   22.11    1.30
  -4   4   3   24.08    0.96
   4   4  -3   22.78    0.79
   4   4  -3   24.89    0.75
   4   4  -3   24.19    0.85
   4   4  -3   23.49    1.04
  -4  -4   3   24.09    1.17
   4  -4  -3   23.52    1.04
  -4  -4   3   24.58    0.80
  -4  -4   3   24.32    0.84
  -4  -4   3   25.09    0.86
   4  -4  -3   24.27    1.05
   4  -4  -3   23.29    1.00
   4  -4  -3   24.68    0.97
  -4  -4   3   23.73    0.81
   5   4  -2   62.41    2.10
   5   4  -2   61.80    2.30
  -5   4   2   69.33    2.06
   5   4  -2   68.31    1.78
   5   4  -2   68.17    1.97
  -5   4   2   63.01    2.10
   5   4  -2   66.26    1.89
   5  -4  -2   65.80    2.02
   5  -4  -2   67.18    2.08
   5  -4  -2   66.27    2.07
  -5  -4   2   65.94    1.86
  -5  -4   2   69.39    1.91
  -5  -4   2   62.38    1.87
   5  -4  -2   63.61    1.83
  -5  -4   2   65.77    2.28
  -5  -4   2   67.32    1.79
   6   4  -1   45.71    1.63
   6   4  -1   47.51    1.41
  -6   4   1   44.78    1.63
   6   4  -1   48.47    1.58
  -6   4   1   46.97    1.59
  -6  -4   1   48.48    1.33
   6  -4  -1   47.17    1.67
  -6  -4   1   47.44    1.54
   6  -4  -1   47.26    1.66
   6  -4  -1   46.90    1.66
  -6  -4   1   46.53    1.89
   7   4   0    6.39    0.54
   7   4   0    4.56    0.76
  -7   4   0    5.67    0.71
  -7   4   0    6.43    0.71
   7   4   0    6.04    0.77
   7  -4   0    5.50    0.74
   7  -4   0    5.26    0.40
  -7  -4   0    7.20    1.01
   7  -4   0    5.29    0.72
   7  -4   0    7.43    0.81
   8   4   1   10.50    1.01
  -8   4  -1    8.50    0.86
   8   4   1    9.38    0.73
   8   4   1    8.95    0.98
  -8  -4  -1    9.15    1.25
   8  -4   1    8.69    0.98
   8  -4   1   11.42    0.91
   9   4   2    3.91    0.73
   9   4   2    6.02    0.79
   9   4   2    2.97    0.76
  -9  -4  -2    5.52    1.06
   9  -4   2    3.52    0.85
   9  -4   2    4.73    0.65
  10   4   3    1.35    1.21
  10   4   3    2.50    1.02
  10   4   3    0.95    0.68
  10  -4   3    2.83    0.72
  10  -4   3    1.10    0.99
 -10  -4  -3    3.04    1.23
  -3   5 -10    1.48    0.77
   3   5  10    0.73    0.48
   3   5  10    1.63    0.64
   3   5  10    0.56    0.53
   3  -5  10    1.36    0.80
  -3  -5 -10    4.08    1.35
   2   5   9    1.83    0.47
  -2   5  -9    1.44    0.57
   2   5   9    1.50    0.51
   2   5   9    1.98    0.45
   2  -5   9    1.90    0.60
  -2  -5  -9    3.20    1.01
   1   5   8   18.13    0.97
  -1   5  -8   18.06    0.92
  -1   5  -8   18.00    0.97
  -1   5  -8   16.52    0.63
  -1   5  -8   19.94    1.49
   1   5   8   17.50    0.92
   1   5   8   16.23    0.92
  -1   5  -8   16.01    0.73
   1  -5   8   16.45    0.80
   1  -5   8   18.33    1.10
  -1  -5  -8   15.95    1.48
   0   5  -7    2.00    0.35
   0   5  -7    1.67    0.31
   0   5  -7    2.25    0.29
   0   5   7    1.14    0.35
   0   5  -7    1.98    0.26
   0   5   7    2.36    0.40
   0   5   7    1.69    0.44
   0   5   7    2.17    0.44
   0   5   7    2.05    0.38
   0   5  -7    1.54    0.63
   0   5   7    1.96    0.36
   0  -5  -7    2.07    0.79
   0  -5   7    1.45    0.26
   0  -5  -7    2.30    0.54
   0  -5   7    1.45    0.45
   0  -5   7    2.21    0.31
  -1   5   6   75.51    2.09
  -1   5   6   71.55    2.30
  -1   5   6   74.10    2.24
  -1   5   6   70.66    2.23
   1   5  -6   72.19    1.99
   1   5  -6   71.56    1.91
   1   5  -6   75.36    2.15
  -1   5   6   73.13    2.15
   1   5  -6   74.00    2.72
   1   5  -6   74.12    2.10
  -1   5   6   76.51    2.06
  -1  -5   6   73.11    1.93
  -1  -5   6   71.24    1.88
   1  -5  -6   74.34    2.66
   1  -5  -6   75.41    2.37
  -1  -5   6   75.18    2.29
  -2   5   5   22.49    0.86
   2   5  -5   23.60    1.01
  -2   5   5   22.54    0.97
  -2   5   5   22.69    0.93
   2   5  -5   21.22    0.95
  -2   5   5   24.25    0.79
  -2   5   5   21.39    1.08
  -2   5   5   25.37    0.99
   2   5  -5   24.25    0.80
   2   5  -5   22.40    1.45
  -2  -5   5   21.93    0.64
  -2  -5   5   22.11    0.70
   2  -5  -5   23.75    1.38
   2  -5  -5   24.83    1.18
  -2  -5   5   22.64    0.99
   3   5  -4   12.80    0.75
  -3   5   4   12.96    0.86
  -3   5   4   12.82    0.70
  -3   5   4   13.58    0.65
   3   5  -4   12.55    0.78
  -3   5   4   12.06    0.68
   3   5  -4   13.86    0.60
  -3   5   4   12.15    0.69
   3   5  -4   13.49    0.54
  -3  -5   4   11.44    0.62
   3  -5  -4   11.99    0.91
  -3  -5   4   12.54    0.70
   3  -5  -4   13.72    0.89
  -3  -5   4   12.78    0.44
   4   5  -3   10.18    0.49
   4   5  -3   10.43    1.01
   4   5  -3   10.82    0.51
  -4   5   3   12.04    0.66
  -4   5   3   10.65    0.67
   4   5  -3   10.53    0.78
  -4   5   3   11.14    0.68
  -4   5   3   10.94    0.62
   4   5  -3   11.71    0.50
   4  -5  -3   10.75    0.85
   4  -5  -3   11.38    0.78
  -4  -5   3    9.81    0.40
  -4  -5   3    9.21    0.91
  -4  -5   3   10.21    0.60
   4  -5  -3    9.94    0.58
  -4  -5   3    9.62    0.56
  -4  -5   3    9.62    0.45
   5   5  -2    1.26    0.26
  -5   5   2    0.96    0.31
   5   5  -2    1.28    0.32
   5   5  -2    1.38    0.26
  -5   5   2    1.67    0.37
   5  -5  -2    1.66    0.40
   5  -5  -2    1.26    0.44
   5  -5  -2    1.34    0.28
   5  -5  -2    0.82    0.39
  -5  -5   2    1.08    0.27
  -5  -5   2    1.10    0.23
  -5  -5   2    0.42    0.28
  -5  -5   2    0.47    0.55
  -6   5   1    1.52    0.41
   6   5  -1    1.86    0.37
  -6   5   1    1.11    0.37
   6   5  -1    1.33    0.27
   6  -5  -1    2.02    0.48
   6  -5  -1    1.10    0.45
  -6  -5   1    1.57    0.30
  -7   5   0    4.24    0.79
  -7   5   0    3.22    0.48
   7   5   0    3.08    0.55
   7   5   0    3.41    0.46
   7   5   0    2.53    0.55
   7  -5   0    3.29    0.51
   7  -5   0    3.82    0.63
  -7  -5   0    3.83    0.88
   7  -5   0    4.18    0.59
   8   5   1    6.60    0.71
   8   5   1    7.80    1.07
   8   5   1    7.46    1.00
   8  -5   1    7.98    0.95
   8  -5   1    8.97    1.18
  -8  -5  -1    7.44    1.17
   9   5   2    6.20    0.90
   9   5   2    3.61    0.89
   9   5   2    5.14    0.94
  -9  -5  -2    2.64    1.72
   9  -5   2    5.22    0.83
  -3   6 -10    1.17    0.89
   3   6  10    1.53    0.71
   3   6  10    1.70    0.82
   3   6  10    1.60    0.91
   3  -6  10    2.03    1.10
  -3  -6 -10    2.15    1.88
   2   6   9   11.72    1.04
   2   6   9   10.67    0.94
   2   6   9   13.10    1.04
  -2   6  -9   12.32    1.27
   2  -6   9   12.20    1.27
  -2  -6  -9   14.81    1.82
   1   6   8    0.46    0.44
  -1   6  -8    0.96    0.35
   1   6   8    0.89    0.40
   1   6   8    0.68    0.43
  -1   6  -8    1.09    0.44
   1  -6   8    0.30    0.55
  -1  -6  -8    1.04    0.87
   0   6   7    7.55    0.89
   0   6   7    7.72    0.83
   0   6   7    7.61    0.64
   0   6  -7    6.51    0.53
   0   6  -7    7.98    0.65
   0   6   7    8.21    0.76
   0   6  -7    8.41    0.51
   0   6   7    7.11    0.95
   0   6   7    6.32    0.69
   0   6  -7    8.11    0.47
   0   6  -7    8.78    0.72
   0  -6   7    7.65    0.88
   0  -6  -7    9.04    1.02
   0  -6  -7   10.75    1.27
   0  -6   7    7.54    0.74
   1   6  -6   18.71    0.87
  -1   6   6   16.95    0.89
  -1   6   6   18.20    0.80
  -1   6   6   17.11    0.92
  -1   6   6   17.94    1.04
   1   6  -6   18.14    0.69
  -1   6   6   14.89    0.77
   1   6  -6   16.88    0.86
  -1   6   6   17.48    0.85
   1   6  -6   17.73    0.77
  -1  -6   6   16.32    0.54
  -1  -6   6   16.44    0.53
   1  -6  -6   17.06    1.48
   1  -6  -6   15.68    1.15
  -1  -6   6   16.25    1.05
  -2   6   5   13.35    0.75
   2   6  -5   13.91    1.19
  -2   6   5   12.64    0.73
  -2   6   5   12.79    0.55
   2   6  -5   12.82    0.63
   2   6  -5   12.76    0.80
  -2   6   5   13.69    0.64
   2  -6  -5   12.99    1.74
   2  -6  -5   13.65    1.22
  -2  -6   5   13.35    0.89
  -3   6   4   26.52    1.07
   3   6  -4   27.68    1.22
  -3   6   4   27.71    1.14
   3   6  -4   27.85    0.93
  -3   6   4   28.25    1.46
  -3   6   4   27.67    0.97
  -3   6   4   28.17    1.06
   3  -6  -4   27.82    1.45
   3  -6  -4   25.08    1.56
  -3  -6   4   30.26    1.20
  -4   6   3    1.10    0.29
   4   6  -3    0.66    0.24
   4   6  -3    0.80    0.26
  -4   6   3    0.36    0.32
   4   6  -3    0.90    0.41
  -4   6   3    1.09    0.31
   4  -6  -3    0.73    0.36
   4  -6  -3    2.01    0.47
  -4  -6   3    0.22    0.31
  -4  -6   3    1.00    0.15
  -5   6   2   12.80    0.80
   5   6  -2   12.69    0.68
   5   6  -2   12.34    0.53
   5   6  -2   12.36    0.62
  -5   6   2   13.02    0.75
  -5   6   2   12.01    0.72
  -5  -6   2   11.50    0.85
   5  -6  -2   12.23    0.96
  -5  -6   2   12.96    0.69
   5  -6  -2   12.11    0.71
   5  -6  -2   14.84    0.82
  -5  -6   2   12.34    1.22
   5  -6  -2   15.99    1.08
  -6   6   1    0.49    0.38
   6   6  -1    0.92    0.38
   6   6  -1    0.66    0.32
   6   6  -1    1.20    0.37
  -6  -6   1    1.37    0.81
   6  -6  -1    0.46    0.52
   6  -6  -1    0.43    0.50
   7   6   0    5.80    0.86
   7   6   0    6.33    0.69
   7   6   0    7.59    0.91
   7  -6   0    7.93    1.04
  -7  -6   0    6.97    1.10
   7  -6   0    8.44    1.03
   8   6   1    7.52    0.89
   8   6   1    6.00    0.83
   8   6   1    6.06    0.95
  -8  -6  -1    8.72    1.40
   8  -6   1    7.28    0.91
   2   7   9    2.28    0.74
   2   7   9    1.35    0.75
  -2   7  -9    0.25    0.76
   2   7   9    1.47    0.71
   2  -7   9    1.52    1.16
  -2  -7  -9    3.78    1.86
   1   7   8    1.96    0.61
  -1   7  -8    0.95    0.54
   1   7   8    1.30    0.56
   1   7   8    1.67    0.51
   1  -7   8    0.85    0.72
  -1  -7  -8    1.57    1.19
   0   7   7    6.02    0.88
   0   7   7    4.32    0.55
   0   7   7    4.67    0.56
   0   7  -7    4.64    0.57
   0   7  -7    4.20    0.57
   0  -7  -7    4.83    0.87
   0  -7  -7    4.99    1.12
   0  -7   7    5.33    0.80
   1   7  -6   12.23    1.27
   1   7  -6   13.66    0.90
  -1   7   6   13.48    0.77
  -1   7   6   10.42    0.88
  -1   7   6   13.20    1.05
  -1  -7   6   13.07    1.03
   1  -7  -6   12.13    1.20
   1  -7  -6   14.92    1.71
  -2   7   5   11.44    0.69
   2   7  -5   11.17    0.73
   2   7  -5   12.00    0.92
  -2   7   5   12.57    0.66
  -2   7   5   12.52    0.96
  -2   7   5   11.72    1.06
  -2  -7   5   12.62    0.98
   2  -7  -5   11.28    1.15
   2  -7  -5   12.37    1.55
   3   7  -4    2.39    0.36
  -3   7   4    2.40    0.37
   3   7  -4    2.11    0.51
  -3   7   4    3.03    0.44
  -3   7   4    2.17    0.61
  -3   7   4    2.34    0.72
   3  -7  -4    1.61    0.65
  -3  -7   4    2.64    0.54
   3  -7  -4    3.87    0.72
  -4   7   3    0.19    0.30
   4   7  -3   -0.30    0.59
  -4   7   3    0.03    0.27
  -4   7   3    0.77    0.56
   4   7  -3    0.01    0.26
  -4   7   3   -0.05    0.58
  -4  -7   3    0.84    0.44
   4  -7  -3   -0.04    0.54
   4  -7  -3   -0.18    0.56
  -4  -7   3    0.43    0.71
  -5   7   2    2.48    0.46
   5   7  -2    2.38    0.39
   5   7  -2    1.82    0.61
  -5   7   2    2.38    0.41
   5  -7  -2    2.81    0.72
   5  -7  -2    3.81    0.61
  -5  -7   2    2.16    0.79
   6   7  -1    6.21    0.69
  -6   7   1    5.73    0.75
   6   7  -1    7.44    0.76
   6   7  -1    6.21    0.59
  -6  -7   1    7.19    1.21
   6  -7  -1    5.76    0.78
   7   7   0    0.64    0.57
   7   7   0    0.84    0.60
   7   7   0    1.88    0.47
   7  -7   0    2.02    0.75
  -7  -7   0    0.19    1.05
   0   8   7    3.81    0.62
   0   8   7    2.29    0.56
   0   8   7    3.02    0.73
   0   8  -7    3.05    0.61
   0  -8  -7    5.91    1.41
   0  -8   7    3.54    0.96
   0  -8  -7    3.37    1.01
  -1   8   6    4.07    0.98
   1   8  -6    4.35    0.61
  -1   8   6    4.57    0.70
  -1   8   6    4.48    0.86
   1  -8  -6    7.47    1.18
  -1  -8   6    6.49    0.91
   1  -8  -6    7.89    1.06
   2   8  -5   -0.04    0.52
  -2   8   5    0.66    0.33
  -2   8   5    0.70    0.33
  -2   8   5    0.75    0.66
   2   8  -5    0.72    0.41
  -2  -8   5    1.13    0.64
   2  -8  -5    0.70    0.88
   2  -8  -5    0.59    0.82
  -3   8   4    2.31    0.75
   3   8  -4    2.43    0.45
  -3   8   4    2.17    0.37
  -3   8   4    2.24    0.31
   3   8  -4    2.58    0.63
   3  -8  -4    2.06    0.89
   3  -8  -4    1.65    0.82
  -4   8   3    1.10    0.35
  -4   8   3    0.94    0.67
  -4   8   3    1.23    0.29
   4   8  -3    1.38    0.51
   4   8  -3    2.26    0.67
   4  -8  -3    1.29    0.81
   4  -8  -3    0.89    0.79
  -5   8   2    1.91    0.45
   5   8  -2    2.72    0.79
  -5   8   2    2.76    0.52
   5   8  -2    2.68    0.48
  -5   8   2    2.62    0.87
   5  -8  -2    3.73    0.94
  -5  -8   2    3.78    0.98
   6   8  -1   -0.03    0.42
  -6   8   1    0.65    0.45
   6   8  -1    0.52    0.46
  -6   8   1    0.39    0.53
   6  -8  -1    1.30    0.94
  -6  -8   1   -1.56    1.18
  -3   9   4    0.80    0.97
  -3   9   4    0.40    0.39
   3   9  -4    0.66    0.72
   3  -9  -4    2.42    1.09
   3  -9  -4   -0.09    1.39
   4   0  12    1.69    0.61
  -4   0 -12    0.74    1.06
   4   0  12    2.42    0.70
   4   0  12    3.61    0.54
  -4   0 -12    2.11    0.99
   4   0  12    2.33    0.81
   3   0  11    2.33    0.57
  -3   0 -11    1.34    0.70
   3   0  11    1.14    0.47
   3   0  11    2.30    0.47
   3   0  11    1.43    0.45
  -2   0 -10    6.43    0.73
   2   0  10    6.57    0.54
   2   0  10    5.78    0.70
   2   0  10    6.72    0.56
  -2   0 -10    5.45    0.76
   2   0  10    7.35    0.74
  -1   0  -9   31.80    1.12
   1   0   9   33.39    1.28
   1   0   9   32.87    1.05
  -1   0  -9   30.87    1.26
   1   0   9   32.72    1.08
   1   0   9   32.32    1.22
  -1   0  -9   33.19    1.43
  -1   0  -9   31.14    1.21
   0   0   8   90.97    2.28
   0   0   8   87.95    2.46
   0   0   8   88.26    2.51
   0   0  -8   86.04    2.56
   0   0  -8   89.84    2.52
   0   0  -8   87.56    2.38
   0   0  -8   89.85    2.57
   0   0   8   89.01    2.46
   0   0   8   90.14    2.35
   1   0  -7   28.51    1.06
  -1   0   7   28.38    0.97
   1   0  -7   28.79    1.00
   1   0  -7   27.68    0.77
  -1   0   7   25.34    1.14
  -1   0   7   29.38    0.83
  -1   0   7   25.89    1.13
   1   0  -7   28.09    0.91
   1   0  -7   28.72    1.01
  -1   0   7   27.05    0.88
  -2   0   6   88.48    2.46
   2   0  -6   88.17    2.25
   2   0  -6   90.70    2.46
   2   0  -6   92.43    2.39
  -2   0   6   87.97    2.27
  -2   0   6   92.48    2.44
  -2   0   6   90.68    2.41
  -2   0   6   92.00    2.50
  -2   0   6   95.64    2.57
   2   0  -6   92.91    2.55
  -3   0   5   44.18    1.38
   3   0  -5   45.67    1.30
   3   0  -5   44.07    1.36
  -3   0   5   45.46    1.37
  -3   0   5   44.85    1.32
   3   0  -5   43.55    1.38
  -3   0   5   45.21    1.37
  -3   0   5   46.32    1.41
  -4   0   4  642.46   14.89
  -4   0   4  619.55   14.69
   4   0  -4  629.42   14.91
   4   0  -4  616.10   14.86
  -4   0   4  635.91   14.93
   4   0  -4  620.40   14.79
  -5   0   3  820.72   19.77
   5   0  -3  817.91   19.49
   5   0  -3  815.67   19.39
   5   0  -3  813.82   19.53
  -5   0   3  851.92   19.54
   6   0  -2    6.97    0.55
  -6   0   2    8.48    0.57
   6   0  -2    8.02    0.50
  -6   0   2    8.22    0.41
  -6   0   2    8.16    0.59
   6   0  -2    7.44    0.51
   6   0  -2    8.59    0.64
   7   0  -1  150.57    3.86
  -7   0   1  146.36    3.77
  -7   0   1  146.63    4.07
   7   0  -1  146.61    4.02
   7   0  -1  152.12    4.09
  -7   0   1  143.26    3.99
   7   0  -1  155.76    4.19
   7   0  -1  151.75    3.95
  -8   0   0   98.11    2.99
   8   0   0   97.93    3.10
   8   0   0   99.66    3.05
   8   0   0  100.05    2.88
   8   0   0   96.43    2.70
   8   0   0  101.30    3.38
   9   0   1    0.23    0.49
   9   0   1    1.04    0.52
   9   0   1    0.73    0.41
  -9   0  -1    0.56    0.31
  10   0   2    5.85    0.87
  10   0   2    6.06    0.91
  11   0   3    0.10    0.87
  11   0   3   -0.19    1.04
  11   0   3    0.34    0.90
   4   1  12    0.63    0.45
  -4   1 -12    0.92    1.00
   4   1  12    1.33    0.70
   4   1  12   -0.23    0.74
   4  -1  12    0.44    0.62
   4  -1  12    0.58    0.47
  -4  -1 -12    0.17    1.09
  -4  -1 -12    1.24    1.01
   4  -1  12    0.65    0.71
   3   1  11   14.24    1.02
   3   1  11   14.63    0.80
   3   1  11   13.62    0.82
  -3   1 -11   12.82    1.40
   3   1  11   14.79    1.10
   3  -1  11   15.19    0.98
   3  -1  11   13.41    0.85
   3  -1  11   13.40    1.09
  -3  -1 -11   14.49    1.48
  -3  -1 -11   11.75    1.36
  -2   1 -10    5.24    0.71
  -2   1 -10    7.41    0.94
  -2   1 -10    6.18    0.57
   2   1  10    5.60    0.41
   2   1  10    6.79    0.70
   2   1  10    5.52    0.47
  -2   1 -10    6.73    0.72
   2   1  10    5.55    0.53
   2   1  10    5.54    0.72
   2  -1  10    5.89    0.52
  -2  -1 -10    6.11    0.85
   2  -1  10    5.24    0.68
  -2  -1 -10    6.75    0.77
   2  -1  10    6.23    0.60
   2  -1  10    5.05    0.66
  -1   1  -9   53.16    1.55
   1   1   9   53.57    1.78
  -1   1  -9   54.51    1.89
   1   1   9   54.23    1.55
   1   1   9   54.43    1.52
   1   1   9   56.52    1.74
  -1   1  -9   50.50    1.76
  -1   1  -9   51.78    1.71
   1  -1   9   53.03    1.62
   1  -1   9   54.62    1.80
  -1  -1  -9   50.93    1.87
  -1  -1  -9   53.27    1.97
  -1  -1  -9   51.51    1.80
   1  -1   9   53.13    1.69
   1  -1   9   52.06    1.53
  -1  -1  -9   50.97    1.69
   0   1   8   49.61    1.41
   0   1   8   50.65    1.57
   0   1  -8   51.94    1.67
   0   1  -8   49.93    1.42
   0   1   8   48.44    1.35
   0   1   8   52.50    1.44
   0   1  -8   49.82    1.64
   0   1  -8   49.83    1.58
   0   1   8   49.03    1.62
   0   1   8   48.48    1.55
   0  -1   8   49.43    1.37
   0  -1   8   49.70    1.59
   0  -1  -8   51.55    1.64
   0  -1   8   47.31    1.55
   0  -1   8   51.79    1.55
   0  -1  -8   51.56    1.68
   0  -1   8   51.21    1.49
   0  -1  -8   48.40    1.55
   0  -1  -8   51.01    1.74
   1   1  -7   62.94    1.79
   1   1  -7   64.29    1.66
  -1   1   7   60.18    1.68
   1   1  -7   65.11    1.85
  -1   1   7   61.10    1.83
  -1   1   7   63.04    1.76
   1   1  -7   63.27    1.80
  -1   1   7   63.24    1.78
   1  -1  -7   61.88    1.83
  -1  -1   7   62.59    1.75
  -1  -1   7   62.73    1.71
  -1  -1   7   59.75    1.55
  -1  -1   7   59.99    1.79
   1  -1  -7   62.20    1.78
  -1  -1   7   60.18    1.77
   1  -1  -7   60.14    1.87
   1  -1  -7   58.60    1.81
   2   1  -6    2.21    0.30
  -2   1   6    2.28    0.29
  -2   1   6    2.41    0.26
  -2   1   6    2.20    0.33
   2   1  -6    2.38    0.30
  -2   1   6    2.33    0.34
  -2   1   6    1.81    0.27
  -2   1   6    2.38    0.32
  -2  -1   6    1.97    0.11
  -2  -1   6    2.07    0.29
  -2  -1   6    1.33    0.26
  -2  -1   6    1.82    0.27
   2  -1  -6    2.56    0.34
  -2  -1   6    2.46    0.30
   2  -1  -6    1.45    0.24
  -2  -1   6    2.21    0.32
   2  -1  -6    1.94    0.28
  -2  -1   6    1.72    0.24
   2  -1  -6    2.51    0.32
  -3   1   5  169.40    4.29
  -3   1   5  171.90    4.32
   3   1  -5  169.95    4.28
  -3   1   5  172.03    4.38
   3   1  -5  168.26    4.25
  -3   1   5  168.12    4.18
  -3   1   5  165.10    4.32
   3   1  -5  171.01    4.26
  -3  -1   5  166.11    4.00
  -3  -1   5  179.14    4.49
  -3  -1   5  175.52    4.31
   3  -1  -5  173.27    4.32
   3  -1  -5  170.88    4.36
   3  -1  -5  167.56    4.17
   3  -1  -5  169.02    4.15
  -3  -1   5  169.54    4.29
  -3  -1   5  168.14    4.27
  -4   1   4    2.84    0.34
   4   1  -4    2.64    0.35
  -4   1   4    3.16    0.36
   4   1  -4    3.27    0.35
   4   1  -4    3.00    0.36
  -4  -1   4    3.04    0.32
  -4  -1   4    2.80    0.32
   4  -1  -4    2.83    0.41
   4  -1  -4    2.50    0.33
  -4  -1   4    2.66    0.17
   4  -1  -4    2.73    0.37
  -5   1   3  108.05    2.99
   5   1  -3  108.58    2.96
   5   1  -3  108.65    2.75
   5   1  -3  104.77    2.93
   5   1  -3  106.77    2.91
  -5   1   3  109.57    2.94
  -5   1   3  104.48    2.79
   5  -1  -3  107.59    2.95
   5  -1  -3  107.48    2.99
  -5  -1   3  115.02    2.97
  -5  -1   3  108.03    2.68
  -5  -1   3  109.18    2.90
   6   1  -2   65.78    2.02
   6   1  -2   64.03    2.05
   6   1  -2   66.48    2.01
   6   1  -2   64.68    1.85
  -6   1   2   63.25    1.99
  -6   1   2   64.18    1.84
  -6   1   2   67.50    2.08
  -6  -1   2   70.66    2.05
   6  -1  -2   66.19    2.10
  -6  -1   2   66.95    1.77
  -6  -1   2   66.44    1.98
   6  -1  -2   65.68    1.79
   6  -1  -2   65.57    2.04
  -7   1   1   59.46    1.98
   7   1  -1   59.10    1.87
   7   1  -1   60.61    1.97
   7   1  -1   59.92    2.04
   7   1  -1   60.69    1.80
  -7   1   1   59.85    1.92
  -7   1   1   57.63    1.73
  -7  -1   1   59.20    1.94
   7  -1  -1   60.72    2.05
  -7  -1   1   58.50    1.67
  -7  -1   1   57.25    1.90
   7  -1  -1   59.59    1.85
   7  -1  -1   58.21    1.62
   7  -1  -1   59.32    1.98
  -8   1   0    9.20    0.81
   8   1   0   10.17    0.70
   8   1   0    8.92    0.70
   8   1   0   10.55    0.91
   8   1   0    9.80    0.91
   8  -1   0    9.16    0.88
  -8  -1   0   10.15    0.80
   8  -1   0    8.86    0.75
   8  -1   0    9.57    0.90
   9   1   1   11.13    0.83
  -9   1  -1   11.91    1.17
   9   1   1    8.25    1.07
  -9   1  -1   10.11    1.00
   9   1   1   11.88    0.82
   9   1   1   11.13    1.06
   9  -1   1    9.21    1.00
  -9  -1  -1   10.44    0.54
   9  -1   1   10.02    1.13
   9  -1   1   10.95    0.91
  -9  -1  -1    8.81    0.90
  10   1   2    3.18    0.74
  10   1   2    4.37    0.73
  10   1   2    2.62    0.68
  10  -1   2    2.82    0.69
  10  -1   2    3.64    0.88
  11   1   3    0.57    0.87
  11   1   3    2.62    0.94
  11   1   3    0.22    1.12
  11  -1   3    0.58    0.90
   4   2  12    0.48    0.46
   4   2  12    0.00    0.72
   4   2  12   -0.61    0.58
  -4   2 -12    0.16    0.97
  -4  -2 -12    0.82    1.14
  -4  -2 -12    0.10    1.06
   4  -2  12   -0.11    0.69
   4  -2  12    1.30    0.76
   4  -2  12    0.00    0.57
   3   2  11    2.00    0.50
   3   2  11    3.15    0.47
   3   2  11    2.66    0.54
  -3   2 -11    2.93    0.80
   3   2  11    2.09    0.42
  -3  -2 -11    3.45    0.82
   3  -2  11    2.99    0.53
   3  -2  11    3.66    0.63
  -3  -2 -11    3.28    0.96
   3  -2  11    2.14    0.58
  -2   2 -10    3.29    0.65
   2   2  10    3.01    0.50
  -2   2 -10    2.87    0.36
   2   2  10    4.26    0.49
   2   2  10    3.40    0.40
  -2   2 -10    4.27    0.62
  -2   2 -10    3.29    0.50
   2   2  10    3.57    0.56
   2   2  10    3.90    0.49
   2  -2  10    4.92    0.66
  -2  -2 -10    2.74    0.63
  -2  -2 -10    2.43    0.98
   2  -2  10    3.77    0.67
   2  -2  10    4.35    0.57
   2  -2  10    3.32    0.44
  -1   2  -9    9.13    0.67
   1   2   9    8.66    0.66
   1   2   9    8.72    0.70
   1   2   9    9.18    0.47
  -1   2  -9    9.09    0.47
   1   2   9    8.75    0.53
   1   2   9    9.60    0.57
  -1   2  -9    9.46    0.79
  -1   2  -9    9.37    0.65
   1  -2   9    7.83    0.61
  -1  -2  -9    8.54    0.92
  -1  -2  -9    8.25    0.76
   1  -2   9    8.63    0.63
   1  -2   9    7.78    0.50
   1  -2   9    8.42    0.65
   0   2  -8    8.95    0.49
   0   2  -8    9.36    0.57
   0   2   8    8.56    0.57
   0   2   8    9.50    0.65
   0   2   8    8.43    0.48
   0   2   8   10.03    0.54
   0   2  -8    8.91    0.58
   0   2   8    9.25    0.46
   0   2   8    9.49    0.57
   0   2  -8    9.79    0.63
   0   2  -8    9.19    0.41
   0  -2  -8    8.94    0.58
   0  -2  -8    9.15    0.64
   0  -2   8    9.65    0.60
   0  -2  -8    9.31    0.65
   0  -2   8    9.40    0.55
   0  -2  -8    9.58    0.64
   0  -2  -8   10.03    0.78
   0  -2   8    9.80    0.49
   0  -2   8    9.49    0.57
   1   2  -7   13.42    0.65
  -1   2   7   14.15    0.59
  -1   2   7   14.50    0.62
  -1   2   7   14.44    0.67
   1   2  -7   14.29    0.65
  -1   2   7   14.70    0.70
   1   2  -7   13.85    0.44
   1   2  -7   13.80    0.66
   1   2  -7   14.87    0.60
  -1   2   7   14.27    0.65
   1  -2  -7   14.31    0.73
  -1  -2   7   14.39    0.66
   1  -2  -7   14.79    0.72
  -1  -2   7   13.71    0.68
  -1  -2   7   14.38    0.61
   1  -2  -7   15.39    0.68
  -1  -2   7   13.96    0.45
   1  -2  -7   14.78    0.78
   1  -2  -7   13.70    0.70
  -1  -2   7   14.31    0.64
  -2   2   6  121.84    3.04
  -2   2   6  117.91    3.15
   2   2  -6  119.83    2.96
  -2   2   6  120.05    3.20
   2   2  -6  120.50    3.14
  -2   2   6  118.71    3.14
   2   2  -6  120.64    3.14
  -2   2   6  123.70    3.24
  -2   2   6  119.21    3.05
  -2   2   6  124.42    3.27
   2  -2  -6  119.12    3.14
  -2  -2   6  122.25    3.14
   2  -2  -6  119.60    3.11
  -2  -2   6  118.14    3.06
  -2  -2   6  122.73    3.09
  -2  -2   6  123.49    3.21
  -2  -2   6  120.57    3.12
   2  -2  -6  118.77    3.24
   2  -2  -6  122.19    3.21
  -3   2   5   80.88    2.25
   3   2  -5   80.40    2.19
  -3   2   5   82.29    2.32
   3   2  -5   79.89    2.24
  -3   2   5   82.17    2.30
  -3   2   5   82.02    2.28
  -3   2   5   81.75    2.10
   3  -2  -5   80.59    2.27
  -3  -2   5   81.37    2.15
  -3  -2   5   83.49    2.31
  -3  -2   5   83.42    2.19
   3  -2  -5   80.67    2.22
  -3  -2   5   80.58    2.20
   3  -2  -5   82.14    2.30
  -3  -2   5   80.64    2.17
   4   2  -4   94.09    2.54
   4   2  -4   93.66    2.60
   4   2  -4   94.04    2.51
  -4   2   4   95.83    2.61
   4   2  -4   93.06    2.69
   4   2  -4   93.37    2.32
  -4   2   4   94.57    2.65
  -4  -2   4   97.58    2.44
  -4  -2   4   97.15    2.53
   4  -2  -4   93.49    2.52
   4  -2  -4   91.62    2.62
  -4  -2   4   97.43    2.56
   4  -2  -4   94.59    2.34
   4  -2  -4   94.74    2.61
  -4  -2   4   97.44    2.32
   5   2  -3  176.13    4.39
  -5   2   3  175.17    4.51
   5   2  -3  175.19    4.44
  -5   2   3  179.20    4.46
   5   2  -3  174.48    4.56
   5   2  -3  166.35    4.19
  -5  -2   3  173.35    4.40
   5  -2  -3  171.63    4.46
  -5  -2   3  166.85    4.16
   5  -2  -3  168.21    4.17
   5  -2  -3  168.22    4.48
  -5  -2   3  171.17    4.36
  -5  -2   3  169.71    4.20
  -6   2   2   25.96    1.32
   6   2  -2   29.91    1.14
  -6   2   2   31.73    1.17
   6   2  -2   28.77    0.98
  -6   2   2   28.98    1.05
   6   2  -2   30.06    1.22
   6   2  -2   30.03    1.19
  -6  -2   2   30.03    1.10
  -6  -2   2   30.69    1.13
   6  -2  -2   29.18    0.86
  -6  -2   2   29.07    0.93
   6  -2  -2   30.93    1.03
   6  -2  -2   30.64    1.22
   6  -2  -2   30.10    1.31
  -7   2   1  135.78    3.77
   7   2  -1  139.88    3.61
  -7   2   1  139.33    3.88
   7   2  -1  140.60    3.91
   7   2  -1  138.11    3.82
   7   2  -1  137.32    3.87
  -7  -2   1  144.23    3.88
   7  -2  -1  138.28    3.63
   7  -2  -1  141.21    3.89
   7  -2  -1  141.42    4.01
  -7  -2   1  133.66    3.86
  -7  -2   1  135.25    3.54
   8   2   0   91.35    2.95
  -8   2   0   90.12    2.78
   8   2   0   90.96    2.62
  -8   2   0   88.23    2.83
   8   2   0   94.48    3.24
   8   2   0   88.41    2.82
   8  -2   0   93.51    2.96
   8  -2   0   95.42    2.94
  -8  -2   0   93.05    2.91
   8  -2   0   89.72    2.62
   9   2   1    4.42    0.70
  -9   2  -1    3.07    0.61
   9   2   1    3.76    0.53
   9   2   1    3.21    0.65
  -9  -2  -1    3.97    0.81
   9  -2   1    3.94    0.67
   9  -2   1    3.14    0.72
  10   2   2    2.52    0.72
  10   2   2    1.69    0.59
  10   2   2    0.72    0.70
 -10  -2  -2    3.36    0.97
  10  -2   2    1.06    0.68
  10  -2   2    1.58    0.79
   4   3  12    1.11    0.92
   4   3  12    0.86    0.58
   4   3  12    0.02    0.70
  -4   3 -12    0.72    1.08
   4  -3  12    0.33    0.86
  -4  -3 -12   -2.10    1.27
  -4  -3 -12    1.20    1.31
   3   3  11    7.85    0.96
  -3   3 -11    9.80    1.38
   3   3  11    6.42    0.94
   3   3  11    8.00    0.72
  -3  -3 -11    6.57    0.99
   3  -3  11    7.32    0.82
   3  -3  11    8.77    1.07
  -3  -3 -11    9.62    1.41
  -2   3 -10    3.08    0.65
  -2   3 -10    2.42    0.44
   2   3  10    2.42    0.39
  -2   3 -10    2.18    0.31
   2   3  10    2.32    0.41
   2   3  10    2.06    0.49
   2   3  10    2.49    0.32
   2  -3  10    1.63    0.41
   2  -3  10    2.44    0.55
  -2  -3 -10    1.45    0.79
   2  -3  10    2.48    0.48
  -2  -3 -10    2.54    0.69
  -1   3  -9   55.50    1.76
   1   3   9   55.82    1.73
   1   3   9   53.14    1.70
   1   3   9   56.11    1.51
  -1   3  -9   55.46    1.51
   1   3   9   54.03    1.86
  -1   3  -9   53.40    1.78
  -1   3  -9   57.38    1.91
   1   3   9   55.52    1.81
  -1  -3  -9   56.05    2.16
  -1  -3  -9   54.21    2.30
   1  -3   9   55.02    1.84
   1  -3   9   54.63    1.74
   1  -3   9   53.99    2.05
   0   3  -8   12.72    0.72
   0   3   8   13.94    0.70
   0   3  -8   13.61    0.47
   0   3  -8   13.32    0.68
   0   3   8   13.04    0.85
   0   3   8   12.71    0.70
   0   3  -8   12.61    0.66
   0   3   8   12.75    0.71
   0   3   8   13.01    0.66
   0  -3  -8   11.72    0.99
   0  -3  -8   12.79    0.93
   0  -3  -8   13.18    0.82
   0  -3   8   12.05    0.75
   0  -3  -8   12.14    0.72
   0  -3   8   12.65    0.73
   0  -3   8   12.68    0.70
  -1   3   7   46.72    1.60
   1   3  -7   46.91    1.43
  -1   3   7   47.71    1.52
  -1   3   7   48.01    1.61
   1   3  -7   44.28    1.39
   1   3  -7   47.26    1.16
   1   3  -7   44.20    1.32
   1   3  -7   46.64    1.40
  -1   3   7   48.59    1.42
  -1   3   7   47.29    1.45
  -1   3   7   48.28    1.51
  -1   3   7   48.16    1.47
   1   3  -7   48.11    1.47
  -1  -3   7   45.83    1.36
  -1  -3   7   47.80    1.37
   1  -3  -7   46.60    1.53
  -1  -3   7   44.95    1.52
   1  -3  -7   44.70    1.59
   1  -3  -7   46.20    1.60
  -1  -3   7   45.87    1.48
   1  -3  -7   44.02    1.56
  -1  -3   7   46.82    1.44
  -2   3   6    4.34    0.46
   2   3  -6    4.09    0.32
  -2   3   6    4.08    0.36
  -2   3   6    4.85    0.45
  -2   3   6    4.12    0.30
  -2   3   6    5.18    0.42
  -2   3   6    4.73    0.45
  -2   3   6    4.69    0.44
   2   3  -6    5.01    0.42
  -2  -3   6    3.48    0.37
   2  -3  -6    3.09    0.45
   2  -3  -6    3.19    0.45
  -2  -3   6    3.39    0.29
  -2  -3   6    3.55    0.41
   2  -3  -6    3.75    0.44
  -2  -3   6    3.55    0.35
  -2  -3   6    3.82    0.28
  -2  -3   6    3.62    0.34
   3   3  -5   19.35    0.74
  -3   3   5   18.35    0.82
  -3   3   5   18.96    1.11
   3   3  -5   17.37    0.66
   3   3  -5   18.66    0.92
  -3   3   5   19.16    0.78
  -3   3   5   19.19    0.64
   3   3  -5   19.70    0.71
   3   3  -5   19.52    0.83
  -3   3   5   18.84    0.82
  -3   3   5   19.16    0.85
   3  -3  -5   18.30    0.81
  -3  -3   5   19.22    0.73
  -3  -3   5   18.22    0.70
  -3  -3   5   18.29    0.65
   3  -3  -5   18.57    0.84
   3  -3  -5   17.88    0.68
  -3  -3   5   18.40    0.69
   3  -3  -5   18.56    0.84
  -3  -3   5   18.91    0.67
  -4   3   4  120.90    3.30
   4   3  -4  117.81    2.93
   4   3  -4  123.04    3.15
   4   3  -4  124.34    3.31
   4   3  -4  120.90    3.44
  -4   3   4  122.63    3.27
   4   3  -4  121.74    3.10
   4  -3  -4  119.81    3.26
   4  -3  -4  116.24    2.92
   4  -3  -4  117.76    3.24
  -4  -3   4  125.83    3.10
   4  -3  -4  123.71    3.28
  -4  -3   4  121.82    3.00
  -4  -3   4  123.75    3.13
  -4  -3   4  123.16    3.14
  -5   3   3  223.84    5.86
   5   3  -3  225.00    5.51
   5   3  -3  232.59    5.77
   5   3  -3  229.16    6.03
   5   3  -3  232.86    5.70
  -5   3   3  232.06    5.82
   5  -3  -3  231.52    5.78
  -5  -3   3  233.06    5.72
  -5  -3   3  231.83    5.56
   5  -3  -3  227.79    5.43
  -5  -3   3  231.99    5.70
  -5  -3   3  235.97    5.58
   5  -3  -3  219.56    5.38
   5  -3  -3  230.41    5.86
   5  -3  -3  233.04    5.84
  -6   3   2   25.13    1.12
  -6   3   2   23.31    1.01
  -6   3   2   25.77    1.08
   6   3  -2   25.26    1.04
   6   3  -2   24.21    1.20
   6   3  -2   25.82    0.87
   6   3  -2   25.84    1.09
  -6  -3   2   25.34    0.88
   6  -3  -2   25.41    0.79
  -6  -3   2   26.80    1.22
  -6  -3   2   26.40    0.82
   6  -3  -2   26.27    1.04
   6  -3  -2   25.13    1.11
  -6  -3   2   23.15    1.01
   6  -3  -2   24.80    0.73
  -6  -3   2   24.99    0.99
   6  -3  -2   25.54    1.15
   7   3  -1   14.35    0.69
   7   3  -1   15.21    0.94
  -7   3   1   14.79    0.84
   7   3  -1   13.42    1.23
   7   3  -1   13.46    0.86
   7  -3  -1   13.71    0.93
  -7  -3   1   13.77    0.54
  -7  -3   1   13.78    1.09
   7  -3  -1   13.38    1.08
  -7  -3   1   12.67    0.69
   7  -3  -1   13.85    0.64
   8   3   0   50.76    1.64
   8   3   0   42.45    2.12
  -8   3   0   51.72    1.90
  -8   3   0   48.58    1.79
   8   3   0   50.76    1.89
   8  -3   0   51.85    2.03
  -8  -3   0   51.16    2.00
   8  -3   0   50.39    1.93
   8  -3   0   48.51    1.53
   9   3   1    0.41    0.38
   9   3   1    0.53    0.52
   9   3   1    1.18    0.56
   9  -3   1    0.27    0.58
  -9  -3  -1    1.81    0.77
   9  -3   1    0.26    0.54
  10   3   2    4.70    0.92
  10   3   2    6.43    0.96
  10   3   2    5.14    0.91
  10  -3   2    6.19    0.94
 -10  -3  -2    7.27    1.50
   3   4  11   -0.45    0.42
  -3   4 -11    0.70    0.95
   3   4  11    0.12    0.56
   3   4  11   -0.19    0.50
  -3  -4 -11    1.92    0.94
  -3  -4 -11    0.55    1.16
   3  -4  11    0.54    0.68
  -2   4 -10    8.79    1.03
   2   4  10    9.01    0.86
   2   4  10    7.92    0.67
   2   4  10    8.68    0.92
   2   4  10    9.50    0.49
  -2  -4 -10    9.14    1.33
  -2  -4 -10    8.53    1.02
   2  -4  10    8.09    0.96
   2  -4  10    9.84    0.82
  -1   4  -9   10.21    0.69
   1   4   9    9.35    0.69
   1   4   9    9.50    0.48
   1   4   9    7.83    0.67
  -1   4  -9    8.77    0.83
   1   4   9    8.67    0.91
  -1   4  -9    9.04    0.44
  -1   4  -9    9.62    0.68
   1  -4   9    7.73    0.62
  -1  -4  -9   11.36    1.28
   1  -4   9    8.21    0.80
  -1  -4  -9    6.35    0.88
   1  -4   9    9.22    0.71
   0   4  -8    5.11    0.30
   0   4   8    4.75    0.59
   0   4   8    5.02    0.69
   0   4   8    5.65    0.56
   0   4  -8    5.94    0.74
   0   4  -8    6.49    0.57
   0   4  -8    5.01    0.48
   0   4   8    4.71    0.59
   0   4  -8    4.61    0.48
   0   4   8    6.04    0.59
   0  -4   8    4.96    0.62
   0  -4   8    5.34    0.45
   0  -4   8    5.24    0.46
   0  -4  -8    7.89    1.08
   0  -4  -8    5.73    0.68
   0  -4  -8    4.96    0.64
   1   4  -7    4.88    0.37
   1   4  -7    3.95    0.21
  -1   4   7    4.35    0.49
  -1   4   7    3.79    0.50
  -1   4   7    3.77    0.44
   1   4  -7    3.42    0.53
  -1   4   7    4.48    0.53
   1   4  -7    4.69    0.48
   1   4  -7    4.09    0.42
  -1   4   7    4.79    0.48
  -1   4   7    4.50    0.49
  -1   4   7    3.51    0.45
   1  -4  -7    3.81    0.70
  -1  -4   7    3.69    0.46
   1  -4  -7    4.33    0.62
   1  -4  -7    4.10    0.52
  -1  -4   7    4.16    0.34
  -1  -4   7    4.09    0.51
  -1  -4   7    3.42    0.32
  -2   4   6   51.16    1.42
  -2   4   6   50.26    1.70
  -2   4   6   50.39    1.65
   2   4  -6   48.27    1.80
   2   4  -6   51.07    1.52
  -2   4   6   50.21    1.60
  -2   4   6   51.48    1.68
  -2   4   6   50.00    1.60
   2   4  -6   49.53    1.25
   2   4  -6   51.65    1.61
   2   4  -6   48.50    1.50
   2   4  -6   50.36    1.26
  -2   4   6   50.84    1.54
  -2  -4   6   50.95    1.61
  -2  -4   6   49.92    1.43
  -2  -4   6   50.08    1.36
   2  -4  -6   51.89    1.72
   2  -4  -6   53.61    1.96
  -2  -4   6   52.25    1.37
  -2  -4   6   51.01    1.43
   2  -4  -6   49.75    1.61
   3   4  -5    9.66    0.33
   3   4  -5    9.92    0.49
  -3   4   5    8.95    0.37
   3   4  -5    9.10    0.83
   3   4  -5    9.73    0.59
  -3   4   5   10.54    0.64
  -3   4   5    9.64    0.56
  -3   4   5    8.29    0.54
  -3   4   5    9.39    0.59
   3   4  -5    8.97    0.63
  -3   4   5   10.38    0.70
  -3   4   5    9.13    0.59
   3  -4  -5    9.75    0.49
  -3  -4   5    9.39    0.45
   3  -4  -5    9.66    0.71
   3  -4  -5    9.82    0.78
  -3  -4   5    9.23    0.44
  -3  -4   5   11.02    0.58
  -3  -4   5    9.63    0.41
   4   4  -4   60.33    1.70
  -4   4   4   60.40    2.15
  -4   4   4   60.76    1.83
   4   4  -4   58.64    1.86
  -4   4   4   62.29    1.93
   4   4  -4   61.82    1.57
   4   4  -4   60.42    1.64
   4   4  -4   62.11    1.95
  -4   4   4   59.09    1.89
   4  -4  -4   62.69    1.92
  -4  -4   4   61.09    1.67
  -4  -4   4   61.43    1.69
   4  -4  -4   64.26    1.98
  -4  -4   4   60.81    1.67
   4  -4  -4   60.64    1.96
  -4  -4   4   63.19    1.76
   4  -4  -4   58.95    2.02
  -5   4   3  153.28    4.02
   5   4  -3  156.50    3.86
   5   4  -3  153.94    3.93
  -5   4   3  153.01    4.09
   5   4  -3  144.53    4.06
   5   4  -3  149.42    3.72
   5  -4  -3  148.17    4.08
   5  -4  -3  154.51    4.06
   5  -4  -3  152.80    4.09
   5  -4  -3  152.70    3.94
  -5  -4   3  151.44    4.00
  -5  -4   3  148.12    3.93
  -5  -4   3  152.72    4.30
  -5  -4   3  153.71    3.87
  -5  -4   3  151.44    3.81
  -6   4   2   16.52    0.87
  -6   4   2   15.68    0.89
   6   4  -2   16.41    0.66
   6   4  -2   15.95    0.86
   6   4  -2   15.95    0.80
  -6  -4   2   16.33    1.08
   6  -4  -2   15.70    0.56
  -6  -4   2   15.96    0.63
  -6  -4   2   15.38    0.73
   6  -4  -2   16.78    0.92
   6  -4  -2   17.30    0.92
   6  -4  -2   14.26    0.84
   7   4  -1   52.50    1.62
  -7   4   1   54.22    1.91
   7   4  -1   53.72    2.18
   7   4  -1   52.28    1.85
  -7   4   1   53.10    1.82
   7  -4  -1   54.21    1.94
   7  -4  -1   55.22    1.94
   7  -4  -1   53.98    1.38
  -7  -4   1   54.39    1.48
  -7  -4   1   55.15    2.20
   7  -4  -1   57.89    1.91
   8   4   0   39.45    1.68
  -8   4   0   40.49    1.59
   8   4   0   41.53    1.73
   8  -4   0   44.12    1.65
  -8  -4   0   40.99    1.99
   8  -4   0   41.14    1.71
   9   4   1    2.17    0.50
   9   4   1    0.99    0.57
   9   4   1    1.54    0.64
  -9  -4  -1    1.24    0.95
   9  -4   1    0.87    0.49
   9  -4   1    1.96    0.75
  10   4   2    0.87    0.59
  10   4   2    2.42    0.87
  10   4   2   -0.89    0.87
  10  -4   2    0.53    0.94
  10  -4   2    0.66    0.63
 -10  -4  -2    2.67    1.15
  -3   5 -11    0.24    0.88
   3   5  11    0.83    0.64
   3   5  11    1.42    0.60
   3   5  11    0.92    0.90
   3  -5  11    1.17    0.93
  -3  -5 -11    0.01    1.56
   2   5  10   10.73    1.03
   2   5  10    8.24    0.77
   2   5  10    9.33    0.97
  -2   5 -10    8.74    1.18
  -2  -5 -10    9.43    1.45
   2  -5  10    8.33    1.12
   1   5   9   25.22    1.13
  -1   5  -9   23.15    1.55
  -1   5  -9   26.54    1.13
   1   5   9   25.58    1.22
   1   5   9   26.32    1.17
  -1  -5  -9   24.19    1.86
   1  -5   9   26.05    1.36
   0   5  -8   27.89    0.84
   0   5   8   28.78    1.30
   0   5   8   26.94    1.25
   0   5  -8   30.32    1.18
   0   5  -8   29.51    1.15
   0   5   8   28.19    1.14
   0   5   8   28.84    1.23
   0   5   8   28.80    1.19
   0  -5   8   27.96    1.31
   0  -5   8   28.34    0.99
   0  -5  -8   27.70    1.81
   0  -5  -8   30.21    1.39
   0  -5   8   27.90    1.24
   1   5  -7    3.24    0.43
  -1   5   7    3.78    0.56
   1   5  -7    4.24    0.51
  -1   5   7    2.95    0.56
  -1   5   7    3.80    0.50
  -1   5   7    4.57    0.49
   1   5  -7    3.30    0.34
  -1   5   7    3.39    0.37
  -1   5   7    2.58    0.69
   1   5  -7    3.32    0.40
  -1  -5   7    3.06    0.40
  -1  -5   7    3.79    0.35
   1  -5  -7    4.45    0.87
  -1  -5   7    2.76    0.49
   1  -5  -7    3.43    0.56
   2   5  -6    4.63    0.54
  -2   5   6    4.55    0.53
  -2   5   6    4.07    0.57
  -2   5   6    4.78    0.38
   2   5  -6    4.30    0.30
   2   5  -6    4.66    0.33
  -2   5   6    5.10    0.66
  -2   5   6    4.46    0.47
  -2   5   6    4.83    0.53
   2   5  -6    4.48    0.51
   2  -5  -6    5.60    0.82
  -2  -5   6    5.40    0.57
  -2  -5   6    4.43    0.27
   2  -5  -6    5.04    0.62
  -2  -5   6    4.24    0.35
   3   5  -5    1.17    0.35
   3   5  -5    1.02    0.35
   3   5  -5    1.25    0.21
  -3   5   5    1.14    0.32
  -3   5   5    1.17    0.14
  -3   5   5    1.23    0.40
  -3   5   5    0.27    0.27
  -3   5   5    1.10    0.27
  -3   5   5    1.15    0.32
   3  -5  -5    0.76    0.40
   3  -5  -5    1.18    0.49
  -3  -5   5    1.17    0.15
  -3  -5   5    0.99    0.35
  -3  -5   5    0.94    0.17
  -4   5   4    9.29    0.67
   4   5  -4    9.40    0.75
   4   5  -4    8.98    0.45
  -4   5   4    9.71    0.61
  -4   5   4    8.21    0.63
  -4   5   4    8.82    0.63
   4   5  -4   11.10    1.24
   4   5  -4    9.09    0.48
   4   5  -4    9.08    0.43
   4  -5  -4    8.34    0.78
   4  -5  -4    8.58    0.74
   4  -5  -4    7.77    0.77
  -4  -5   4    8.34    0.37
   4  -5  -4    7.44    0.59
  -4  -5   4    7.97    0.37
  -4  -5   4    9.08    0.60
  -4  -5   4    8.12    0.43
   5   5  -3   10.95    0.62
  -5   5   3   10.53    0.73
   5   5  -3   11.99    0.56
   5   5  -3   10.89    0.52
  -5   5   3    8.66    0.81
   5  -5  -3   10.66    0.88
  -5  -5   3   10.95    0.60
  -5  -5   3   10.63    0.54
  -5  -5   3   11.71    0.62
   5  -5  -3   11.70    0.77
  -5  -5   3   12.51    1.06
   5  -5  -3   10.65    0.81
  -6   5   2   13.04    0.85
  -6   5   2   13.19    0.84
   6   5  -2   14.35    0.74
   6   5  -2   13.65    0.83
   6   5  -2   13.74    0.64
   6  -5  -2   13.96    1.01
  -6  -5   2   15.40    0.65
  -6  -5   2   15.10    1.73
   6  -5  -2   12.27    0.61
  -6  -5   2   13.52    0.79
   6  -5  -2   13.33    0.91
   6  -5  -2   13.59    0.98
   7   5  -1    5.23    0.65
   7   5  -1    6.52    0.76
  -7   5   1    5.15    0.73
   7   5  -1    6.75    0.58
  -7   5   1    5.29    0.75
  -7  -5   1    4.11    0.87
  -7  -5   1    5.47    0.47
   7  -5  -1    6.06    0.85
   7  -5  -1    5.07    0.65
   8   5   0    9.23    0.78
   8   5   0    9.55    0.97
   8   5   0    8.52    1.00
  -8  -5   0    6.98    1.13
   8  -5   0    7.49    1.04
   8  -5   0    9.83    0.97
   9   5   1    1.20    0.68
   9   5   1    0.11    0.75
   9   5   1    0.75    0.50
   9  -5   1    0.78    0.58
  -9  -5  -1    0.08    1.01
   9  -5   1    0.67    0.86
   2   6  10    3.71    0.72
  -2   6 -10    3.62    0.84
   2   6  10    3.53    0.63
   2   6  10    2.77    0.74
  -2  -6 -10    3.88    1.61
   2  -6  10    3.49    0.96
   1   6   9    1.24    0.49
   1   6   9    1.61    0.50
  -1   6  -9    0.81    0.52
   1   6   9    1.60    0.46
  -1  -6  -9    0.85    0.98
   1  -6   9    0.93    0.69
   0   6  -8   16.94    0.99
   0   6   8   16.34    0.93
   0   6   8   16.90    1.02
   0   6  -8   15.93    0.81
   0   6  -8   17.13    0.87
   0   6   8   18.04    0.92
   0  -6  -8   14.39    1.56
   0  -6  -8   16.11    1.25
   0  -6   8   16.64    1.17
   1   6  -7    3.87    0.36
  -1   6   7    2.83    0.38
  -1   6   7    2.90    0.45
   1   6  -7    2.84    0.44
   1   6  -7    3.46    0.41
  -1   6   7    3.23    0.56
   1   6  -7    3.90    0.56
  -1   6   7    1.88    0.51
  -1   6   7    4.20    0.60
  -1   6   7    2.23    0.54
  -1  -6   7    2.49    0.25
   1  -6  -7    3.09    0.84
   1  -6  -7    3.66    0.72
  -1  -6   7    3.01    0.41
  -1  -6   7    4.72    0.67
  -2   6   6    3.62    0.47
   2   6  -6    3.45    0.40
  -2   6   6    3.64    0.49
   2   6  -6    3.46    0.45
  -2   6   6    2.67    0.44
  -2   6   6    4.30    0.65
  -2   6   6    3.23    0.47
  -2   6   6    2.90    0.39
   2   6  -6    3.93    0.55
   2  -6  -6    3.02    0.64
   2  -6  -6    4.17    0.83
  -3   6   5    1.85    0.37
  -3   6   5    2.22    0.39
  -3   6   5    2.14    0.33
  -3   6   5    2.01    0.18
  -3   6   5    2.67    0.59
   3   6  -5    2.37    0.43
  -3   6   5    2.87    0.42
   3   6  -5    2.29    0.34
   3  -6  -5    2.72    0.71
  -3  -6   5    1.96    0.46
   3  -6  -5    2.01    0.59
  -4   6   4    8.88    0.82
   4   6  -4    8.54    0.47
  -4   6   4    9.16    0.68
  -4   6   4    9.84    0.69
   4   6  -4   10.48    0.90
  -4   6   4    8.71    0.61
  -4   6   4    8.96    0.94
   4  -6  -4    9.25    0.89
   4  -6  -4    9.45    0.96
  -4  -6   4    9.33    0.69
  -4  -6   4    8.17    0.37
   4  -6  -4    8.44    0.88
  -5   6   3   44.88    1.59
   5   6  -3   44.40    1.32
   5   6  -3   44.51    1.33
  -5   6   3   41.80    1.57
  -5   6   3   43.74    1.59
  -5   6   3   43.47    1.50
   5   6  -3   44.40    2.33
  -5  -6   3   41.18    1.93
   5  -6  -3   42.75    1.59
   5  -6  -3   44.15    1.82
  -5  -6   3   42.13    1.30
   5  -6  -3   43.71    1.49
  -5  -6   3   48.24    1.49
   5  -6  -3   42.69    1.65
   6   6  -2    0.68    0.31
  -6   6   2    1.03    0.42
   6   6  -2    1.47    0.33
   6   6  -2    1.22    0.36
   6  -6  -2    1.38    0.52
   6  -6  -2    0.05    0.48
   6  -6  -2    0.46    0.39
  -6  -6   2    0.57    0.66
  -6  -6   2    1.38    0.33
   7   6  -1   19.68    1.15
   7   6  -1   19.94    1.32
   7  -6  -1   22.82    1.30
  -7  -6   1   24.89    1.72
   7  -6  -1   22.96    1.39
   8   6   0    9.89    0.87
   8   6   0   10.38    1.11
   8   6   0    9.76    1.16
   8  -6   0   14.41    1.19
  -8  -6   0   12.75    1.77
   9   6   1    2.64    0.65
   9   6   1    1.25    1.05
   9   6   1    2.22    1.01
   9  -6   1    0.74    0.80
  -9  -6  -1    2.69    1.40
   1   7   9   16.80    1.17
  -1   7  -9   17.93    2.19
   1   7   9   16.74    1.32
   1   7   9   18.72    1.26
   1  -7   9   13.66    1.52
  -1  -7  -9   17.27    2.38
   0   7   8    1.16    0.48
   0   7  -8    1.08    0.50
   0   7   8    1.17    0.64
   0   7   8    1.08    0.48
   0  -7   8    2.24    0.68
   0  -7  -8    2.67    1.14
   0  -7  -8    2.17    0.81
  -1   7   7    6.62    0.94
  -1   7   7    8.29    0.72
  -1   7   7    8.06    0.71
   1   7  -7    8.01    0.63
   1  -7  -7    6.59    0.90
   1  -7  -7    8.08    1.27
  -1  -7   7    9.81    0.97
   2   7  -6    6.05    0.65
  -2   7   6    6.18    0.59
  -2   7   6    6.65    0.95
  -2   7   6    6.88    0.62
   2   7  -6    6.58    0.84
   2  -7  -6    5.60    0.97
  -2  -7   6    8.07    0.90
   2  -7  -6    5.77    0.85
  -3   7   5    0.65    0.31
  -3   7   5    1.08    0.33
  -3   7   5    1.37    0.61
   3   7  -5    0.37    0.28
  -3   7   5    1.47    0.50
   3  -7  -5    1.53    0.71
   3  -7  -5    1.63    0.68
  -3  -7   5    0.48    0.49
  -4   7   4    6.57    0.89
  -4   7   4    5.78    0.63
  -4   7   4    6.12    0.57
  -4   7   4    7.60    0.87
   4   7  -4    4.50    0.67
   4   7  -4    6.41    0.51
  -4  -7   4    6.22    0.71
   4  -7  -4    6.82    0.90
   4  -7  -4    6.62    0.88
   5   7  -3    0.02    0.28
   5   7  -3   -0.39    0.56
  -5   7   3    0.09    0.37
  -5  -7   3    1.23    0.46
   5  -7  -3    0.76    0.54
   5  -7  -3   -0.66    0.56
  -5  -7   3    0.11    0.74
   6   7  -2   -0.05    0.36
  -6   7   2    0.28    0.42
  -6   7   2    0.35    0.45
   6   7  -2    0.01    0.32
   6  -7  -2   -0.88    0.60
  -6  -7   2    0.05    0.84
   7   7  -1    1.44    0.56
   7   7  -1    1.86    0.47
   7  -7  -1    3.57    0.79
  -7  -7   1    1.86    0.98
   8   7   0    4.20    0.90
   8   7   0    5.75    0.80
   8   7   0    6.21    0.92
   8  -7   0    4.21    0.97
  -8  -7   0    3.02    1.49
   0   8   8    4.73    0.68
   0   8  -8    3.19    0.69
   0   8   8    3.66    1.03
   0   8   8    3.82    0.80
   0  -8  -8    2.67    1.78
   0  -8  -8    4.22    1.15
   0  -8   8    3.73    1.17
   1   8  -7    0.48    0.53
  -1   8   7    0.55    0.44
  -1   8   7    0.60    0.45
  -1   8   7    0.50    0.75
  -1  -8   7    0.69    0.78
   1  -8  -7    1.66    1.18
   1  -8  -7    1.15    0.91
  -2   8   6    1.05    0.46
  -2   8   6    0.47    0.73
  -2   8   6    1.06    0.41
   2   8  -6    0.78    0.51
  -2  -8   6   -0.31    0.62
   2  -8  -6    3.77    1.06
   2  -8  -6    1.85    0.91
  -3   8   5    4.92    0.65
   3   8  -5    4.95    0.70
  -3   8   5    4.99    0.59
  -3   8   5    6.02    1.02
  -3  -8   5    8.03    1.00
   3  -8  -5    5.68    1.01
   3  -8  -5    4.77    0.99
  -4   8   4    4.29    0.64
   4   8  -4    3.17    0.45
   4   8  -4    2.37    0.66
  -4   8   4    3.35    0.87
   4  -8  -4    3.27    0.96
  -4  -8   4    3.51    0.64
   5   8  -3    6.11    0.78
  -5   8   3    6.97    1.09
  -5   8   3    5.49    0.76
  -5   8   3    6.26    0.78
   5   8  -3    5.85    0.86
   5  -8  -3    6.67    1.05
  -6   8   2    2.93    0.59
  -6   8   2    1.96    0.50
   6   8  -2    2.01    0.87
   6   8  -2    3.30    0.54
  -6  -8   2    3.26    1.27
   6  -8  -2    1.76    0.98
   4   0  13    7.04    0.95
   4   0  13    3.95    0.90
  -4   0 -13    4.15    1.42
  -4   0 -13    6.63    1.86
   3   0  12    0.08    0.53
   3   0  12    0.04    0.51
   3   0  12    0.63    0.42
  -3   0 -12    0.60    0.80
   2   0  11    2.41    0.38
  -2   0 -11    3.71    0.76
   2   0  11    2.43    0.49
  -2   0 -11    2.20    0.47
   2   0  11    2.41    0.46
   2   0  11    3.69    0.88
  -1   0 -10   22.79    0.96
  -1   0 -10   25.83    1.55
   1   0  10   25.97    0.90
  -1   0 -10   22.71    1.11
  -1   0 -10   23.64    1.32
   1   0  10   24.66    1.06
   1   0  10   25.56    1.12
   1   0  10   23.39    0.92
   0   0   9   74.21    2.01
   0   0   9   72.06    2.19
   0   0  -9   71.08    2.24
   0   0  -9   71.08    2.18
   0   0  -9   71.12    2.06
   0   0   9   71.18    2.11
   0   0   9   73.63    1.93
   0   0  -9   74.48    2.29
  -1   0   8   17.88    0.69
   1   0  -8   18.50    0.71
  -1   0   8   18.33    0.85
   1   0  -8   16.85    0.80
  -1   0   8   18.49    0.61
  -1   0   8   18.75    0.78
   1   0  -8   18.52    0.83
  -1   0   8   17.40    0.77
   1   0  -8   17.72    0.53
   1   0  -8   17.26    0.84
  -2   0   7  207.03    5.24
   2   0  -7  212.45    5.31
   2   0  -7  216.28    5.37
  -2   0   7  211.98    5.48
   2   0  -7  211.46    5.23
  -2   0   7  209.55    5.16
   2   0  -7  206.46    5.06
  -2   0   7  216.03    5.35
  -2   0   7  212.92    5.26
   3   0  -6    7.02    0.48
  -3   0   6    6.76    0.47
  -3   0   6    6.91    0.43
  -3   0   6    6.44    0.48
   3   0  -6    6.80    0.39
  -3   0   6    6.84    0.35
  -3   0   6    6.93    0.48
  -3   0   6    7.01    0.47
  -4   0   5   56.91    1.74
   4   0  -5   56.51    1.62
   4   0  -5   56.67    1.73
   4   0  -5   57.31    1.71
  -4   0   5   59.38    1.73
   5   0  -4   59.22    1.87
  -5   0   4   62.79    1.88
  -5   0   4   62.47    1.65
   5   0  -4   60.32    1.84
  -5   0   4   60.34    1.82
   5   0  -4   61.99    1.77
   6   0  -3    2.53    0.41
   6   0  -3    1.63    0.32
  -6   0   3    2.35    0.37
  -6   0   3    2.05    0.35
  -6   0   3    2.41    0.26
   6   0  -3    2.25    0.32
   7   0  -2   14.14    0.81
   7   0  -2   14.05    0.71
  -7   0   2   14.29    0.60
  -7   0   2   12.60    0.80
   7   0  -2   15.04    0.74
   7   0  -2   13.55    0.88
  -7   0   2   14.07    0.79
   8   0  -1    1.61    0.47
   8   0  -1    2.03    0.39
   8   0  -1    1.76    0.47
  -8   0   1    1.40    0.45
   8   0  -1    1.64    0.43
   8   0  -1    1.35    0.35
   9   0   0    0.35    0.43
   9   0   0    1.69    0.55
   9   0   0    0.76    0.49
   9   0   0   -0.04    0.36
  10   0   1    9.61    1.45
  10   0   1    7.07    0.89
  10   0   1    8.97    1.15
  11   0   2    1.30    0.74
  11   0   2    1.34    0.94
  11   0   2    1.74    0.89
   3   1  12    1.34    0.39
   3   1  12    1.14    0.61
   3   1  12    1.53    0.57
  -3   1 -12    1.96    0.82
   3   1  12    0.61    0.51
  -3  -1 -12    1.08    0.86
  -3  -1 -12    0.90    1.01
   3  -1  12    1.45    0.45
   3  -1  12    1.66    0.55
   3  -1  12    1.62    0.60
   2   1  11   16.89    1.05
  -2   1 -11   15.57    1.31
   2   1  11   15.25    1.00
   2   1  11   14.88    0.77
  -2   1 -11   16.27    1.01
   2   1  11   16.12    0.81
   2  -1  11   15.86    1.04
  -2  -1 -11   18.23    1.50
   2  -1  11   13.90    0.95
   2  -1  11   16.59    0.95
   2  -1  11   16.45    0.82
   1   1  10   64.90    2.10
   1   1  10   64.29    1.80
  -1   1 -10   61.45    2.01
  -1   1 -10   62.99    2.10
   1   1  10   64.26    2.04
  -1   1 -10   61.99    1.84
   1   1  10   64.02    1.83
  -1   1 -10   65.25    2.27
   1  -1  10   62.55    1.82
   1  -1  10   64.86    2.01
  -1  -1 -10   65.09    2.17
  -1  -1 -10   62.14    2.30
   1  -1  10   64.64    2.20
   1  -1  10   63.62    1.92
   0   1   9    4.29    0.38
   0   1   9    4.56    0.29
   0   1  -9    5.12    0.50
   0   1   9    4.55    0.51
   0   1  -9    4.38    0.59
   0   1   9    4.38    0.52
   0   1   9    5.68    0.41
   0   1  -9    4.64    0.38
   0  -1  -9    4.86    0.48
   0  -1   9    5.00    0.65
   0  -1  -9    4.83    0.70
   0  -1   9    4.83    0.36
   0  -1  -9    4.45    0.57
   0  -1  -9    3.32    0.45
   0  -1   9    4.77    0.45
   0  -1   9    5.46    0.50
  -1   1   8   53.18    1.60
   1   1  -8   54.68    1.66
  -1   1   8   53.22    1.63
  -1   1   8   52.10    1.67
  -1   1   8   52.49    1.56
  -1   1   8   50.62    1.48
   1   1  -8   52.49    1.69
   1   1  -8   56.68    1.66
   1   1  -8   53.98    1.46
  -1  -1   8   52.30    1.63
  -1  -1   8   54.91    1.56
   1  -1  -8   53.98    1.72
   1  -1  -8   54.33    1.74
  -1  -1   8   55.78    1.60
   1  -1  -8   49.09    1.59
  -1  -1   8   51.43    1.44
   1  -1  -8   53.07    1.61
   1  -1  -8   52.13    1.67
  -2   1   7  108.20    2.82
   2   1  -7  108.31    2.96
  -2   1   7  107.72    2.99
  -2   1   7  106.44    2.90
  -2   1   7  107.88    3.02
  -2   1   7  109.10    2.85
  -2   1   7  107.33    2.95
   2   1  -7  110.58    2.88
  -2  -1   7  112.32    2.98
   2  -1  -7  112.18    2.81
  -2  -1   7  110.15    2.94
  -2  -1   7  109.42    2.90
   2  -1  -7  112.81    3.03
  -2  -1   7  108.47    3.05
  -2  -1   7  111.75    2.83
   2  -1  -7  110.46    2.88
  -2  -1   7  108.37    2.87
  -2  -1   7  109.69    2.62
   2  -1  -7  110.78    2.97
  -3   1   6  281.45    6.71
   3   1  -6  279.82    6.76
  -3   1   6  272.30    6.79
  -3   1   6  292.05    6.87
  -3   1   6  278.35    6.84
  -3   1   6  283.37    6.89
   3   1  -6  281.56    6.81
  -3   1   6  269.52    6.71
  -3  -1   6  287.54    6.83
  -3  -1   6  278.79    6.76
  -3  -1   6  269.31    6.67
   3  -1  -6  277.41    6.66
  -3  -1   6  278.78    6.80
   3  -1  -6  276.72    6.86
   3  -1  -6  268.73    6.66
  -3  -1   6  276.80    6.79
  -3  -1   6  270.84    6.77
  -3  -1   6  265.15    6.48
   4   1  -5  144.17    3.62
   4   1  -5  140.51    3.65
  -4   1   5  141.05    3.53
  -4   1   5  144.43    3.69
  -4   1   5  145.28    3.73
   4   1  -5  144.02    3.63
  -4  -1   5  132.73    3.41
  -4  -1   5  141.59    3.76
  -4  -1   5  138.68    3.62
   4  -1  -5  140.03    3.49
   4  -1  -5  135.38    3.69
   4  -1  -5  136.74    3.66
   5   1  -4   65.20    1.95
   5   1  -4   67.29    1.99
   5   1  -4   66.04    1.98
   5   1  -4   66.97    1.95
  -5   1   4   65.64    1.84
  -5   1   4   65.29    2.02
  -5   1   4   67.35    1.99
   5  -1  -4   66.75    2.04
  -5  -1   4   68.09    2.00
  -5  -1   4   66.83    1.95
   5  -1  -4   68.31    1.83
   5  -1  -4   64.83    1.98
  -5  -1   4   67.65    1.72
   6   1  -3   79.85    2.16
  -6   1   3   77.19    2.32
   6   1  -3   79.26    2.38
   6   1  -3   78.75    2.33
   6   1  -3   78.44    2.32
  -6   1   3   83.60    2.42
  -6   1   3   78.61    2.24
   6  -1  -3   81.29    2.38
  -6  -1   3   78.76    2.35
   6  -1  -3   79.19    2.42
  -6  -1   3   76.37    2.29
  -6  -1   3   81.84    2.07
  -7   1   2    4.85    0.61
  -7   1   2    5.64    0.46
   7   1  -2    5.44    0.62
   7   1  -2    6.06    0.67
  -7   1   2    5.45    0.59
   7   1  -2    5.74    0.54
   7   1  -2    5.96    0.51
   7  -1  -2    6.42    0.68
  -7  -1   2    7.60    0.40
   7  -1  -2    6.59    0.66
   7  -1  -2    6.89    0.43
  -7  -1   2    5.80    0.57
  -7  -1   2    5.93    0.61
   8   1  -1   25.63    1.32
   8   1  -1   24.73    1.07
   8   1  -1   25.05    1.09
  -8   1   1   23.42    1.19
   8   1  -1   25.65    1.26
   8  -1  -1   26.04    1.14
   8  -1  -1   27.22    1.32
   8  -1  -1   24.30    0.85
   8  -1  -1   24.35    1.28
   9   1   0    7.36    0.73
   9   1   0    7.68    1.00
   9   1   0    7.95    0.78
   9   1   0    6.46    0.90
  -9   1   0    7.95    0.91
   9  -1   0    7.65    0.96
   9  -1   0    6.83    0.96
  10   1   1    6.27    0.82
  10   1   1    6.08    0.86
  10   1   1    5.36    0.79
  10  -1   1    4.78    0.80
  10  -1   1    7.50    0.99
  11   1   2    1.86    0.95
  11   1   2    1.05    0.72
  11   1   2    2.34    0.88
  11  -1   2   -0.20    0.92
  11  -1   2   -0.96    0.74
   3   2  12    0.15    0.38
   3   2  12    0.93    0.58
   3   2  12   -0.22    0.61
  -3   2 -12    1.00    0.89
   3  -2  12    1.26    0.62
   3  -2  12    0.95    0.57
   3  -2  12    0.43    0.64
  -3  -2 -12   -0.16    1.10
  -3  -2 -12    0.60    0.79
   2   2  11   13.42    1.04
  -2   2 -11   13.32    1.24
   2   2  11   10.84    0.91
   2   2  11   12.26    0.72
   2   2  11   12.14    0.69
  -2   2 -11   12.12    1.00
   2  -2  11   11.35    0.91
   2  -2  11   11.40    0.74
  -2  -2 -11   13.85    1.30
  -2  -2 -11   13.39    1.48
   2  -2  11   11.60    1.03
   2  -2  11   11.20    1.08
   1   2  10    0.03    0.23
   1   2  10    0.04    0.32
   1   2  10    0.45    0.28
  -1   2 -10    0.65    0.37
   1   2  10    0.16    0.31
  -1   2 -10   -0.31    0.36
   1   2  10    0.46    0.23
  -1   2 -10    0.52    0.50
  -1   2 -10   -0.38    0.22
   1  -2  10   -0.18    0.28
   1  -2  10   -0.15    0.31
   1  -2  10    0.59    0.35
   1  -2  10   -0.14    0.24
  -1  -2 -10   -0.51    0.47
   0   2   9    0.95    0.32
   0   2   9    0.66    0.22
   0   2  -9    0.78    0.25
   0   2  -9    0.37    0.32
   0   2   9    0.57    0.29
   0   2  -9    0.81    0.28
   0   2   9    0.29    0.23
   0   2   9    0.59    0.20
   0   2  -9    0.77    0.30
   0  -2   9    0.57    0.24
   0  -2   9    0.85    0.33
   0  -2  -9    1.15    0.39
   0  -2   9    0.72    0.27
   0  -2   9    0.80    0.28
   0  -2  -9    0.54    0.39
   0  -2  -9    1.22    0.37
   1   2  -8   52.85    1.62
   1   2  -8   52.53    1.37
   1   2  -8   53.58    1.67
  -1   2   8   52.38    1.50
  -1   2   8   54.44    1.71
  -1   2   8   51.58    1.58
  -1   2   8   50.46    1.61
   1   2  -8   53.01    1.64
  -1   2   8   52.93    1.57
   1  -2  -8   53.71    1.75
   1  -2  -8   53.89    1.59
  -1  -2   8   52.09    1.37
   1  -2  -8   51.12    1.87
   1  -2  -8   53.08    1.68
  -1  -2   8   53.53    1.60
  -1  -2   8   50.27    1.66
  -1  -2   8   52.24    1.69
   1  -2  -8   53.99    1.78
  -1  -2   8   52.05    1.58
  -1  -2   8   53.46    1.58
  -2   2   7  131.50    3.45
  -2   2   7  129.41    3.25
   2   2  -7  128.06    3.33
  -2   2   7  124.30    3.32
  -2   2   7  128.31    3.34
   2   2  -7  123.50    3.09
  -2   2   7  125.31    3.39
   2   2  -7  126.48    3.35
  -2   2   7  132.94    3.52
  -2  -2   7  126.01    3.39
   2  -2  -7  129.13    3.34
   2  -2  -7  125.78    3.46
  -2  -2   7  126.04    3.33
   2  -2  -7  127.24    3.41
  -2  -2   7  123.18    3.34
   2  -2  -7  127.35    3.32
  -2  -2   7  130.12    3.29
  -2  -2   7  126.52    3.27
  -3   2   6  115.61    3.09
  -3   2   6  116.11    3.19
  -3   2   6  116.52    3.16
  -3   2   6  116.76    3.10
  -3   2   6  117.96    2.96
   3   2  -6  117.51    3.09
  -3   2   6  113.98    3.14
  -3  -2   6  119.49    3.01
  -3  -2   6  116.72    3.05
  -3  -2   6  114.74    3.02
   3  -2  -6  116.54    2.96
  -3  -2   6  117.59    3.08
   3  -2  -6  119.77    3.07
  -3  -2   6  115.43    3.15
  -4   2   5   85.32    2.36
  -4   2   5   82.67    2.38
   4   2  -5   81.69    2.27
   4   2  -5   82.76    2.24
  -4   2   5   81.28    2.38
   4   2  -5   82.30    2.32
   4   2  -5   77.00    2.38
  -4   2   5   81.05    2.13
   4  -2  -5   82.86    2.35
  -4  -2   5   85.09    2.18
   4  -2  -5   83.98    2.25
   4  -2  -5   80.09    2.38
  -4  -2   5   82.98    2.26
  -4  -2   5   77.51    2.28
  -4  -2   5   82.12    2.28
  -4  -2   5   84.45    1.98
   5   2  -4    4.24    0.49
   5   2  -4    5.35    0.45
  -5   2   4    4.38    0.49
   5   2  -4    3.77    0.48
   5   2  -4    4.64    0.44
  -5   2   4    5.51    0.50
   5   2  -4    4.86    0.35
  -5  -2   4    4.21    0.42
  -5  -2   4    3.83    0.43
  -5  -2   4    4.69    0.33
   5  -2  -4    3.76    0.29
   5  -2  -4    3.90    0.48
  -6   2   3    5.17    0.49
   6   2  -3    4.36    0.59
   6   2  -3    4.61    0.52
  -6   2   3    4.91    0.59
   6   2  -3    4.53    0.39
  -6   2   3    5.21    0.53
   6   2  -3    5.42    0.55
  -6  -2   3    6.02    0.49
  -6  -2   3    5.77    0.33
   6  -2  -3    5.67    0.46
  -6  -2   3    6.75    0.54
   6  -2  -3    4.79    0.53
   6  -2  -3    6.57    0.72
   7   2  -2   40.96    1.31
  -7   2   2   40.08    1.48
   7   2  -2   40.24    1.51
   7   2  -2   40.95    1.50
  -7   2   2   39.61    1.54
   7   2  -2   41.80    1.56
  -7  -2   2   39.58    1.86
   7  -2  -2   41.84    1.55
  -7  -2   2   40.98    1.23
   7  -2  -2   39.07    1.10
   7  -2  -2   39.51    1.61
   7  -2  -2   39.25    1.31
   8   2  -1   24.95    1.32
   8   2  -1   26.91    1.06
   8   2  -1   25.11    1.27
  -8   2   1   25.02    1.24
  -8   2   1   26.42    1.26
   8   2  -1   26.04    1.20
   8  -2  -1   26.87    1.05
  -8  -2   1   25.56    1.23
   8  -2  -1   26.84    1.34
   8  -2  -1   23.37    1.31
   9   2   0    6.08    0.71
   9   2   0    8.40    0.99
  -9   2   0    8.49    0.92
   9   2   0    7.79    0.93
   9  -2   0    8.32    0.80
  -9  -2   0    7.99    0.99
   9  -2   0    7.24    0.97
   9  -2   0    7.62    1.02
  10   2   1    2.11    0.56
  10   2   1    2.56    0.74
  10   2   1    2.70    0.70
  10  -2   1    4.98    0.83
 -10  -2  -1    2.13    0.77
  10  -2   1    3.28    0.77
  11   2   2    0.65    0.69
  11   2   2    1.08    1.04
  11   2   2    0.49    0.81
  11  -2   2   -0.65    0.84
   3   3  12   -0.64    0.62
   3   3  12    0.41    0.61
  -3   3 -12    0.31    0.90
   3   3  12    0.44    0.43
   3  -3  12    0.57    0.77
  -3  -3 -12    2.83    0.95
   3  -3  12    2.10    0.78
  -3  -3 -12   -0.85    1.18
   2   3  11    0.44    0.47
  -2   3 -11    0.53    0.60
   2   3  11    1.01    0.34
   2   3  11    0.70    0.37
   2   3  11    1.01    0.47
  -2  -3 -11    0.42    0.69
  -2  -3 -11    0.49    0.90
   2  -3  11    0.95    0.52
   2  -3  11    0.07    0.45
   1   3  10   26.99    1.18
  -1   3 -10   27.95    1.21
   1   3  10   25.77    1.04
   1   3  10   25.50    0.88
  -1   3 -10   26.73    1.14
   1   3  10   26.32    1.26
  -1   3 -10   26.56    1.35
  -1   3 -10   25.90    0.88
  -1  -3 -10   28.38    1.68
   1  -3  10   27.25    1.09
  -1  -3 -10   25.45    1.68
   1  -3  10   27.22    1.13
   1  -3  10   21.66    1.39
   0   3   9   44.18    1.53
   0   3  -9   44.94    1.56
   0   3   9   47.75    1.50
   0   3  -9   43.73    1.50
   0   3  -9   46.31    1.24
   0   3   9   44.70    1.61
   0   3  -9   43.40    1.52
   0   3   9   44.53    1.44
   0  -3   9   43.72    1.56
   0  -3   9   45.51    1.47
   0  -3  -9   47.78    1.53
   0  -3   9   42.72    1.48
   0  -3  -9   45.88    1.82
  -1   3   8    7.21    0.64
   1   3  -8    7.17    0.50
  -1   3   8    6.41    0.56
  -1   3   8    7.43    0.65
  -1   3   8    6.77    0.54
  -1   3   8    5.73    0.53
   1   3  -8    6.23    0.49
  -1   3   8    6.98    0.54
   1   3  -8    6.79    0.27
   1   3  -8    6.66    0.54
  -1   3   8    6.24    0.48
   1  -3  -8    6.13    0.62
  -1  -3   8    7.79    0.97
   1  -3  -8    7.33    0.65
  -1  -3   8    7.06    0.64
   1  -3  -8    6.38    0.68
   1  -3  -8    7.75    0.73
  -1  -3   8    6.03    0.42
  -1  -3   8    7.19    0.56
  -2   3   7   27.49    0.92
  -2   3   7   29.07    1.11
   2   3  -7   28.21    1.04
  -2   3   7   27.99    1.04
   2   3  -7   27.06    0.96
  -2   3   7   28.47    1.14
   2   3  -7   28.26    0.88
  -2   3   7   28.33    1.16
  -2   3   7   29.04    1.10
  -2   3   7   27.38    0.97
   2  -3  -7   28.90    1.15
  -2  -3   7   28.12    1.01
  -2  -3   7   27.00    0.97
  -2  -3   7   27.46    0.92
  -2  -3   7   29.33    1.04
  -2  -3   7   28.75    1.12
   2  -3  -7   28.63    1.11
  -2  -3   7   28.43    0.93
   2  -3  -7   28.03    1.10
   2  -3  -7   27.76    1.19
  -3   3   6   91.22    2.66
  -3   3   6   92.25    2.65
  -3   3   6   94.78    2.60
  -3   3   6   93.65    2.71
  -3   3   6   93.68    2.41
   3   3  -6   91.56    2.77
   3   3  -6   94.91    2.63
   3   3  -6   95.90    2.57
  -3   3   6   96.54    2.67
  -3  -3   6   93.77    2.47
  -3  -3   6   98.96    2.56
  -3  -3   6   93.73    2.47
   3  -3  -6   94.73    2.52
  -3  -3   6   94.40    2.63
  -3  -3   6   96.23    2.53
   3  -3  -6   95.10    2.66
  -4   3   5   95.65    2.65
  -4   3   5   92.99    2.72
   4   3  -5   94.75    2.29
   4   3  -5   91.51    2.82
   4   3  -5   98.39    2.51
  -4   3   5   99.92    2.70
  -4   3   5   93.61    2.38
   4   3  -5   95.35    2.55
   4   3  -5   97.46    2.70
  -4   3   5   95.64    2.70
   4  -3  -5   94.82    2.69
  -4  -3   5   94.57    2.52
   4  -3  -5   94.54    2.67
  -4  -3   5   92.92    2.33
   4  -3  -5  100.70    2.70
  -4  -3   5   94.18    2.54
  -4  -3   5   94.38    2.92
   4  -3  -5   90.36    2.38
  -4  -3   5   97.26    2.57
   5   3  -4   10.82    0.72
  -5   3   4   12.32    0.70
   5   3  -4   11.12    0.60
   5   3  -4   11.83    0.48
   5   3  -4   11.50    0.64
   5   3  -4   10.30    0.80
  -5   3   4   10.75    0.70
   5  -3  -4   10.47    0.36
   5  -3  -4   10.81    0.69
  -5  -3   4   11.30    0.48
  -5  -3   4   11.50    0.61
   5  -3  -4   10.72    0.65
   5  -3  -4   10.74    0.70
  -5  -3   4   11.53    0.52
  -5  -3   4   10.96    0.58
   6   3  -3  104.87    2.86
  -6   3   3  105.75    3.02
   6   3  -3  103.42    2.92
   6   3  -3  104.92    2.65
  -6   3   3   95.29    2.84
  -6   3   3  101.94    2.92
   6   3  -3   99.80    3.09
  -6  -3   3  104.25    2.68
  -6  -3   3  102.70    2.83
   6  -3  -3  102.55    2.57
   6  -3  -3  105.00    2.98
   6  -3  -3  100.00    2.99
   6  -3  -3  100.03    2.52
   6  -3  -3  107.90    2.88
  -6  -3   3  103.59    2.68
  -7   3   2   30.85    1.25
   7   3  -2   31.69    1.73
   7   3  -2   30.38    1.05
  -7   3   2   30.83    1.36
   7   3  -2   30.43    1.23
   7   3  -2   30.43    1.31
  -7  -3   2   31.13    1.43
   7  -3  -2   31.01    1.32
   7  -3  -2   29.68    1.44
  -7  -3   2   27.97    1.20
  -7  -3   2   28.38    0.92
   8   3  -1   74.59    3.43
  -8   3   1   77.42    2.45
   8   3  -1   78.39    2.26
  -8   3   1   77.82    2.54
   8  -3  -1   78.37    2.58
   8  -3  -1   79.40    2.68
   8  -3  -1   75.17    2.17
  -8  -3   1   79.04    2.63
  -8  -3   1   78.07    2.00
   9   3   0    2.86    0.64
   9   3   0    3.30    0.63
   9   3   0    2.85    0.48
   9  -3   0    2.60    0.67
   9  -3   0    4.03    0.71
  -9  -3   0    2.46    0.79
  10   3   1    3.64    0.78
  10   3   1    4.55    0.67
  10   3   1    4.95    0.90
  10  -3   1    5.35    0.85
 -10  -3  -1    5.16    1.04
  -3   4 -12    2.21    1.09
   3   4  12    2.03    0.90
   3   4  12    2.01    0.70
   3   4  12    3.28    0.63
  -3  -4 -12    4.14    1.58
   3  -4  12    0.76    1.30
  -3  -4 -12    1.28    1.12
   2   4  11    2.51    0.59
   2   4  11    1.66    0.52
  -2   4 -11    2.36    0.73
   2   4  11    1.72    0.44
  -2  -4 -11    3.33    1.07
   2  -4  11    2.83    0.65
  -2  -4 -11    2.58    0.82
   2  -4  11    2.47    0.84
   1   4  10    1.35    0.39
  -1   4 -10    1.06    0.47
   1   4  10    0.96    0.40
   1   4  10    0.22    0.30
   1   4  10    0.70    0.27
  -1  -4 -10    0.27    0.57
   1  -4  10    0.44    0.39
  -1  -4 -10    2.09    0.85
   1  -4  10    1.36    0.54
   0   4   9   16.55    0.86
   0   4   9   15.14    0.91
   0   4   9   13.29    0.98
   0   4  -9   15.43    0.89
   0   4   9   14.69    0.97
   0   4  -9   15.87    0.80
   0   4  -9   15.74    0.54
   0   4  -9   15.62    0.79
   0  -4  -9   14.75    1.36
   0  -4  -9   16.11    0.96
   0  -4   9   15.99    0.80
   0  -4  -9   15.99    1.17
   0  -4   9   15.55    1.03
   0  -4   9   16.80    0.84
   1   4  -8    8.86    0.30
  -1   4   8    7.85    0.70
  -1   4   8    7.10    0.62
  -1   4   8    8.02    0.56
   1   4  -8    9.58    0.63
  -1   4   8    7.90    0.65
  -1   4   8    7.66    0.63
  -1   4   8    7.49    0.60
  -1   4   8    7.08    0.69
   1  -4  -8    7.08    1.01
  -1  -4   8   10.40    0.72
   1  -4  -8    6.68    0.71
  -1  -4   8    8.85    0.49
   1  -4  -8    7.34    0.77
   2   4  -7   15.54    0.79
  -2   4   7   16.58    0.83
   2   4  -7   15.16    1.04
  -2   4   7   16.30    0.91
  -2   4   7   16.97    0.67
  -2   4   7   16.73    0.88
  -2   4   7   16.79    0.78
  -2   4   7   16.97    0.89
   2   4  -7   16.05    0.69
  -2   4   7   16.56    0.79
  -2  -4   7   17.28    0.85
  -2  -4   7   16.64    0.62
  -2  -4   7   17.05    0.83
   2  -4  -7   17.64    0.94
  -2  -4   7   15.86    0.90
  -2  -4   7   17.01    0.62
   2  -4  -7   15.76    0.87
   2  -4  -7   15.34    1.14
  -2  -4   7   16.95    0.69
   3   4  -6   11.98    0.59
  -3   4   6   12.62    0.68
  -3   4   6   10.95    0.71
  -3   4   6   12.04    0.64
  -3   4   6   13.38    0.76
  -3   4   6   11.85    0.54
   3   4  -6   12.93    0.92
  -3   4   6   12.07    0.78
  -3   4   6   11.93    0.71
   3   4  -6   12.42    0.65
   3   4  -6   13.72    0.74
  -3  -4   6   11.89    0.56
  -3  -4   6   12.07    0.55
   3  -4  -6   11.90    0.72
  -3  -4   6   12.66    0.49
   3  -4  -6   13.40    0.96
   3  -4  -6   14.47    0.83
  -3  -4   6   13.28    0.67
  -3  -4   6   12.56    0.54
   4   4  -5   76.21    1.91
   4   4  -5   75.84    2.25
   4   4  -5   77.69    2.35
  -4   4   5   78.27    2.33
   4   4  -5   74.48    2.59
  -4   4   5   78.04    2.31
  -4   4   5   79.99    2.27
  -4   4   5   76.15    2.34
   4   4  -5   75.85    2.28
   4  -4  -5   77.71    2.39
   4  -4  -5   76.85    1.95
   4  -4  -5   81.03    2.46
   4  -4  -5   80.20    2.31
  -4  -4   5   77.33    2.10
   4  -4  -5   78.07    2.32
  -4  -4   5   78.20    2.11
  -4  -4   5   80.54    2.20
  -4  -4   5   80.67    2.08
   5   4  -4   39.58    1.30
   5   4  -4   39.87    1.49
   5   4  -4   40.96    1.10
   5   4  -4   41.09    1.24
   5   4  -4   38.54    1.42
  -5   4   4   40.15    1.41
  -5   4   4   39.34    1.52
  -5  -4   4   37.22    1.24
  -5  -4   4   39.63    1.24
   5  -4  -4   37.87    1.42
   5  -4  -4   37.35    1.38
   5  -4  -4   39.37    1.42
  -5  -4   4   36.54    1.25
   5  -4  -4   36.46    1.44
  -5  -4   4   38.86    1.19
   6   4  -3   29.68    1.12
  -6   4   3   31.87    1.29
   6   4  -3   30.82    0.97
  -6   4   3   30.26    1.22
   6   4  -3   29.85    1.19
  -6  -4   3   30.61    0.98
   6  -4  -3   30.64    1.28
  -6  -4   3   29.16    1.04
   6  -4  -3   27.12    1.23
   6  -4  -3   28.33    1.23
   7   4  -2   35.31    1.17
   7   4  -2   35.55    1.47
   7   4  -2   34.63    1.36
  -7   4   2   34.97    1.42
  -7   4   2   35.48    1.47
  -7  -4   2   35.87    1.08
   7  -4  -2   34.67    1.45
  -7  -4   2   35.77    1.68
   7  -4  -2   36.53    1.44
  -7  -4   2   34.52    1.26
   7  -4  -2   34.99    1.48
   8   4  -1    6.01    0.61
   8   4  -1    4.63    0.68
   8   4  -1    7.21    0.82
  -8   4   1    6.47    0.84
   8  -4  -1    7.61    0.77
  -8  -4   1    6.12    1.17
   8  -4  -1    6.70    0.85
   8  -4  -1    5.30    0.53
  -8  -4   1    6.82    0.44
   9   4   0   11.64    1.08
   9   4   0   13.69    0.98
   9   4   0   13.15    1.10
  -9  -4   0   13.38    1.49
   9  -4   0   11.48    1.25
   9  -4   0   12.47    1.01
  10   4   1    1.08    0.55
  10   4   1    1.08    0.81
  10   4   1    1.18    0.75
  10  -4   1    1.76    0.61
  10  -4   1    1.68    0.90
 -10  -4  -1    1.18    0.98
  -2   5 -11    3.09    0.82
   2   5  11    2.10    0.69
   2   5  11    1.83    0.63
   2   5  11    1.58    0.52
  -2  -5 -11    1.82    1.29
   2  -5  11    2.07    0.85
   1   5  10   14.87    0.63
  -1   5 -10   15.66    1.16
   1   5  10   13.72    1.04
   1   5  10   13.50    0.95
   1   5  10   15.62    0.93
  -1  -5 -10   16.96    1.69
   1  -5  10   15.86    1.19
   0   5  -9    2.70    0.56
   0   5   9    2.27    0.44
   0   5   9    2.36    0.44
   0   5   9    2.49    0.48
   0   5   9    2.98    0.58
   0  -5  -9    2.27    0.63
   0  -5  -9    1.19    0.84
   0  -5   9    2.09    0.37
   0  -5   9    2.59    0.59
   0  -5  -9    2.56    0.56
   1   5  -8    5.22    0.26
  -1   5   8    5.40    0.61
  -1   5   8    4.84    0.68
  -1   5   8    5.01    0.55
   1   5  -8    4.92    0.59
  -1   5   8    5.60    0.82
   1   5  -8    5.07    0.60
   1   5  -8    5.10    0.39
  -1   5   8    3.83    0.56
   1   5  -8    6.33    0.43
  -1  -5   8    5.11    0.39
  -1  -5   8    4.25    0.58
  -1  -5   8    5.06    0.44
   1  -5  -8    5.62    1.15
   1  -5  -8    4.80    0.69
   1  -5  -8    6.05    0.74
  -2   5   7   13.60    0.87
  -2   5   7   14.53    0.72
  -2   5   7   13.82    0.88
   2   5  -7   13.56    0.42
   2   5  -7   14.30    0.80
  -2   5   7   12.91    0.61
  -2   5   7   12.46    1.20
   2   5  -7   13.30    0.45
   2   5  -7   14.48    0.72
  -2   5   7   13.54    0.92
  -2  -5   7   12.97    0.60
  -2  -5   7   13.72    0.52
   2  -5  -7   13.67    1.22
   2  -5  -7   14.78    1.01
  -2  -5   7   14.99    0.87
   3   5  -6   43.15    1.13
  -3   5   6   42.81    1.56
  -3   5   6   44.92    1.71
   3   5  -6   42.68    1.48
  -3   5   6   43.90    1.55
   3   5  -6   45.94    1.57
  -3   5   6   44.79    1.53
  -3   5   6   45.06    1.44
   3  -5  -6   44.12    1.70
  -3  -5   6   43.89    1.26
   3  -5  -6   44.79    1.89
  -3  -5   6   44.25    1.53
  -3  -5   6   42.41    1.20
  -4   5   5   45.90    1.48
  -4   5   5   44.82    1.56
  -4   5   5   45.19    1.55
   4   5  -5   44.71    1.63
   4   5  -5   43.00    1.37
  -4   5   5   43.72    1.57
   4   5  -5   41.86    1.56
   4   5  -5   46.09    1.19
  -4   5   5   45.96    1.73
   4  -5  -5   44.68    1.75
   4  -5  -5   43.43    1.72
  -4  -5   5   44.84    1.19
  -4  -5   5   44.86    1.39
  -4  -5   5   46.50    1.51
  -4  -5   5   43.56    1.27
  -4  -5   5   37.03    1.30
   4  -5  -5   43.80    1.55
  -5   5   4    7.59    0.71
  -5   5   4    7.81    0.68
   5   5  -4    8.28    0.52
   5   5  -4    9.11    0.83
   5   5  -4    8.31    0.58
   5   5  -4    8.56    0.45
  -5   5   4    7.85    0.71
  -5   5   4    7.45    0.63
  -5  -5   4    8.10    0.50
  -5  -5   4    6.78    0.52
   5  -5  -4    7.46    0.78
   5  -5  -4    9.58    0.74
  -5  -5   4    8.24    0.57
   5  -5  -4    7.97    0.72
   5  -5  -4    7.71    0.64
  -6   5   3   19.88    1.05
   6   5  -3   22.15    0.90
   6   5  -3   21.36    0.79
  -6   5   3   20.47    1.04
   6   5  -3   21.59    0.98
   6  -5  -3   21.26    0.97
  -6  -5   3   22.36    0.85
   6  -5  -3   23.22    1.11
  -6  -5   3   20.89    0.92
   6  -5  -3   21.75    0.99
  -7   5   2    5.92    0.81
   7   5  -2    6.20    1.05
  -7   5   2    5.44    0.72
   7   5  -2    6.26    0.73
   7   5  -2    6.37    0.56
  -7  -5   2    5.79    0.46
   7  -5  -2    5.78    0.67
   7  -5  -2    6.38    0.84
  -7  -5   2    7.74    1.03
   7  -5  -2    5.54    0.82
   8   5  -1    1.92    0.49
   8   5  -1    2.83    0.58
   8   5  -1    2.20    0.49
  -8  -5   1    2.82    0.84
   8  -5  -1    2.65    0.58
   8  -5  -1    1.85    0.59
   9   5   0    0.11    0.59
   9   5   0    1.18    0.49
   9   5   0    0.13    0.66
   9  -5   0    1.21    0.62
  -9  -5   0    1.15    1.02
   9  -5   0    0.16    0.70
  10   5   1    4.13    1.08
  10   5   1    1.04    0.65
  10   5   1    0.57    1.04
  10  -5   1    1.73    0.80
 -10  -5  -1    0.77    1.21
   1   6  10    1.73    0.56
   1   6  10    2.36    0.65
   1   6  10    1.42    0.56
  -1   6 -10    1.30    0.63
  -1  -6 -10    0.30    1.21
   1  -6  10    2.09    0.79
   0   6   9    6.99    0.73
   0   6   9    6.23    0.75
   0   6  -9    4.74    0.63
   0   6  -9    7.63    0.68
   0   6   9    5.28    0.74
   0  -6   9    6.67    0.88
   0  -6  -9    5.90    0.81
   0  -6  -9    4.89    1.09
  -1   6   8   28.10    1.22
  -1   6   8   27.88    1.14
   1   6  -8   27.67    0.99
  -1   6   8   28.69    1.33
  -1   6   8   27.42    1.13
   1  -6  -8   30.20    1.86
  -1  -6   8   30.59    1.40
   1  -6  -8   28.30    1.50
   2   6  -7   17.15    0.68
   2   6  -7   19.72    0.93
  -2   6   7   16.34    1.01
  -2   6   7   16.63    0.90
  -2   6   7   16.43    0.70
  -2   6   7   17.39    1.11
  -2   6   7   17.13    0.96
   2   6  -7   18.54    1.09
  -2   6   7   17.30    0.90
   2  -6  -7   16.83    1.44
  -2  -6   7   16.38    0.56
   2  -6  -7   17.46    1.20
  -2  -6   7   16.41    0.64
  -2  -6   7   16.60    0.99
  -3   6   6    6.04    0.81
  -3   6   6    5.89    0.59
   3   6  -6    5.57    0.86
  -3   6   6    6.12    0.35
   3   6  -6    6.52    0.39
  -3   6   6    6.70    0.58
  -3   6   6    6.61    0.67
  -3  -6   6    5.12    0.33
  -3  -6   6    5.80    0.35
   3  -6  -6    7.49    0.98
   3  -6  -6    6.51    0.91
  -3  -6   6    7.54    0.74
  -4   6   5    8.82    0.75
   4   6  -5    9.16    0.44
  -4   6   5    9.15    0.69
   4   6  -5    8.21    0.85
  -4   6   5    8.16    0.77
  -4   6   5    8.41    0.64
  -4   6   5    9.07    0.93
   4  -6  -5   10.88    1.02
  -4  -6   5    8.87    0.38
  -4  -6   5    9.29    0.73
  -4  -6   5    7.44    0.40
   4  -6  -5    9.36    1.01
  -5   6   4   22.81    1.03
  -5   6   4   19.72    1.06
   5   6  -4   19.01    1.47
  -5   6   4   23.63    1.09
  -5   6   4   21.75    1.04
   5   6  -4   22.73    0.80
   5   6  -4   22.62    0.80
   5  -6  -4   22.53    1.31
  -5  -6   4   21.60    0.99
  -5  -6   4   21.06    0.77
   5  -6  -4   22.13    1.13
   5  -6  -4   21.75    0.97
   5  -6  -4   23.44    1.20
  -6   6   3   -0.12    0.38
  -6   6   3    0.00    0.38
   6   6  -3    0.04    0.27
   6   6  -3    0.06    0.28
   6   6  -3   -0.26    0.46
   6   6  -3    0.24    0.24
  -6  -6   3    0.27    0.33
  -6  -6   3    0.51    0.46
  -6  -6   3    0.73    0.70
   6  -6  -3   -0.14    0.42
   6  -6  -3    0.09    0.46
   6  -6  -3    0.53    0.45
   7   6  -2    5.38    0.63
   7   6  -2    4.95    0.74
   7   6  -2    5.87    0.75
   7  -6  -2    3.98    0.66
  -7  -6   2    5.27    0.54
  -7  -6   2    5.60    0.94
   7  -6  -2    6.76    0.93
   8   6  -1    2.57    0.61
   8   6  -1    3.68    0.54
   8   6  -1    2.68    0.63
  -8  -6   1    1.92    0.93
   8  -6  -1    3.83    0.70
   9   6   0    4.34    1.38
   9   6   0    1.33    0.82
   9   6   0    2.92    0.60
  -9  -6   0    2.90    1.26
   9  -6   0    3.40    0.88
   0   7   9   17.26    1.18
   0   7   9   13.96    1.03
   0   7   9   15.80    1.20
   0   7  -9   14.59    1.17
   0  -7  -9   16.68    1.49
   0  -7   9   15.82    1.39
   0  -7  -9   16.25    2.04
   1   7  -8    2.03    0.52
  -1   7   8    2.82    0.66
  -1   7   8    1.79    0.46
  -1   7   8    2.14    0.47
   1  -7  -8    1.77    1.03
  -1  -7   8    1.57    0.67
   1  -7  -8    1.94    0.81
   2   7  -7    4.68    0.57
  -2   7   7    4.48    0.62
  -2   7   7    4.29    0.62
  -2   7   7    4.08    0.70
   2  -7  -7    4.85    1.01
  -2  -7   7    6.39    0.91
   2  -7  -7    4.60    0.79
   3   7  -6    4.18    0.60
  -3   7   6    3.90    0.46
  -3   7   6    4.00    0.75
   3   7  -6    3.26    0.42
  -3   7   6    3.79    0.50
   3  -7  -6    3.99    0.76
   3  -7  -6    4.17    0.87
  -3  -7   6    5.67    0.85
  -4   7   5    7.22    0.69
   4   7  -5    7.49    0.95
   4   7  -5    7.28    0.51
  -4   7   5    8.55    0.67
  -4   7   5    7.18    1.03
  -4  -7   5    8.41    0.84
   4  -7  -5    8.22    1.05
   4  -7  -5   10.00    1.17
  -5   7   4    2.08    0.42
  -5   7   4    2.99    0.47
  -5   7   4    3.06    0.73
   5   7  -4    3.06    0.45
   5   7  -4    2.57    0.64
   5  -7  -4    3.06    0.69
   5  -7  -4    2.13    0.68
  -5  -7   4    3.21    0.57
   6   7  -3   21.65    0.92
  -6   7   3   22.21    1.19
   6   7  -3   22.43    1.48
  -6   7   3   20.88    1.35
   6   7  -3   21.67    0.90
  -6  -7   3   22.52    1.10
   6  -7  -3   22.15    1.49
   7   7  -2    3.20    0.50
   7   7  -2    2.88    0.50
  -7   7   2    1.58    0.57
   7   7  -2    2.91    0.54
   7  -7  -2    3.13    0.82
  -7  -7   2    2.95    1.10
   8   7  -1    0.47    0.67
   8   7  -1   -0.33    0.49
   8   7  -1    1.60    0.67
  -8  -7   1    0.02    1.13
   8  -7  -1    0.87    0.93
  -1   8   8    0.77    0.52
   1   8  -8    0.67    0.65
  -1   8   8    2.48    0.94
  -1   8   8    0.66    0.56
  -1  -8   8    1.71    0.96
   1  -8  -8    1.39    1.36
   1  -8  -8    1.83    1.04
  -2   8   7    7.73    0.86
   2   8  -7    7.01    1.02
  -2   8   7    9.42    1.27
  -2   8   7    9.12    0.81
  -2  -8   7    9.66    1.24
   2  -8  -7   10.42    1.37
   2  -8  -7    7.63    1.19
  -3   8   6    0.37    0.37
   3   8  -6    1.08    0.63
  -3   8   6    0.64    0.81
  -3   8   6   -0.08    0.39
   3  -8  -6    1.70    0.96
   3  -8  -6    1.63    0.90
  -3  -8   6    0.75    0.64
  -4   8   5    0.91    0.80
   4   8  -5   -0.45    0.59
  -4   8   5    0.53    0.41
  -4   8   5    0.17    0.44
  -4  -8   5    0.53    0.62
   4  -8  -5   -0.76    0.84
   4  -8  -5    1.03    0.90
  -5   8   4    2.22    0.84
  -5   8   4    2.14    0.50
  -5   8   4    2.47    0.57
   5   8  -4    1.89    0.72
   5  -8  -4    1.58    0.95
  -5  -8   4    1.12    0.67
   5  -8  -4    2.19    0.93
  -6   8   3    1.15    0.56
  -6   8   3    1.15    0.60
  -6   8   3    1.39    0.99
   6   8  -3    1.85    0.83
   6   8  -3    1.16    0.48
   6  -8  -3    1.10    1.01
   3   0  13   -0.02    0.65
   3   0  13    0.90    0.48
  -3   0 -13    1.80    1.01
   2   0  12    1.20    0.37
  -2   0 -12    0.83    0.68
   2   0  12    1.13    0.49
   2   0  12    1.04    0.49
   2   0  12    0.61    0.49
  -1   0 -11    1.78    0.60
  -1   0 -11    0.79    0.45
   1   0  11    1.58    0.30
  -1   0 -11    1.56    0.52
   1   0  11    1.54    0.46
   1   0  11    2.39    0.47
   1   0  11    2.42    0.42
   0   0 -10   12.30    0.84
   0   0  10   13.08    0.78
   0   0  10   13.24    0.83
   0   0 -10   13.43    0.88
   0   0  10   14.63    0.60
   0   0 -10   13.43    0.70
   0   0 -10   14.84    1.00
   0   0  10   14.92    0.74
   1   0  -9    2.54    0.36
  -1   0   9    2.49    0.38
   1   0  -9    3.29    0.45
   1   0  -9    2.85    0.42
   1   0  -9    2.13    0.38
  -1   0   9    2.36    0.27
  -1   0   9    2.85    0.37
  -1   0   9    1.43    0.33
  -1   0   9    2.54    0.35
  -2   0   8  110.44    3.05
  -2   0   8  109.24    2.74
   2   0  -8  106.60    2.73
  -2   0   8  108.93    2.85
  -2   0   8  113.47    3.09
   2   0  -8  108.63    3.07
  -2   0   8  110.88    3.02
   2   0  -8  111.55    3.03
  -2   0   8  110.70    2.95
   2   0  -8  113.11    2.95
  -3   0   7    7.46    0.47
   3   0  -7    6.92    0.43
  -3   0   7    7.40    0.54
  -3   0   7    6.22    0.65
  -3   0   7    7.15    0.50
  -3   0   7    6.68    0.50
  -3   0   7    6.32    0.41
   4   0  -6   48.96    1.56
   4   0  -6   49.38    1.54
  -4   0   6   45.45    1.51
  -4   0   6   49.36    1.58
   4   0  -6   49.29    1.44
  -4   0   6   47.53    1.47
  -5   0   5   14.83    0.76
  -5   0   5   13.95    0.73
   5   0  -5   15.55    0.76
  -5   0   5   15.25    0.56
   5   0  -5   15.21    0.67
   5   0  -5   14.87    0.74
   6   0  -4   -0.27    0.22
   6   0  -4   -0.22    0.21
  -6   0   4   -0.16    0.25
   6   0  -4   -0.13    0.19
  -6   0   4   -0.12    0.24
  -6   0   4    0.11    0.14
   6   0  -4   -0.25    0.21
  -7   0   3   12.10    0.79
   7   0  -3   13.98    0.86
  -7   0   3   13.32    0.56
  -7   0   3   11.98    0.79
   7   0  -3   11.78    0.67
   7   0  -3   13.75    0.82
   8   0  -2   24.83    1.24
   8   0  -2   21.56    0.95
   8   0  -2   23.42    1.18
  -8   0   2   22.32    1.13
   8   0  -2   22.81    1.04
   9   0  -1    0.53    0.45
   9   0  -1   -0.30    0.34
   9   0  -1    0.74    0.51
  10   0   0   13.30    1.01
  10   0   0   12.19    1.19
  10   0   0   11.42    1.26
  11   0   1   13.63    1.53
  11   0   1   13.75    1.60
  11   0   1   15.64    1.33
   3   1  13    0.87    0.64
   3   1  13   -0.39    0.41
  -3   1 -13    3.77    1.09
   3   1  13    0.51    0.66
   3  -1  13    1.37    0.55
   3  -1  13   -0.11    0.64
  -3  -1 -13   -0.58    1.13
   3  -1  13   -0.26    0.77
  -3  -1 -13   -0.26    1.00
   2   1  12    0.51    0.50
   2   1  12    1.71    0.40
   2   1  12    0.61    0.48
  -2   1 -12    1.92    0.72
   2   1  12    1.14    0.42
   2  -1  12    1.03    0.41
   2  -1  12    1.38    0.51
   2  -1  12    1.55    0.50
  -2  -1 -12    0.81    0.70
  -1   1 -11    2.13    0.36
   1   1  11    1.63    0.33
  -1   1 -11    1.59    0.53
   1   1  11    2.46    0.44
   1   1  11    2.70    0.40
  -1   1 -11    1.64    0.47
   1   1  11    2.43    0.25
   1  -1  11    1.77    0.33
   1  -1  11    2.23    0.44
   1  -1  11    1.92    0.44
   1  -1  11    1.30    0.46
  -1  -1 -11    1.55    0.58
  -1  -1 -11    2.03    0.64
   0   1 -10    0.50    0.34
   0   1 -10    0.53    0.40
   0   1  10    0.38    0.23
   0   1  10    0.15    0.26
   0   1 -10   -0.33    0.30
   0   1  10   -0.26    0.27
   0   1  10    0.12    0.21
   0   1 -10    0.42    0.23
   0  -1  10    0.32    0.27
   0  -1 -10    0.45    0.47
   0  -1 -10    0.70    0.37
   0  -1  10    0.22    0.27
   0  -1  10    0.22    0.18
   0  -1 -10    0.07    0.32
   0  -1  10    0.10    0.35
  -1   1   9   46.33    1.37
   1   1  -9   44.03    1.34
  -1   1   9   43.41    1.48
   1   1  -9   43.91    1.53
   1   1  -9   44.79    1.53
   1   1  -9   44.23    1.58
  -1   1   9   48.99    1.37
  -1   1   9   55.39    1.67
  -1  -1   9   45.86    1.48
   1  -1  -9   47.67    1.64
  -1  -1   9   38.97    1.57
  -1  -1   9   45.60    1.43
   1  -1  -9   52.82    1.65
   1  -1  -9   48.09    1.36
  -1  -1   9   42.79    1.53
  -1  -1   9   43.31    1.26
   1  -1  -9   52.05    1.77
   2   1  -8   11.11    0.66
  -2   1   8   12.76    0.64
   2   1  -8   12.39    0.64
  -2   1   8   11.54    0.71
  -2   1   8   12.41    0.56
  -2   1   8   12.79    0.61
   2   1  -8   12.46    0.67
  -2   1   8   12.32    0.68
   2   1  -8   11.24    0.38
  -2   1   8   12.07    0.71
  -2  -1   8   11.19    0.61
   2  -1  -8   11.51    0.69
  -2  -1   8   11.26    0.66
  -2  -1   8   11.78    0.39
  -2  -1   8   11.57    0.68
   2  -1  -8   13.01    0.61
  -2  -1   8   12.24    0.57
  -2  -1   8   11.87    0.65
  -2  -1   8   12.41    0.67
   2  -1  -8   12.05    0.65
   2  -1  -8   11.06    0.70
  -3   1   7   17.48    0.82
  -3   1   7   19.08    0.73
   3   1  -7   17.29    0.72
  -3   1   7   18.00    0.84
  -3   1   7   18.28    0.83
  -3   1   7   18.41    0.71
  -3   1   7   16.97    0.77
  -3  -1   7   17.49    0.75
  -3  -1   7   16.95    0.77
   3  -1  -7   17.02    0.68
  -3  -1   7   17.32    0.48
  -3  -1   7   16.06    0.74
  -3  -1   7   16.02    0.74
  -3  -1   7   17.34    0.68
  -3  -1   7   16.80    0.77
   3  -1  -7   17.51    0.69
   4   1  -6    5.66    0.44
   4   1  -6    5.93    0.47
   4   1  -6    6.31    0.49
  -4   1   6    6.73    0.50
  -4   1   6    6.12    0.50
  -4   1   6    5.39    0.52
  -4   1   6    6.11    0.50
  -4   1   6    5.78    0.39
  -4  -1   6    5.33    0.46
  -4  -1   6    6.37    0.24
  -4  -1   6    5.99    0.47
   4  -1  -6    6.50    0.39
  -4  -1   6    5.66    0.44
   4  -1  -6    6.34    0.47
   4  -1  -6    5.95    0.53
  -4  -1   6    6.41    0.59
   5   1  -5   37.90    1.30
  -5   1   5   40.95    1.41
  -5   1   5   37.77    1.32
   5   1  -5   38.90    1.34
   5   1  -5   36.65    1.27
   5  -1  -5   38.33    1.38
  -5  -1   5   38.80    1.33
  -5  -1   5   39.12    1.05
   5  -1  -5   39.22    1.18
   5  -1  -5   38.16    1.33
  -5  -1   5   39.68    1.31
  -6   1   4    1.21    0.31
  -6   1   4    1.75    0.24
  -6   1   4    2.25    0.37
   6   1  -4    1.66    0.31
   6   1  -4    1.22    0.33
   6   1  -4    1.18    0.31
  -6  -1   4    1.36    0.32
  -6  -1   4    2.07    0.34
  -6  -1   4    1.97    0.21
   6  -1  -4    1.76    0.27
   6  -1  -4    1.34    0.34
   7   1  -3   15.69    0.83
   7   1  -3   15.81    0.92
  -7   1   3   15.97    0.87
  -7   1   3   15.94    0.91
  -7   1   3   16.54    0.70
   7   1  -3   16.18    0.74
   7   1  -3   15.89    0.88
   7  -1  -3   15.83    0.70
   7  -1  -3   16.18    0.92
   7  -1  -3   16.65    0.93
  -7  -1   3   16.13    0.88
  -7  -1   3   14.71    0.86
  -7  -1   3   16.19    0.61
   8   1  -2   55.66    2.05
   8   1  -2   57.31    2.00
   8   1  -2   56.49    1.86
  -8   1   2   54.55    1.97
   8   1  -2   58.90    1.81
   8  -1  -2   51.98    1.80
  -8  -1   2   61.24    1.79
   8  -1  -2   55.77    2.01
   8  -1  -2   55.98    2.06
   9   1  -1   71.33    2.22
   9   1  -1   67.76    2.50
   9   1  -1   68.20    2.16
   9   1  -1   71.17    2.45
  -9   1   1   67.22    2.37
   9  -1  -1   68.90    2.47
   9  -1  -1   67.24    2.68
   9  -1  -1   67.62    2.44
   9  -1  -1   65.40    1.84
  10   1   0    4.12    0.72
  10   1   0    3.56    0.76
  10   1   0    5.28    0.75
  10  -1   0    2.69    0.76
  10  -1   0    4.80    0.81
  11   1   1   -0.44    0.79
  11   1   1    0.11    0.70
  11   1   1    0.87    0.64
  11  -1   1   -0.03    0.82
  11  -1   1    1.35    0.80
  -3   2 -13    5.73    1.25
   3   2  13    4.64    0.79
   3   2  13    4.43    0.59
   3   2  13    4.46    0.90
   3  -2  13    3.80    0.69
   3  -2  13    3.77    0.79
  -3  -2 -13    3.33    1.17
  -3  -2 -13    3.84    1.41
   3  -2  13    5.94    0.94
   2   2  12    3.63    0.48
   2   2  12    3.91    0.51
   2   2  12    4.08    0.63
  -2   2 -12    3.90    0.85
  -2  -2 -12    2.85    1.04
   2  -2  12    3.27    0.64
   2  -2  12    3.53    0.52
   2  -2  12    4.00    0.72
  -2  -2 -12    4.43    0.90
  -1   2 -11    3.92    0.59
   1   2  11    4.49    0.43
   1   2  11    4.51    0.62
   1   2  11    3.52    0.53
  -1   2 -11    4.11    0.43
   1   2  11    4.08    0.47
   1   2  11    2.98    0.48
  -1   2 -11    3.88    0.68
  -1   2 -11    3.75    0.90
  -1  -2 -11    4.23    0.73
   1  -2  11    4.50    0.67
   1  -2  11    4.89    0.83
   1  -2  11    4.23    0.98
   1  -2  11    4.27    0.51
   0   2  10   14.56    0.63
   0   2  10   15.31    0.72
   0   2 -10   14.04    0.87
   0   2  10   13.56    0.79
   0   2 -10   13.79    0.92
   0   2 -10   14.33    0.61
   0   2  10   12.89    0.60
   0   2 -10   14.15    0.80
   0   2  10   13.49    0.88
   0  -2  10   13.27    0.78
   0  -2  10   14.70    0.63
   0  -2 -10   12.74    1.09
   0  -2  10   13.77    0.77
   0  -2  10   13.98    0.81
   0  -2 -10   13.21    1.07
  -1   2   9   10.08    0.48
  -1   2   9   10.33    0.58
  -1   2   9    9.40    0.63
  -1   2   9   11.47    0.77
   1   2  -9    9.93    0.68
   1   2  -9   10.72    0.67
  -1   2   9   10.52    0.69
  -1   2   9   10.23    0.63
   1   2  -9   10.45    0.66
   1   2  -9    9.82    0.44
  -1  -2   9   10.20    0.61
   1  -2  -9   10.50    0.73
   1  -2  -9   10.47    0.84
   1  -2  -9   10.69    0.75
  -1  -2   9   10.83    0.44
  -1  -2   9    9.98    0.60
   1  -2  -9    9.82    0.62
  -1  -2   9   10.15    0.59
  -2   2   8    3.70    0.51
  -2   2   8    3.90    0.50
   2   2  -8    4.87    0.45
   2   2  -8    4.67    0.31
  -2   2   8    3.23    0.37
  -2   2   8    4.39    0.44
   2   2  -8    5.26    0.45
  -2   2   8    3.93    0.42
  -2   2   8    4.02    0.53
  -2  -2   8    3.34    0.43
  -2  -2   8    3.64    0.46
  -2  -2   8    3.41    0.42
   2  -2  -8    4.40    0.68
  -2  -2   8    4.16    0.45
  -2  -2   8    4.18    0.44
   2  -2  -8    3.66    0.47
  -2  -2   8    3.49    0.39
   2  -2  -8    3.07    0.44
   2  -2  -8    3.85    0.53
   3   2  -7   15.61    0.72
  -3   2   7   15.08    0.61
  -3   2   7   14.83    0.78
  -3   2   7   14.59    0.86
  -3   2   7   14.90    0.70
  -3   2   7   15.09    0.76
  -3   2   7   14.90    0.72
   3  -2  -7   14.02    0.70
  -3  -2   7   14.48    0.70
   3  -2  -7   14.51    0.65
  -3  -2   7   14.97    0.66
  -3  -2   7   14.22    0.64
  -3  -2   7   14.70    0.74
  -3  -2   7   14.67    0.74
  -3  -2   7   13.43    0.67
  -4   2   6   64.11    2.00
   4   2  -6   61.60    1.89
  -4   2   6   65.08    1.93
   4   2  -6   64.26    1.84
  -4   2   6   63.84    1.97
  -4   2   6   64.40    1.97
  -4   2   6   62.42    1.77
   4   2  -6   63.32    1.87
   4  -2  -6   64.63    1.99
   4  -2  -6   65.21    1.96
   4  -2  -6   61.28    1.85
  -4  -2   6   67.32    1.81
  -4  -2   6   63.01    1.86
  -4  -2   6   64.16    1.86
  -4  -2   6   64.07    1.89
   4  -2  -6   64.35    1.72
  -5   2   5  100.10    2.80
   5   2  -5  101.46    2.70
   5   2  -5   96.40    2.76
   5   2  -5   94.11    2.84
  -5   2   5   97.33    2.84
   5   2  -5   96.24    2.73
  -5  -2   5  100.63    2.76
   5  -2  -5   99.73    2.66
  -5  -2   5  100.81    2.60
   5  -2  -5   97.06    2.78
   5  -2  -5   99.03    2.84
  -5  -2   5   99.21    2.42
   5  -2  -5   99.34    2.50
  -5  -2   5   99.05    2.71
  -6   2   4   72.43    2.21
   6   2  -4   73.97    1.96
  -6   2   4   75.82    2.30
   6   2  -4   69.31    2.26
   6   2  -4   71.86    2.19
   6   2  -4   73.69    2.16
  -6   2   4   72.06    2.08
  -6  -2   4   71.62    2.16
  -6  -2   4   69.30    1.88
   6  -2  -4   70.97    2.27
   6  -2  -4   74.31    1.95
   6  -2  -4   71.77    2.23
  -6  -2   4   72.68    2.18
   7   2  -3   23.86    1.11
  -7   2   3   21.99    0.92
   7   2  -3   22.60    0.88
   7   2  -3   23.79    1.11
  -7   2   3   23.44    1.07
   7   2  -3   23.17    1.04
  -7   2   3   22.28    1.11
   7  -2  -3   22.22    1.16
  -7  -2   3   22.88    1.08
  -7  -2   3   22.44    0.95
   7  -2  -3   21.55    1.09
   7  -2  -3   20.83    0.76
   8   2  -2   59.10    2.09
   8   2  -2   63.29    2.19
  -8   2   2   60.23    2.11
  -8   2   2   64.85    2.17
   8   2  -2   59.93    2.11
   8   2  -2   63.73    1.91
   8  -2  -2   63.08    2.17
   8  -2  -2   60.23    1.89
   8  -2  -2   65.34    2.24
  -9   2   1   10.50    0.95
   9   2  -1   10.29    0.99
   9   2  -1    8.43    0.79
   9  -2  -1    9.07    0.96
   9  -2  -1    9.12    0.77
   9  -2  -1   11.24    1.02
  10   2   0    1.58    0.65
  10   2   0    1.05    0.63
  10   2   0    1.63    0.50
  10  -2   0    2.28    0.74
  10  -2   0    1.92    0.69
  11   2   1    1.84    0.82
  11   2   1    2.97    0.93
  11   2   1    2.69    0.75
  11  -2   1    3.33    0.86
   2   3  12    1.63    0.43
   2   3  12    1.70    0.60
   2   3  12    1.41    0.47
  -2   3 -12    0.99    0.75
  -2  -3 -12    2.12    1.18
   2  -3  12    1.28    0.57
   2  -3  12    1.61    0.67
  -2  -3 -12    0.35    0.75
   1   3  11    4.33    0.59
   1   3  11    3.63    0.58
   1   3  11    3.56    0.50
   1   3  11    3.40    0.41
   1   3  11    3.14    0.47
   1  -3  11    4.11    0.65
  -1  -3 -11    3.98    0.75
  -1  -3 -11    2.70    0.92
   1  -3  11    2.56    0.49
   0   3 -10   26.18    0.84
   0   3  10   25.89    1.22
   0   3  10   26.24    1.07
   0   3  10   25.13    0.99
   0   3 -10   27.36    1.16
   0   3  10   26.31    0.90
   0   3 -10   26.59    1.10
   0   3 -10   27.18    1.37
   0   3  10   25.30    1.12
   0  -3 -10   26.25    1.45
   0  -3  10   24.67    1.34
   0  -3  10   25.20    1.04
   0  -3  10   23.45    1.42
  -1   3   9    1.48    0.38
   1   3  -9    1.77    0.21
  -1   3   9    1.69    0.42
  -1   3   9    1.58    0.37
  -1   3   9    1.97    0.28
   1   3  -9    1.92    0.35
  -1   3   9    1.89    0.33
  -1   3   9    0.96    0.32
   1   3  -9    1.66    0.32
  -1   3   9    1.29    0.32
   1  -3  -9    1.92    0.39
  -1  -3   9    1.77    0.38
  -1  -3   9    1.36    0.32
   1  -3  -9    1.07    0.47
  -2   3   8   12.11    0.58
  -2   3   8   13.89    0.74
  -2   3   8   12.03    0.74
   2   3  -8   12.87    0.69
  -2   3   8   13.98    0.72
  -2   3   8   11.90    0.76
  -2   3   8   12.70    0.60
   2   3  -8   12.58    0.48
   2   3  -8   12.10    0.65
  -2   3   8   12.02    0.80
  -2  -3   8   12.07    0.68
   2  -3  -8   12.18    0.75
  -2  -3   8   11.33    0.68
  -2  -3   8   12.51    0.67
  -2  -3   8   11.94    0.91
  -2  -3   8   12.49    0.57
   2  -3  -8   11.76    0.79
   2  -3  -8   12.38    0.82
  -3   3   7    8.84    0.62
  -3   3   7    8.68    0.68
  -3   3   7    9.32    0.47
  -3   3   7    8.47    0.63
   3   3  -7    9.17    0.60
   3   3  -7    9.03    0.49
  -3   3   7    8.94    0.59
  -3   3   7    9.23    0.64
  -3  -3   7    8.00    0.54
  -3  -3   7    8.82    0.54
   3  -3  -7    8.19    0.59
  -3  -3   7    7.64    0.44
   3  -3  -7    8.80    0.64
  -3  -3   7    8.40    0.50
  -3  -3   7    9.63    0.66
  -3  -3   7    7.66    0.51
   4   3  -6   12.20    0.71
  -4   3   6   13.52    0.79
   4   3  -6   12.92    0.85
  -4   3   6   12.74    0.70
  -4   3   6   12.11    0.72
  -4   3   6   13.34    0.74
   4   3  -6   12.38    0.62
  -4  -3   6   13.03    0.70
  -4  -3   6   13.47    0.62
   4  -3  -6   12.44    0.72
  -4  -3   6   11.78    0.61
   4  -3  -6   12.16    0.60
   4  -3  -6   11.93    0.74
  -4  -3   6   12.14    0.57
   4  -3  -6   12.76    0.76
  -4  -3   6   12.60    0.61
   5   3  -5   96.37    2.62
   5   3  -5   93.48    2.93
   5   3  -5   96.37    2.79
   5   3  -5   95.59    2.40
  -5   3   5  100.60    2.90
   5   3  -5   95.35    2.67
  -5   3   5   97.13    2.84
  -5  -3   5   99.82    2.65
   5  -3  -5   96.89    2.73
   5  -3  -5   98.11    2.79
  -5  -3   5   99.43    2.58
  -5  -3   5   99.10    2.43
  -5  -3   5   93.82    2.66
   5  -3  -5   98.28    2.83
   5  -3  -5   93.75    2.38
   6   3  -4  131.30    3.97
  -6   3   4  141.73    3.91
   6   3  -4  145.04    3.72
   6   3  -4  140.97    3.77
  -6   3   4  140.41    3.82
   6   3  -4  140.51    3.49
  -6  -3   4  134.42    3.69
  -6  -3   4  139.84    3.90
   6  -3  -4  134.48    4.10
  -6  -3   4  143.99    3.53
   6  -3  -4  139.81    3.38
   6  -3  -4  148.62    3.88
   6  -3  -4  140.01    3.74
  -6  -3   4  141.39    3.55
   7   3  -3    5.89    0.65
   7   3  -3    6.76    0.46
  -7   3   3    5.33    0.65
   7   3  -3    4.22    0.59
  -7   3   3    6.02    0.66
  -7  -3   3    5.05    0.39
   7  -3  -3    5.52    0.41
   7  -3  -3    5.28    0.69
  -7  -3   3    5.69    0.38
   7  -3  -3    5.59    0.74
  -8   3   2   12.47    0.92
   8   3  -2   12.03    0.97
   8   3  -2   13.56    0.97
   8   3  -2   13.27    0.70
  -8   3   2   10.79    0.97
   8  -3  -2   11.44    1.03
  -8  -3   2   12.29    0.53
   8  -3  -2   12.41    1.00
   8  -3  -2   11.86    0.64
  -9   3   1    3.69    0.60
   9   3  -1    3.85    0.62
   9   3  -1    4.95    0.75
   9   3  -1    3.89    0.68
  -9  -3   1    4.79    0.38
   9  -3  -1    4.42    0.61
   9  -3  -1    4.08    0.69
  -9  -3   1    4.59    0.81
   9  -3  -1    4.99    0.75
  10   3   0   -0.72    0.58
  10   3   0    0.94    0.65
  10   3   0    0.38    0.48
  10  -3   0    1.38    0.95
  10  -3   0   -0.25    0.66
 -10  -3   0    0.51    0.83
  11   3   1    1.89    0.73
  11   3   1   -1.21    1.04
  11   3   1    0.76    0.86
  11  -3   1    0.42    0.95
  -2   4 -12    2.34    0.85
   2   4  12    3.01    0.58
   2   4  12    1.92    0.61
   2   4  12    3.43    0.74
  -2  -4 -12    2.72    0.96
  -2  -4 -12    4.34    1.42
   2  -4  12    3.75    0.87
   1   4  11    9.82    0.93
   1   4  11    6.93    0.71
   1   4  11    7.69    0.68
  -1   4 -11    8.00    1.02
   1   4  11    8.26    0.85
   1  -4  11    7.06    0.85
  -1  -4 -11    7.45    1.23
   1  -4  11    6.40    0.77
  -1  -4 -11    6.40    0.88
   0   4 -10    9.47    0.83
   0   4 -10   10.07    0.46
   0   4  10    8.96    0.76
   0   4 -10   10.56    0.73
   0   4  10   10.62    0.84
   0   4 -10   11.66    0.96
   0   4  10   10.75    0.73
   0  -4  10   11.60    0.87
   0  -4  10   10.25    0.70
   0  -4 -10    9.53    1.14
   0  -4 -10   10.67    0.91
   0  -4  10    9.73    0.72
   0  -4 -10   13.64    1.78
   1   4  -9   19.90    0.56
  -1   4   9   19.76    1.01
  -1   4   9   20.86    1.21
   1   4  -9   21.26    1.00
  -1   4   9   17.81    0.96
   1   4  -9   20.10    0.90
  -1   4   9   19.41    0.97
  -1   4   9   20.71    1.12
   1  -4  -9   18.71    1.17
   1  -4  -9   20.84    1.05
  -1  -4   9   18.27    0.78
  -2   4   8   22.61    1.09
  -2   4   8   23.02    1.06
   2   4  -8   21.47    0.78
  -2   4   8   19.98    0.81
  -2   4   8   21.80    1.01
  -2   4   8   21.54    0.94
  -2   4   8   21.15    1.04
   2   4  -8   21.12    0.95
  -2   4   8   20.45    1.29
   2  -4  -8   22.32    1.09
   2  -4  -8   20.44    1.36
  -2  -4   8   20.94    0.78
   2  -4  -8   21.40    1.07
  -2  -4   8   20.09    0.96
  -2  -4   8   21.08    0.78
  -2  -4   8   22.66    1.01
   3   4  -7   14.37    0.77
  -3   4   7   14.50    1.04
  -3   4   7   13.67    0.56
  -3   4   7   13.51    0.73
   3   4  -7   12.84    0.66
  -3   4   7   13.92    0.78
  -3   4   7   13.38    0.79
  -3   4   7   12.71    0.80
  -3   4   7   14.05    0.84
  -3  -4   7   13.45    0.55
  -3  -4   7   12.47    0.54
   3  -4  -7   12.68    0.86
  -3  -4   7   13.57    0.72
  -3  -4   7   11.51    0.62
   3  -4  -7   12.33    0.75
  -4   4   6   26.72    1.18
  -4   4   6   26.26    1.10
   4   4  -6   24.61    1.00
  -4   4   6   25.15    1.10
   4   4  -6   26.76    1.12
  -4   4   6   26.35    1.05
  -4   4   6   26.65    1.18
  -4   4   6   24.07    0.78
  -4  -4   6   22.96    1.02
  -4  -4   6   26.34    0.86
   4  -4  -6   28.07    1.18
   4  -4  -6   23.59    0.87
   4  -4  -6   25.77    1.11
  -4  -4   6   25.33    0.93
  -4  -4   6   25.14    0.88
  -4  -4   6   26.79    1.02
  -5   4   5   45.37    1.54
   5   4  -5   45.00    1.61
   5   4  -5   43.07    1.18
   5   4  -5   42.26    1.51
  -5   4   5   45.71    1.61
   5   4  -5   44.43    1.40
   5   4  -5   44.14    1.33
  -5   4   5   43.68    1.55
  -5   4   5   42.46    1.58
   5  -4  -5   40.91    1.52
  -5  -4   5   43.48    1.36
  -5  -4   5   42.52    1.35
   5  -4  -5   43.81    1.57
   5  -4  -5   42.82    1.59
  -5  -4   5   43.64    1.38
   5  -4  -5   43.40    1.60
  -5  -4   5   39.16    1.38
   6   4  -4    0.73    0.28
   6   4  -4    0.38    0.27
   6   4  -4    0.70    0.21
  -6   4   4    0.95    0.35
  -6   4   4    0.38    0.33
   6   4  -4    0.16    0.37
  -6  -4   4    0.55    0.22
   6  -4  -4    0.02    0.34
   6  -4  -4    0.85    0.38
  -6  -4   4    0.97    0.24
   6  -4  -4    1.02    0.40
   6  -4  -4    0.69    0.32
  -7   4   3   11.56    0.88
   7   4  -3   11.32    0.58
   7   4  -3   10.43    0.82
   7   4  -3   11.02    0.74
  -7   4   3   11.30    0.85
  -7  -4   3    9.78    0.63
   7  -4  -3   10.49    0.85
   7  -4  -3   12.10    0.86
  -7  -4   3   11.03    0.53
   7  -4  -3   10.73    0.51
   7  -4  -3   10.98    0.89
  -8   4   2    8.36    0.92
   8   4  -2    6.41    0.58
  -8   4   2    5.63    0.79
   8   4  -2    4.46    0.65
   8   4  -2    4.63    0.63
   8  -4  -2    5.34    0.31
   8  -4  -2    6.46    0.75
  -8  -4   2    4.90    1.10
  -8  -4   2    7.21    0.43
   8  -4  -2    6.14    0.83
   8  -4  -2    6.19    0.87
   8  -4  -2    5.97    0.36
   9   4  -1    3.17    0.66
   9   4  -1    3.49    0.67
   9   4  -1    3.81    0.54
   9  -4  -1    1.82    0.62
   9  -4  -1    2.78    0.57
  -9  -4   1    3.11    0.85
   9  -4  -1    3.78    1.12
  10   4   0    6.39    0.96
  10   4   0    9.06    0.92
  10   4   0    6.96    0.98
  10  -4   0    6.70    1.03
  10  -4   0    8.74    1.00
 -10  -4   0    7.82    1.19
   2   5  12    0.20    0.70
   2   5  12    0.29    0.61
  -2   5 -12    0.46    0.92
   2   5  12    0.02    1.34
  -2  -5 -12    3.87    2.11
   2  -5  12    1.12    0.95
   1   5  11    2.88    0.65
   1   5  11    3.49    0.56
   1   5  11    2.38    0.58
  -1   5 -11    1.20    0.70
  -1  -5 -11    5.38    1.27
  -1  -5 -11    3.11    0.77
   1  -5  11    4.32    0.86
   0   5  10    1.84    0.46
   0   5 -10    1.99    0.48
   0   5  10    1.75    0.44
   0   5  10    1.89    0.44
   0  -5 -10    1.76    0.76
   0  -5  10    2.47    0.62
   0  -5 -10    0.65    0.81
   0  -5 -10    1.26    0.62
   1   5  -9    2.67    0.51
  -1   5   9    2.47    0.52
   1   5  -9    2.42    0.21
  -1   5   9    2.28    0.41
  -1   5   9    2.87    0.54
  -1   5   9    2.32    0.44
  -1   5   9    3.36    0.57
   1   5  -9    2.53    0.34
   1   5  -9    2.69    0.29
  -1  -5   9    2.97    0.45
  -1  -5   9    2.83    0.40
   1  -5  -9    3.52    0.93
   1  -5  -9    3.26    0.60
  -1  -5   9    2.48    0.51
   1  -5  -9    1.94    0.51
  -2   5   8   15.56    0.89
  -2   5   8   14.98    0.70
  -2   5   8   17.32    1.09
  -2   5   8   18.23    0.99
   2   5  -8   16.69    0.75
   2   5  -8   14.98    0.87
  -2   5   8   13.23    1.08
  -2  -5   8   15.24    0.63
  -2  -5   8   15.70    0.69
  -2  -5   8   16.61    0.98
   2  -5  -8   14.63    0.93
   2  -5  -8   16.45    1.41
   2  -5  -8   15.87    1.09
  -3   5   7   96.24    2.86
  -3   5   7   92.20    2.43
  -3   5   7   93.40    2.64
   3   5  -7   93.96    2.64
  -3   5   7   93.86    2.90
  -3   5   7   96.87    2.75
   3   5  -7   92.68    2.75
  -3   5   7   93.07    3.02
   3  -5  -7   95.97    2.93
  -3  -5   7   95.30    2.37
   3  -5  -7   93.06    3.15
  -3  -5   7   90.87    2.49
  -3  -5   7   97.01    2.78
  -4   5   6   35.32    1.29
  -4   5   6   34.73    1.37
   4   5  -6   35.52    1.33
   4   5  -6   34.52    1.39
  -4   5   6   35.42    1.51
   4   5  -6   34.10    0.90
  -4   5   6   33.43    1.39
  -4   5   6   33.38    0.93
  -4   5   6   34.61    1.50
  -4  -5   6   34.15    0.99
   4  -5  -6   33.78    1.51
   4  -5  -6   34.90    1.61
  -4  -5   6   34.87    1.31
  -4  -5   6   32.79    1.08
  -5   5   5    3.46    0.50
   5   5  -5    3.39    0.54
   5   5  -5    3.89    0.43
  -5   5   5    3.79    0.53
  -5   5   5    2.55    0.51
   5   5  -5    3.60    0.31
  -5   5   5    3.29    0.49
   5  -5  -5    4.25    0.62
  -5  -5   5    4.33    0.49
  -5  -5   5    2.28    0.33
  -5  -5   5    2.61    0.36
   5  -5  -5    3.27    0.50
   5  -5  -5    3.44    0.60
   6   5  -4   26.98    0.89
   6   5  -4   27.35    1.00
  -6   5   4   29.70    1.22
   6   5  -4   27.73    1.13
   6   5  -4   28.10    1.91
  -6   5   4   25.10    1.36
  -6  -5   4   27.74    1.02
   6  -5  -4   28.50    1.24
   6  -5  -4   26.67    1.26
   6  -5  -4   25.89    1.17
  -6  -5   4   27.13    1.01
  -7   5   3    0.86    0.45
  -7   5   3    1.06    0.50
   7   5  -3    1.40    0.42
   7   5  -3    1.16    0.28
   7   5  -3    1.25    0.38
  -7  -5   3    0.74    0.40
   7  -5  -3    1.48    0.49
   7  -5  -3    2.26    0.40
  -7  -5   3    1.69    0.32
   7  -5  -3    1.39    0.31
   7  -5  -3    1.97    0.47
   8   5  -2    7.31    0.87
   8   5  -2    8.22    0.71
   8   5  -2    5.95    0.82
  -8  -5   2    8.30    1.24
  -8  -5   2    7.76    0.50
   8  -5  -2    6.91    0.95
   8  -5  -2    7.36    0.91
   9   5  -1   15.70    1.25
   9   5  -1   14.54    0.95
   9   5  -1   17.67    1.66
   9  -5  -1   13.12    1.38
   9  -5  -1   15.25    1.18
  -9  -5   1   18.81    2.22
  10   5   0    3.35    0.95
  10   5   0    1.95    0.92
  10   5   0    3.02    0.66
 -10  -5   0    4.67    1.27
  10  -5   0    3.76    0.85
  -1   6 -11    0.26    0.77
   1   6  11    1.06    0.69
   1   6  11    0.83    0.65
   1   6  11    1.91    0.75
  -1  -6 -11    1.82    1.62
   1  -6  11    0.24    0.93
   0   6  10    5.36    0.73
   0   6 -10    4.69    0.65
   0   6  10    5.25    0.69
   0   6  10    4.27    0.65
   0  -6 -10    5.54    1.32
   0  -6 -10    4.30    0.82
   0  -6  10    5.59    0.89
  -1   6   9   11.53    0.94
  -1   6   9   11.19    0.84
  -1   6   9   13.20    0.92
   1   6  -9   11.22    0.89
  -1  -6   9   10.12    1.00
   1  -6  -9   13.25    1.21
   1  -6  -9   11.30    1.51
   2   6  -8   15.97    0.84
   2   6  -8   13.71    0.93
  -2   6   8   14.11    1.05
  -2   6   8   16.36    0.74
  -2   6   8   15.26    0.85
  -2   6   8   14.56    0.90
  -2  -6   8   16.56    1.06
   2  -6  -8   17.28    1.51
   2  -6  -8   14.22    1.18
  -3   6   7    1.95    0.42
  -3   6   7    1.23    0.36
   3   6  -7    1.53    0.20
  -3   6   7    1.47    0.47
  -3   6   7    1.54    0.24
   3   6  -7    1.73    0.67
   3   6  -7    1.91    0.24
  -3   6   7    1.43    0.48
  -3   6   7    1.32    0.35
   3  -6  -7    1.32    0.77
  -3  -6   7    1.47    0.49
  -3  -6   7    1.11    0.26
  -3  -6   7    1.78    0.24
   3  -6  -7    1.39    0.57
  -4   6   6   17.78    1.14
  -4   6   6   16.39    0.96
  -4   6   6   17.31    1.03
   4   6  -6   19.08    0.62
  -4   6   6   17.86    0.96
  -4  -6   6   19.19    1.01
   4  -6  -6   19.36    1.28
  -4  -6   6   16.35    0.64
   4  -6  -6   18.79    1.24
  -4  -6   6   17.27    0.58
  -5   6   5    7.35    0.82
  -5   6   5    6.60    0.72
  -5   6   5    8.10    0.76
  -5   6   5    8.47    0.96
   5   6  -5    7.90    0.94
  -5   6   5    6.63    0.82
   5   6  -5    7.86    0.46
  -5  -6   5    8.16    0.68
   5  -6  -5    8.67    0.82
   5  -6  -5    6.23    0.90
   5  -6  -5    8.44    1.03
   6   6  -4    6.29    0.46
  -6   6   4    6.39    0.80
   6   6  -4    4.91    0.69
   6   6  -4    5.77    0.58
  -6   6   4    4.88    0.70
   6  -6  -4    5.21    0.77
   6  -6  -4    6.73    0.86
  -6  -6   4    6.35    0.61
   6  -6  -4    5.54    0.82
  -6  -6   4    7.08    0.67
   7   6  -3    9.29    0.80
   7   6  -3    8.26    0.63
   7   6  -3    8.11    0.80
   7  -6  -3   10.38    1.06
  -7  -6   3   10.08    0.70
   7  -6  -3    7.59    0.96
   8   6  -2    6.50    0.94
   8   6  -2    7.71    0.97
   8   6  -2    6.39    0.75
  -8  -6   2    7.22    1.13
   8  -6  -2    7.70    1.07
   9   6  -1    3.96    0.81
   9   6  -1    2.51    0.59
   9   6  -1    2.85    0.77
  -9  -6   1    5.30    1.22
   9  -6  -1    4.41    0.90
   0   7  10    3.99    0.81
   0   7 -10    3.36    0.72
   0   7  10    3.03    0.69
   0   7  10    4.15    0.89
   0  -7  10    4.88    1.16
   0  -7 -10    8.18    1.88
  -1   7   9    1.80    0.49
  -1   7   9    3.35    0.74
  -1   7   9    2.29    0.52
   1   7  -9    2.08    0.54
   1  -7  -9    1.91    0.84
   1  -7  -9    1.60    1.23
  -1  -7   9    2.59    0.77
  -2   7   8    2.67    0.46
  -2   7   8    2.57    0.51
  -2   7   8    3.39    0.70
   2   7  -8    2.75    0.52
   2  -7  -8    2.57    1.01
  -2  -7   8    3.58    0.71
   2  -7  -8    4.54    0.89
  -3   7   7    0.20    0.32
   3   7  -7   -0.44    0.48
  -3   7   7    0.94    0.63
  -3   7   7   -0.09    0.33
  -3  -7   7    0.72    0.56
   3  -7  -7   -0.94    0.69
   3  -7  -7    0.63    0.82
  -4   7   6    4.23    0.56
  -4   7   6    5.04    0.78
   4   7  -6    4.33    0.41
  -4   7   6    4.15    0.49
   4   7  -6    4.47    0.63
  -4  -7   6    5.35    0.68
   4  -7  -6    5.11    0.79
  -5   7   5    2.64    0.47
   5   7  -5    3.42    0.67
   5   7  -5    3.27    0.42
  -5   7   5    3.32    0.74
  -5   7   5    2.72    0.48
   5  -7  -5    2.67    0.76
   5  -7  -5    3.61    0.77
  -5  -7   5    3.70    0.70
  -6   7   4    2.51    0.50
   6   7  -4    2.62    0.40
   6   7  -4    2.64    0.35
  -6   7   4    2.43    0.52
   6   7  -4    2.97    0.76
  -6  -7   4    2.88    0.58
   6  -7  -4    3.14    0.80
   6  -7  -4    3.90    0.68
  -7   7   3    1.20    0.59
   7   7  -3    1.36    0.45
   7   7  -3    0.56    0.74
   7   7  -3    0.64    0.43
  -7   7   3    1.20    0.52
   7  -7  -3    0.82    0.76
   8   7  -2    2.76    0.67
   8   7  -2    3.73    0.61
   8   7  -2    2.82    0.63
  -8  -7   2    4.12    1.35
   8  -7  -2    2.67    0.98
  -2   8   8    1.15    0.55
  -2   8   8    2.10    0.53
  -2   8   8    0.86    0.92
   2   8  -8    0.85    0.59
   2  -8  -8    0.96    1.21
   2  -8  -8    0.93    1.08
  -2  -8   8    2.31    0.88
  -3   8   7    0.92    0.85
  -3   8   7    0.80    0.48
   3   8  -7    1.47    0.62
  -3   8   7    0.72    0.43
   3  -8  -7    0.30    0.96
   3  -8  -7    1.43    1.08
  -3  -8   7    1.07    0.72
  -4   8   6   -0.28    0.80
   4   8  -6    0.10    0.60
  -4   8   6    0.33    0.42
  -4   8   6    0.59    0.43
   4  -8  -6    1.28    0.92
   4  -8  -6    0.37    0.94
  -4  -8   6   -0.25    0.65
  -5   8   5    2.50    0.65
   5   8  -5    2.43    0.72
  -5   8   5    2.18    0.53
  -5   8   5    1.98    0.88
  -5  -8   5    3.72    0.71
   5  -8  -5    1.80    1.08
   5  -8  -5    1.45    0.91
   6   8  -4    0.92    0.82
  -6   8   4    2.31    1.00
  -6   8   4    1.75    0.59
  -6   8   4    1.27    0.47
   6  -8  -4    2.65    1.04
  -2   0 -13   -0.34    0.86
   2   0  13    1.32    0.41
   2   0  13    0.76    0.50
   2   0  13    0.41    0.58
   1   0  12    0.12    0.28
  -1   0 -12   -0.34    0.64
   1   0  12   -0.20    0.42
   1   0  12    0.44    0.44
  -1   0 -12    1.52    0.57
   1   0  12    0.45    0.41
   0   0  11   20.29    0.86
   0   0  11   19.90    0.99
   0   0 -11   16.30    1.25
   0   0 -11   19.89    1.10
   0   0  11   20.61    0.77
   0   0 -11   18.11    0.90
   0   0  11   20.74    1.05
   1   0 -10    7.89    0.74
  -1   0  10    6.60    0.55
  -1   0  10    6.78    0.49
   1   0 -10    6.57    0.52
  -1   0  10    7.06    0.39
   1   0 -10    6.60    0.67
   1   0 -10    7.27    0.65
  -1   0  10    6.13    0.60
  -2   0   9    2.53    0.40
   2   0  -9    2.54    0.27
  -2   0   9    2.00    0.32
   2   0  -9    1.82    0.35
  -2   0   9    2.34    0.43
  -2   0   9    2.30    0.35
   2   0  -9    2.80    0.39
  -2   0   9    3.32    0.45
  -2   0   9    2.41    0.34
   2   0  -9    2.98    0.43
  -2   0   9    2.77    0.29
   3   0  -8   10.69    0.58
   3   0  -8    9.27    0.66
  -3   0   8    9.48    0.63
  -3   0   8    9.20    0.47
  -3   0   8   10.40    0.71
   3   0  -8    9.86    0.48
  -3   0   8    9.19    0.58
  -3   0   8   10.04    0.65
   4   0  -7   93.99    2.62
  -4   0   7   93.44    2.60
  -4   0   7   89.15    2.54
  -4   0   7   91.79    2.62
   4   0  -7   91.42    2.63
  -4   0   7   91.53    2.40
   4   0  -7   93.19    2.49
  -4   0   7   94.76    2.68
  -4   0   7   94.74    2.66
   5   0  -6    0.19    0.19
  -5   0   6    0.63    0.15
   5   0  -6    0.54    0.23
  -5   0   6    0.09    0.22
  -5   0   6    0.49    0.27
   5   0  -6    0.41    0.18
   6   0  -5    0.91    0.26
  -6   0   5    0.79    0.28
  -6   0   5    1.17    0.19
   6   0  -5    1.02    0.31
  -6   0   5    1.12    0.30
   6   0  -5    0.42    0.28
  -7   0   4   44.64    1.63
  -7   0   4   45.66    1.66
   7   0  -4   47.27    1.55
  -7   0   4   47.20    1.37
   7   0  -4   47.53    1.67
   7   0  -4   49.35    1.72
   8   0  -3    1.23    0.41
  -8   0   3    1.80    0.44
  -8   0   3    1.16    0.28
   8   0  -3    0.71    0.38
   8   0  -3    1.13    0.33
   9   0  -2    0.42    0.37
   9   0  -2   -0.74    0.39
   9   0  -2    0.49    0.45
  10   0  -1    7.85    1.04
  10   0  -1    7.48    1.09
  11   0   0    1.04    0.75
  11   0   0    0.46    0.70
   2   1  13    0.69    0.56
  -2   1 -13    0.45    0.89
   2   1  13    0.02    0.36
   2   1  13    1.41    0.86
   2   1  13    1.36    0.57
   2  -1  13    1.45    0.56
   2  -1  13    1.18    0.63
  -2  -1 -13    0.61    0.87
  -1   1 -12    5.89    0.88
   1   1  12    4.03    0.53
   1   1  12    4.88    0.63
   1   1  12    3.18    0.56
   1   1  12    3.54    0.61
   1  -1  12    5.09    0.52
   1  -1  12    4.11    0.62
   1  -1  12    3.42    0.53
  -1  -1 -12    4.28    0.81
   0   1 -11    6.35    0.54
   0   1  11    5.89    0.47
   0   1 -11    7.24    0.74
   0   1 -11    5.24    0.65
   0   1  11    5.90    0.53
   0   1  11    7.49    0.71
   0   1 -11    7.64    0.77
   0   1  11    7.15    0.70
   0  -1 -11    7.03    0.84
   0  -1 -11    4.41    0.83
   0  -1  11    7.07    0.64
   0  -1  11    6.22    0.74
   0  -1  11    6.13    0.46
   0  -1  11    6.45    0.62
   0  -1 -11    6.99    0.89
  -1   1  10   14.59    0.80
   1   1 -10   13.49    0.64
  -1   1  10   15.12    0.66
   1   1 -10   14.73    0.84
  -1   1  10   14.64    0.84
  -1   1  10   15.57    0.64
   1   1 -10   14.06    0.87
   1   1 -10   13.61    0.80
  -1  -1  10   13.73    0.87
   1  -1 -10   13.26    0.77
   1  -1 -10   13.98    0.65
  -1  -1  10   14.07    0.57
   1  -1 -10   13.69    0.88
   1  -1 -10   14.05    0.95
  -1  -1  10   15.49    0.79
  -1  -1  10   14.84    0.74
  -2   1   9   12.53    0.79
  -2   1   9   13.01    0.76
   2   1  -9   13.92    0.72
  -2   1   9   12.60    0.58
   2   1  -9   12.00    0.75
  -2   1   9   13.23    0.82
  -2   1   9   12.79    0.72
  -2   1   9   13.32    0.69
   2   1  -9   12.43    0.74
   2  -1  -9   13.86    0.81
  -2  -1   9   13.17    0.74
  -2  -1   9   13.95    0.64
   2  -1  -9   13.76    0.64
  -2  -1   9   13.95    0.46
   2  -1  -9   13.01    0.80
   2  -1  -9   13.85    0.80
  -2  -1   9   11.00    0.77
  -2  -1   9   13.92    0.70
  -2  -1   9   12.84    0.78
   3   1  -8   35.59    1.20
  -3   1   8   34.74    1.19
  -3   1   8   34.84    1.13
  -3   1   8   36.34    1.30
  -3   1   8   35.18    1.25
   3   1  -8   33.55    1.28
  -3   1   8   35.24    1.31
  -3   1   8   34.21    1.33
  -3  -1   8   34.96    1.27
  -3  -1   8   35.10    1.28
  -3  -1   8   35.54    1.26
  -3  -1   8   35.47    1.22
   3  -1  -8   35.47    1.35
  -3  -1   8   35.85    1.25
  -3  -1   8   35.83    1.15
  -3  -1   8   36.06    0.91
   3  -1  -8   36.87    1.15
   3  -1  -8   36.40    1.18
  -4   1   7   90.81    2.61
  -4   1   7   85.52    2.39
   4   1  -7   88.01    2.52
   4   1  -7   89.50    2.45
  -4   1   7   89.65    2.52
  -4   1   7   87.98    2.55
  -4   1   7   89.71    2.57
  -4   1   7   86.47    2.40
  -4  -1   7   86.37    2.49
  -4  -1   7   91.27    2.39
  -4  -1   7   87.17    2.50
  -4  -1   7   89.41    2.48
   4  -1  -7   88.01    2.53
  -4  -1   7   89.41    2.54
  -4  -1   7   89.30    2.52
  -4  -1   7   86.94    2.18
   4  -1  -7   91.08    2.36
  -4  -1   7   88.34    2.16
   4  -1  -7   88.82    2.35
   4  -1  -7   87.04    2.56
  -5   1   6    7.51    0.63
  -5   1   6    8.56    0.57
   5   1  -6    8.26    0.53
   5   1  -6    8.06    0.57
   5   1  -6    8.45    0.56
  -5   1   6    7.14    0.59
  -5  -1   6    8.32    0.33
   5  -1  -6    8.48    0.47
  -5  -1   6    7.71    0.57
   5  -1  -6    8.44    0.62
   5  -1  -6    7.94    0.61
  -5  -1   6    7.19    0.54
  -6   1   5   64.29    1.97
   6   1  -5   60.82    1.94
  -6   1   5   61.06    2.00
   6   1  -5   60.25    1.95
   6   1  -5   62.26    1.90
   6   1  -5   59.73    1.91
  -6   1   5   62.16    1.77
   6  -1  -5   61.46    1.77
  -6  -1   5   64.05    1.63
   6  -1  -5   61.30    2.00
  -6  -1   5   61.69    1.92
  -6  -1   5   61.31    1.96
   6  -1  -5   60.18    1.94
  -7   1   4   15.01    0.66
   7   1  -4   13.95    0.83
  -7   1   4   15.43    0.91
   7   1  -4   15.37    0.82
   7   1  -4   14.86    0.87
  -7   1   4   14.55    0.85
   7  -1  -4   14.02    0.70
  -7  -1   4   13.05    0.79
   7  -1  -4   13.43    0.82
  -7  -1   4   15.31    0.88
   7  -1  -4   15.03    0.91
  -7  -1   4   15.00    0.57
   7  -1  -4   15.44    0.72
   8   1  -3    0.34    0.36
   8   1  -3    0.10    0.35
   8   1  -3    0.27    0.26
  -8   1   3    0.52    0.37
   8   1  -3    0.50    0.39
   8  -1  -3   -0.36    0.26
   8  -1  -3   -0.40    0.34
  -8  -1   3    0.20    0.20
   8  -1  -3    0.03    0.36
   9   1  -2    5.13    0.58
  -9   1   2    4.24    0.61
   9   1  -2    4.60    0.70
   9   1  -2    4.67    0.67
   9   1  -2    4.34    0.66
   9  -1  -2    4.87    0.47
   9  -1  -2    4.08    0.62
   9  -1  -2    5.73    0.76
   9  -1  -2    4.95    0.69
  10   1  -1    7.45    1.01
  10   1  -1    7.16    0.90
  10   1  -1    6.64    0.93
  10   1  -1    6.80    0.80
  10  -1  -1    8.03    1.06
  10  -1  -1    4.37    0.72
  11   1   0    1.39    0.81
  11   1   0    0.88    0.61
  11   1   0    0.48    0.70
  11  -1   0    0.93    0.74
  -2   2 -13    3.10    0.95
   2   2  13    2.04    0.64
   2   2  13    2.05    0.47
   2   2  13    2.68    0.68
   2  -2  13    3.08    0.69
  -2  -2 -13    0.68    1.16
   2  -2  13    3.75    0.59
  -2  -2 -13    3.40    0.98
   2  -2  13    2.51    0.72
   1   2  12    7.43    0.81
   1   2  12    8.72    0.98
   1   2  12    9.03    0.66
   1   2  12    9.39    0.63
  -1   2 -12    8.90    1.21
   1  -2  12   10.27    0.86
  -1  -2 -12   10.11    1.25
   1  -2  12    9.34    0.86
   1  -2  12    8.28    0.67
   0   2  11    6.82    0.67
   0   2  11    6.40    0.52
   0   2 -11    6.87    0.49
   0   2 -11    5.51    0.71
   0   2  11    6.35    0.42
   0   2 -11    6.54    0.73
   0   2  11    5.63    0.55
   0   2 -11    4.76    0.58
   0   2  11    5.80    0.72
   0  -2  11    7.35    0.48
   0  -2  11    6.19    0.66
   0  -2  11    6.01    0.60
   0  -2  11    5.67    0.68
   0  -2 -11    4.35    0.73
  -1   2  10    4.20    0.39
  -1   2  10    4.34    0.46
  -1   2  10    3.81    0.53
  -1   2  10    3.10    0.43
  -1   2  10    3.32    0.48
   1   2 -10    5.20    0.59
   1   2 -10    3.68    0.50
   1  -2 -10    3.06    0.54
   1  -2 -10    3.13    0.48
   1  -2 -10    4.15    0.58
  -1  -2  10    4.51    0.39
   1  -2 -10    3.61    0.54
  -1  -2  10    4.25    0.51
  -1  -2  10    4.72    0.52
  -2   2   9    7.51    0.70
  -2   2   9    8.29    0.70
  -2   2   9    9.05    0.67
   2   2  -9    9.72    0.63
  -2   2   9    8.12    0.55
  -2   2   9    8.32    0.61
  -2   2   9    9.37    0.57
   2   2  -9    9.14    0.64
  -2  -2   9    8.24    0.56
   2  -2  -9    8.75    0.70
  -2  -2   9    9.32    0.58
   2  -2  -9    8.30    0.59
   2  -2  -9    8.51    0.89
   2  -2  -9    8.55    0.72
  -2  -2   9    8.09    0.54
  -3   2   8   11.30    0.62
  -3   2   8   10.50    0.57
  -3   2   8   10.48    0.74
  -3   2   8   11.15    0.71
   3   2  -8   11.58    0.62
  -3   2   8   11.44    0.66
  -3   2   8   10.41    0.70
  -3  -2   8   11.39    0.69
  -3  -2   8   10.86    0.64
  -3  -2   8   10.54    0.64
  -3  -2   8   11.10    0.59
  -3  -2   8   11.21    0.68
   3  -2  -8   11.00    0.63
   3  -2  -8   11.89    0.64
  -3  -2   8   10.81    0.66
  -4   2   7   16.89    0.80
   4   2  -7   18.17    0.82
  -4   2   7   18.40    0.85
   4   2  -7   17.58    0.80
  -4   2   7   15.92    0.69
  -4   2   7   16.11    0.85
  -4   2   7   18.16    0.91
  -4   2   7   17.93    0.90
  -4  -2   7   19.28    0.90
   4  -2  -7   18.27    0.80
  -4  -2   7   18.68    0.81
   4  -2  -7   17.51    0.90
  -4  -2   7   17.49    0.84
  -4  -2   7   18.21    0.74
   4  -2  -7   17.29    0.87
   4  -2  -7   18.32    0.69
  -4  -2   7   18.28    0.86
  -4  -2   7   18.03    0.82
  -5   2   6    0.72    0.28
   5   2  -6    0.91    0.31
   5   2  -6    1.35    0.30
  -5   2   6    1.07    0.31
   5   2  -6    1.09    0.27
  -5   2   6    1.46    0.32
   5   2  -6    1.19    0.33
  -5  -2   6    1.08    0.24
  -5  -2   6    0.95    0.11
   5  -2  -6    1.46    0.35
   5  -2  -6    0.80    0.31
   5  -2  -6    0.93    0.23
  -5  -2   6    1.47    0.30
   5  -2  -6    0.86    0.20
  -5  -2   6    0.73    0.24
  -5  -2   6    0.69    0.22
   6   2  -5    4.70    0.59
   6   2  -5    5.82    0.54
   6   2  -5    5.96    0.56
  -6   2   5    6.29    0.60
   6   2  -5    5.51    0.57
  -6   2   5    6.07    0.63
   6   2  -5    6.22    0.42
   6  -2  -5    6.33    0.63
  -6  -2   5    5.47    0.53
  -6  -2   5    5.68    0.30
  -6  -2   5    5.10    0.60
  -6  -2   5    5.78    0.43
   6  -2  -5    6.13    0.57
   6  -2  -5    5.97    0.43
   7   2  -4   21.57    1.05
   7   2  -4   21.79    0.85
   7   2  -4   21.54    1.01
  -7   2   4   21.49    0.89
   7   2  -4   20.46    1.07
  -7   2   4   21.19    1.09
  -7   2   4   19.71    1.03
   7  -2  -4   21.60    1.09
  -7  -2   4   22.75    0.74
   7  -2  -4   22.95    0.85
   7  -2  -4   22.48    1.11
  -8   2   3   41.20    1.64
   8   2  -3   43.27    1.41
   8   2  -3   38.87    1.62
   8   2  -3   42.53    1.62
  -8   2   3   42.19    1.63
   8   2  -3   42.56    1.67
  -8  -2   3   41.46    1.27
   8  -2  -3   41.13    1.68
   8  -2  -3   42.24    1.39
   8  -2  -3   39.66    1.63
   8  -2  -3   38.91    1.21
  -9   2   2    2.71    0.59
   9   2  -2    2.89    0.55
   9   2  -2    3.78    0.55
   9  -2  -2    3.08    0.63
   9  -2  -2    2.27    0.52
   9  -2  -2    2.55    0.41
  10   2  -1    0.38    0.56
  10   2  -1    0.82    0.55
  10   2  -1    0.21    0.43
  10  -2  -1    0.64    0.62
  10  -2  -1   -0.12    0.60
  11   2   0    1.68    0.72
  11   2   0    1.74    0.80
  11   2   0    2.82    0.70
  11  -2   0    2.92    0.89
  11  -2   0    3.24    0.91
  -2   3 -13    0.60    0.96
   2   3  13    0.45    0.75
   2   3  13    0.83    0.65
   2   3  13    0.45    0.44
   2  -3  13    0.45    0.69
  -2  -3 -13   -0.63    1.27
  -2  -3 -13   -0.85    0.96
   1   3  12   10.45    0.88
   1   3  12    7.41    0.71
  -1   3 -12    6.49    0.87
   1   3  12    9.11    1.00
   1   3  12    8.09    0.62
   1  -3  12    7.05    0.84
  -1  -3 -12    7.99    1.29
  -1  -3 -12    9.47    1.25
   1  -3  12    8.85    0.98
   0   3 -11    5.77    0.78
   0   3  11    4.22    0.63
   0   3  11    4.25    0.59
   0   3  11    4.43    0.46
   0   3  11    4.82    0.54
   0   3 -11    3.70    0.61
   0   3 -11    5.63    0.71
   0   3  11    3.60    0.48
   0   3 -11    3.71    0.39
   0  -3 -11    2.81    0.69
   0  -3  11    5.33    0.69
   0  -3  11    4.79    0.59
   0  -3  11    4.31    0.61
   1   3 -10    5.79    0.67
  -1   3  10    6.62    1.02
  -1   3  10    6.91    0.77
   1   3 -10    6.14    0.35
  -1   3  10    6.61    0.59
   1   3 -10    6.78    0.62
  -1   3  10    5.74    0.71
  -1   3  10    6.12    0.49
   1   3 -10    6.21    0.68
  -1  -3  10    6.73    0.52
  -1  -3  10    6.90    0.67
  -1  -3  10    7.34    0.56
   1  -3 -10    7.29    0.92
   1  -3 -10    7.08    0.66
  -2   3   9   20.31    0.90
  -2   3   9   25.96    1.15
  -2   3   9   26.48    1.04
  -2   3   9   25.35    1.03
   2   3  -9   20.46    0.64
   2   3  -9   19.68    0.93
  -2   3   9   22.05    0.84
  -2   3   9   24.28    1.14
   2   3  -9   22.02    0.98
  -2   3   9   25.26    1.08
  -2  -3   9   20.96    0.89
   2  -3  -9   22.36    1.11
   2  -3  -9   23.76    1.03
  -2  -3   9   19.71    0.95
   3   3  -8    8.06    0.58
   3   3  -8    7.26    0.45
  -3   3   8    8.92    0.66
  -3   3   8    8.66    0.61
  -3   3   8    7.48    0.48
  -3   3   8    7.99    0.66
  -3   3   8    8.18    0.72
  -3   3   8    7.24    0.66
   3  -3  -8    7.70    0.63
  -3  -3   8    7.80    0.57
  -3  -3   8    8.62    0.58
  -3  -3   8    7.84    0.47
   3  -3  -8    7.10    0.64
   4   3  -7    4.49    0.53
  -4   3   7    5.59    0.54
  -4   3   7    5.16    0.57
  -4   3   7    4.95    0.56
  -4   3   7    5.52    0.60
  -4   3   7    5.88    0.57
  -4   3   7    5.54    0.40
   4   3  -7    5.71    0.75
  -4  -3   7    5.54    0.40
  -4  -3   7    5.23    0.51
   4  -3  -7    4.63    0.57
  -4  -3   7    5.13    0.47
   4  -3  -7    5.66    0.48
  -4  -3   7    5.79    0.49
  -4  -3   7    5.72    0.46
   5   3  -6    5.45    0.59
   5   3  -6    6.09    0.50
  -5   3   6    6.28    0.60
  -5   3   6    5.54    0.63
  -5   3   6    5.18    0.57
   5   3  -6    5.65    0.49
   5   3  -6    4.99    0.73
  -5  -3   6    4.37    0.42
   5  -3  -6    5.06    0.71
   5  -3  -6    4.85    0.38
  -5  -3   6    4.51    0.24
  -5  -3   6    4.28    0.46
   5  -3  -6    5.50    0.72
   5  -3  -6    4.32    0.58
  -5  -3   6    3.48    0.49
  -5  -3   6    4.11    0.39
  -6   3   5    8.71    0.73
   6   3  -5    9.97    0.64
   6   3  -5    9.51    0.48
  -6   3   5    9.27    0.75
   6   3  -5    9.77    0.67
   6   3  -5   10.00    1.06
   6   3  -5   10.57    0.77
  -6  -3   5    9.38    0.52
  -6  -3   5    7.93    0.41
   6  -3  -5    8.61    0.38
   6  -3  -5    8.73    0.82
  -6  -3   5    8.14    0.64
   6  -3  -5    8.81    0.65
   6  -3  -5    9.00    0.67
   7   3  -4   82.07    2.19
  -7   3   4   77.95    2.47
   7   3  -4   83.08    2.42
  -7   3   4   79.20    2.57
   7   3  -4   80.04    2.48
   7  -3  -4   80.68    2.60
  -7  -3   4   78.59    2.17
   7  -3  -4   82.27    2.54
   7  -3  -4   77.78    2.12
   7  -3  -4   84.10    2.43
  -7  -3   4   78.19    2.16
   8   3  -3   30.76    1.10
   8   3  -3   29.28    1.31
  -8   3   3   29.58    1.40
   8   3  -3   30.08    1.40
  -8   3   3   28.86    1.32
  -8  -3   3   28.69    0.94
   8  -3  -3   27.22    1.41
   8  -3  -3   27.82    1.00
   8  -3  -3   27.77    0.99
  -8  -3   3   25.54    1.01
   8  -3  -3   27.65    1.37
   9   3  -2    6.52    0.90
   9   3  -2    6.67    0.91
   9   3  -2    7.70    0.68
  -9   3   2    6.17    0.75
   9  -3  -2    7.26    0.62
  -9  -3   2    8.23    0.46
   9  -3  -2    7.92    0.97
   9  -3  -2    8.22    1.01
  10   3  -1    1.06    0.60
  10   3  -1    0.88    0.65
  10   3  -1    0.86    0.47
  10  -3  -1    1.24    0.67
  10  -3  -1    0.45    0.63
  11   3   0   -0.03    0.60
  11   3   0   -1.61    0.74
  11   3   0    0.75    0.89
  11  -3   0    0.58    0.88
   1   4  12    0.96    0.54
  -1   4 -12    1.66    0.72
   1   4  12    1.34    0.45
   1   4  12    1.63    0.58
   1  -4  12    2.38    0.73
  -1  -4 -12    1.93    1.21
  -1  -4 -12    2.21    0.77
   0   4  11    1.37    0.41
   0   4  11    0.64    0.30
   0   4  11    0.28    0.36
   0   4 -11    0.46    0.48
   0   4  11    0.24    0.40
   0  -4 -11    0.31    0.62
   0  -4 -11    1.76    0.91
   0  -4  11    1.07    0.49
   0  -4  11    0.64    0.36
  -1   4  10    7.73    1.13
  -1   4  10    8.03    0.69
  -1   4  10    9.19    0.88
   1   4 -10    8.88    0.78
  -1   4  10    6.50    0.75
   1   4 -10    7.96    0.38
   1   4 -10    8.60    0.83
  -1   4  10    8.78    0.70
  -1  -4  10    8.75    0.67
   1  -4 -10    8.06    1.07
   1  -4 -10    9.15    0.85
  -1  -4  10    8.19    0.75
   1  -4 -10    8.12    0.98
  -1  -4  10    7.27    0.57
  -2   4   9   16.08    1.05
  -2   4   9   14.50    0.99
  -2   4   9   13.76    0.97
   2   4  -9   14.00    0.84
  -2   4   9   15.52    0.88
   2   4  -9   14.78    0.77
  -2   4   9   13.92    0.88
   2   4  -9   13.56    0.56
  -2   4   9   13.63    0.70
   2  -4  -9   14.94    0.96
  -2  -4   9   14.47    0.71
  -2  -4   9   15.58    1.01
  -2  -4   9   14.99    0.65
   2  -4  -9   14.43    0.91
   3   4  -8    8.21    0.53
  -3   4   8    7.98    0.66
   3   4  -8    8.98    0.67
  -3   4   8   10.19    0.79
  -3   4   8    8.90    0.71
  -3   4   8    7.82    0.49
  -3   4   8    9.62    0.77
  -3   4   8    8.60    0.73
  -3  -4   8    8.73    0.65
   3  -4  -8    8.86    0.71
  -3  -4   8    9.94    0.69
  -3  -4   8    9.05    0.50
  -3  -4   8    8.37    0.46
   3  -4  -8    9.44    0.90
  -4   4   7   36.79    1.49
  -4   4   7   37.01    1.15
   4   4  -7   39.00    1.32
  -4   4   7   40.69    1.41
  -4   4   7   39.63    1.47
   4   4  -7   40.28    1.45
  -4   4   7   40.16    1.52
  -4   4   7   39.22    1.46
  -4  -4   7   37.74    1.22
  -4  -4   7   38.06    1.28
   4  -4  -7   37.92    1.30
  -4  -4   7   37.53    1.34
  -4  -4   7   39.26    1.20
   4  -4  -7   40.60    1.52
  -5   4   6   93.39    2.80
  -5   4   6   95.95    2.74
  -5   4   6   93.55    2.77
   5   4  -6   94.08    2.55
   5   4  -6   89.45    2.24
  -5   4   6   95.18    2.70
   5   4  -6   91.41    2.65
   5   4  -6   92.32    2.76
  -5  -4   6   88.40    2.52
   5  -4  -6   94.64    2.74
  -5  -4   6   90.81    2.49
   5  -4  -6   92.36    2.76
   5  -4  -6   80.49    2.31
  -5  -4   6   96.59    2.56
   5  -4  -6   89.03    2.72
  -6   4   5    4.31    0.58
   6   4  -5    4.67    0.62
   6   4  -5    4.03    0.50
  -6   4   5    5.00    0.63
   6   4  -5    4.24    0.54
   6   4  -5    5.30    0.38
   6  -4  -5    5.20    0.66
  -6  -4   5    4.29    0.45
   6  -4  -5    4.62    0.65
   6  -4  -5    4.09    0.56
   6  -4  -5    3.86    0.58
  -6  -4   5    4.00    0.38
   7   4  -4    1.30    0.40
  -7   4   4    2.14    0.51
  -7   4   4    1.96    0.47
   7   4  -4    2.05    0.39
   7   4  -4    1.61    0.47
   7  -4  -4    1.91    0.49
   7  -4  -4    2.00    0.47
  -7  -4   4    1.87    0.32
  -7  -4   4    2.05    0.31
   7  -4  -4    2.28    0.49
   7  -4  -4    2.22    0.47
  -8   4   3    2.20    0.57
   8   4  -3    1.19    0.32
   8   4  -3    0.77    0.43
   8   4  -3    0.06    0.53
  -8   4   3    1.52    0.51
   8  -4  -3    0.77    0.42
  -8  -4   3    1.08    0.26
   8  -4  -3    1.06    0.49
   8  -4  -3    1.56    0.58
   9   4  -2    1.41    0.54
   9   4  -2    1.11    0.52
   9  -4  -2    1.14    0.64
   9  -4  -2    1.99    0.72
   9  -4  -2    1.73    0.48
  10   4  -1    1.91    0.53
  10   4  -1    1.73    0.77
  10   4  -1    1.86    0.66
  10  -4  -1    1.07    0.62
  10  -4  -1    2.41    0.80
  11   4   0    2.17    0.75
   1   5  12    1.85    0.66
   1   5  12    1.26    0.56
  -1   5 -12    0.33    0.82
   1   5  12    1.62    0.70
   1  -5  12    2.64    0.94
  -1  -5 -12    2.18    0.89
  -1  -5 -12    2.34    1.46
   0   5 -11    0.68    0.53
   0   5  11    0.66    0.46
   0   5  11   -0.09    0.44
   0   5  11   -0.31    0.42
   0  -5  11    0.71    0.58
   0  -5 -11    1.35    0.64
   0  -5 -11    1.68    1.08
  -1   5  10    1.62    0.83
  -1   5  10    1.77    0.44
  -1   5  10    2.63    0.50
  -1   5  10    3.57    0.54
   1   5 -10    2.55    0.49
   1  -5 -10    2.84    0.68
   1  -5 -10    3.37    0.82
   1  -5 -10    2.73    1.03
  -1  -5  10    2.84    0.64
  -2   5   9    0.84    0.50
  -2   5   9    0.95    0.35
  -2   5   9    0.83    0.33
   2   5  -9    0.68    0.39
  -2   5   9    1.97    0.48
  -2   5   9    1.61    0.49
   2   5  -9    0.80    0.28
  -2   5   9    1.08    0.29
  -2  -5   9    0.80    0.24
   2  -5  -9    0.34    0.77
  -2  -5   9    0.49    0.25
   2  -5  -9    1.42    0.54
   2  -5  -9    0.84    0.45
  -2  -5   9    0.31    0.41
  -3   5   8    2.71    0.54
  -3   5   8    2.71    0.45
  -3   5   8    2.34    0.32
  -3   5   8    2.72    0.50
  -3   5   8    2.09    0.48
  -3   5   8    3.39    0.57
   3   5  -8    3.01    0.49
   3   5  -8    2.61    0.38
  -3  -5   8    2.27    0.57
   3  -5  -8    2.31    0.58
  -3  -5   8    2.69    0.37
   3  -5  -8    3.60    0.87
   3  -5  -8    1.65    0.38
  -3  -5   8    2.95    0.33
   4   5  -7   21.23    1.09
  -4   5   7   20.88    1.05
   4   5  -7   19.86    0.95
  -4   5   7   19.21    1.05
  -4   5   7   19.66    0.97
  -4   5   7   18.17    1.25
  -4  -5   7   20.75    1.01
  -4  -5   7   19.55    0.83
   4  -5  -7   19.58    1.18
  -4  -5   7   19.01    0.71
  -4  -5   7   19.54    0.68
   4  -5  -7   19.84    1.34
   5   5  -6    6.24    0.50
   5   5  -6    6.19    0.77
  -5   5   6    6.19    0.68
  -5   5   6    5.52    0.71
  -5   5   6    6.29    0.75
   5   5  -6    5.75    0.34
  -5  -5   6    6.58    0.64
  -5  -5   6    7.04    0.61
  -5  -5   6    7.50    0.43
   5  -5  -6    4.62    0.83
   5  -5  -6    7.46    0.87
   5  -5  -6    6.13    0.75
  -6   5   5    4.08    0.61
   6   5  -5    4.37    0.37
   6   5  -5    3.47    0.47
  -6   5   5    3.47    0.54
   6   5  -5    4.08    0.73
  -6   5   5    3.62    0.55
  -6  -5   5    3.55    0.46
  -6  -5   5    4.95    0.50
   6  -5  -5    3.52    0.58
   6  -5  -5    3.99    0.60
  -6  -5   5    4.05    0.50
   6  -5  -5    6.09    0.74
   6  -5  -5    3.94    0.55
   7   5  -4    1.62    0.54
   7   5  -4    1.07    0.38
  -7   5   4    0.45    0.49
   7   5  -4    1.01    0.37
   7   5  -4    0.77    0.26
  -7   5   4    1.38    0.50
   7  -5  -4    0.21    0.42
   7  -5  -4    1.38    0.43
  -7  -5   4    0.28    0.36
  -7  -5   4    1.09    0.31
   7  -5  -4    1.23    0.38
   7  -5  -4    0.54    0.46
   8   5  -3    3.94    0.58
   8   5  -3    4.14    0.62
   8   5  -3    3.90    0.54
   8  -5  -3    3.68    0.63
   8  -5  -3    3.80    0.63
  -8  -5   3    4.24    0.48
   9   5  -2   12.90    1.15
   9   5  -2   11.64    1.14
   9   5  -2   12.59    0.87
   9  -5  -2   10.30    1.23
   9  -5  -2   12.47    1.13
  10   5  -1    4.37    0.68
  10   5  -1    4.11    0.92
  10   5  -1    6.96    1.01
  10  -5  -1    5.60    0.86
  10  -5  -1    6.44    1.48
   0   6  11    2.51    0.67
   0   6  11    2.32    0.65
   0   6  11    2.94    0.65
   0   6 -11    1.43    0.68
   0  -6 -11    2.42    1.34
   0  -6  11    3.68    0.93
  -1   6  10    4.04    0.59
  -1   6  10    4.14    0.63
   1   6 -10    2.81    0.57
  -1   6  10    3.92    0.57
   1  -6 -10    4.53    1.08
  -1  -6  10    4.64    0.76
   1  -6 -10    3.44    0.82
  -2   6   9    8.57    0.85
  -2   6   9    8.56    0.76
  -2   6   9    8.09    0.76
   2   6  -9    9.05    0.84
   2  -6  -9    8.88    1.26
  -2  -6   9    7.67    0.88
   2  -6  -9    7.21    0.91
   3   6  -8    1.29    0.43
  -3   6   8    1.07    0.37
  -3   6   8    0.72    0.35
   3   6  -8    0.20    0.45
  -3   6   8    1.90    0.53
  -3  -6   8    1.00    0.52
   3  -6  -8    0.63    0.74
   3  -6  -8    0.56    0.65
  -4   6   7    0.60    0.37
  -4   6   7    0.45    0.35
  -4   6   7    2.12    0.63
   4   6  -7    0.95    0.12
  -4   6   7    0.32    0.68
   4   6  -7    0.36    0.42
   4  -6  -7    1.10    0.59
  -4  -6   7    0.74    0.45
   4  -6  -7    1.60    0.73
  -4  -6   7    0.67    0.61
   5   6  -6    9.40    0.44
  -5   6   6    9.34    0.80
   5   6  -6    9.42    0.92
  -5   6   6    9.41    0.76
  -5   6   6    9.38    1.01
   5  -6  -6    8.83    1.07
  -5  -6   6    8.62    0.76
   5  -6  -6   11.54    1.08
  -6   6   5    3.07    0.53
   6   6  -5    1.44    0.53
   6   6  -5    2.87    0.33
  -6   6   5    2.82    0.55
   6   6  -5    3.75    0.51
   6  -6  -5    2.07    0.58
   6  -6  -5    3.04    0.85
  -6  -6   5    3.13    0.47
   6  -6  -5    2.64    0.62
   7   6  -4    4.83    0.78
   7   6  -4    4.83    0.63
   7   6  -4    5.03    0.51
   7   6  -4    5.19    0.73
  -7   6   4    4.65    0.63
   7  -6  -4    5.15    0.72
   7  -6  -4    5.56    0.79
   7  -6  -4    5.13    0.78
  -7  -6   4    4.88    0.59
   8   6  -3    1.43    0.52
   8   6  -3    2.19    0.44
   8   6  -3    2.06    0.55
   8  -6  -3    1.19    0.64
   8  -6  -3    2.13    0.66
   9   6  -2    1.47    0.70
   9   6  -2    2.68    0.56
   9   6  -2    1.80    0.67
   9  -6  -2    0.47    0.80
  -1   7  10    6.56    0.95
   1   7 -10    6.45    0.78
  -1   7  10    7.35    1.08
  -1   7  10    8.66    1.15
   1  -7 -10    6.15    1.09
  -1  -7  10    7.92    1.16
   1  -7 -10    9.17    1.69
  -2   7   9   -0.54    0.64
   2   7  -9    0.09    0.51
  -2   7   9   -0.36    0.40
  -2   7   9    0.09    0.42
   2  -7  -9   -0.13    0.80
  -2  -7   9    2.59    0.72
   2  -7  -9    1.38    1.11
  -3   7   8   -0.20    0.36
  -3   7   8    0.12    0.37
   3   7  -8   -0.22    0.48
  -3   7   8   -0.70    0.56
  -3  -7   8    0.31    0.55
   3  -7  -8    0.66    0.76
   3  -7  -8    0.17    0.95
  -4   7   7    0.57    0.65
  -4   7   7    1.41    0.40
  -4   7   7    0.92    0.42
   4   7  -7    0.45    0.52
   4  -7  -7    0.74    0.83
   4  -7  -7    0.06    0.70
  -4  -7   7    1.29    0.56
  -5   7   6   -0.50    0.62
   5   7  -6    0.17    0.55
  -5   7   6    0.39    0.42
  -5   7   6    0.10    0.39
   5  -7  -6    2.55    0.79
   5  -7  -6    1.28    0.75
  -5  -7   6   -0.42    0.51
  -6   7   5   10.61    1.28
   6   7  -5    7.43    0.94
  -6   7   5    8.99    0.86
   6   7  -5    9.28    0.70
  -6   7   5    8.44    0.91
   6  -7  -5    8.88    1.11
   6  -7  -5    7.94    1.09
  -7   7   4    7.33    1.04
   7   7  -4    8.39    1.07
   7   7  -4    7.27    0.68
   7   7  -4    7.49    0.73
  -7   7   4    8.66    1.03
  -7  -7   4    6.89    0.84
   7  -7  -4    7.31    1.04
   8   7  -3    4.01    0.59
  -8   7   3    2.88    0.81
   8   7  -3    6.17    1.07
   8   7  -3    3.37    0.68
   8   7  -3    5.04    0.70
   8  -7  -3    3.85    1.01
   3   8  -8    4.81    0.74
  -3   8   8    5.70    0.83
  -3   8   8    5.48    1.18
  -3   8   8    5.31    0.76
   3  -8  -8    9.50    1.41
   3  -8  -8    6.43    1.35
  -3  -8   8    6.02    1.05
   4   8  -7    2.64    0.71
  -4   8   7    3.26    1.08
  -4   8   7    2.03    0.49
  -4   8   7    2.09    0.56
   4  -8  -7    1.29    1.11
   4  -8  -7    1.66    1.02
  -4  -8   7    1.77    0.75
  -5   8   6    3.32    0.61
  -5   8   6    4.00    0.54
  -5   8   6    5.07    1.06
   5   8  -6    3.80    0.79
   5  -8  -6    4.44    1.12
  -5  -8   6    4.26    0.78
   5  -8  -6    5.52    1.16
  -6   8   5    1.77    0.60
  -6   8   5    0.94    1.13
  -6   8   5    1.70    0.52
   6   8  -5    2.33    0.96
   6  -8  -5    1.40    1.10
  -6  -8   5    1.04    0.71
   2   0  14    5.51    0.64
   2   0  14    6.23    0.83
   2   0  14    6.68    0.89
  -2   0 -14    2.48    1.23
   1   0  13    0.21    0.45
   1   0  13    0.72    0.55
  -1   0 -13    0.28    0.72
   1   0  13    0.47    0.60
   1   0  13    0.50    0.36
   0   0 -12    0.54    0.49
   0   0  12    0.50    0.38
   0   0  12    0.62    0.25
   0   0 -12    1.02    0.54
   0   0  12    0.43    0.37
   0   0 -12    0.64    0.52
   0   0  12    0.10    0.40
  -1   0  11    8.10    0.45
  -1   0  11    7.55    0.69
   1   0 -11    8.31    0.85
  -1   0  11    7.78    0.57
   1   0 -11    7.81    0.78
   1   0 -11    7.68    0.61
  -1   0  11    6.46    0.66
  -2   0  10    1.27    0.36
  -2   0  10    0.57    0.24
   2   0 -10    0.74    0.35
  -2   0  10    0.86    0.20
   2   0 -10    1.00    0.31
  -2   0  10    0.92    0.28
  -2   0  10    0.75    0.32
   2   0 -10    1.01    0.35
   2   0 -10    0.76    0.16
  -3   0   9    0.42    0.28
  -3   0   9    0.54    0.28
   3   0  -9    0.70    0.24
   3   0  -9    0.99    0.37
  -3   0   9    0.16    0.18
  -3   0   9    0.64    0.28
  -3   0   9    0.37    0.29
  -3   0   9    0.49    0.21
  -3   0   9    0.46    0.32
   4   0  -8    8.99    0.53
  -4   0   8    8.31    0.49
  -4   0   8    7.66    0.61
  -4   0   8    8.13    0.57
  -4   0   8    7.56    0.67
  -4   0   8    7.96    0.59
  -4   0   8    7.14    0.61
  -5   0   7  299.10    7.50
   5   0  -7  299.47    7.43
   5   0  -7  295.38    7.28
  -5   0   7  301.63    7.46
   5   0  -7  297.38    7.47
  -5   0   7  295.14    7.37
  -5   0   7  298.00    7.48
   6   0  -6   41.65    1.46
  -6   0   6   37.88    1.45
  -6   0   6   39.48    1.42
   6   0  -6   39.74    1.33
   6   0  -6   39.73    1.48
  -6   0   6   39.35    1.17
  -7   0   5    0.65    0.18
   7   0  -5    0.77    0.30
   7   0  -5    0.21    0.25
   7   0  -5    0.25    0.33
  -7   0   5    1.18    0.37
   7   0  -5    0.40    0.32
  -7   0   5    0.76    0.34
   8   0  -4    0.18    0.35
  -8   0   4    0.53    0.40
  -8   0   4    0.19    0.19
   8   0  -4   -0.40    0.31
   8   0  -4    0.47    0.32
   9   0  -3   31.26    1.52
   9   0  -3   30.93    1.20
   9   0  -3   31.53    1.49
  10   0  -2    1.32    0.60
  10   0  -2   -0.38    0.76
  10   0  -2    0.62    0.56
  11   0  -1    2.11    0.79
  11   0  -1    0.62    0.69
  12   0   0    1.82    0.95
  12   0   0   -0.72    1.47
  -2   1 -14   -0.90    1.12
   2   1  14   -0.79    0.67
   2   1  14    0.25    0.63
   2   1  14   -0.16    0.67
   2  -1  14    0.34    0.70
   2  -1  14    0.82    0.55
  -2  -1 -14   -1.47    1.11
   2  -1  14   -0.39    0.70
  -1   1 -13   -0.03    0.68
   1   1  13    0.62    0.47
   1   1  13   -0.41    0.41
   1   1  13    0.15    0.36
   1   1  13   -0.15    0.52
   1  -1  13    0.30    0.43
   1  -1  13    0.19    0.37
  -1  -1 -13   -0.22    0.73
   1  -1  13   -0.03    0.49
   0   1  12    3.08    0.59
   0   1  12    2.82    0.45
   0   1  12    3.32    0.54
   0   1 -12    2.93    0.42
   0   1  12    3.16    0.44
   0   1 -12    3.93    0.72
   0   1 -12    2.89    0.55
   0  -1 -12    1.99    0.64
   0  -1  12    2.87    0.49
   0  -1  12    2.74    0.36
   0  -1  12    2.45    0.44
   1   1 -11    7.98    0.77
  -1   1  11    8.47    0.71
  -1   1  11    8.10    0.53
   1   1 -11    8.60    0.56
   1   1 -11    9.05    0.78
  -1   1  11    8.20    0.50
   1   1 -11    7.73    1.17
  -1   1  11    7.16    0.71
  -1  -1  11    6.89    0.74
  -1  -1  11    8.17    0.63
   1  -1 -11    8.43    0.84
  -1  -1  11    7.27    0.44
   1  -1 -11    8.83    0.72
  -1  -1  11    7.31    0.64
   1  -1 -11    6.97    0.90
  -2   1  10    5.23    0.56
   2   1 -10    4.98    0.55
  -2   1  10    4.92    0.58
   2   1 -10    5.35    0.75
  -2   1  10    5.82    0.42
  -2   1  10    4.73    0.43
   2   1 -10    4.24    0.57
  -2   1  10    5.08    0.64
  -2  -1  10    5.07    0.66
   2  -1 -10    4.48    0.48
  -2  -1  10    5.35    0.52
   2  -1 -10    5.07    0.60
  -2  -1  10    4.27    0.46
   2  -1 -10    3.53    0.49
  -2  -1  10    4.35    0.33
   3   1  -9   35.97    1.23
  -3   1   9   34.46    1.21
  -3   1   9   34.21    1.36
   3   1  -9   33.79    0.95
   3   1  -9   35.01    1.34
  -3   1   9   31.54    1.21
  -3   1   9   34.92    1.11
  -3   1   9   32.62    1.34
  -3   1   9   36.78    1.31
   3  -1  -9   31.62    1.35
  -3  -1   9   31.61    1.24
  -3  -1   9   32.14    1.19
   3  -1  -9   33.61    1.12
  -3  -1   9   36.28    1.16
  -3  -1   9   32.21    1.26
   3  -1  -9   35.38    1.21
  -3  -1   9   31.77    1.30
  -3  -1   9   32.93    1.31
  -3  -1   9   33.17    0.88
  -4   1   8   11.75    0.74
  -4   1   8   10.72    0.58
  -4   1   8   10.28    0.67
  -4   1   8   11.23    0.69
  -4   1   8   11.75    0.61
  -4   1   8   11.27    0.73
   4   1  -8   11.18    0.61
  -4  -1   8    9.42    0.68
  -4  -1   8   10.81    0.37
  -4  -1   8    9.61    0.67
  -4  -1   8    9.62    0.66
  -4  -1   8   10.69    0.65
  -4  -1   8   10.59    0.76
   4  -1  -8   11.43    0.57
   4  -1  -8   11.10    0.59
  -4  -1   8   11.15    0.58
  -5   1   7   27.77    1.01
   5   1  -7   26.93    1.04
  -5   1   7   28.11    1.17
  -5   1   7   27.04    1.14
  -5   1   7   27.41    1.11
   5   1  -7   29.14    1.13
   5   1  -7   28.17    1.11
  -5   1   7   28.28    1.18
  -5  -1   7   27.32    1.13
  -5  -1   7   25.45    1.08
   5  -1  -7   27.88    0.96
   5  -1  -7   29.24    1.16
   5  -1  -7   27.70    1.18
  -5  -1   7   27.08    1.12
  -5  -1   7   28.68    0.78
   6   1  -6   24.64    1.07
  -6   1   6   24.49    0.90
   6   1  -6   25.60    1.04
   6   1  -6   25.56    1.07
  -6   1   6   23.45    1.14
  -6   1   6   23.84    1.12
  -6  -1   6   24.74    1.08
  -6  -1   6   26.79    0.78
   6  -1  -6   25.81    0.94
  -6  -1   6   25.52    1.10
   6  -1  -6   26.34    1.14
   6  -1  -6   26.56    1.12
   7   1  -5   11.14    0.76
  -7   1   5   10.25    0.59
  -7   1   5   10.28    0.77
   7   1  -5   10.45    0.83
   7   1  -5   10.31    0.73
   7   1  -5   10.29    0.71
  -7   1   5   11.41    0.82
   7  -1  -5   11.39    0.62
   7  -1  -5   10.08    0.77
  -7  -1   5   10.69    0.46
   7  -1  -5   10.62    0.80
  -7  -1   5   11.23    0.83
  -7  -1   5    9.56    0.87
  -8   1   4   19.93    1.12
   8   1  -4   22.23    1.16
   8   1  -4   20.44    1.03
   8   1  -4   20.88    1.11
   8  -1  -4   21.20    1.16
   8  -1  -4   19.35    0.87
   8  -1  -4   21.63    1.14
  -8  -1   4   22.05    0.97
  -9   1   3   18.47    1.20
   9   1  -3   14.85    1.39
   9   1  -3   15.61    0.98
   9   1  -3   19.01    0.97
   9   1  -3   19.93    1.25
   9  -1  -3   18.87    1.19
   9  -1  -3   17.86    1.15
   9  -1  -3   18.87    1.02
   9  -1  -3   17.54    0.80
  10   1  -2    1.96    0.60
  10   1  -2    2.88    0.59
  10   1  -2    1.90    0.59
  10   1  -2    2.76    0.53
  10  -1  -2    2.26    0.63
  10  -1  -2    2.11    0.64
  11   1  -1    1.99    0.74
  11   1  -1    1.89    0.60
  11   1  -1    2.02    0.71
  11  -1  -1    2.52    0.73
  11  -1  -1    2.05    0.83
  12   1   0    0.11    1.26
  12   1   0   -1.29    0.89
  12   1   0    0.31    0.79
  12  -1   0   -0.57    1.00
  12  -1   0   -1.51    0.95
   2   2  14   -0.29    0.70
   2   2  14    0.97    0.49
   2   2  14    0.93    0.82
  -2   2 -14    0.61    1.30
   2  -2  14    0.15    0.71
   2  -2  14    0.34    0.73
  -2  -2 -14    0.78    1.36
  -2  -2 -14    0.65    1.37
   1   2  13    0.94    0.35
  -1   2 -13    0.61    0.74
   1   2  13    0.85    0.45
   1   2  13    0.87    0.50
   1   2  13    0.22    0.55
   1  -2  13    1.30    0.43
  -1  -2 -13    1.48    0.74
   1  -2  13    1.15    0.62
   0   2  12    4.48    0.56
   0   2  12    3.79    0.58
   0   2 -12    5.86    0.81
   0   2  12    3.91    0.56
   0   2 -12    3.75    0.69
   0   2  12    5.02    0.68
   0  -2  12    4.62    0.62
   0  -2  12    4.23    0.69
   0  -2 -12    3.07    0.71
   0  -2  12    4.52    0.59
   0  -2  12    4.44    0.55
  -1   2  11   31.32    1.08
   1   2 -11   28.88    1.31
   1   2 -11   29.44    1.30
   1   2 -11   29.35    1.00
  -1   2  11   28.63    1.43
  -1   2  11   30.72    1.33
  -1   2  11   31.06    1.11
   1   2 -11   29.81    1.34
   1  -2 -11   30.84    1.51
  -1  -2  11   31.07    1.25
  -1  -2  11   32.36    1.20
   1  -2 -11   30.91    1.12
  -1  -2  11   30.18    1.26
  -1  -2  11   33.48    0.99
   2   2 -10   10.64    0.77
  -2   2  10   11.94    0.75
   2   2 -10   12.73    0.78
  -2   2  10   12.57    0.86
  -2   2  10   11.58    0.80
  -2   2  10   11.78    0.66
  -2  -2  10   11.93    0.40
   2  -2 -10   10.85    0.88
  -2  -2  10   12.62    0.69
   2  -2 -10   13.07    0.93
  -2  -2  10   11.05    0.70
   2  -2 -10   11.26    0.69
  -2  -2  10   11.79    0.68
   3   2  -9   16.58    0.81
  -3   2   9   14.61    0.73
  -3   2   9   14.85    0.89
  -3   2   9   16.00    0.93
  -3   2   9   16.56    0.78
  -3   2   9   15.75    0.82
  -3   2   9   15.97    0.86
   3  -2  -9   15.77    0.94
  -3  -2   9   15.31    0.74
  -3  -2   9   14.71    0.74
   3  -2  -9   16.92    0.84
   3  -2  -9   15.45    0.78
  -3  -2   9   16.19    0.76
  -4   2   8   38.95    1.46
  -4   2   8   42.21    1.30
  -4   2   8   41.44    1.49
   4   2  -8   39.26    1.37
  -4   2   8   40.40    1.40
  -4   2   8   41.33    1.52
  -4   2   8   41.00    1.38
  -4  -2   8   38.97    1.36
  -4  -2   8   39.54    1.34
  -4  -2   8   39.01    1.48
   4  -2  -8   41.14    1.36
  -4  -2   8   40.86    1.31
  -4  -2   8   37.89    1.41
  -4  -2   8   38.52    1.37
   4  -2  -8   40.06    1.26
   5   2  -7   69.33    2.07
  -5   2   7   67.80    2.18
  -5   2   7   69.48    2.17
  -5   2   7   67.38    1.91
  -5   2   7   68.27    2.10
   5   2  -7   66.55    2.05
   5   2  -7   68.18    2.01
  -5   2   7   65.98    2.11
   5  -2  -7   68.71    1.99
  -5  -2   7   64.10    2.02
  -5  -2   7   63.86    2.06
   5  -2  -7   65.29    2.14
  -5  -2   7   64.97    2.01
  -5  -2   7   68.34    1.62
  -5  -2   7   69.11    1.93
   5  -2  -7   68.50    2.14
   5  -2  -7   67.67    1.84
  -6   2   6  128.73    3.70
   6   2  -6  134.69    3.56
   6   2  -6  128.01    3.57
   6   2  -6  126.95    3.70
   6   2  -6  131.12    3.60
  -6   2   6  130.23    3.64
   6  -2  -6  137.79    3.68
  -6  -2   6  123.09    3.54
  -6  -2   6  129.81    3.61
   6  -2  -6  136.08    3.32
   6  -2  -6  131.85    3.69
  -6  -2   6  133.73    3.40
   7   2  -5   24.52    1.13
  -7   2   5   25.34    1.20
   7   2  -5   24.56    0.91
   7   2  -5   25.96    1.14
   7   2  -5   24.90    1.19
   7   2  -5   25.04    1.11
  -7   2   5   22.96    1.13
  -7   2   5   24.20    0.99
   7  -2  -5   25.67    0.90
  -7  -2   5   22.41    0.88
   7  -2  -5   25.82    1.21
   7  -2  -5   24.34    1.19
   8   2  -4    6.21    0.52
   8   2  -4    6.43    0.76
   8   2  -4    6.48    0.76
  -8   2   4    4.89    0.89
  -8   2   4    5.45    0.76
   8  -2  -4    6.19    0.49
   8  -2  -4    6.21    0.77
  -8  -2   4    6.00    0.40
   8  -2  -4    6.21    0.52
   8  -2  -4    6.04    0.81
   9   2  -3   11.96    0.94
   9   2  -3   10.25    0.74
  -9   2   3   10.01    0.99
   9  -2  -3   10.58    0.73
   9  -2  -3   11.10    0.73
   9  -2  -3   10.59    1.02
   9  -2  -3   12.08    1.00
  10   2  -2    1.97    0.59
  10   2  -2    3.32    0.60
 -10   2   2    0.66    0.84
  10   2  -2    2.89    0.64
  10  -2  -2    1.11    0.58
  10  -2  -2    0.94    0.55
  10  -2  -2    2.37    0.65
  11   2  -1    1.72    0.72
  11   2  -1    1.04    0.55
  11   2  -1   -0.42    0.63
  11  -2  -1   -0.44    0.74
  11  -2  -1   -0.64    0.71
   1   3  13   -0.56    0.37
   1   3  13   -0.19    0.55
  -1   3 -13   -0.42    0.85
   1   3  13    0.47    0.54
  -1  -3 -13    0.21    0.77
   1  -3  13    1.34    0.63
  -1  -3 -13   -0.75    1.19
   1  -3  13    0.81    0.65
   0   3 -12    3.39    0.64
   0   3  12    5.18    0.53
   0   3  12    3.83    0.54
   0   3  12    5.12    0.62
   0   3  12    6.18    0.84
   0  -3  12    5.92    0.83
   0  -3  12    5.65    0.67
   0  -3 -12    2.85    0.71
   1   3 -11    0.03    0.36
  -1   3  11   -0.22    0.48
  -1   3  11    0.02    0.25
  -1   3  11    0.60    0.35
   1   3 -11    0.29    0.38
   1   3 -11    0.22    0.40
   1   3 -11   -0.08    0.21
  -1   3  11    0.33    0.28
  -1   3  11   -0.35    0.31
  -1   3  11    0.44    0.37
   1  -3 -11    0.32    0.37
  -1  -3  11   -0.26    0.30
  -1  -3  11   -0.65    0.35
   1  -3 -11    0.07    0.54
  -1  -3  11    0.50    0.38
  -2   3  10   21.74    1.07
   2   3 -10   19.56    0.98
  -2   3  10   19.24    0.96
   2   3 -10   20.49    1.01
  -2   3  10   21.56    1.16
  -2   3  10   20.51    0.95
   2  -3 -10   19.65    1.15
   2  -3 -10   19.85    0.97
  -2  -3  10   21.11    1.00
  -2  -3  10   21.41    0.90
  -2  -3  10   17.37    1.13
   3   3  -9   30.07    1.18
  -3   3   9   27.70    1.26
  -3   3   9   28.75    1.05
  -3   3   9   28.78    1.17
  -3   3   9   28.23    1.23
   3   3  -9   29.09    0.91
  -3   3   9   28.04    1.29
  -3   3   9   29.47    1.19
   3  -3  -9   30.24    1.23
   3  -3  -9   29.70    1.20
  -3  -3   9   30.21    1.14
  -3  -3   9   30.22    1.11
  -4   3   8    9.22    0.75
   4   3  -8    9.48    0.68
  -4   3   8    9.62    0.70
   4   3  -8    8.44    0.54
  -4   3   8    9.81    0.73
  -4   3   8    9.61    0.68
  -4   3   8   11.34    0.77
  -4   3   8    9.94    0.56
  -4  -3   8    8.72    0.67
  -4  -3   8   10.48    0.63
  -4  -3   8   10.35    0.70
   4  -3  -8    8.71    0.60
   4  -3  -8   10.06    0.81
  -4  -3   8    9.95    0.56
  -5   3   7    8.59    0.50
  -5   3   7    9.02    0.77
   5   3  -7    7.70    0.68
  -5   3   7    9.32    0.79
   5   3  -7   10.01    0.79
  -5   3   7    8.30    0.71
  -5   3   7    8.11    0.70
  -5  -3   7    8.88    0.64
   5  -3  -7    9.30    0.68
   5  -3  -7    9.54    0.80
  -5  -3   7    8.25    0.53
  -5  -3   7    9.33    0.73
   5  -3  -7    8.58    0.54
   5  -3  -7   10.02    0.74
  -5  -3   7    9.09    0.56
  -6   3   6   12.35    0.82
   6   3  -6   11.28    0.82
   6   3  -6   11.64    0.72
   6   3  -6   11.51    0.71
  -6   3   6   12.10    0.93
  -6   3   6   11.58    0.86
   6  -3  -6   11.61    0.73
  -6  -3   6   11.40    0.61
  -6  -3   6   11.20    0.45
   6  -3  -6   12.09    0.52
   6  -3  -6   11.26    0.82
   6  -3  -6   11.26    0.88
  -7   3   5   91.47    2.81
   7   3  -5   87.17    2.67
   7   3  -5   87.82    2.73
  -7   3   5   87.37    2.70
   7   3  -5   88.76    2.59
   7   3  -5   91.19    2.36
   7  -3  -5   89.34    2.26
   7  -3  -5   89.17    2.60
  -7  -3   5   86.15    2.40
   7  -3  -5   87.05    2.72
   7  -3  -5   87.73    2.78
  -7  -3   5   87.22    2.32
  -8   3   4   36.34    1.58
   8   3  -4   33.34    1.63
   8   3  -4   37.99    1.23
   8   3  -4   36.24    1.46
  -8   3   4   35.85    1.53
   8  -3  -4   35.49    1.12
   8  -3  -4   36.54    1.56
   8  -3  -4   33.82    1.15
  -8  -3   4   31.60    1.12
   8  -3  -4   33.90    1.55
  -8  -3   4   34.50    1.13
   9   3  -3   12.29    0.79
   9   3  -3   10.85    0.97
   9   3  -3    9.49    0.96
   9  -3  -3   10.89    0.67
   9  -3  -3   11.55    0.67
   9  -3  -3   10.38    1.07
   9  -3  -3   10.21    1.05
  -9  -3   3   11.31    0.56
  10   3  -2    1.72    0.51
  10   3  -2    1.25    0.57
  10   3  -2    2.20    0.62
 -10  -3   2    2.47    0.32
  10  -3  -2    1.95    0.68
  10  -3  -2    2.85    0.69
  11   3  -1    5.59    0.78
  11   3  -1    3.55    0.84
  11   3  -1    4.72    0.95
  11  -3  -1    5.95    1.00
   1   4  13    0.40    0.68
  -1   4 -13    1.45    0.88
   1   4  13    2.58    0.75
   1   4  13    0.05    0.49
  -1  -4 -13    2.05    1.48
   1  -4  13    0.86    0.79
  -1  -4 -13    0.39    0.89
   0   4  12    1.24    0.49
   0   4  12    1.10    0.38
   0   4 -12    0.85    0.58
   0   4  12    1.18    0.41
   0   4  12    0.76    0.44
   0  -4 -12    1.47    1.02
   0  -4  12    1.25    0.62
   0  -4 -12    1.86    0.74
  -1   4  11    5.37    0.65
  -1   4  11    4.67    0.62
   1   4 -11    4.71    0.85
  -1   4  11    3.41    0.50
   1  -4 -11    5.17    1.03
  -1  -4  11    4.88    0.60
   1  -4 -11    3.99    0.62
  -1  -4  11    4.51    0.67
   2   4 -10    2.06    0.43
  -2   4  10    1.38    0.40
   2   4 -10    1.32    0.38
  -2   4  10    0.83    0.90
  -2   4  10    1.20    0.45
   2  -4 -10    2.39    0.55
  -2  -4  10    1.65    0.29
   2  -4 -10    2.50    0.49
  -2  -4  10    2.24    0.49
  -2  -4  10    1.41    0.36
  -3   4   9    2.36    0.29
   3   4  -9    2.01    0.39
  -3   4   9    3.06    0.51
   3   4  -9    2.77    0.41
  -3   4   9    3.27    0.67
  -3   4   9    2.43    0.53
  -3   4   9    2.54    0.76
  -3   4   9    1.99    0.47
   3  -4  -9    2.89    0.53
  -3  -4   9    3.11    0.37
   3  -4  -9    1.32    0.41
  -3  -4   9    3.17    0.57
  -3  -4   9    2.55    0.35
  -4   4   8   16.22    0.97
  -4   4   8   15.22    0.92
   4   4  -8   15.09    0.75
  -4   4   8   16.02    0.87
   4   4  -8   16.99    0.93
  -4   4   8   16.21    0.96
  -4   4   8   15.56    1.01
  -4   4   8   15.29    0.69
  -4  -4   8   15.90    0.85
  -4  -4   8   15.02    0.67
   4  -4  -8   16.38    0.83
   4  -4  -8   15.43    0.97
  -4  -4   8   16.41    0.73
   5   4  -7   22.34    0.97
  -5   4   7   22.75    1.07
  -5   4   7   18.88    1.10
  -5   4   7   22.84    1.14
   5   4  -7   22.77    1.11
   5   4  -7   21.78    0.93
  -5   4   7   21.93    1.15
  -5   4   7   22.38    1.15
  -5  -4   7   21.75    0.85
  -5  -4   7   22.35    0.92
   5  -4  -7   23.17    1.11
  -5  -4   7   21.41    0.94
   5  -4  -7   22.11    1.13
   5  -4  -7   23.61    0.91
   5  -4  -7   20.84    1.35
  -6   4   6   49.11    1.75
  -6   4   6   50.38    1.76
   6   4  -6   50.16    1.55
  -6   4   6   47.07    1.85
   6   4  -6   49.81    1.62
  -6   4   6   52.06    1.86
   6   4  -6   46.12    1.41
   6   4  -6   48.85    1.81
   6  -4  -6   49.41    1.78
  -6  -4   6   48.02    1.55
  -6  -4   6   47.01    1.38
   6  -4  -6   50.53    1.29
   6  -4  -6   48.54    1.79
   6  -4  -6   45.64    1.98
  -6  -4   6   48.62    1.55
  -7   4   5    0.22    0.51
   7   4  -5    0.57    0.34
   7   4  -5    1.21    0.24
  -7   4   5    0.91    0.45
   7  -4  -5    1.12    0.53
  -7  -4   5    1.35    0.30
   7  -4  -5    1.82    0.41
   7  -4  -5    1.41    0.43
  -7  -4   5    1.11    0.28
  -8   4   4   58.50    2.08
  -8   4   4   58.12    2.20
   8   4  -4   58.46    2.08
   8   4  -4   59.96    1.77
   8  -4  -4   60.01    2.26
   8  -4  -4   62.28    2.10
  -8  -4   4   58.68    1.72
   8  -4  -4   56.66    1.70
   8  -4  -4   61.21    2.14
  -8  -4   4   59.82    1.82
   9   4  -3   13.14    0.85
   9   4  -3   10.92    1.04
   9   4  -3   12.56    1.07
   9  -4  -3   16.37    1.03
  -9  -4   3   13.68    0.63
   9  -4  -3   13.04    1.15
   9  -4  -3   13.01    1.19
  10   4  -2   11.83    1.26
  10   4  -2   10.14    1.26
  10   4  -2   13.35    1.26
  10  -4  -2   13.63    1.15
  10  -4  -2   12.84    1.33
  11   4  -1    3.24    0.73
  11   4  -1    3.79    1.08
  11   4  -1    3.09    0.97
  11  -4  -1    1.56    0.80
  11  -4  -1    2.50    0.93
   0   5  12    0.17    0.54
   0   5 -12   -1.06    0.58
   0   5  12    0.45    0.49
   0   5  12    0.15    0.57
   0  -5 -12    1.19    1.18
   0  -5  12    1.09    0.75
   0  -5 -12   -1.80    0.76
  -1   5  11    3.12    0.53
  -1   5  11    2.36    0.50
   1   5 -11    1.42    0.50
  -1   5  11    1.96    0.46
   1  -5 -11    1.92    0.70
   1  -5 -11    0.88    0.62
   1  -5 -11    2.88    1.03
  -1  -5  11    2.00    0.67
   2   5 -10    0.16    0.37
  -2   5  10    0.48    0.36
  -2   5  10    0.03    0.41
  -2   5  10    1.08    0.62
  -2   5  10    0.10    0.34
  -2  -5  10    0.89    0.46
   2  -5 -10    0.02    0.61
   2  -5 -10   -0.81    0.83
   2  -5 -10    0.38    0.52
  -3   5   9   15.63    1.12
  -3   5   9   16.55    0.76
   3   5  -9   16.94    0.83
  -3   5   9   16.78    1.05
  -3   5   9   18.02    1.08
   3   5  -9   17.46    0.98
  -3   5   9   16.34    0.97
  -3   5   9   17.26    0.93
   3  -5  -9   16.92    1.00
  -3  -5   9   18.36    1.04
  -3  -5   9   15.90    0.68
  -3  -5   9   18.04    0.70
   3  -5  -9   16.20    1.38
  -4   5   8   42.95    1.29
   4   5  -8   41.55    1.46
  -4   5   8   42.47    1.53
  -4   5   8   43.34    1.72
  -4   5   8   43.10    1.62
   4   5  -8   41.71    1.64
  -4   5   8   45.72    1.75
  -4   5   8   44.69    1.67
   4  -5  -8   39.23    1.96
  -4  -5   8   38.15    1.78
  -4  -5   8   42.41    1.23
   4  -5  -8   39.51    1.43
  -4  -5   8   42.94    1.29
  -5   5   7    0.69    0.41
  -5   5   7    0.67    0.44
  -5   5   7    0.80    0.38
   5   5  -7    0.39    0.39
  -5   5   7    0.33    0.47
  -5   5   7   -0.13    0.36
  -5  -5   7    1.29    0.41
  -5  -5   7    0.65    0.23
   5  -5  -7    1.38    0.57
   5  -5  -7    0.15    0.47
  -5  -5   7    0.59    0.24
  -6   5   6    0.84    0.44
  -6   5   6    0.75    0.50
   6   5  -6    2.09    0.51
  -6   5   6    1.19    0.45
   6   5  -6    1.88    0.24
  -6   5   6    1.18    0.42
   6   5  -6    1.43    0.35
  -6  -5   6    1.65    0.31
   6  -5  -6    1.23    0.49
   6  -5  -6    1.37    0.45
   6  -5  -6    1.27    0.54
  -6  -5   6    1.35    0.39
   6  -5  -6    1.91    0.41
   7   5  -5    4.47    0.63
   7   5  -5    4.01    0.43
  -7   5   5    4.39    0.67
   7   5  -5    3.37    0.48
  -7   5   5    4.93    0.66
   7   5  -5    3.69    0.66
   7  -5  -5    3.47    0.57
   7  -5  -5    2.85    0.77
   7  -5  -5    4.58    0.71
  -7  -5   5    3.60    0.52
   7  -5  -5    4.23    0.56
  -7  -5   5    4.11    0.52
   8   5  -4   15.49    0.99
   8   5  -4   13.04    1.00
   8   5  -4   14.75    0.76
   8  -5  -4   14.15    1.09
  -8  -5   4   15.76    0.75
  -8  -5   4   18.43    1.16
   8  -5  -4   16.22    1.13
   9   5  -3    4.23    0.74
   9   5  -3    5.55    0.77
   9   5  -3    5.17    0.87
   9  -5  -3    5.88    0.80
   9  -5  -3    5.45    0.86
  10   5  -2    3.26    0.79
  10   5  -2    2.56    0.60
  10   5  -2    3.09    0.83
  10  -5  -2    2.59    0.94
  10  -5  -2    1.87    0.75
   1   6 -11    1.75    0.63
  -1   6  11    1.46    0.57
  -1   6  11    1.94    0.58
  -1   6  11    1.60    0.53
  -1  -6  11    2.39    0.79
   1  -6 -11    1.76    0.81
   1  -6 -11    3.71    1.29
  -2   6  10    2.14    0.49
  -2   6  10    1.06    0.55
  -2   6  10    2.55    0.53
   2   6 -10    1.05    0.52
   2  -6 -10    1.93    1.04
  -2  -6  10    2.55    0.68
   2  -6 -10    0.54    0.68
  -3   6   9    5.94    0.72
  -3   6   9    6.85    0.88
  -3   6   9    6.24    0.73
   3   6  -9    6.55    0.78
   3  -6  -9    6.57    0.88
  -3  -6   9    6.60    0.84
   3  -6  -9    5.41    1.05
  -4   6   8    7.97    0.96
  -4   6   8    8.53    0.77
   4   6  -8    8.92    0.99
  -4   6   8    7.65    0.75
  -4  -6   8    8.34    0.84
   4  -6  -8    8.40    1.10
   4  -6  -8    9.36    1.08
  -5   6   7   22.77    1.16
   5   6  -7   24.58    1.30
  -5   6   7   23.50    1.11
  -5   6   7   22.75    1.35
   5  -6  -7   23.95    1.41
   5  -6  -7   25.97    1.55
  -5  -6   7   23.98    1.17
   6   6  -6   17.69    0.81
  -6   6   6   18.52    1.03
   6   6  -6   16.59    0.66
   6   6  -6   16.42    1.23
  -6   6   6   16.34    1.07
   6  -6  -6   19.31    1.21
   6  -6  -6   17.08    1.28
  -6  -6   6   17.92    0.97
   6  -6  -6   19.04    1.15
  -7   6   5    5.90    0.88
   7   6  -5    7.29    0.73
  -7   6   5    8.77    0.93
   7   6  -5    7.16    0.55
   7   6  -5    7.10    0.62
   7   6  -5    8.37    1.06
  -7  -6   5    6.12    0.69
   7  -6  -5    8.16    1.00
   7  -6  -5    7.92    0.87
   7  -6  -5    8.47    1.06
   8   6  -4    2.00    0.51
   8   6  -4    1.54    0.66
   8   6  -4    2.21    0.44
   8   6  -4    3.33    0.58
   8  -6  -4    2.67    0.70
  -8  -6   4    2.43    0.47
   8  -6  -4    2.13    0.69
   9   6  -3    4.69    0.74
   9   6  -3    5.74    0.84
   9   6  -3    4.71    0.78
   9  -6  -3    3.61    0.87
  -2   7  10    3.78    0.83
  -2   7  10    2.71    0.59
  -2   7  10    3.54    0.67
   2   7 -10    2.89    0.67
   2  -7 -10    4.38    1.34
   2  -7 -10    4.71    1.03
  -2  -7  10    4.52    0.96
  -3   7   9    2.04    0.50
  -3   7   9    2.90    0.77
   3   7  -9    3.61    0.65
  -3   7   9    2.96    0.58
  -3  -7   9    2.33    0.75
   3  -7  -9    2.80    0.93
   3  -7  -9    0.61    1.00
  -4   7   8    5.30    0.81
  -4   7   8    5.09    0.89
  -4   7   8    6.15    0.98
   4   7  -8    4.76    0.71
   4  -7  -8    5.61    1.01
  -4  -7   8    4.97    0.80
   4  -7  -8    5.74    0.96
   5   7  -7    4.16    0.71
  -5   7   7    3.21    0.53
  -5   7   7    2.69    0.54
  -5   7   7    3.52    0.79
  -5  -7   7    3.80    0.70
   5  -7  -7    2.76    0.92
   5  -7  -7    1.71    0.79
   6   7  -6    3.82    0.75
  -6   7   6    3.26    0.89
  -6   7   6    2.32    0.56
  -6   7   6    3.30    0.59
   6  -7  -6    2.52    0.89
   6  -7  -6    3.24    0.82
  -6  -7   6    1.21    0.56
  -7   7   5    6.18    0.83
   7   7  -5    4.95    0.91
   7   7  -5    6.44    0.69
  -7   7   5    8.41    0.96
   7  -7  -5    7.60    1.05
   8   7  -4    5.20    1.05
  -8   7   4    6.65    0.85
  -8   7   4    5.79    0.97
   8   7  -4    7.10    0.98
   8  -7  -4    6.28    1.11
  -4   8   8    2.86    0.78
   4   8  -8    2.52    0.73
  -4   8   8    3.64    1.49
  -4   8   8    2.72    0.57
   4  -8  -8    4.84    1.26
   4  -8  -8    1.53    1.22
  -4  -8   8    2.25    0.86
  -5   8   7    3.03    0.53
   5   8  -7    4.46    0.82
  -5   8   7    3.74    1.32
  -5   8   7    3.15    0.70
   5  -8  -7    0.78    1.78
  -5  -8   7    3.47    0.80
   5  -8  -7    2.92    1.14
  -6   8   6    4.14    1.99
  -6   8   6    2.96    0.74
   6   8  -6    1.86    0.91
  -6   8   6    3.03    0.56
  -6  -8   6    3.05    0.78
   6  -8  -6    2.56    1.47
   1   0  14    0.00    0.41
   1   0  14    0.01    0.52
  -1   0 -14   -0.37    0.87
   1   0  14    0.18    0.65
   0   0  13    3.91    0.62
   0   0 -13    2.63    0.70
   0   0  13    3.05    0.55
   0   0  13    3.21    0.52
   0   0  13    2.65    0.36
   1   0 -12    0.05    0.46
  -1   0  12    0.54    0.47
   1   0 -12    0.05    0.39
   1   0 -12   -0.63    0.41
  -1   0  12   -0.06    0.21
  -1   0  12   -0.42    0.45
  -1   0  12    0.58    0.35
   2   0 -11    4.62    0.83
  -2   0  11    3.97    0.34
  -2   0  11    4.53    0.49
   2   0 -11    4.87    0.71
  -2   0  11    4.79    0.60
  -2   0  11    4.47    0.58
   2   0 -11    4.11    0.57
   3   0 -10   26.94    1.09
   3   0 -10   26.19    0.92
   3   0 -10   27.19    1.24
  -3   0  10   26.41    1.16
  -3   0  10   27.20    1.00
  -3   0  10   25.35    1.22
  -3   0  10   28.76    1.14
  -3   0  10   27.25    0.86
  -4   0   9   80.63    2.50
  -4   0   9   72.29    2.43
  -4   0   9   79.86    2.37
  -4   0   9   83.39    2.46
  -4   0   9   81.41    2.39
   4   0  -9   86.68    2.52
  -4   0   9   81.67    2.14
   4   0  -9   81.34    2.15
  -5   0   8   50.08    1.47
  -5   0   8   47.36    1.72
   5   0  -8   50.67    1.56
  -5   0   8   48.37    1.71
  -5   0   8   49.17    1.66
  -5   0   8   51.34    1.75
  -5   0   8   49.13    1.62
   5   0  -8   50.07    1.68
   5   0  -8   50.90    1.73
   6   0  -7    3.97    0.55
   6   0  -7    3.37    0.50
  -6   0   7    2.74    0.47
  -6   0   7    3.09    0.51
  -6   0   7    3.84    0.55
  -6   0   7    3.81    0.31
   6   0  -7    4.11    0.45
   7   0  -6   86.33    2.68
   7   0  -6   87.16    2.49
   7   0  -6   86.96    2.62
  -7   0   6   89.46    2.93
  -7   0   6   84.92    2.68
  -7   0   6   84.15    2.29
   8   0  -5   16.77    0.89
  -8   0   5   18.52    0.72
   8   0  -5   17.85    1.06
   8   0  -5   19.77    1.09
   8   0  -5   17.80    0.92
  -8   0   5   17.67    1.12
   9   0  -4   24.63    1.29
   9   0  -4   27.24    1.40
   9   0  -4   24.27    1.08
  10   0  -3    0.06    0.49
  10   0  -3   -0.34    0.46
  10   0  -3    0.73    0.54
  11   0  -2    0.10    0.62
  11   0  -2    1.47    0.69
  12   0  -1    1.64    0.95
  12   0  -1   -0.64    0.82
   1   1  14    2.07    0.45
   1   1  14    2.81    0.67
  -1   1 -14    1.97    0.95
   1   1  14    2.51    0.71
   1   1  14    2.43    0.62
  -1  -1 -14    2.09    0.96
   1  -1  14    1.98    0.68
   1  -1  14    2.48    0.61
   0   1  13    8.97    0.96
   0   1  13    8.87    0.76
   0   1 -13    7.84    0.98
   0   1  13    8.47    0.81
   0   1  13    9.04    0.62
   0  -1  13    9.38    0.97
   0  -1  13    8.91    0.63
   0  -1  13    6.89    0.83
   0  -1 -13    9.45    1.18
   1   1 -12    3.30    0.43
  -1   1  12    3.27    0.42
   1   1 -12    3.02    0.58
   1   1 -12    3.41    0.61
  -1   1  12    3.71    0.48
  -1   1  12    3.88    0.64
  -1   1  12    4.01    0.54
  -1  -1  12    3.73    0.54
  -1  -1  12    4.26    0.39
  -1  -1  12    3.81    0.52
   1  -1 -12    4.29    0.71
   1  -1 -12    4.00    0.66
  -2   1  11    1.75    0.27
  -2   1  11    2.26    0.43
   2   1 -11    2.15    0.47
   2   1 -11    1.94    0.44
   2   1 -11    2.27    0.44
  -2   1  11    3.01    0.47
  -2   1  11    2.78    0.38
  -2   1  11    2.25    0.58
  -2  -1  11    1.49    0.39
   2  -1 -11    1.54    0.45
  -2  -1  11    2.42    0.42
  -2  -1  11    2.01    0.24
  -2  -1  11    1.92    0.46
   2  -1 -11    2.22    0.34
   2  -1 -11    1.66    0.46
  -3   1  10   59.05    1.86
  -3   1  10   63.88    2.40
   3   1 -10   53.78    1.47
   3   1 -10   58.44    1.83
  -3   1  10   57.41    1.90
  -3   1  10   56.20    1.64
  -3   1  10   55.29    1.97
  -3  -1  10   54.57    1.44
  -3  -1  10   57.17    1.73
   3  -1 -10   56.35    1.68
  -3  -1  10   57.38    1.80
  -3  -1  10   55.82    1.92
   3  -1 -10   57.16    1.83
   3  -1 -10   55.21    1.98
  -4   1   9  102.93    2.71
  -4   1   9  100.39    3.00
  -4   1   9   93.95    2.92
   4   1  -9   99.48    2.79
  -4   1   9  101.77    2.87
  -4   1   9   98.76    2.79
  -4   1   9  103.81    2.94
  -4  -1   9  102.09    2.83
   4  -1  -9  103.49    2.74
  -4  -1   9  101.82    2.73
  -4  -1   9   96.97    2.92
  -4  -1   9   99.49    2.43
  -4  -1   9  100.83    2.94
  -4  -1   9   99.25    2.86
   4  -1  -9  102.21    2.69
  -5   1   8   49.74    1.70
   5   1  -8   50.22    1.70
  -5   1   8   48.32    1.75
  -5   1   8   52.31    1.77
  -5   1   8   49.43    1.55
   5   1  -8   50.55    1.63
  -5   1   8   50.88    1.76
  -5   1   8   48.39    1.57
  -5  -1   8   49.71    1.70
   5  -1  -8   51.40    1.83
   5  -1  -8   52.99    1.53
  -5  -1   8   49.68    1.70
   5  -1  -8   51.12    1.75
  -5  -1   8   45.28    1.68
  -5  -1   8   50.87    1.29
  -5  -1   8   48.24    1.34
  -5  -1   8   47.59    1.71
  -5  -1   8   49.86    1.67
   5  -1  -8   52.24    1.52
  -6   1   7    8.84    0.69
   6   1  -7    9.76    0.64
   6   1  -7    9.87    0.69
  -6   1   7    9.79    0.74
  -6   1   7    9.20    0.74
   6   1  -7    9.09    0.68
   6  -1  -7    8.74    0.71
   6  -1  -7    8.85    0.67
  -6  -1   7    8.52    0.70
  -6  -1   7    8.11    0.70
  -6  -1   7    9.71    0.39
  -6  -1   7    7.42    0.76
   6  -1  -7    9.40    0.54
   7   1  -6    0.35    0.28
   7   1  -6   -0.29    0.29
   7   1  -6   -0.08    0.37
  -7   1   6    0.56    0.42
  -7   1   6    0.25    0.34
  -7   1   6    0.30    0.21
   7   1  -6    0.79    0.31
  -7  -1   6   -0.36    0.32
   7  -1  -6    0.21    0.22
  -7  -1   6    0.23    0.14
   7  -1  -6    0.34    0.36
   7  -1  -6    0.14    0.34
  -8   1   5   20.33    1.16
   8   1  -5   22.31    1.14
  -8   1   5   19.35    1.13
   8   1  -5   21.33    1.11
   8   1  -5   21.11    1.09
   8   1  -5   21.48    1.17
   8  -1  -5   22.50    1.16
   8  -1  -5   22.77    0.96
   8  -1  -5   21.88    0.93
   8  -1  -5   21.54    1.18
  -8  -1   5   21.98    0.76
   9   1  -4    6.08    0.90
   9   1  -4    5.67    0.86
   9   1  -4    7.03    0.78
  -9   1   4    6.17    0.92
   9  -1  -4    8.13    0.86
   9  -1  -4    7.86    0.93
   9  -1  -4    5.06    0.58
  10   1  -3    0.86    0.59
  10   1  -3    1.34    0.60
  10   1  -3    1.46    0.56
  10  -1  -3    1.00    0.60
  10  -1  -3    1.74    0.53
  11   1  -2    0.26    0.56
  11   1  -2   -0.51    0.66
  11   1  -2   -0.09    0.63
  11  -1  -2   -0.43    0.62
  11  -1  -2    0.60    0.68
  12   1  -1    3.13    1.07
  12   1  -1    2.98    0.83
  12   1  -1    2.06    0.86
  12  -1  -1    4.09    1.28
  12  -1  -1    2.48    1.03
   1   2  14    1.30    0.61
   1   2  14    1.19    0.68
  -1   2 -14    0.81    0.97
   1   2  14    0.73    0.46
   1  -2  14   -0.76    0.63
   1  -2  14    1.32    0.73
  -1  -2 -14    1.44    1.03
   0   2  13    4.39    0.83
   0   2 -13    2.59    0.74
   0   2  13    4.09    0.53
   0   2  13    3.24    0.54
   0   2  13    4.78    0.59
   0  -2  13    3.24    0.61
   0  -2 -13    4.31    0.87
   0  -2  13    5.51    0.57
   0  -2  13    3.36    0.56
   1   2 -12    2.12    0.63
   1   2 -12    2.22    0.52
  -1   2  12    1.56    0.46
  -1   2  12    1.69    0.36
  -1   2  12    2.41    0.41
  -1   2  12    2.11    0.47
   1  -2 -12    2.94    0.61
  -1  -2  12    1.96    0.67
  -1  -2  12    2.81    0.49
  -1  -2  12    1.91    0.39
  -2   2  11    4.82    0.49
  -2   2  11    3.41    0.60
   2   2 -11    3.26    0.50
  -2   2  11    2.98    0.46
  -2   2  11    3.21    0.51
  -2   2  11    3.78    0.46
   2   2 -11    2.69    0.50
   2  -2 -11    3.20    0.58
   2  -2 -11    3.10    0.42
  -2  -2  11    4.76    0.64
  -2  -2  11    3.52    0.53
  -2  -2  11    3.38    0.25
  -2  -2  11    4.39    0.54
  -3   2  10    4.27    0.52
  -3   2  10    3.52    0.42
  -3   2  10    4.03    0.55
   3   2 -10    3.26    0.21
   3   2 -10    3.82    0.50
  -3   2  10    4.44    0.58
   3   2 -10    3.87    0.26
  -3   2  10    2.83    0.39
   3   2 -10    3.57    0.47
  -3  -2  10    3.74    0.45
   3  -2 -10    3.29    0.58
  -3  -2  10    4.04    0.47
  -3  -2  10    3.72    0.47
   3  -2 -10    3.96    0.47
   3  -2 -10    3.97    0.52
  -4   2   9   21.77    0.93
  -4   2   9   20.89    1.10
  -4   2   9   20.83    1.14
   4   2  -9   19.86    0.92
  -4   2   9   19.71    0.98
  -4   2   9   20.34    0.88
  -4   2   9   21.32    1.05
   4  -2  -9   21.43    0.90
  -4  -2   9   21.28    0.94
  -4  -2   9   21.55    0.90
   4  -2  -9   22.60    0.95
  -4  -2   9   21.65    0.92
   5   2  -8    5.46    0.55
  -5   2   8    6.19    0.48
  -5   2   8    5.06    0.65
   5   2  -8    4.85    0.54
  -5   2   8    4.68    0.59
  -5   2   8    6.33    0.63
  -5   2   8    5.52    0.56
  -5   2   8    5.58    0.67
  -5  -2   8    5.27    0.47
  -5  -2   8    5.13    0.55
   5  -2  -8    4.89    0.64
   5  -2  -8    6.45    0.65
   5  -2  -8    6.93    0.53
  -5  -2   8    6.00    0.50
   5  -2  -8    5.85    0.44
  -6   2   7   35.60    1.43
  -6   2   7   32.59    1.38
   6   2  -7   34.01    1.31
   6   2  -7   35.75    1.30
  -6   2   7   33.29    1.41
  -6  -2   7   31.79    0.91
   6  -2  -7   32.79    1.38
  -6  -2   7   34.38    1.17
  -6  -2   7   32.81    1.27
   6  -2  -7   35.29    1.22
   6  -2  -7   34.30    1.08
   6  -2  -7   35.27    1.41
  -7   2   6   38.73    1.59
  -7   2   6   39.58    1.38
   7   2  -6   41.35    1.51
   7   2  -6   41.24    1.56
  -7   2   6   41.24    1.62
   7   2  -6   38.12    1.50
   7  -2  -6   41.74    1.61
   7  -2  -6   43.29    1.28
  -7  -2   6   37.35    1.13
   7  -2  -6   42.41    1.60
   8   2  -5   18.35    1.08
   8   2  -5   18.82    1.04
  -8   2   5   16.11    1.11
   8   2  -5   17.82    1.10
   8  -2  -5   18.64    1.09
  -8  -2   5   18.89    0.68
   8  -2  -5   19.11    0.80
   8  -2  -5   16.16    1.10
  -9   2   4   -0.88    0.48
   9   2  -4   -0.48    0.43
   9   2  -4    0.37    0.31
   9  -2  -4    0.13    0.28
   9  -2  -4    0.06    0.35
   9  -2  -4    1.00    0.37
   9  -2  -4    0.43    0.48
   9  -2  -4    0.45    0.51
 -10   2   3   -0.42    0.71
  10   2  -3    0.59    0.54
  10   2  -3    1.75    0.59
  10   2  -3    1.44    0.54
  10  -2  -3    1.02    0.57
  10  -2  -3    0.20    0.57
  10  -2  -3    1.15    0.52
  11   2  -2    1.67    0.58
  11   2  -2    2.16    0.72
  11   2  -2    1.97    1.01
  11  -2  -2    2.71    0.76
  11  -2  -2    2.67    0.77
  12   2  -1    2.69    0.82
  12   2  -1    0.31    0.95
  12   2  -1    1.84    1.28
  12  -2  -1   -1.33    0.89
   1   3  14    3.71    0.93
   1   3  14    5.55    0.78
   1   3  14    4.68    0.87
  -1   3 -14    4.08    1.76
  -1  -3 -14    5.91    1.25
   1  -3  14    5.10    0.97
  -1  -3 -14    5.70    1.78
   0   3 -13    6.10    0.95
   0   3  13    6.00    0.82
   0   3  13    6.40    0.69
   0   3  13    4.77    0.66
   0   3  13    7.38    0.71
   0  -3  13    3.92    0.58
   0  -3  13    6.74    0.95
   0  -3 -13    5.94    0.94
  -1   3  12    0.27    0.41
   1   3 -12    0.95    0.48
  -1   3  12   -0.01    0.34
  -1   3  12   -0.28    0.94
  -1   3  12   -0.28    0.32
  -1   3  12    0.34    0.32
   1  -3 -12    1.16    0.63
  -1  -3  12    0.58    0.45
  -1  -3  12    0.90    0.39
   1  -3 -12   -0.40    0.40
  -2   3  11    7.62    0.87
   2   3 -11    5.58    0.69
  -2   3  11    6.29    0.78
   2   3 -11    4.40    0.57
  -2   3  11    5.46    0.62
  -2   3  11    6.70    0.66
   2  -3 -11    5.36    0.70
   2  -3 -11    4.84    0.67
  -2  -3  11    5.60    0.58
  -2  -3  11    5.01    0.58
  -2  -3  11    5.44    0.65
  -3   3  10   17.67    0.92
   3   3 -10   17.61    0.93
  -3   3  10   16.29    1.00
  -3   3  10   16.91    0.93
   3   3 -10   15.14    0.56
  -3   3  10   16.84    1.08
  -3   3  10   15.00    0.82
  -3  -3  10   16.56    0.90
   3  -3 -10   17.19    0.95
  -3  -3  10   16.74    0.82
   3  -3 -10   16.47    0.98
  -4   3   9   10.01    0.83
  -4   3   9   10.48    0.82
  -4   3   9   10.20    0.77
  -4   3   9   10.33    0.83
  -4   3   9   11.30    0.77
  -4   3   9   10.31    0.64
   4   3  -9    9.25    0.70
   4   3  -9    9.82    0.55
  -4  -3   9    9.67    0.69
   4  -3  -9   10.15    0.77
   4  -3  -9   10.16    0.68
  -4  -3   9   10.10    0.68
   5   3  -8   30.12    1.26
  -5   3   8   31.76    1.33
  -5   3   8   31.65    1.39
  -5   3   8   31.28    1.29
  -5   3   8   30.82    1.29
  -5   3   8   32.93    1.37
  -5   3   8   30.28    1.06
  -5  -3   8   31.27    1.22
   5  -3  -8   31.36    1.28
   5  -3  -8   30.59    1.06
  -5  -3   8   30.45    1.14
   6   3  -7   41.04    1.53
   6   3  -7   38.45    1.38
  -6   3   7   40.21    1.58
   6   3  -7   39.13    1.43
  -6   3   7   37.46    1.57
  -6   3   7   40.12    1.53
  -6   3   7   38.14    1.52
  -6  -3   7   37.78    1.03
   6  -3  -7   40.30    1.45
   6  -3  -7   38.10    1.16
  -6  -3   7   39.60    1.32
   6  -3  -7   39.14    1.55
   6  -3  -7   38.78    1.57
   7   3  -6   65.77    2.04
  -7   3   6   59.35    2.49
  -7   3   6   61.28    2.15
   7   3  -6   64.63    2.12
   7   3  -6   60.38    2.17
   7  -3  -6   64.85    2.22
   7  -3  -6   66.53    2.07
   7  -3  -6   66.68    2.21
   7  -3  -6   65.70    1.72
  -7  -3   6   64.35    1.89
  -7  -3   6   63.85    1.72
   8   3  -5    2.91    0.53
  -8   3   5    6.41    0.90
  -8   3   5    3.71    0.67
   8   3  -5    3.99    0.47
   8  -3  -5    4.32    0.78
   8  -3  -5    3.43    0.42
   8  -3  -5    5.02    0.88
   8  -3  -5    4.50    0.67
  -8  -3   5    3.04    0.37
  -8  -3   5    4.60    0.43
  -9   3   4   -0.52    0.55
   9   3  -4    0.45    0.36
   9   3  -4    0.82    0.45
   9   3  -4    0.46    0.46
   9  -3  -4    0.75    0.51
   9  -3  -4    0.86    0.33
   9  -3  -4    0.58    0.27
   9  -3  -4    0.29    0.53
   9  -3  -4    0.42    0.32
  -9  -3   4    0.66    0.25
  10   3  -3    7.78    0.79
  10   3  -3    9.25    1.03
  10   3  -3    6.88    0.97
  10  -3  -3    5.79    0.83
  10  -3  -3    7.66    0.68
  10  -3  -3    3.90    1.15
 -10  -3   3    7.46    0.50
  11   3  -2    3.50    0.66
  11   3  -2    3.33    0.82
  11   3  -2    2.82    0.81
  11  -3  -2    4.86    0.90
   0   4 -13    0.23    0.72
   0   4  13    0.22    0.54
   0   4  13    0.39    0.44
   0   4  13   -0.73    0.54
   0  -4 -13    0.40    0.73
   0  -4 -13    0.27    1.23
   0  -4  13    0.97    0.73
  -1   4  12    0.00    0.39
   1   4 -12    0.46    0.50
  -1   4  12    0.41    0.37
  -1   4  12   -0.06    0.42
  -1   4  12    0.84    0.45
  -1  -4  12    0.94    0.54
   1  -4 -12    0.15    0.63
   1  -4 -12    0.71    0.55
   1  -4 -12    0.75    0.99
  -1  -4  12    0.93    0.52
  -2   4  11    7.65    0.79
  -2   4  11    3.40    0.72
  -2   4  11    5.97    0.68
   2   4 -11    5.01    0.72
  -2   4  11    5.63    0.69
  -2  -4  11    5.71    0.77
   2  -4 -11    5.44    0.71
   2  -4 -11    4.51    0.74
  -2  -4  11    4.59    0.60
  -3   4  10    6.74    0.91
  -3   4  10    5.80    0.84
  -3   4  10    6.75    0.66
  -3   4  10    7.91    0.75
  -3   4  10    6.15    0.87
   3   4 -10    7.30    0.71
  -3  -4  10    7.80    0.72
  -3  -4  10    7.55    0.52
   3  -4 -10    7.59    0.86
  -3  -4  10    8.70    0.68
   3  -4 -10    6.83    0.82
  -4   4   9    3.85    0.61
  -4   4   9    3.34    0.37
   4   4  -9    3.53    0.48
  -4   4   9    3.22    0.55
  -4   4   9    3.06    0.55
  -4   4   9    3.62    0.53
  -4   4   9    3.12    0.55
  -4  -4   9    4.02    0.41
   4  -4  -9    4.89    0.64
   4  -4  -9    4.19    0.62
  -4  -4   9    3.87    0.54
   5   4  -8   36.54    1.46
  -5   4   8   34.70    1.13
   5   4  -8   34.18    1.28
  -5   4   8   34.66    1.46
  -5   4   8   32.65    1.41
  -5   4   8   33.74    1.47
  -5   4   8   36.16    1.54
  -5   4   8   37.76    1.63
  -5  -4   8   34.32    1.36
  -5  -4   8   33.54    1.23
  -5  -4   8   35.04    1.18
   5  -4  -8   35.81    1.50
   5  -4  -8   36.92    1.25
   6   4  -7   45.43    1.58
  -6   4   7   47.20    1.82
   6   4  -7   43.12    1.87
  -6   4   7   46.13    1.86
  -6   4   7   44.98    1.71
  -6   4   7   45.76    1.74
   6  -4  -7   43.55    1.70
   6  -4  -7   44.36    1.70
   6  -4  -7   43.76    1.78
  -6  -4   7   43.14    1.49
  -6  -4   7   42.91    1.45
   7   4  -6    9.79    0.91
   7   4  -6   10.12    0.54
  -7   4   6    9.77    0.96
   7   4  -6   10.37    0.74
   7   4  -6    9.70    0.76
  -7   4   6    9.25    0.91
   7  -4  -6    9.44    0.37
   7  -4  -6   10.13    0.99
   7  -4  -6    9.95    0.88
  -7  -4   6    9.42    0.52
   7  -4  -6    8.99    0.87
  -7  -4   6    9.37    0.62
  -8   4   5   -0.96    0.54
  -8   4   5   -0.99    0.54
   8   4  -5   -0.03    0.40
   8   4  -5    0.19    0.28
   8   4  -5    0.26    0.47
   8  -4  -5    0.21    0.39
  -8  -4   5    0.53    0.26
   8  -4  -5   -0.42    0.47
   8  -4  -5   -0.20    0.47
   8  -4  -5   -0.58    0.39
  -8  -4   5   -0.35    0.31
   9   4  -4    9.57    0.74
   9   4  -4   10.39    0.96
   9   4  -4    9.47    0.96
  -9  -4   4    9.08    0.58
   9  -4  -4    9.04    1.03
   9  -4  -4    8.38    0.90
   9  -4  -4    9.19    1.14
  10   4  -3    3.55    0.78
  10   4  -3    3.90    0.70
  10   4  -3    4.44    0.63
  10  -4  -3    6.84    0.92
  10  -4  -3    4.95    0.71
  11   4  -2    2.18    0.65
  11   4  -2    1.18    0.83
  11   4  -2    3.30    0.96
  11  -4  -2    2.26    0.86
  11  -4  -2    3.69    0.87
   0   5  13    2.96    1.44
   0   5  13    2.85    0.67
   0   5  13    2.44    0.76
   0   5 -13    1.59    0.87
   0  -5  13    2.68    1.07
   0  -5 -13    2.10    0.99
   1   5 -12   -0.05    0.52
  -1   5  12   -0.39    0.47
  -1   5  12    0.03    0.48
  -1   5  12    0.07    0.51
  -1  -5  12   -0.48    0.64
   1  -5 -12   -1.65    1.14
   1  -5 -12   -0.49    0.66
   1  -5 -12   -0.48    0.74
  -2   5  11    2.97    0.52
  -2   5  11    1.68    0.46
  -2   5  11    2.31    0.51
   2   5 -11    1.35    0.53
   2  -5 -11    2.60    0.66
   2  -5 -11    1.71    0.95
   2  -5 -11    2.32    0.67
  -2  -5  11    3.06    0.62
  -3   5  10    6.60    0.70
  -3   5  10    6.58    0.73
  -3   5  10    5.57    0.78
   3   5 -10    5.95    0.76
  -3   5  10    5.26    0.63
  -3   5  10    5.33    0.78
   3  -5 -10    7.47    0.86
   3  -5 -10    9.66    1.31
   3  -5 -10    7.95    1.02
  -3  -5  10    6.29    0.80
  -4   5   9    7.36    0.97
   4   5  -9    5.62    0.66
   4   5  -9    7.60    0.79
  -4   5   9    7.88    0.90
  -4   5   9    7.79    0.70
  -4   5   9    7.07    1.06
  -4   5   9    7.02    0.62
  -4   5   9    8.38    0.79
  -4  -5   9    5.92    0.63
  -4  -5   9    9.75    0.81
  -4  -5   9    7.84    0.50
   4  -5  -9    7.62    0.74
   4  -5  -9    7.82    0.93
   4  -5  -9    8.66    1.18
  -5   5   8   13.28    1.04
   5   5  -8   14.89    0.99
  -5   5   8   14.59    0.71
  -5   5   8   13.68    0.92
  -5   5   8   14.25    1.05
   5   5  -8   11.42    1.03
  -5   5   8   13.77    0.94
  -5   5   8   12.76    1.03
   5  -5  -8   15.10    1.14
   5  -5  -8   11.23    1.23
   5  -5  -8   13.50    0.79
  -5  -5   8   13.45    0.89
  -5  -5   8   13.98    0.63
  -5  -5   8   13.77    0.67
  -6   5   7    3.53    0.55
  -6   5   7    3.79    0.56
   6   5  -7    6.51    0.80
  -6   5   7    4.44    0.63
  -6   5   7    4.75    0.61
   6   5  -7    4.59    0.55
   6  -5  -7    3.08    0.54
  -6  -5   7    4.75    0.59
   6  -5  -7    3.87    0.61
   6  -5  -7    4.24    0.60
   6  -5  -7    4.24    0.73
  -6  -5   7    5.06    0.49
  -6  -5   7    3.62    0.44
   7   5  -6   22.73    0.82
  -7   5   6   23.23    1.30
   7   5  -6   24.15    1.35
  -7   5   6   23.00    1.30
   7   5  -6   21.61    1.04
  -7   5   6   22.60    1.21
   7   5  -6   22.11    1.02
   7  -5  -6   23.90    1.26
   7  -5  -6   23.12    1.31
   7  -5  -6   24.63    1.27
   7  -5  -6   23.57    1.24
  -7  -5   6   22.78    1.01
   8   5  -5    3.40    0.42
   8   5  -5    3.54    0.56
   8   5  -5    4.99    0.63
   8   5  -5    2.47    0.69
   8  -5  -5    3.81    0.64
  -8  -5   5    4.51    0.56
   8  -5  -5    3.59    0.63
   8  -5  -5    4.02    0.54
   9   5  -4    4.87    0.70
   9   5  -4    5.53    0.71
   9   5  -4    5.70    0.85
   9  -5  -4    4.23    0.84
   9  -5  -4    3.53    0.71
  -9  -5   4    4.75    0.55
  10   5  -3    2.24    0.74
  10   5  -3    2.01    0.56
  10   5  -3    1.83    0.70
  10  -5  -3    1.97    0.80
  10  -5  -3    1.61    0.81
  -1   6  12    1.22    0.72
  -1   6  12    0.65    0.75
  -1   6  12    0.71    0.68
   1   6 -12    1.38    0.72
  -1  -6  12    3.36    1.12
   1  -6 -12    1.24    0.86
   1  -6 -12    0.37    1.58
  -2   6  11    7.20    0.93
  -2   6  11    7.32    0.90
  -2   6  11    6.78    1.02
   2   6 -11    5.37    0.73
  -2  -6  11    6.33    0.91
   2  -6 -11    6.33    1.32
   2  -6 -11    7.14    0.98
  -3   6  10    5.01    0.64
   3   6 -10    4.92    0.66
  -3   6  10    6.37    0.78
  -3   6  10    5.85    0.78
   3  -6 -10    5.13    0.86
  -3  -6  10    7.05    0.92
   3  -6 -10    6.13    1.15
  -4   6   9    1.19    0.44
   4   6  -9    1.62    0.54
  -4   6   9    1.29    0.56
  -4   6   9    1.04    0.43
   4  -6  -9    0.18    0.81
   4  -6  -9    1.75    0.70
  -4  -6   9    1.30    0.51
  -5   6   8    7.99    0.83
  -5   6   8   10.77    0.86
   5   6  -8    6.90    0.81
  -5   6   8   10.42    1.05
   5  -6  -8    8.29    1.19
   5  -6  -8    6.74    1.34
  -5  -6   8    8.47    0.91
   6   6  -7    2.16    0.62
  -6   6   7    2.77    0.53
  -6   6   7    4.13    0.70
  -6   6   7    3.69    0.57
   6  -6  -7    4.96    0.84
   6  -6  -7    3.47    0.74
  -6  -6   7    4.23    0.60
   7   6  -6   14.01    0.86
  -7   6   6   14.32    1.09
   7   6  -6   13.19    1.21
  -7   6   6   12.31    1.06
   7   6  -6   15.52    0.82
   7  -6  -6   13.74    1.27
  -7  -6   6   14.75    1.06
   7  -6  -6   13.85    1.19
   7  -6  -6   13.56    1.13
   8   6  -5    6.13    0.93
   8   6  -5    6.43    0.79
   8   6  -5    6.75    0.64
  -8   6   5    9.94    1.09
  -8   6   5    7.80    1.05
   8   6  -5    7.24    0.85
  -8  -6   5    6.51    0.76
   8  -6  -5    8.82    1.21
   8  -6  -5    8.48    1.18
   9   6  -4    2.51    0.90
   9   6  -4    2.54    0.68
   9   6  -4    3.31    0.63
   9   6  -4    3.55    0.67
   9  -6  -4    2.97    0.90
  -3   7  10    1.78    0.56
   3   7 -10    0.85    0.60
  -3   7  10    0.85    0.78
  -3   7  10    1.35    0.57
   3  -7 -10    1.45    1.21
  -3  -7  10    1.42    0.84
   3  -7 -10    0.34    0.89
  -4   7   9   10.74    0.89
  -4   7   9    9.07    1.32
  -4   7   9   11.38    0.99
   4   7  -9   10.96    1.15
   4  -7  -9   11.56    1.61
   4  -7  -9   11.00    1.40
  -4  -7   9   12.26    1.21
  -5   7   8    8.55    0.86
   5   7  -8   10.64    1.11
  -5   7   8    8.41    0.91
  -5   7   8   10.78    1.29
  -5  -7   8    8.47    0.99
   5  -7  -8    8.14    1.11
   5  -7  -8   11.10    1.54
  -6   7   7    1.10    0.49
   6   7  -7    1.53    0.67
  -6   7   7    0.45    0.75
  -6   7   7    0.88    0.54
   6  -7  -7    0.62    0.88
  -6  -7   7    0.78    0.60
  -7   7   6    1.61    0.60
   7   7  -6    0.62    0.77
  -7   7   6    2.21    0.64
  -7   7   6    1.88    0.96
  -7  -7   6    2.75    0.65
   7  -7  -6    2.52    0.92
  -8   7   5    5.64    0.85
  -8   7   5    5.43    0.99
   8   7  -5    6.66    1.04
   8   7  -5    7.00    0.90
   8  -7  -5    5.03    1.06
   0   0  14    1.21    0.78
   0   0  14   -0.72    0.46
   0   0  14    0.31    0.38
   0   0 -14    0.38    0.78
   0   0  14    0.33    0.54
  -1   0  13    4.01    0.57
  -1   0  13    3.35    0.53
  -1   0  13    3.99    0.44
   1   0 -13    2.53    0.71
  -2   0  12   54.36    1.85
  -2   0  12   49.79    1.65
   2   0 -12   51.68    1.90
  -2   0  12   51.20    1.45
  -2   0  12   51.30    1.79
   2   0 -12   51.66    1.97
  -3   0  11  248.92    6.35
  -3   0  11  251.57    6.00
  -3   0  11  248.24    6.40
  -3   0  11  252.66    6.22
   3   0 -11  251.84    6.58
   3   0 -11  243.39    6.35
   4   0 -10   36.60    1.17
  -4   0  10   36.13    1.42
   4   0 -10   38.13    1.34
  -4   0  10   33.07    2.14
  -4   0  10   38.01    1.28
  -4   0  10   37.22    1.12
  -4   0  10   39.86    1.41
  -5   0   9    0.92    0.38
  -5   0   9    1.14    0.29
  -5   0   9    0.55    0.36
   5   0  -9    1.33    0.30
  -5   0   9    0.96    0.35
  -5   0   9    0.87    0.33
  -6   0   8   16.84    0.64
   6   0  -8   15.45    0.91
  -6   0   8   16.04    0.93
   6   0  -8   18.14    0.95
   6   0  -8   17.84    0.81
  -6   0   8   15.10    0.93
   7   0  -7   25.27    1.18
   7   0  -7   23.94    1.00
  -7   0   7   23.18    0.81
  -7   0   7   22.23    1.16
   7   0  -7   23.67    1.16
  -8   0   6   14.51    1.55
   8   0  -6   17.14    1.04
   8   0  -6   15.60    1.00
  -8   0   6   16.30    0.74
   8   0  -6   17.08    0.90
   8   0  -6   16.85    1.06
   9   0  -5   28.98    1.45
   9   0  -5   28.91    1.27
   9   0  -5   27.44    1.19
   9   0  -5   27.22    1.81
  10   0  -4   12.11    1.17
  10   0  -4   12.14    1.08
  10   0  -4    9.41    0.85
  11   0  -3   -1.41    0.58
  11   0  -3    0.25    0.57
  12   0  -2   -0.91    0.82
  12   0  -2    0.54    0.80
   0   1  14    1.27    0.59
   0   1  14    1.11    0.63
   0   1  14    0.25    0.46
   0   1 -14    0.96    0.74
   0   1  14    0.33    0.36
   0  -1  14    2.32    0.55
   0  -1  14    2.03    0.63
   0  -1 -14    0.84    0.79
   0  -1  14    1.57    0.53
  -1   1  13    6.58    0.85
   1   1 -13    4.98    0.77
  -1   1  13    6.73    0.73
  -1   1  13    5.94    0.52
   1  -1 -13    5.76    0.83
  -1  -1  13    7.28    0.51
  -1  -1  13    6.14    0.73
  -1  -1  13    6.94    0.85
  -1  -1  13    5.07    0.69
   2   1 -12   18.94    1.22
  -2   1  12   22.17    1.00
  -2   1  12   21.10    1.10
   2   1 -12   19.83    1.08
  -2   1  12   23.50    0.84
  -2   1  12   21.64    1.23
   2   1 -12   19.99    1.20
   2  -1 -12   21.64    1.31
  -2  -1  12   23.06    1.05
   2  -1 -12   23.50    1.25
  -2  -1  12   23.77    1.13
  -2  -1  12   21.09    0.74
  -2  -1  12   20.49    1.15
   2  -1 -12   22.66    0.84
  -3   1  11    3.22    0.48
  -3   1  11    3.65    0.46
  -3   1  11    3.25    0.50
   3   1 -11    3.14    0.22
   3   1 -11    3.17    0.53
   3   1 -11    2.55    0.43
  -3   1  11    3.55    0.79
  -3   1  11    3.07    0.38
   3  -1 -11    3.05    0.51
  -3  -1  11    3.40    0.47
  -3  -1  11    2.52    0.42
   3  -1 -11    2.89    0.39
   3  -1 -11    2.50    0.54
  -3  -1  11    3.18    0.46
   4   1 -10   61.02    1.88
  -4   1  10   58.16    1.73
  -4   1  10   58.88    1.99
  -4   1  10   56.94    1.90
  -4   1  10   59.51    2.52
  -4  -1  10   59.47    1.81
   4  -1 -10   60.27    1.85
   4  -1 -10   60.31    1.77
  -4  -1  10   57.27    1.88
  -4  -1  10   58.64    1.47
  -4  -1  10   59.91    1.99
  -5   1   9   69.41    2.04
  -5   1   9   75.22    2.55
  -5   1   9   70.95    2.27
   5   1  -9   70.66    2.12
  -5   1   9   69.12    2.30
  -5   1   9   66.79    2.10
   5  -1  -9   72.68    2.05
  -5  -1   9   67.29    1.78
  -5  -1   9   72.39    2.19
   5  -1  -9   70.86    2.02
  -5  -1   9   71.76    2.06
  -5  -1   9   69.28    1.76
   6   1  -8  121.50    3.48
  -6   1   8  113.87    3.51
   6   1  -8  119.25    3.42
   6   1  -8  125.04    3.38
  -6   1   8  123.33    3.54
  -6   1   8  121.30    3.93
  -6   1   8  123.53    3.50
  -6  -1   8  120.80    3.54
   6  -1  -8  123.13    3.50
   6  -1  -8  122.21    3.23
  -6  -1   8  136.93    4.09
   6  -1  -8  122.71    3.53
   7   1  -7   22.52    1.11
  -7   1   7   21.27    1.14
   7   1  -7   22.23    1.10
   7   1  -7   23.74    1.05
  -7   1   7   22.28    0.86
   7  -1  -7   24.32    0.95
   7  -1  -7   21.97    1.14
  -7  -1   7   23.34    0.74
   7  -1  -7   22.91    1.17
  -8   1   6    7.33    0.57
   8   1  -6    8.63    0.85
  -8   1   6    7.63    0.84
   8   1  -6    7.26    0.79
   8   1  -6    8.84    0.77
   8   1  -6    8.46    0.80
   8  -1  -6    8.57    0.63
  -8  -1   6    7.74    0.42
   8  -1  -6    8.72    0.83
   8  -1  -6    7.54    0.81
   9   1  -5    2.18    0.52
  -9   1   5    2.75    1.01
   9   1  -5    1.42    0.51
   9   1  -5    1.98    0.55
   9   1  -5    1.35    0.90
  -9  -1   5    1.78    0.34
   9  -1  -5    1.41    0.35
   9  -1  -5    1.93    0.40
   9  -1  -5    1.27    0.50
   9  -1  -5    1.34    0.42
  10   1  -4    9.56    1.39
  10   1  -4    7.49    1.04
  10  -1  -4    8.72    1.02
  10  -1  -4    9.74    1.01
  11   1  -3   10.03    1.17
  11   1  -3    8.59    1.17
  11  -1  -3    9.81    1.25
  11  -1  -3    8.90    1.15
  12   1  -2    4.94    0.92
  12   1  -2    4.38    1.00
  12  -1  -2    4.25    0.99
  12  -1  -2    4.50    0.98
   0   2  14    0.23    0.37
   0   2 -14   -0.28    0.77
   0   2  14    1.13    0.57
   0   2  14    1.37    0.57
   0   2  14    0.97    0.62
   0  -2  14    0.97    0.53
   0  -2 -14    1.22    0.82
   0  -2  14   -0.01    0.62
   1   2 -13    4.01    0.73
  -1   2  13    4.15    0.70
  -1   2  13    4.99    0.65
  -1   2  13    6.02    0.66
   1  -2 -13    4.57    0.81
  -1  -2  13    3.61    0.60
  -1  -2  13    4.62    0.60
   2   2 -12    2.69    0.61
  -2   2  12    2.65    0.43
  -2   2  12    3.13    0.42
  -2   2  12    3.39    0.52
  -2   2  12    2.43    0.49
   2   2 -12    1.90    0.46
  -2  -2  12    2.43    0.43
   2  -2 -12    3.35    0.63
  -2  -2  12    2.76    0.45
  -2  -2  12    3.31    0.29
   2  -2 -12    2.31    0.40
  -2  -2  12    2.65    0.51
   3   2 -11   41.13    1.77
  -3   2  11   47.17    1.67
  -3   2  11   46.67    1.74
   3   2 -11   47.05    1.75
  -3   2  11   47.35    1.50
  -3   2  11   45.09    1.83
  -3  -2  11   45.94    1.55
   3  -2 -11   45.46    1.72
  -3  -2  11   45.97    1.60
   3  -2 -11   47.96    1.55
  -4   2  10   16.64    0.89
  -4   2  10   18.25    1.04
   4   2 -10   16.56    0.90
  -4   2  10   17.94    1.02
  -4   2  10   15.74    0.92
  -4   2  10   16.80    0.85
  -4  -2  10   17.13    0.84
   4  -2 -10   15.78    0.86
  -4  -2  10   17.10    0.85
  -4  -2  10   17.50    0.86
   4  -2 -10   16.77    0.86
  -5   2   9   76.29    2.43
  -5   2   9   77.03    2.29
  -5   2   9   73.04    2.20
  -5   2   9   76.65    2.37
   5   2  -9   76.16    2.32
  -5   2   9   75.90    2.48
   5  -2  -9   75.42    2.26
   5  -2  -9   76.30    2.15
  -5  -2   9   77.14    2.31
  -5  -2   9   75.78    2.28
  -5  -2   9   78.90    2.23
   6   2  -8  110.15    3.12
  -6   2   8  113.67    3.31
  -6   2   8  114.41    3.25
   6   2  -8  110.65    3.16
  -6   2   8  107.70    3.31
   6   2  -8  110.66    3.19
  -6   2   8  112.37    3.54
  -6  -2   8  107.09    3.15
   6  -2  -8  115.97    3.09
  -6  -2   8  109.13    2.66
   6  -2  -8  108.63    3.27
   6  -2  -8  113.38    3.28
   6  -2  -8  112.13    2.91
  -6  -2   8  112.31    3.02
   7   2  -7    5.46    0.69
  -7   2   7    4.29    0.58
   7   2  -7    4.30    0.64
  -7   2   7    4.14    0.79
   7   2  -7    4.43    0.55
   7  -2  -7    5.89    0.44
  -7  -2   7    4.34    0.28
   7  -2  -7    4.88    0.67
   7  -2  -7    5.05    0.64
  -7  -2   7    4.93    0.49
  -8   2   6    7.69    0.86
   8   2  -6    8.67    0.88
   8   2  -6    9.15    0.87
   8   2  -6    7.54    0.82
   8  -2  -6   10.28    0.90
   8  -2  -6    9.78    0.86
   8  -2  -6    9.73    0.58
  -8  -2   6    9.74    0.45
   9   2  -5   27.60    1.47
  -9   2   5   29.18    1.49
   9   2  -5   23.39    1.56
   9   2  -5   29.88    1.41
  -9  -2   5   31.40    1.03
   9  -2  -5   29.41    1.46
   9  -2  -5   31.05    1.12
   9  -2  -5   31.18    1.53
   9  -2  -5   28.57    1.09
  10   2  -4    2.89    0.61
 -10   2   4    3.17    1.13
  10   2  -4    2.96    0.52
  10   2  -4    2.88    0.66
  10  -2  -4    2.33    0.40
  10  -2  -4    2.76    0.60
  10  -2  -4    2.08    0.51
  10  -2  -4    3.70    0.65
  11   2  -3    0.11    0.60
  11   2  -3    0.30    0.50
  11   2  -3    0.07    0.68
  11  -2  -3    1.39    0.70
  11  -2  -3    0.30    0.73
  12   2  -2    3.23    1.13
  12   2  -2    3.64    0.98
  12   2  -2    5.31    0.84
  12  -2  -2    4.11    1.07
   0   3 -14    6.31    1.12
   0   3  14    5.37    0.60
   0   3  14    3.99    0.76
   0   3  14    5.64    0.83
   0  -3 -14    3.55    1.04
   0  -3  14    5.04    0.83
   0  -3 -14    4.39    1.50
  -1   3  13    2.29    0.45
   1   3 -13    1.07    0.62
  -1   3  13    1.14    0.47
  -1   3  13    1.98    0.48
  -1   3  13    0.61    0.41
  -1  -3  13    2.95    0.64
   1  -3 -13    1.96    0.70
  -1  -3  13    1.09    0.46
  -2   3  12    6.36    0.97
   2   3 -12    7.22    0.82
  -2   3  12    8.06    0.74
  -2  -3  12    9.23    0.71
   2  -3 -12    7.39    0.78
   2  -3 -12    7.03    0.85
   3   3 -11    0.83    0.35
  -3   3  11    0.37    0.36
  -3   3  11    0.17    0.48
  -3   3  11    1.48    0.46
  -3   3  11    0.87    0.38
  -3  -3  11    0.50    0.26
  -3  -3  11    0.53    0.38
  -3  -3  11    0.77    0.30
   3  -3 -11    1.13    0.45
   3  -3 -11    0.68    0.46
  -4   3  10    2.48    0.40
  -4   3  10    1.40    0.46
   4   3 -10    2.87    0.33
  -4   3  10    3.30    0.55
  -4   3  10    2.64    0.46
  -4  -3  10    2.50    0.39
   4  -3 -10    3.06    0.47
   4  -3 -10    1.95    0.39
  -5   3   9   28.15    1.23
  -5   3   9   27.37    1.04
  -5   3   9   27.67    1.32
  -5   3   9   28.36    1.44
   5   3  -9   26.01    1.19
  -5   3   9   28.63    1.31
  -5   3   9   27.52    1.33
   5  -3  -9   28.13    1.25
  -5  -3   9   28.17    1.12
  -5  -3   9   27.79    1.15
   5  -3  -9   27.41    1.05
  -6   3   8   78.48    2.68
   6   3  -8   75.42    2.33
  -6   3   8   75.42    2.51
  -6   3   8   71.36    2.45
  -6   3   8   76.87    2.51
   6   3  -8   73.07    2.38
   6  -3  -8   76.36    2.46
   6  -3  -8   77.17    2.35
  -6  -3   8   75.24    2.30
  -6  -3   8   77.38    2.23
   6  -3  -8   73.64    2.45
   6  -3  -8   74.42    2.04
  -7   3   7   22.59    1.24
   7   3  -7   23.74    1.23
   7   3  -7   23.58    1.12
   7   3  -7   23.88    1.14
  -7   3   7   26.92    1.33
  -7   3   7   22.80    1.28
   7  -3  -7   22.89    1.21
  -7  -3   7   24.95    0.99
  -7  -3   7   22.32    1.04
   7  -3  -7   25.66    1.15
   7  -3  -7   23.65    1.24
   7  -3  -7   23.69    0.84
  -8   3   6   16.53    1.15
   8   3  -6   18.63    1.11
   8   3  -6   18.27    1.12
   8  -3  -6   19.45    1.02
  -8  -3   6   15.46    0.79
   8  -3  -6   18.10    0.70
  -8  -3   6   16.61    0.67
   8  -3  -6   19.52    1.10
   8  -3  -6   21.02    1.13
  -9   3   5    1.55    0.60
   9   3  -5    1.42    0.57
   9   3  -5    1.38    0.49
   9   3  -5    1.47    0.49
   9   3  -5    1.18    0.41
  -9  -3   5    1.22    0.31
   9  -3  -5    1.65    0.51
   9  -3  -5    1.18    0.59
  -9  -3   5    1.46    0.31
   9  -3  -5    1.24    0.27
   9  -3  -5    2.32    0.36
   9  -3  -5    2.38    0.42
  10   3  -4   -0.55    0.50
  10   3  -4    0.96    0.60
  10   3  -4    0.24    0.43
  10  -3  -4    0.43    0.59
  10  -3  -4    0.39    0.33
 -10  -3   4    0.68    0.31
  10  -3  -4   -0.24    0.58
  11   3  -3    6.47    0.78
  11   3  -3    4.91    0.84
  11   3  -3    5.30    0.95
  11  -3  -3    4.65    0.80
  -1   4  13    0.59    0.47
  -1   4  13   -0.01    0.42
  -1   4  13   -0.28    0.46
   1   4 -13    0.69    0.62
  -1   4  13    0.23    0.48
   1  -4 -13    0.19    1.17
   1  -4 -13    2.47    0.77
  -1  -4  13    0.02    0.62
  -2   4  12    3.41    0.53
  -2   4  12    3.42    0.55
   2   4 -12    3.69    0.57
  -2   4  12    4.50    0.64
  -2  -4  12    4.26    0.55
   2  -4 -12    4.72    0.78
   2  -4 -12    4.43    0.71
  -2  -4  12    6.89    0.87
  -3   4  11   16.69    0.97
   3   4 -11   15.99    1.00
  -3   4  11   13.91    1.36
  -3   4  11   15.88    1.02
  -3   4  11   15.85    0.98
   3  -4 -11   17.21    1.16
  -3  -4  11   17.59    1.01
  -3  -4  11   17.03    0.89
   3  -4 -11   16.04    1.21
  -4   4  10   13.11    0.80
  -4   4  10   15.28    1.04
   4   4 -10   14.95    0.91
   4   4 -10   15.36    0.71
  -4   4  10   15.04    0.93
  -4   4  10   15.06    1.08
  -4  -4  10   14.69    0.89
   4  -4 -10   15.31    0.93
   4  -4 -10   14.14    1.05
  -4  -4  10   15.15    0.85
  -4  -4  10   15.19    0.71
  -5   4   9   26.78    1.41
  -5   4   9   24.55    0.97
  -5   4   9   26.57    1.49
  -5   4   9   27.79    1.39
   5   4  -9   23.60    1.03
  -5   4   9   26.97    1.22
   5   4  -9   24.35    1.20
  -5   4   9   26.17    1.31
   5  -4  -9   26.26    1.33
  -5  -4   9   27.00    1.16
   5  -4  -9   26.07    1.07
  -5  -4   9   27.21    1.21
  -5  -4   9   26.92    1.00
   6   4  -8   33.66    1.44
  -6   4   8   33.99    1.58
  -6   4   8   33.41    1.50
   6   4  -8   33.21    1.29
   6   4  -8   31.57    1.66
  -6   4   8   33.93    1.50
  -6   4   8   32.69    1.52
   6  -4  -8   32.66    1.14
  -6  -4   8   30.18    1.38
   6  -4  -8   31.19    1.62
   6  -4  -8   33.83    1.51
  -6  -4   8   34.67    1.37
   6  -4  -8   34.59    1.50
  -6  -4   8   32.27    1.27
  -7   4   7   12.68    1.26
   7   4  -7   12.55    0.85
  -7   4   7   12.71    0.94
   7   4  -7   13.02    0.84
  -7   4   7   12.92    1.03
  -7   4   7   11.25    1.07
   7   4  -7   15.24    1.05
  -7  -4   7   13.79    0.75
   7  -4  -7   13.24    1.03
   7  -4  -7   12.15    1.01
  -7  -4   7   11.95    0.53
  -7  -4   7   12.30    0.74
   7  -4  -7   13.56    0.97
   7  -4  -7   13.10    0.56
   8   4  -6   15.63    0.70
  -8   4   6   11.75    1.14
   8   4  -6   16.59    1.25
   8   4  -6   15.04    1.05
   8   4  -6   15.15    0.94
  -8   4   6   15.67    1.65
   8  -4  -6   16.20    1.05
  -8  -4   6   15.66    0.71
  -8  -4   6   15.03    0.77
   8  -4  -6   13.27    1.11
   8  -4  -6   12.33    0.52
   8  -4  -6   14.74    1.09
   9   4  -5   22.58    1.26
   9   4  -5   20.67    1.39
   9   4  -5   22.44    0.98
   9   4  -5   23.39    1.26
  -9  -4   5   21.91    0.90
   9  -4  -5   21.97    1.28
   9  -4  -5   22.07    1.39
   9  -4  -5   24.57    1.40
  10   4  -4   15.70    1.27
  10   4  -4   17.81    1.29
 -10  -4   4   17.40    0.77
  10  -4  -4   15.88    1.19
  10  -4  -4   16.09    1.34
  11   4  -3    2.60    0.90
  11   4  -3    4.08    0.91
  11   4  -3    3.46    0.68
  11  -4  -3    4.24    0.87
  11  -4  -3    2.09    0.88
  -1   5  13    1.24    0.65
  -1   5  13    1.82    0.60
  -1   5  13    1.15    0.67
   1   5 -13    1.52    0.75
   1  -5 -13    1.33    0.90
   1  -5 -13    3.03    1.70
  -1  -5  13    2.54    0.90
   2   5 -12    1.14    0.53
  -2   5  12    1.20    0.53
  -2   5  12    2.12    0.54
  -2   5  12    0.62    0.49
   2  -5 -12    3.03    0.77
  -2  -5  12    3.12    0.75
   2  -5 -12    1.74    0.73
   2  -5 -12    1.65    1.13
   3   5 -11    0.19    0.41
  -3   5  11    0.96    0.42
  -3   5  11    0.29    0.50
  -3   5  11    0.42    0.43
  -3  -5  11    0.03    0.52
   3  -5 -11    0.19    0.61
   3  -5 -11    0.42    0.90
   3  -5 -11    0.45    0.56
   4   5 -10    0.98    0.43
  -4   5  10    1.27    0.45
  -4   5  10    1.09    0.44
  -4   5  10    1.37    0.56
  -4   5  10    0.22    0.85
   4  -5 -10    0.57    0.83
   4  -5 -10    0.56    0.48
  -4  -5  10    0.84    0.49
   4  -5 -10    2.25    0.65
  -5   5   9    6.75    0.92
   5   5  -9    7.17    0.78
  -5   5   9    6.23    0.78
  -5   5   9    7.84    0.79
   5   5  -9    8.19    0.86
  -5   5   9    7.81    0.99
   5  -5  -9    9.18    1.05
   5  -5  -9    6.48    0.70
  -5  -5   9    7.42    0.60
  -5  -5   9    8.74    0.79
  -6   5   8   30.17    1.40
  -6   5   8   27.28    1.44
  -6   5   8   29.21    1.47
   6   5  -8   28.81    1.40
  -6   5   8   29.44    1.32
   6  -5  -8   28.24    0.90
   6  -5  -8   26.89    1.58
   6  -5  -8   29.66    1.49
  -6  -5   8   28.52    1.23
  -6  -5   8   28.27    1.13
   7   5  -7    6.84    0.81
  -7   5   7    8.86    1.00
  -7   5   7    8.45    0.86
   7   5  -7    8.19    0.73
  -7   5   7    8.15    0.89
   7  -5  -7    8.78    0.97
   7  -5  -7    9.45    0.92
  -7  -5   7    7.73    0.70
   7  -5  -7    8.14    0.95
   7  -5  -7    9.05    1.14
   8   5  -6    3.29    0.54
  -8   5   6    1.96    0.57
   8   5  -6    2.64    0.38
   8   5  -6    2.56    0.69
   8   5  -6    1.98    0.50
   8  -5  -6    2.86    0.59
  -8  -5   6    3.66    0.50
   8  -5  -6    2.56    0.62
   8  -5  -6    2.47    0.67
   9   5  -5    1.66    0.58
   9   5  -5    0.43    0.66
   9   5  -5    1.86    0.57
   9   5  -5    1.10    0.41
   9  -5  -5    0.98    0.66
  -9  -5   5    1.73    0.43
   9  -5  -5    0.54    0.58
  10   5  -4    5.16    0.84
  10   5  -4    3.34    0.77
  10   5  -4    5.16    0.70
  10  -5  -4    5.30    0.85
  10  -5  -4    6.15    1.03
  -2   6  12    0.88    0.64
  -2   6  12    2.18    0.69
  -2   6  12    1.82    0.63
   2   6 -12    1.75    0.69
   2  -6 -12    1.06    1.40
   2  -6 -12    2.01    0.89
  -2  -6  12    1.33    0.93
  -3   6  11    2.75    0.60
   3   6 -11    2.99    0.62
  -3   6  11    2.54    0.68
  -3   6  11    4.02    0.62
  -3  -6  11    4.15    0.75
   3  -6 -11    1.63    0.85
   3  -6 -11    4.63    1.28
  -4   6  10    1.09    0.46
   4   6 -10    1.44    0.52
  -4   6  10    1.04    0.63
  -4   6  10    1.24    0.45
   4  -6 -10    0.93    0.96
  -4  -6  10    1.66    0.64
   4  -6 -10    0.93    0.74
  -5   6   9    3.27    0.65
   5   6  -9    3.82    0.66
  -5   6   9    3.86    0.60
  -5   6   9    5.62    0.79
  -5  -6   9    3.95    0.64
   5  -6  -9    1.75    0.87
   5  -6  -9    4.37    0.82
  -6   6   8    4.98    0.67
  -6   6   8    5.97    0.87
  -6   6   8    3.35    0.80
   6   6  -8    3.78    0.68
  -6  -6   8    5.78    0.82
   6  -6  -8    5.49    0.84
   6  -6  -8    5.84    1.02
  -7   6   7    1.51    0.55
   7   6  -7    1.51    0.67
   7   6  -7    1.39    0.41
  -7  -6   7    1.91    0.54
   7  -6  -7    2.04    0.71
   7  -6  -7    1.02    0.66
   7  -6  -7    1.81    0.80
   8   6  -6    0.24    0.46
  -8   6   6    0.46    0.55
  -8   6   6    1.17    0.63
   8   6  -6    0.16    0.43
   8   6  -6    1.01    0.75
   8  -6  -6    0.60    0.70
   8  -6  -6    0.47    0.72
   9   6  -5    3.08    0.69
   9   6  -5    2.17    0.88
   9   6  -5    3.36    0.66
   9  -6  -5    3.69    0.94
   4   7 -10   -0.24    0.58
  -4   7  10   -0.31    0.55
  -4   7  10    1.58    0.88
  -4   7  10   -0.51    0.50
   4  -7 -10    2.22    0.97
   4  -7 -10    0.48    1.12
  -4  -7  10    0.23    0.80
  -5   7   9    4.35    0.65
  -5   7   9    4.90    0.72
  -5   7   9    4.28    0.99
   5   7  -9    5.70    0.87
  -5  -7   9    6.14    0.88
   5  -7  -9    5.64    1.19
   5  -7  -9    5.00    1.07
  -6   7   8    4.19    1.02
   6   7  -8    4.00    0.82
  -6   7   8    7.04    0.94
  -6   7   8    4.26    0.71
   6  -7  -8    5.58    1.10
   6  -7  -8    7.35    1.16
  -6  -7   8    4.46    0.71
  -7   7   7    8.46    1.12
   7   7  -7    9.90    1.13
  -7   7   7    9.38    1.06
  -7   7   7   11.85    1.57
   7  -7  -7   12.24    1.62
  -7  -7   7    7.81    0.98
   8   7  -6    2.51    1.04
  -8   7   6    0.86    0.71
  -8   7   6    0.77    0.85
   8   7  -6    1.91    0.52
  -8  -7   6    1.89    0.78
   8  -7  -6    1.90    1.10
   0   0  15    4.37    0.74
   0   0  15    1.91    0.57
   0   0 -15    3.12    1.09
  -1   0  14    3.74    0.63
  -1   0  14    3.43    0.46
   1   0 -14    2.38    0.71
  -1   0  14    4.65    0.67
  -1   0  14    3.92    0.60
   2   0 -13    0.66    0.53
  -2   0  13    2.10    0.45
  -2   0  13    1.50    0.43
  -2   0  13    1.81    0.87
   2   0 -13    2.46    0.59
  -2   0  13    1.04    0.25
   3   0 -12    0.15    0.38
   3   0 -12    0.02    0.21
  -3   0  12   -0.47    0.30
   3   0 -12    1.19    0.51
  -3   0  12   -0.07    0.18
  -3   0  12    0.53    0.37
  -4   0  11    4.24    0.63
  -4   0  11    5.09    0.53
   4   0 -11    4.43    0.48
  -4   0  11    4.07    0.56
   4   0 -11    3.20    0.44
  -4   0  11    4.77    0.37
  -5   0  10    0.54    0.35
   5   0 -10    0.42    0.28
   5   0 -10    1.14    0.26
  -5   0  10    0.86    0.24
  -5   0  10    0.81    0.37
  -6   0   9    1.42    0.54
  -6   0   9    1.03    0.39
  -6   0   9    0.78    0.37
  -6   0   9    1.28    0.28
   6   0  -9    1.80    0.42
   6   0  -9    0.90    0.30
  -6   0   9    1.14    0.22
   6   0  -9    1.27    0.41
   7   0  -8    5.10    0.57
   7   0  -8    6.37    0.69
   7   0  -8    5.77    0.67
  -7   0   8    5.47    0.39
  -7   0   8    5.57    0.71
  -7   0   8    4.95    0.73
   8   0  -7    2.74    0.45
  -8   0   7    3.27    0.34
   8   0  -7    2.24    0.50
   8   0  -7    3.36    0.55
   9   0  -6    8.53    0.78
   9   0  -6   10.72    0.97
   9   0  -6    7.15    1.04
   9   0  -6    9.30    0.80
  10   0  -5   17.20    1.08
  10   0  -5   16.57    1.01
  10   0  -5   16.48    1.21
  10   0  -5   15.52    1.28
  11   0  -4    1.99    0.64
  11   0  -4    1.74    0.70
  12   0  -3    3.84    0.98
  12   0  -3    3.60    0.88
   0   1  15    1.23    0.43
   0   1  15    1.16    0.65
   0   1  15    0.14    0.56
   0   1 -15    0.18    1.20
   0  -1 -15    2.46    1.18
   0  -1  15    1.67    1.01
   0  -1  15    2.20    0.71
  -1   1  14    8.35    1.04
  -1   1  14    7.47    0.63
  -1   1  14    8.94    0.88
   1   1 -14   10.91    1.26
  -1   1  14    9.14    0.81
  -1  -1  14    9.79    0.93
  -1  -1  14    8.87    0.87
   1  -1 -14    9.37    1.31
  -2   1  13   18.03    1.08
  -2   1  13   18.16    0.91
  -2   1  13   15.65    0.96
  -2   1  13   17.80    0.75
   2   1 -13   17.57    1.12
  -2  -1  13   17.65    1.03
  -2  -1  13   15.76    0.66
  -2  -1  13   17.17    1.07
   2  -1 -13   15.74    1.23
  -2  -1  13   16.84    1.01
   3   1 -12    9.47    0.97
  -3   1  12   10.71    0.68
   3   1 -12    9.73    0.81
  -3   1  12   10.01    0.55
  -3   1  12   11.06    0.83
  -3   1  12   10.15    0.82
   3  -1 -12    9.39    0.66
   3  -1 -12    8.63    1.04
  -3  -1  12    9.23    0.45
  -3  -1  12    9.20    0.73
  -3  -1  12    9.48    0.71
  -3  -1  12    9.54    0.83
  -4   1  11   32.04    1.33
  -4   1  11   29.55    1.02
  -4   1  11   30.01    1.27
   4   1 -11   29.17    1.21
   4   1 -11   29.33    0.94
  -4  -1  11   28.86    1.25
   4  -1 -11   27.40    1.06
  -4  -1  11   27.32    0.78
  -4  -1  11   27.61    1.13
   4  -1 -11   28.31    1.18
  -4  -1  11   27.94    1.29
  -5   1  10   33.92    1.40
  -5   1  10   33.85    1.46
   5   1 -10   35.15    1.32
  -5   1  10   31.92    1.50
  -5   1  10   36.49    1.22
  -5   1  10   36.18    1.45
  -5  -1  10   35.65    1.49
  -5  -1  10   36.50    1.38
  -5  -1  10   33.19    0.93
   5  -1 -10   33.97    1.21
  -5  -1  10   37.34    1.31
  -5  -1  10   33.28    0.94
   5  -1 -10   36.76    1.28
   6   1  -9  110.94    3.02
  -6   1   9  102.95    3.24
  -6   1   9  101.00    3.09
  -6   1   9  105.21    2.92
  -6   1   9  104.68    3.12
  -6   1   9  110.08    3.21
   6   1  -9  109.03    3.10
   6   1  -9  106.80    3.14
   6  -1  -9  102.54    3.11
  -6  -1   9  108.32    3.18
   6  -1  -9  105.87    3.18
  -6  -1   9  105.65    3.08
  -6  -1   9  105.06    2.61
   6  -1  -9  108.41    2.89
   6  -1  -9  105.73    2.89
   7   1  -8   68.21    2.14
  -7   1   8   68.31    2.32
   7   1  -8   66.97    2.23
   7   1  -8   66.81    2.25
  -7   1   8   69.16    2.34
  -7   1   8   66.53    1.96
  -7  -1   8   68.93    2.31
  -7  -1   8   70.42    1.79
   7  -1  -8   64.74    2.28
   7  -1  -8   70.48    2.02
   7  -1  -8   67.01    2.28
   8   1  -7   51.40    1.94
  -8   1   7   49.74    2.00
  -8   1   7   51.37    1.61
   8   1  -7   52.41    1.84
   8   1  -7   53.44    1.96
   8  -1  -7   53.65    1.98
   8  -1  -7   51.88    1.97
  -8  -1   7   55.16    1.48
   8  -1  -7   53.86    1.69
   9   1  -6   19.16    1.18
   9   1  -6   19.95    1.25
   9   1  -6   19.85    1.14
  -9  -1   6   20.27    0.77
   9  -1  -6   19.20    0.96
   9  -1  -6   21.26    1.23
   9  -1  -6   21.12    0.98
  10   1  -5    4.13    0.64
  10   1  -5    5.28    0.74
  10   1  -5    7.79    1.04
  10  -1  -5    4.91    0.76
  10  -1  -5    4.74    0.59
  10  -1  -5    6.03    0.70
  10  -1  -5    7.37    1.00
  11   1  -4    4.51    0.76
  11   1  -4    3.71    0.76
  11  -1  -4    4.62    0.87
  11  -1  -4    4.71    0.74
  12   1  -3    4.06    0.93
  12   1  -3    1.58    0.78
  12  -1  -3    4.08    0.97
  12  -1  -3    3.31    0.99
   0   2  15   18.86    0.99
   0   2  15   17.50    1.44
   0   2 -15   20.80    3.01
   0  -2 -15   17.52    2.25
   0  -2  15   13.15    1.36
   0  -2  15   17.04    1.28
  -1   2  14    7.78    1.02
  -1   2  14    7.04    0.69
   1   2 -14    7.08    0.96
  -1   2  14    9.17    0.95
  -1   2  14    7.80    0.91
   1  -2 -14    6.99    0.99
  -1  -2  14    8.61    1.00
  -2   2  13    0.87    0.46
  -2   2  13    0.87    0.50
  -2   2  13    1.56    0.38
   2   2 -13    1.52    0.48
  -2   2  13    1.27    0.42
  -2  -2  13    1.24    0.44
  -2  -2  13    0.83    0.47
   2  -2 -13    1.12    0.42
   2  -2 -13    0.82    0.60
  -3   2  12    2.61    0.37
  -3   2  12    2.99    0.50
   3   2 -12    1.30    0.39
  -3   2  12    2.00    0.46
   3   2 -12    2.27    0.55
  -3  -2  12    2.78    0.50
   3  -2 -12    1.65    0.66
   3  -2 -12    2.07    0.43
  -3  -2  12    2.19    0.46
  -3  -2  12    1.80    0.38
  -4   2  11   10.85    0.84
   4   2 -11   10.21    0.76
  -4   2  11    9.31    0.82
  -4   2  11   11.66    0.69
  -4   2  11   10.33    1.00
   4  -2 -11    9.62    0.80
   4  -2 -11   11.45    0.77
  -4  -2  11    9.14    0.70
  -4  -2  11    9.93    0.74
  -4  -2  11    9.83    0.70
  -5   2  10   14.67    0.98
   5   2 -10   15.50    0.90
  -5   2  10   15.41    0.96
  -5   2  10   13.88    0.84
  -5   2  10   14.91    1.02
  -5   2  10   15.38    0.86
   5  -2 -10   16.47    0.80
  -5  -2  10   15.85    0.87
  -5  -2  10   16.16    0.88
   5  -2 -10   18.00    0.90
  -5  -2  10   16.10    0.83
   6   2  -9   84.19    2.65
  -6   2   9   83.53    2.48
  -6   2   9   90.93    2.79
   6   2  -9   85.41    2.60
  -6   2   9   89.09    2.81
  -6   2   9   86.25    2.68
  -6   2   9   85.17    2.57
  -6  -2   9   85.64    2.60
   6  -2  -9   89.75    2.56
  -6  -2   9   85.63    2.60
   6  -2  -9   85.76    2.73
   6  -2  -9   90.47    2.41
   6  -2  -9   84.93    2.72
  -6  -2   9   90.18    2.51
  -7   2   8   48.15    1.85
   7   2  -8   46.91    1.69
   7   2  -8   46.44    1.70
  -7   2   8   46.28    1.84
   7   2  -8   46.50    1.73
   7  -2  -8   45.51    1.42
   7  -2  -8   47.06    1.81
   7  -2  -8   46.36    1.81
   7  -2  -8   48.14    1.60
  -7  -2   8   43.67    1.68
  -7  -2   8   46.18    1.53
  -8   2   7    8.14    0.97
   8   2  -7   10.15    1.17
   8   2  -7   10.93    0.88
   8   2  -7    9.35    0.84
   8  -2  -7   10.61    0.59
  -8  -2   7    9.73    0.65
   8  -2  -7   10.32    0.90
  -8  -2   7    9.91    0.45
   8  -2  -7    9.46    0.96
  -9   2   6    2.24    0.67
   9   2  -6    2.10    0.53
   9   2  -6    2.02    0.50
   9   2  -6    2.02    0.50
   9  -2  -6    1.53    0.37
   9  -2  -6    1.20    0.49
   9  -2  -6    2.77    0.66
  -9  -2   6    2.06    0.26
   9  -2  -6    2.73    0.37
  10   2  -5    3.37    0.61
  10   2  -5    2.83    0.62
  10   2  -5    3.23    0.64
  10  -2  -5    4.48    0.65
  10  -2  -5    3.00    0.44
  10  -2  -5    3.76    0.68
  10  -2  -5    3.05    0.62
  11   2  -4    6.61    0.94
  11   2  -4    5.47    0.82
  11  -2  -4    7.37    1.02
  11  -2  -4    6.84    1.01
  11  -2  -4    6.68    0.86
  12   2  -3    4.69    0.98
  12   2  -3    4.70    1.07
  12  -2  -3    4.17    0.96
  -1   3  14    2.82    0.65
  -1   3  14    1.65    0.54
  -1   3  14    1.04    0.47
   1   3 -14    1.04    0.76
  -1   3  14    2.90    0.58
  -1  -3  14    2.60    0.75
   1  -3 -14    1.33    0.83
  -2   3  13    3.34    0.60
  -2   3  13    3.09    0.46
   2   3 -13    2.30    0.54
  -2   3  13    2.20    0.54
  -2   3  13    3.59    0.51
  -2  -3  13    3.57    0.65
   2  -3 -13    2.90    0.73
  -2  -3  13    2.41    0.50
   2  -3 -13    1.91    0.69
  -3   3  12    0.72    0.64
  -3   3  12    0.25    0.35
  -3   3  12   -0.28    0.36
   3   3 -12   -0.29    0.35
  -3  -3  12    0.83    0.41
   3  -3 -12    0.77    0.59
   3  -3 -12    0.31    0.42
  -3  -3  12   -0.12    0.35
  -4   3  11   11.35    0.84
  -4   3  11   10.71    0.93
   4   3 -11   11.08    0.82
  -4   3  11   11.95    0.85
  -4   3  11   12.06    1.04
  -4  -3  11   11.80    0.72
   4  -3 -11   10.86    0.89
   4  -3 -11   11.39    0.90
  -4  -3  11   10.77    0.67
  -4  -3  11   12.45    0.83
  -5   3  10    8.93    0.80
  -5   3  10    9.21    0.80
  -5   3  10    8.95    0.65
   5   3 -10    9.47    0.76
  -5   3  10    9.42    0.90
  -5   3  10    8.28    0.87
   5  -3 -10    9.88    0.83
   5  -3 -10    9.19    0.68
  -5  -3  10    9.62    0.62
  -5  -3  10    8.53    0.68
  -5  -3  10    8.71    0.69
  -6   3   9   97.60    2.67
   6   3  -9   85.36    3.07
  -6   3   9   82.48    3.56
  -6   3   9  102.42    3.05
  -6   3   9  101.60    3.11
   6   3  -9   82.49    3.02
  -6   3   9  101.68    2.94
   6  -3  -9   99.98    2.61
   6  -3  -9  102.09    2.90
  -6  -3   9  100.05    2.76
  -6  -3   9   98.64    3.16
  -6  -3   9   94.20    2.75
  -7   3   8   19.29    1.16
  -7   3   8   23.07    1.27
   7   3  -8   22.12    1.07
  -7   3   8   21.09    1.27
   7   3  -8   21.13    1.08
   7   3  -8   20.80    1.16
  -7  -3   8   20.01    0.94
   7  -3  -8   19.12    1.17
   7  -3  -8   20.76    0.78
   7  -3  -8   19.68    1.16
   7  -3  -8   21.78    1.10
  -7  -3   8   20.75    1.10
   8   3  -7   76.37    2.52
   8   3  -7   75.52    2.45
   8   3  -7   72.61    2.46
  -8   3   7   77.12    2.65
   8  -3  -7   76.72    2.03
  -8  -3   7   72.97    2.00
   8  -3  -7   77.85    2.60
   8  -3  -7   76.21    2.58
  -8  -3   7   74.22    2.22
   8  -3  -7   79.21    2.43
   9   3  -6   17.56    1.21
  -9   3   6   13.63    1.28
   9   3  -6   14.76    1.09
   9   3  -6   15.83    1.03
   9  -3  -6   16.70    1.02
   9  -3  -6   16.22    0.70
  -9  -3   6   15.70    0.78
  -9  -3   6   13.68    0.68
   9  -3  -6   18.44    1.18
   9  -3  -6   16.85    1.18
  10   3  -5    7.10    0.98
  10   3  -5    6.93    0.99
  10   3  -5    7.30    1.01
  10   3  -5    8.03    0.81
  10  -3  -5    7.97    0.64
  10  -3  -5    9.90    1.14
  10  -3  -5    9.36    1.11
 -10  -3   5    7.68    0.60
  11   3  -4    1.66    0.67
  11   3  -4    2.37    0.76
  11   3  -4    2.85    0.63
  11  -3  -4    0.25    0.67
 -11  -3   4    3.57    0.53
  12   3  -3    1.12    1.46
  12   3  -3    1.95    0.69
  12   3  -3    0.84    0.96
  12  -3  -3    1.19    0.89
  -1   4  14    2.89    0.58
   1   4 -14    1.11    0.87
  -1   4  14    2.44    0.69
  -1   4  14    2.05    0.72
   1  -4 -14    1.91    0.92
  -1  -4  14    2.74    0.91
   1  -4 -14    0.89    1.68
  -2   4  13   -0.04    0.45
  -2   4  13   -0.66    0.42
   2   4 -13    0.72    0.56
  -2   4  13    0.43    0.47
  -2  -4  13   -1.13    0.56
   2  -4 -13   -0.81    0.64
   2  -4 -13    0.16    0.65
  -3   4  12    5.89    0.73
  -3   4  12    4.16    0.60
   3   4 -12    3.67    0.62
  -3   4  12    3.84    0.60
  -3  -4  12    4.34    0.69
   3  -4 -12    3.62    0.74
  -3  -4  12    4.99    0.68
   3  -4 -12    4.28    0.93
   4   4 -11    5.40    0.73
  -4   4  11    5.06    0.77
  -4   4  11    5.35    0.66
  -4   4  11    4.79    0.64
   4  -4 -11    4.51    0.63
  -4  -4  11    5.20    0.70
  -4  -4  11    5.36    0.62
   4  -4 -11    6.05    0.78
   5   4 -10   15.38    0.87
  -5   4  10   14.13    0.80
   5   4 -10   15.16    0.97
  -5   4  10   14.48    1.10
  -5   4  10   15.44    1.00
  -5   4  10   15.89    1.07
  -5   4  10   15.15    1.12
   5  -4 -10   16.17    1.10
  -5  -4  10   16.44    0.92
  -5  -4  10   15.97    0.93
   5  -4 -10   16.88    0.93
   6   4  -9   16.99    1.12
  -6   4   9   19.18    1.19
   6   4  -9   16.90    1.07
  -6   4   9   13.98    1.22
  -6   4   9   17.25    1.06
  -6   4   9   18.37    1.14
   6  -4  -9   16.42    1.16
  -6  -4   9   17.74    1.00
  -6  -4   9   17.54    0.93
  -6  -4   9   17.11    0.86
   6  -4  -9   17.93    0.85
   7   4  -8   10.05    0.80
  -7   4   8   10.41    0.93
   7   4  -8   10.08    0.95
  -7   4   8   10.62    0.97
  -7   4   8    8.03    0.99
   7  -4  -8   10.51    0.93
  -7  -4   8   10.83    0.72
   7  -4  -8   10.92    0.99
   7  -4  -8    9.52    0.94
   7  -4  -8   10.50    0.63
  -7  -4   8   11.87    0.95
   8   4  -7    9.56    0.83
   8   4  -7    9.85    1.00
  -8   4   7   10.75    1.04
   8   4  -7    9.73    0.87
  -8   4   7   11.91    1.58
   8  -4  -7   10.25    1.01
   8  -4  -7   10.27    1.01
  -8  -4   7   10.40    0.70
   8  -4  -7    9.16    0.56
   8  -4  -7   12.34    0.95
   9   4  -6    1.84    0.61
   9   4  -6    2.31    0.59
   9   4  -6    2.39    0.41
   9   4  -6    1.83    0.53
   9  -4  -6    2.10    0.55
   9  -4  -6    2.03    0.59
   9  -4  -6    1.62    0.63
   9  -4  -6    1.86    0.56
  -9  -4   6    2.80    0.44
  10   4  -5   12.82    1.14
  10   4  -5   11.65    1.17
  10   4  -5    9.55    1.22
  10   4  -5   11.23    0.88
  10  -4  -5    8.57    1.04
  10  -4  -5   10.83    1.08
 -10  -4   5    9.60    0.68
  11   4  -4    1.52    0.80
  11   4  -4    1.37    0.81
  11   4  -4    1.49    0.60
  11  -4  -4    0.12    0.78
  11  -4  -4    1.63    0.75
  -2   5  13    0.90    0.60
  -2   5  13    2.23    0.60
   2   5 -13    2.24    0.68
  -2   5  13    2.48    0.67
  -2  -5  13    2.28    0.80
   2  -5 -13    2.62    0.83
   2  -5 -13    2.64    0.84
   2  -5 -13    2.97    1.43
   3   5 -12    2.85    0.65
  -3   5  12    3.37    0.60
  -3   5  12    4.33    0.66
  -3   5  12    3.86    0.65
   3  -5 -12    2.94    1.11
  -3  -5  12    4.29    0.76
   3  -5 -12    5.38    1.21
   4   5 -11    2.17    0.50
  -4   5  11    1.34    0.49
  -4   5  11    1.11    0.50
  -4   5  11    2.16    0.55
   4  -5 -11    3.78    0.76
  -4  -5  11    2.10    0.57
   4  -5 -11    2.17    0.60
   4  -5 -11    3.20    0.96
  -5   5  10    4.72    0.72
  -5   5  10    4.56    0.60
   5   5 -10    2.89    0.58
  -5   5  10    4.08    0.58
   5  -5 -10    3.92    0.73
  -5  -5  10    4.58    0.62
   5  -5 -10    5.27    0.96
   5  -5 -10    4.21    0.55
   6   5  -9   29.79    1.45
  -6   5   9   32.72    2.22
  -6   5   9   28.52    1.49
  -6   5   9   30.57    1.40
  -6   5   9   32.02    1.47
   6  -5  -9   24.17    1.94
   6  -5  -9   32.04    1.62
  -6  -5   9   28.54    1.66
  -7   5   8   17.00    1.15
   7   5  -8   17.54    0.97
  -7   5   8   16.73    1.16
   7   5  -8   13.95    1.12
  -7   5   8   17.73    1.25
  -7  -5   8   14.78    0.92
   7  -5  -8   15.52    1.32
   7  -5  -8   17.22    1.18
   7  -5  -8   16.81    1.24
   8   5  -7    9.03    0.83
   8   5  -7    8.16    1.06
  -8   5   7    9.69    0.99
  -8   5   7   10.99    1.03
   8   5  -7    7.54    0.84
   8  -5  -7    6.83    0.86
   8  -5  -7    8.46    1.06
   8  -5  -7    8.57    1.10
  -8  -5   7    7.96    0.79
   9   5  -6   16.91    1.43
   9   5  -6   18.38    1.48
   9   5  -6   20.32    1.21
   9   5  -6   19.75    0.92
   9  -5  -6   21.06    1.43
   9  -5  -6   17.33    1.39
  -9  -5   6   19.39    0.98
  10   5  -5    5.18    0.84
  10   5  -5    3.77    0.91
  10   5  -5    4.70    0.66
  10   5  -5    4.56    1.28
  10  -5  -5    4.89    0.93
  10  -5  -5    5.39    0.96
  -3   6  12    2.67    0.66
  -3   6  12    1.20    0.73
  -3   6  12    2.22    0.65
   3   6 -12    1.10    0.65
  -3  -6  12    2.07    0.88
   3  -6 -12    1.27    0.90
   3  -6 -12    1.31    1.43
  -4   6  11    0.54    0.47
  -4   6  11    0.35    0.50
   4   6 -11   -0.04    0.57
  -4   6  11   -1.29    0.65
   4  -6 -11   -0.77    0.78
   4  -6 -11    0.62    1.00
  -4  -6  11    0.07    0.63
  -5   6  10   10.66    1.16
  -5   6  10    9.08    1.02
   5   6 -10    9.25    1.06
  -5   6  10   10.21    1.00
   5  -6 -10    8.76    1.07
  -5  -6  10    7.43    0.88
   5  -6 -10    9.12    1.22
  -6   6   9   11.22    1.03
  -6   6   9   11.55    1.04
   6   6  -9    9.74    1.12
  -6   6   9   13.77    1.23
  -6  -6   9   11.01    1.03
   6  -6  -9   11.45    1.49
   6  -6  -9   11.90    1.42
  -7   6   8    6.62    0.97
   7   6  -8    6.64    0.87
  -7   6   8    7.38    1.01
  -7   6   8    5.75    0.76
  -7  -6   8    6.13    0.70
   7  -6  -8    6.04    0.89
   7  -6  -8    5.10    0.98
   8   6  -7    0.25    0.76
  -8   6   7    0.59    0.62
  -8   6   7    1.17    0.70
   8   6  -7    0.80    0.47
   8  -6  -7    0.69    0.75
  -8  -6   7    1.78    0.58
   8  -6  -7    0.13    0.78
   9   6  -6   10.59    0.97
   9   6  -6   11.65    1.15
   9   6  -6    7.67    1.05
  -9   6   6   10.67    1.40
  -9   6   6    9.18    1.13
  -9  -6   6   13.29    1.24
   9  -6  -6   10.97    1.52
  -5   7  10    4.12    0.86
  -5   7  10    3.10    1.11
   5   7 -10    3.70    0.76
   5  -7 -10    5.18    1.21
  -5  -7  10    2.44    0.86
   5  -7 -10    4.68    1.17
   6   7  -9   11.86    1.36
  -6   7   9   10.15    1.11
  -6   7   9   14.19    1.69
  -6   7   9   10.63    1.24
   6  -7  -9   12.34    1.79
   6  -7  -9   10.29    1.39
  -6  -7   9    8.76    1.17
  -7   7   8    3.23    0.81
  -7   7   8    2.85    0.71
  -7   7   8    3.82    1.20
   7   7  -8    2.54    0.89
   7  -7  -8    3.09    1.18
  -7  -7   8    3.68    0.74
  -1   0  15   -0.07    0.52
  -1   0  15    0.60    0.58
   1   0 -15   -0.27    0.93
  -2   0  14    1.10    0.46
  -2   0  14    1.68    0.30
  -2   0  14    1.82    0.53
  -2   0  14    1.50    0.51
   2   0 -14    1.08    0.64
  -3   0  13    9.63    0.49
   3   0 -13   11.34    0.93
  -3   0  13   11.59    0.90
  -3   0  13   10.67    0.77
   3   0 -13    9.03    1.19
  -4   0  12   36.18    1.07
  -4   0  12   36.38    1.48
   4   0 -12   34.64    1.17
  -4   0  12   36.84    1.46
  -4   0  12   36.32    1.33
   4   0 -12   36.02    1.45
  -5   0  11   21.86    1.08
  -5   0  11   21.94    0.79
  -5   0  11   21.48    1.15
   5   0 -11   21.69    0.87
   5   0 -11   23.06    1.04
  -5   0  11   19.00    1.35
   6   0 -10    3.88    0.55
  -6   0  10    3.13    0.43
  -6   0  10    5.59    0.69
  -6   0  10    3.67    0.55
  -7   0   9   24.56    1.20
  -7   0   9   23.86    0.85
   7   0  -9   26.01    1.11
   7   0  -9   26.00    1.26
   7   0  -9   25.35    1.26
  -7   0   9   25.69    1.26
   8   0  -8    1.36    0.43
   8   0  -8    0.68    0.49
  -8   0   8    1.43    0.23
   8   0  -8    0.93    0.36
   9   0  -7   38.84    1.68
   9   0  -7   39.25    1.50
   9   0  -7   41.51    1.78
  -9   0   7   34.99    1.24
  10   0  -6    6.80    0.95
  10   0  -6    8.82    0.88
  10   0  -6    6.96    1.01
  11   0  -5    2.63    0.74
  11   0  -5    2.03    0.67
  11   0  -5    3.11    0.55
  12   0  -4    5.05    0.98
  12   0  -4    3.04    0.85
   1   1 -15    0.82    0.95
  -1   1  15    0.21    0.40
  -1   1  15    0.25    0.56
  -1   1  15    0.76    0.57
  -1   1  15    0.66    0.68
   1  -1 -15    1.91    0.93
  -1  -1  15    0.55    0.57
  -1  -1  15    0.95    0.62
  -2   1  14    8.54    0.60
  -2   1  14    6.85    0.99
  -2   1  14    8.16    1.12
  -2   1  14    8.38    0.89
   2   1 -14    6.15    0.87
  -2  -1  14    8.63    0.88
   2  -1 -14    8.36    1.16
  -2  -1  14    7.79    0.90
  -3   1  13    6.70    0.51
  -3   1  13    8.62    0.86
  -3   1  13    7.42    0.68
   3   1 -13    7.55    0.83
  -3   1  13    6.98    0.72
   3  -1 -13    6.49    0.78
  -3  -1  13    6.87    0.81
  -3  -1  13    6.93    0.75
  -3  -1  13    7.64    1.09
   3  -1 -13    7.36    0.63
  -3  -1  13    6.11    0.41
   4   1 -12   12.55    0.84
  -4   1  12   12.17    0.64
  -4   1  12   11.05    0.93
  -4   1  12   14.19    1.07
  -4   1  12   14.11    0.81
   4  -1 -12   13.12    0.76
  -4  -1  12   12.83    0.84
   4  -1 -12   13.22    1.12
  -4  -1  12   12.44    0.44
  -4  -1  12   12.82    0.77
  -4  -1  12   13.08    0.95
  -5   1  11   24.13    0.93
  -5   1  11   24.08    1.21
  -5   1  11   22.96    1.19
   5   1 -11   23.44    1.10
   5  -1 -11   22.30    1.04
   5  -1 -11   24.07    1.00
  -5  -1  11   22.97    0.65
  -5  -1  11   22.73    0.71
  -5  -1  11   22.11    1.20
  -5  -1  11   23.42    1.18
  -5  -1  11   24.56    1.13
  -6   1  10    2.42    0.37
  -6   1  10    2.01    0.45
  -6   1  10    3.07    0.85
  -6   1  10    2.51    0.50
   6   1 -10    2.79    0.42
  -6  -1  10    2.11    0.47
  -6  -1  10    2.53    0.22
  -6  -1  10    2.71    0.50
   6  -1 -10    3.09    0.41
  -6  -1  10    2.84    0.44
   6  -1 -10    2.35    0.39
  -6  -1  10    2.00    0.29
   7   1  -9   62.03    2.16
  -7   1   9   60.35    2.17
  -7   1   9   60.29    1.81
  -7   1   9   58.74    2.25
  -7   1   9   63.11    2.14
   7   1  -9   61.64    2.11
   7   1  -9   62.38    2.02
   7  -1  -9   61.85    2.19
   7  -1  -9   63.61    1.89
   7  -1  -9   62.19    2.18
  -7  -1   9   63.02    2.18
  -7  -1   9   62.33    1.62
   8   1  -8   18.26    1.11
  -8   1   8   16.15    0.78
   8   1  -8   15.37    1.68
   8   1  -8   19.24    1.05
  -8  -1   8   18.88    0.65
   8  -1  -8   18.02    1.11
   8  -1  -8   18.45    0.96
   8  -1  -8   18.69    1.15
   9   1  -7   14.41    1.23
   9   1  -7   12.34    0.98
   9   1  -7   14.45    1.04
  -9  -1   7   12.21    0.57
   9  -1  -7   13.00    1.06
   9  -1  -7   14.32    0.81
   9  -1  -7   11.37    0.85
   9  -1  -7   13.18    1.07
  10   1  -6    1.52    0.59
  10   1  -6    2.10    0.56
  10   1  -6    0.21    0.54
  10  -1  -6    1.59    0.52
  10  -1  -6    1.83    0.58
  10  -1  -6    1.55    0.43
  10  -1  -6    0.97    0.55
  11   1  -5    1.58    0.68
  11   1  -5    0.89    0.61
  11   1  -5    1.93    0.59
  11  -1  -5    1.98    0.54
  11  -1  -5    2.36    0.68
  12   1  -4    0.04    0.79
  12   1  -4    0.33    0.76
  12  -1  -4    1.33    0.79
  12  -1  -4    1.20    0.81
  12  -1  -4    0.95    0.65
  -1   2  15    5.68    0.73
  -1   2  15    3.86    0.52
  -1   2  15    3.60    0.71
  -1   2  15    3.12    0.70
   1   2 -15    3.83    1.08
   1  -2 -15    7.05    1.16
  -1  -2  15    4.07    0.86
  -1  -2  15    3.19    0.75
  -2   2  14    3.54    0.48
  -2   2  14    4.22    0.60
  -2   2  14    4.39    0.70
  -2   2  14    3.77    0.62
   2   2 -14    3.81    0.75
  -2  -2  14    3.37    0.65
  -2  -2  14    3.07    0.62
   2  -2 -14    3.91    0.77
  -3   2  13    4.05    0.56
   3   2 -13    3.77    0.59
  -3   2  13    3.00    0.58
  -3   2  13    3.40    0.50
  -3   2  13    3.57    0.45
  -3  -2  13    3.71    0.58
   3  -2 -13    4.19    0.62
   3  -2 -13    2.68    0.63
  -3  -2  13    3.55    0.54
  -4   2  12    1.09    0.34
   4   2 -12    0.24    0.33
  -4   2  12    1.29    0.48
  -4   2  12    0.50    0.42
   4   2 -12    0.78    0.17
   4   2 -12    0.75    0.18
  -4  -2  12    1.44    0.37
   4  -2 -12    0.77    0.40
  -4  -2  12    1.40    0.40
  -4  -2  12    0.62    0.37
   4  -2 -12    1.22    0.45
  -5   2  11    1.17    0.55
   5   2 -11    1.04    0.37
  -5   2  11    2.29    0.50
  -5   2  11    1.53    0.50
  -5   2  11    1.08    0.35
  -5  -2  11    0.75    0.36
   5  -2 -11    0.94    0.38
   5  -2 -11    1.44    0.37
  -5  -2  11    1.80    0.39
  -5  -2  11    0.42    0.36
  -6   2  10   33.30    1.31
  -6   2  10   32.14    1.30
  -6   2  10   32.78    1.46
  -6   2  10   35.00    1.51
  -6   2  10   29.67    1.52
  -6  -2  10   31.88    1.51
   6  -2 -10   33.80    1.19
  -6  -2  10   32.38    1.35
  -6  -2  10   34.73    1.37
   6  -2 -10   33.42    1.31
   7   2  -9   83.87    2.93
  -7   2   9   86.93    2.91
  -7   2   9   91.78    2.91
  -7   2   9   87.16    2.86
   7  -2  -9   91.77    2.46
   7  -2  -9   88.20    2.83
  -7  -2   9   91.60    2.73
  -7  -2   9   86.66    2.18
  -7  -2   9   89.61    2.77
  -7  -2   9   91.47    2.59
   7  -2  -9   89.36    2.86
   7  -2  -9   91.33    2.63
   8   2  -8    9.88    0.86
   8   2  -8    9.01    0.86
  -8   2   8    9.79    1.02
  -8   2   8    9.25    0.99
   8  -2  -8   10.06    0.59
   8  -2  -8    9.35    0.90
  -8  -2   8    8.13    0.41
  -8  -2   8    9.65    0.90
   8  -2  -8    9.47    0.99
  -8  -2   8    9.97    0.67
   9   2  -7    8.47    0.89
   9   2  -7    9.10    0.90
   9   2  -7    9.01    0.91
  -9   2   7    9.32    1.07
  -9  -2   7    9.56    0.48
   9  -2  -7    8.02    0.90
   9  -2  -7    6.84    0.99
   9  -2  -7    9.00    0.63
  10   2  -6    8.17    1.02
  10   2  -6    8.19    0.96
  10   2  -6    8.15    1.02
  10  -2  -6    9.28    1.09
  10  -2  -6    9.21    0.74
  10  -2  -6    8.50    1.11
  11   2  -5    4.46    0.72
  11   2  -5    3.28    0.73
  11   2  -5    4.96    0.82
  11  -2  -5    3.63    0.78
  11  -2  -5    3.97    0.88
  11  -2  -5    4.00    0.62
  12   2  -4    3.45    0.92
  12   2  -4    4.32    1.02
  12  -2  -4    3.05    1.28
  12  -2  -4    2.88    0.94
  -2   3  14    1.67    0.59
  -2   3  14    1.02    0.41
  -2   3  14    1.75    0.52
  -2   3  14    1.29    0.56
   2   3 -14    1.50    0.70
   2  -3 -14    2.21    0.72
  -2  -3  14    2.10    0.71
  -2  -3  14    1.40    0.64
  -3   3  13   -0.04    0.35
   3   3 -13    0.03    0.42
  -3   3  13    0.53    0.44
  -3   3  13    0.17    0.46
  -3  -3  13    0.29    0.50
  -3  -3  13    0.68    0.44
   3  -3 -13   -0.02    0.48
   3  -3 -13    0.34    0.59
  -4   3  12   20.75    1.09
  -4   3  12   18.64    1.41
  -4   3  12   19.59    1.04
   4   3 -12   19.19    1.10
   4  -3 -12   20.49    1.17
  -4  -3  12   20.37    1.09
   4  -3 -12   20.18    1.23
  -4  -3  12   21.28    1.01
  -5   3  11   16.21    0.99
  -5   3  11   18.89    1.40
  -5   3  11   15.82    1.11
   5   3 -11   15.55    0.73
   5   3 -11   15.25    0.97
  -5   3  11   16.36    1.02
  -5  -3  11   15.93    0.92
   5  -3 -11   15.62    1.06
  -5  -3  11   14.73    0.88
  -5  -3  11   15.94    0.89
   5  -3 -11   15.15    0.90
   6   3 -10    5.76    0.64
  -6   3  10    6.58    0.74
  -6   3  10    5.42    0.68
  -6   3  10    4.99    0.67
  -6   3  10    6.21    0.79
  -6   3  10    4.54    0.62
   6  -3 -10    6.81    0.91
  -6  -3  10    5.89    0.60
  -6  -3  10    6.01    0.69
  -6  -3  10    7.05    0.59
   6  -3 -10    6.26    0.58
  -7   3   9   26.15    1.39
   7   3  -9   24.05    1.18
  -7   3   9   25.40    1.30
  -7   3   9   23.30    1.36
   7   3  -9   23.86    1.24
  -7  -3   9   25.11    1.17
   7  -3  -9   25.51    1.37
  -7  -3   9   24.15    1.19
   7  -3  -9   25.42    1.39
   7  -3  -9   25.29    0.92
   7  -3  -9   27.05    1.33
  -8   3   8    7.99    0.97
  -8   3   8    7.67    0.88
   8   3  -8    6.98    0.82
   8   3  -8    7.27    0.88
   8   3  -8    7.13    0.79
  -8  -3   8    7.41    0.70
   8  -3  -8    7.02    0.49
  -8  -3   8    7.21    0.41
   8  -3  -8    7.24    0.86
   8  -3  -8    8.22    0.82
   8  -3  -8    5.60    0.76
  -8  -3   8    6.97    0.71
   9   3  -7   12.99    1.07
   9   3  -7   12.88    1.01
  -9   3   7   15.35    1.24
   9   3  -7   11.54    0.98
   9  -3  -7   12.86    1.08
   9  -3  -7   10.96    0.61
   9  -3  -7   11.00    0.92
   9  -3  -7   11.26    1.29
  -9  -3   7   10.70    0.73
  10   3  -6    4.42    0.69
  10   3  -6    6.55    0.80
  10   3  -6    4.98    0.70
  10  -3  -6    6.37    0.85
  10  -3  -6    6.12    0.59
 -10  -3   6    6.55    0.61
  10  -3  -6    5.36    0.80
  10  -3  -6    6.91    0.86
  11   3  -5    1.03    0.77
  11   3  -5    0.80    0.73
  11   3  -5    1.81    0.72
  11  -3  -5    1.87    0.89
  11  -3  -5    0.34    0.64
 -11  -3   5    1.75    0.43
  12   3  -4    0.25    0.67
  12   3  -4    0.06    0.91
  12   3  -4    0.41    1.12
  12  -3  -4   -1.26    0.91
  -2   4  14   -0.29    0.50
  -2   4  14    0.71    0.61
   2   4 -14   -0.56    0.69
  -2   4  14   -0.28    0.60
  -2   4  14    0.21    0.50
   2  -4 -14   -0.80    1.34
  -2  -4  14   -0.31    0.73
   2  -4 -14   -0.19    0.82
  -3   4  13    0.53    0.47
  -3   4  13    1.53    0.52
   3   4 -13    0.70    0.52
  -3   4  13    0.32    0.49
   3  -4 -13    1.24    0.68
   3  -4 -13    1.36    0.75
  -3  -4  13    0.52    0.60
  -4   4  12    1.10    0.46
  -4   4  12    1.20    0.48
  -4   4  12    0.75    0.46
   4   4 -12    0.66    0.43
   4  -4 -12    1.44    0.58
  -4  -4  12    0.72    0.50
  -4  -4  12    1.59    0.53
  -5   4  11    6.43    0.95
  -5   4  11    7.18    0.83
  -5   4  11    7.24    0.87
   5   4 -11    6.51    0.78
  -5   4  11    6.87    0.88
   5  -4 -11    7.60    0.98
   5  -4 -11    5.56    0.79
  -5  -4  11    6.37    0.68
  -5  -4  11    5.93    0.74
  -6   4  10   16.75    1.06
   6   4 -10   16.26    1.05
   6   4 -10   13.31    0.90
  -6   4  10   15.17    1.11
  -6   4  10   15.79    1.07
   6  -4 -10   13.39    1.14
  -6  -4  10   14.69    0.90
   6  -4 -10   15.35    0.88
  -6  -4  10   15.79    0.93
  -7   4   9   22.21    1.32
  -7   4   9   23.22    1.25
   7   4  -9   22.33    1.10
   7   4  -9   21.27    1.22
  -7   4   9   20.59    1.30
   7  -4  -9   19.92    1.39
  -7  -4   9   21.22    1.04
   7  -4  -9   22.75    1.29
  -7  -4   9   21.29    1.13
   7  -4  -9   21.02    0.89
   7  -4  -9   21.95    1.27
  -8   4   8    5.24    0.82
   8   4  -8    3.50    0.62
   8   4  -8    4.41    0.60
   8   4  -8    5.14    0.75
  -8   4   8    4.80    0.77
   8  -4  -8    3.90    0.64
   8  -4  -8    4.18    0.49
  -8  -4   8    4.57    0.60
   8  -4  -8    3.53    0.69
   8  -4  -8    4.07    0.62
   9   4  -7    1.06    0.51
   9   4  -7    0.43    0.50
   9   4  -7    0.84    0.54
   9  -4  -7    0.84    0.59
   9  -4  -7    0.23    0.75
   9  -4  -7    0.54    0.56
  10   4  -6    4.10    0.83
  10   4  -6    4.92    0.77
  10   4  -6    5.21    0.76
  10   4  -6    5.77    0.77
  10  -4  -6    5.91    0.84
 -10  -4   6    5.44    0.63
  10  -4  -6    3.62    0.78
  11   4  -5    1.33    0.76
  11   4  -5    1.04    0.81
  11   4  -5    1.77    0.63
  11   4  -5    0.11    0.82
  11  -4  -5    1.76    0.75
  11  -4  -5    1.78    0.90
   3   5 -13    0.04    0.56
  -3   5  13   -0.17    0.55
  -3   5  13   -0.39    0.60
  -3   5  13    1.35    0.60
   3  -5 -13   -0.12    1.34
  -3  -5  13    0.76    0.70
   3  -5 -13    0.24    0.80
   3  -5 -13   -0.22    0.73
  -4   5  12    8.38    0.90
  -4   5  12    6.56    0.93
   4   5 -12    6.86    0.82
  -4   5  12    6.51    0.89
   4  -5 -12    7.32    0.91
   4  -5 -12    7.41    0.97
   4  -5 -12    8.51    1.36
  -4  -5  12    6.93    0.89
  -5   5  11    7.60    0.91
   5   5 -11    6.26    0.77
  -5   5  11    7.55    1.01
  -5   5  11    5.81    0.80
   5  -5 -11    7.10    0.96
  -5  -5  11    6.81    0.91
   5  -5 -11    4.69    0.83
   5  -5 -11    8.36    1.22
  -6   5  10    5.05    0.73
  -6   5  10    4.25    0.63
   6   5 -10    4.54    0.64
  -6   5  10    4.63    0.77
   6  -5 -10    5.50    0.86
  -6  -5  10    5.26    0.64
   6  -5 -10    6.31    1.02
  -7   5   9   11.95    1.06
  -7   5   9    9.82    1.04
  -7   5   9   13.21    1.14
   7   5  -9   11.46    1.08
   7  -5  -9    8.30    1.09
   7  -5  -9   10.70    1.15
  -7  -5   9   10.61    0.85
  -8   5   8    1.53    0.55
   8   5  -8    2.04    0.68
  -8   5   8    1.88    0.64
   8   5  -8    2.14    0.53
   8  -5  -8    2.31    0.72
   8  -5  -8    1.71    0.75
   8  -5  -8    2.69    0.69
  -8  -5   8    1.91    0.48
   9   5  -7    2.01    0.58
   9   5  -7    0.54    0.66
   9   5  -7    1.12    0.55
  -9   5   7    1.30    0.72
  -9   5   7    2.41    0.67
  -9  -5   7    1.61    0.49
   9  -5  -7    1.21    0.70
   9  -5  -7    0.78    0.72
  10   5  -6    0.12    0.74
  10   5  -6   -0.61    0.62
  10   5  -6    0.90    0.69
  10  -5  -6    1.12    0.83
  10  -5  -6    0.41    0.79
  -4   6  12    0.61    0.61
  -4   6  12   -0.18    0.72
   4   6 -12    0.41    0.64
  -4   6  12    1.42    0.63
   4  -6 -12    1.02    0.93
  -4  -6  12    1.97    0.87
   4  -6 -12    1.44    1.32
  -5   6  11    1.59    0.60
  -5   6  11    0.13    0.73
   5   6 -11   -0.02    0.59
  -5   6  11   -0.25    0.54
   5  -6 -11   -0.11    0.81
   5  -6 -11    0.70    1.05
  -5  -6  11    0.82    0.69
  -6   6  10    0.28    0.74
  -6   6  10    0.03    0.55
   6   6 -10    0.77    0.63
  -6   6  10    0.84    0.54
   6  -6 -10   -1.27    0.94
  -6  -6  10    1.17    0.61
   6  -6 -10   -0.39    0.82
   7   6  -9    7.97    0.99
  -7   6   9    9.50    1.37
  -7   6   9    8.76    1.06
  -7   6   9    7.67    1.07
  -7  -6   9    8.77    0.97
   7  -6  -9   10.78    1.56
   7  -6  -9    6.65    1.15
  -8   6   8    5.35    1.01
   8   6  -8    4.72    0.66
   8   6  -8    4.06    0.84
  -8   6   8    3.44    0.76
  -8   6   8    3.69    0.80
   8  -6  -8    3.02    0.90
   8  -6  -8    3.59    0.87
  -8  -6   8    5.66    0.70
  -9   6   7    2.45    0.87
   9   6  -7    2.43    0.61
  -9   6   7    4.47    0.94
   9   6  -7    1.54    0.96
   9   6  -7    1.82    0.63
  -9  -6   7    2.67    0.70
   9  -6  -7    2.47    1.04
  -2   0  15    1.20    0.56
  -2   0  15    0.49    0.49
   2   0 -15   -1.04    0.77
  -3   0  14   15.47    0.65
   3   0 -14   14.73    1.14
  -3   0  14   14.54    1.01
  -3   0  14   14.98    0.96
  -3   0  14   14.01    1.07
   4   0 -13   35.34    1.19
  -4   0  13   36.18    1.09
  -4   0  13   37.10    1.51
   4   0 -13   37.38    1.52
  -4   0  13   36.70    1.56
  -5   0  12    6.88    0.78
   5   0 -12    6.43    0.58
   5   0 -12    6.72    0.67
  -5   0  12    6.95    0.61
  -5   0  12    6.03    0.42
  -5   0  12    6.67    0.80
   6   0 -11    2.79    0.38
   6   0 -11    2.76    0.45
  -6   0  11    3.08    0.53
  -6   0  11    2.93    0.34
  -6   0  11    2.06    0.45
  -7   0  10    0.17    0.40
   7   0 -10    0.13    0.42
   7   0 -10    0.13    0.42
   7   0 -10    0.74    0.33
  -7   0  10    0.39    0.20
  -7   0  10   -0.32    0.36
  -7   0  10    0.36    0.26
  -8   0   9    5.27    0.41
   8   0  -9    5.03    0.75
   8   0  -9    5.76    0.65
   8   0  -9    6.49    0.86
  -8   0   9    5.66    0.78
   9   0  -8   14.43    1.11
   9   0  -8   15.25    0.96
  -9   0   8   13.27    0.65
   9   0  -8   13.83    1.06
  10   0  -7    5.30    0.92
  10   0  -7    9.03    1.00
  10   0  -7    7.26    0.83
  11   0  -6    3.15    0.84
  11   0  -6    4.78    0.76
  11   0  -6    3.98    0.60
  12   0  -5    0.49    0.82
  12   0  -5    0.02    0.59
  12   0  -5   -0.83    0.72
   2   1 -15    3.84    0.90
  -2   1  15    5.40    0.68
  -2   1  15    5.47    0.66
  -2   1  15    7.67    0.92
  -2   1  15    6.57    1.05
  -2  -1  15    6.60    0.89
  -2  -1  15    6.16    0.82
   2  -1 -15    6.80    1.03
  -3   1  14    7.55    0.83
  -3   1  14    7.83    0.78
  -3   1  14    7.71    0.98
  -3   1  14    6.82    0.57
   3   1 -14    7.54    1.01
  -3  -1  14    7.16    0.83
   3  -1 -14    6.97    0.85
  -3  -1  14    7.34    0.83
  -4   1  13    2.92    0.57
  -4   1  13    2.06    0.43
   4   1 -13    1.14    0.43
  -4   1  13    1.49    0.45
  -4   1  13    2.05    0.32
  -4  -1  13    2.76    0.54
  -4  -1  13    1.53    0.49
   4  -1 -13    0.94    0.47
   4  -1 -13    1.42    0.41
  -4  -1  13    1.75    0.44
  -5   1  12    2.72    0.78
   5   1 -12    3.61    0.52
  -5   1  12    4.62    0.48
  -5   1  12    3.79    0.54
   5   1 -12    4.28    0.48
  -5  -1  12    4.53    0.59
  -5  -1  12    5.35    0.68
  -5  -1  12    4.02    0.32
   5  -1 -12    3.84    0.50
  -5  -1  12    4.49    0.61
  -5  -1  12    4.58    0.26
   5  -1 -12    4.36    0.66
  -6   1  11   46.00    1.79
   6   1 -11   43.00    1.83
  -6   1  11   45.53    1.80
  -6   1  11   45.40    1.52
   6  -1 -11   47.78    1.61
  -6  -1  11   46.89    1.60
   6  -1 -11   50.71    1.70
  -6  -1  11   46.19    1.23
  -6  -1  11   48.93    1.75
  -6  -1  11   49.43    1.84
  -7   1  10   30.89    1.48
  -7   1  10   31.11    1.23
  -7   1  10   33.42    1.51
   7   1 -10   30.81    1.47
   7   1 -10   31.62    1.33
   7  -1 -10   30.57    1.64
  -7  -1  10   33.34    0.95
   7  -1 -10   32.97    1.26
  -7  -1  10   33.10    1.53
   7  -1 -10   33.10    1.23
  -7  -1  10   33.10    1.08
   7  -1 -10   30.63    1.47
  -7  -1  10   34.93    1.28
  -7  -1  10   33.71    1.43
   8   1  -9   10.95    1.20
   8   1  -9   11.34    0.93
   8   1  -9   12.37    0.87
  -8   1   9   13.08    1.01
  -8   1   9   11.12    0.66
   8  -1  -9   10.98    0.96
  -8  -1   9   12.76    0.99
   8  -1  -9   12.00    1.00
   8  -1  -9   13.83    0.77
  -8  -1   9   12.03    0.50
   9   1  -8    2.76    0.59
   9   1  -8    2.96    0.61
  -9  -1   8    2.91    0.35
   9  -1  -8    2.64    0.53
   9  -1  -8    3.20    0.58
   9  -1  -8    2.48    0.42
  10   1  -7    4.29    0.72
  10   1  -7    5.28    0.68
  10   1  -7    6.91    1.01
  10  -1  -7    4.41    0.73
  10  -1  -7    6.00    0.76
  10  -1  -7    4.09    0.70
  10  -1  -7    5.15    0.73
  11   1  -6    8.02    1.18
  11   1  -6   10.38    1.19
  11   1  -6    8.07    1.03
  11  -1  -6    8.48    0.96
  11  -1  -6    9.01    1.14
  11  -1  -6    9.05    1.21
  12   1  -5    1.93    0.68
  12   1  -5    1.65    0.79
  12   1  -5    2.31    0.91
  12  -1  -5    2.07    0.89
  12  -1  -5    2.02    0.63
  12  -1  -5    3.33    0.88
  -2   2  15   -0.57    0.43
  -2   2  15    0.35    0.55
  -2   2  15   -0.17    0.64
  -2   2  15    0.38    0.59
   2   2 -15    0.54    0.84
  -2  -2  15    1.16    0.70
  -2  -2  15    0.23    0.54
   2  -2 -15    1.12    0.83
  -3   2  14    7.34    0.99
  -3   2  14    6.29    0.86
  -3   2  14    7.55    0.75
  -3   2  14    7.52    0.78
   3   2 -14    7.32    0.94
   3  -2 -14    6.78    0.83
  -3  -2  14    7.38    0.88
  -3  -2  14    8.52    0.95
  -4   2  13    7.49    0.93
  -4   2  13    8.04    0.82
  -4   2  13    6.06    0.60
   4   2 -13    4.37    0.60
  -4  -2  13    6.74    0.78
   4  -2 -13    5.36    0.69
   4  -2 -13    6.37    0.78
  -4  -2  13    6.52    0.75
  -5   2  12    1.41    0.39
   5   2 -12    0.99    0.39
  -5   2  12    1.35    0.47
  -5   2  12    0.47    0.43
  -5  -2  12    1.67    0.45
  -5  -2  12    1.31    0.40
   5  -2 -12    0.96    0.43
  -5  -2  12    2.11    0.49
   5  -2 -12    1.37    0.45
   6   2 -11   11.16    0.83
  -6   2  11   13.98    0.95
  -6   2  11    9.83    0.77
  -6   2  11   10.08    0.92
   6  -2 -11   10.14    0.72
   6  -2 -11   11.52    0.88
  -6  -2  11    9.95    0.74
  -6  -2  11   11.72    0.88
  -6  -2  11   11.68    0.86
  -7   2  10    2.48    0.84
   7   2 -10    3.29    0.48
   7   2 -10    3.56    0.54
  -7   2  10    3.68    0.61
  -7   2  10    4.66    0.68
  -7   2  10    2.43    0.58
  -7  -2  10    4.82    0.68
   7  -2 -10    4.91    0.73
  -7  -2  10    3.61    0.58
   7  -2 -10    4.41    0.59
   7  -2 -10    3.21    1.08
   7  -2 -10    4.62    0.50
  -7  -2  10    4.20    0.57
  -8   2   9    5.66    0.95
  -8   2   9    3.63    0.61
   8   2  -9    3.00    0.52
  -8   2   9    2.98    0.53
   8   2  -9    4.36    0.58
   8   2  -9    3.54    0.58
   8  -2  -9    3.59    0.51
  -8  -2   9    4.15    0.53
   8  -2  -9    4.20    0.66
  -8  -2   9    3.12    0.28
   8  -2  -9    5.21    0.74
   9   2  -8   16.80    1.09
   9   2  -8   15.35    1.06
   9   2  -8   16.84    1.11
   9  -2  -8   14.39    1.11
  -9  -2   8   18.10    0.69
  -9  -2   8   14.16    0.85
   9  -2  -8   15.12    1.10
   9  -2  -8   16.29    0.83
  10   2  -7    1.33    0.54
  10   2  -7    2.67    0.67
  10   2  -7    1.81    0.60
  10  -2  -7    1.97    0.40
  10  -2  -7    2.36    0.67
  10  -2  -7    1.94    0.57
  11   2  -6    2.77    0.68
  11   2  -6    0.99    0.56
  11   2  -6    0.17    0.74
  11  -2  -6    1.22    0.73
  11  -2  -6    1.08    0.75
  11  -2  -6    0.94    0.42
  12   2  -5    5.54    1.01
  12   2  -5    5.64    0.90
  12   2  -5    5.12    1.01
  12  -2  -5    7.58    1.09
  12  -2  -5    4.74    0.99
  -2   3  15    0.38    0.51
  -2   3  15   -0.54    0.63
  -2   3  15    1.29    0.74
   2   3 -15    0.76    1.03
  -2   3  15    0.56    0.61
  -2  -3  15    0.51    0.81
   2  -3 -15    0.44    0.93
  -3   3  14    0.37    0.47
  -3   3  14   -0.30    0.44
  -3   3  14    0.59    0.49
  -3   3  14   -0.84    0.49
   3   3 -14   -0.25    0.51
   3  -3 -14   -0.10    0.67
  -3  -3  14    1.05    0.61
   3  -3 -14   -0.69    0.63
  -3  -3  14   -0.21    0.55
  -4   3  13    1.58    0.50
  -4   3  13    1.26    0.45
   4   3 -13    1.62    0.47
  -4   3  13    1.83    0.54
  -4  -3  13    1.71    0.51
   4  -3 -13    1.05    0.58
   4  -3 -13    0.62    0.53
  -4  -3  13    0.95    0.43
  -5   3  12   11.39    0.93
  -5   3  12   11.89    0.89
   5   3 -12   11.24    0.92
  -5   3  12   11.50    1.02
  -5  -3  12   11.42    0.93
   5  -3 -12   11.03    0.98
   5  -3 -12   11.39    1.06
  -5  -3  12   12.32    0.88
  -6   3  11   25.03    1.86
  -6   3  11   23.38    1.50
  -6   3  11   22.31    1.23
  -6   3  11   22.22    1.18
   6   3 -11   22.12    1.16
  -6  -3  11   21.32    1.06
   6  -3 -11   21.36    1.04
   6  -3 -11   23.41    1.29
  -6  -3  11   22.87    1.11
  -7   3  10   18.80    1.16
   7   3 -10   18.89    1.34
  -7   3  10   18.37    1.38
  -7   3  10   18.93    1.14
   7   3 -10   17.43    1.09
  -7   3  10   15.02    1.24
  -7  -3  10   18.62    0.96
   7  -3 -10   15.17    1.17
  -7  -3  10   19.83    1.04
   7  -3 -10   18.00    0.83
  -7  -3  10   17.84    1.10
   8   3  -9   16.39    1.08
   8   3  -9   16.86    1.06
  -8   3   9   17.17    1.28
  -8   3   9   17.29    1.15
   8   3  -9   15.62    1.08
  -8   3   9   14.77    1.66
   8  -3  -9   16.71    1.17
   8  -3  -9   16.66    0.74
   8  -3  -9   16.01    1.46
  -8  -3   9   14.82    0.86
   8  -3  -9   16.82    1.22
   9   3  -8   -0.65    0.49
   9   3  -8    1.66    0.54
   9   3  -8    0.81    0.43
  -9   3   8    0.19    0.55
   9  -3  -8    0.29    0.56
   9  -3  -8    0.66    0.26
   9  -3  -8    0.36    0.46
   9  -3  -8    0.27    0.61
  -9  -3   8    0.79    0.36
  10   3  -7    4.20    0.72
  10   3  -7    5.56    0.76
  10   3  -7    3.35    0.79
 -10  -3   7    3.76    0.55
  10  -3  -7    4.94    0.56
  10  -3  -7    3.88    0.62
  10  -3  -7    3.55    0.73
  10  -3  -7    4.01    0.77
  11   3  -6    5.41    0.90
  11   3  -6    5.65    0.86
  11   3  -6    4.13    0.77
 -11  -3   6    6.08    0.67
  11  -3  -6    5.18    0.88
  11  -3  -6    5.76    1.05
  12   3  -5    0.56    1.13
  12   3  -5    1.91    0.98
  12   3  -5    3.89    1.11
  12  -3  -5    0.90    0.90
  -3   4  14    6.70    1.02
  -3   4  14    5.70    0.81
  -3   4  14    5.87    0.80
   3   4 -14    6.52    0.85
   3  -4 -14    7.43    0.96
  -3  -4  14    7.06    0.96
   3  -4 -14    6.38    0.95
   4   4 -13    9.12    1.03
  -4   4  13   10.43    0.96
  -4   4  13   10.51    1.01
  -4   4  13    8.65    0.89
   4  -4 -13    9.15    1.19
  -4  -4  13   10.32    1.05
   4  -4 -13    7.33    0.88
   5   4 -12    0.66    0.48
  -5   4  12    0.94    0.53
  -5   4  12    0.85    0.48
  -5   4  12    0.60    0.48
   5  -4 -12   -0.18    0.58
  -5  -4  12    0.77    0.51
   5  -4 -12    0.50    0.52
  -6   4  11    1.82    0.55
  -6   4  11    2.25    0.61
   6   4 -11    1.52    0.51
  -6   4  11    0.56    0.55
   6  -4 -11    2.19    0.47
  -6  -4  11    1.78    0.48
   6  -4 -11    1.69    0.65
  -6  -4  11    1.29    0.48
   7   4 -10    2.38    0.53
  -7   4  10    3.30    0.64
  -7   4  10    3.16    0.60
  -7   4  10    1.47    0.60
   7  -4 -10    2.58    0.64
  -7  -4  10    2.95    0.51
  -7  -4  10    2.24    0.55
   7  -4 -10    2.13    0.40
   8   4  -9    5.77    0.78
  -8   4   9    6.17    0.78
  -8   4   9    6.10    0.81
   8   4  -9    4.09    0.64
   8  -4  -9    4.95    0.82
   8  -4  -9    5.08    0.75
  -8  -4   9    4.81    0.64
   8  -4  -9    7.42    0.96
   8  -4  -9    6.34    0.84
   9   4  -8    7.25    0.95
   9   4  -8    6.54    0.82
  -9   4   8    7.09    1.06
   9   4  -8    6.09    0.88
  -9  -4   8    4.67    0.62
   9  -4  -8    6.06    0.81
   9  -4  -8    7.54    1.07
   9  -4  -8    6.07    0.91
  10   4  -7    3.27    0.71
  10   4  -7    3.80    0.80
  10   4  -7    3.41    0.70
 -10  -4   7    4.50    0.63
  10  -4  -7    4.14    0.82
  10  -4  -7    3.70    0.76
  11   4  -6   -0.68    0.82
  11   4  -6   -0.37    0.77
  11   4  -6   -0.35    0.74
  11  -4  -6   -1.04    0.82
  11  -4  -6   -0.80    0.75
   4   5 -13    4.05    0.76
  -4   5  13    4.16    0.72
  -4   5  13    5.50    0.80
  -4   5  13    5.24    0.77
   4  -5 -13    4.08    0.87
   4  -5 -13    4.28    1.40
   4  -5 -13    4.72    0.89
  -4  -5  13    3.86    0.85
  -5   5  12    0.71    0.56
   5   5 -12    0.83    0.55
  -5   5  12    0.07    0.61
  -5   5  12    0.90    0.54
   5  -5 -12    1.07    1.00
   5  -5 -12    0.41    0.87
  -5  -5  12    0.12    0.62
   5  -5 -12   -0.09    0.72
  -6   5  11   14.28    1.73
   6   5 -11   12.26    1.14
  -6   5  11   11.92    1.14
  -6   5  11   13.41    1.19
   6  -5 -11   14.16    1.47
  -6  -5  11   14.92    1.04
  -7   5  10   22.68    1.39
   7   5 -10   20.56    1.39
  -7   5  10   23.15    1.35
  -7   5  10   21.32    1.38
   7  -5 -10   23.24    1.82
  -7  -5  10   21.40    1.25
  -8   5   9    2.77    0.72
  -8   5   9    2.09    0.57
   8   5  -9    2.86    0.77
   8   5  -9    2.36    0.51
  -8   5   9    3.21    0.78
   8  -5  -9    2.21    0.74
   8  -5  -9    4.34    0.92
   8  -5  -9    3.37    0.79
  -8  -5   9    2.71    0.56
   9   5  -8   -0.07    0.66
  -9   5   8    1.01    0.63
   9   5  -8    0.08    0.54
   9   5  -8    0.86    0.55
  -9   5   8   -0.60    0.65
   9  -5  -8    0.08    0.72
  -9  -5   8    0.56    0.49
   9  -5  -8    2.40    0.81
  10   5  -7    1.12    0.91
  10   5  -7    0.03    0.62
 -10   5   7    0.08    0.76
  10   5  -7   -0.65    0.61
  10  -5  -7    0.24    0.86
  10  -5  -7    0.05    0.79
 -10  -5   7    0.77    0.51
  -5   6  12   -0.89    0.69
  -5   6  12    1.31    0.88
   5   6 -12    1.46    0.71
  -5   6  12    1.99    0.72
  -5  -6  12    2.26    0.92
   5  -6 -12    0.67    1.28
   5  -6 -12    1.01    0.97
  -6   6  11    0.79    0.68
  -6   6  11    2.56    0.82
  -6   6  11    2.13    0.70
   6   6 -11   -0.41    0.65
  -6  -6  11    1.69    0.76
   6  -6 -11   -0.74    1.08
   6  -6 -11   -0.20    0.91
  -7   6  10    2.93    0.75
  -7   6  10    3.31    0.74
  -7   6  10    3.66    0.94
   7   6 -10    1.52    0.72
   7  -6 -10    4.53    1.03
  -7  -6  10    2.45    0.72
   7  -6 -10    0.96    1.08
   8   6  -9    3.83    0.94
  -8   6   9    4.46    0.84
  -8   6   9    4.36    1.09
  -8   6   9    4.88    0.89
  -8  -6   9    3.79    0.72
   8  -6  -9    6.10    1.09
  -9   6   8    6.71    1.12
   9   6  -8    6.24    0.86
  -9   6   8    8.08    1.15
   9   6  -8    8.20    1.34
   9  -6  -8    6.91    1.30
  -9  -6   8    7.54    0.99
  -3   0  15    1.33    0.59
  -3   0  15    2.72    0.62
   3   0 -15    0.26    0.67
  -4   0  14   -0.23    0.44
  -4   0  14    0.09    0.45
   4   0 -14   -0.19    0.49
  -4   0  14    0.48    0.44
  -5   0  13    0.00    0.21
  -5   0  13   -0.02    0.34
  -5   0  13    0.36    0.46
   5   0 -13    0.02    0.39
   5   0 -13    0.48    0.38
  -5   0  13   -0.14    0.45
  -6   0  12    3.33    0.56
  -6   0  12    2.68    0.43
  -6   0  12    3.33    0.41
   6   0 -12    1.94    0.45
  -6   0  12    3.38    0.58
   6   0 -12    3.33    0.43
  -7   0  11    1.68    0.33
  -7   0  11    0.92    0.43
  -7   0  11    1.86    0.25
   7   0 -11    1.72    0.49
  -7   0  11    2.53    0.54
   8   0 -10    1.86    0.56
   8   0 -10    1.44    0.55
  -8   0  10    1.65    0.46
   8   0 -10    1.90    0.42
  -8   0  10    2.04    0.26
  -8   0  10    2.27    0.60
  -9   0   9    7.79    0.53
   9   0  -9    7.32    0.76
   9   0  -9   10.58    0.99
  -9   0   9   10.28    1.03
  10   0  -8    9.35    1.05
  10   0  -8   10.58    1.07
  10   0  -8    8.67    1.08
  11   0  -7    4.93    0.80
  11   0  -7    3.44    0.60
  11   0  -7    3.71    0.74
  12   0  -6    0.80    0.82
  12   0  -6    1.17    0.71
  12   0  -6    1.84    0.60
  -3   1  15    5.32    0.72
  -3   1  15    3.46    0.62
  -3   1  15    3.72    0.69
   3   1 -15    4.46    0.85
  -3   1  15    5.15    0.72
   3  -1 -15    5.26    0.93
  -3  -1  15    5.14    0.71
  -3  -1  15    5.14    0.75
  -4   1  14    0.94    0.32
  -4   1  14    0.58    0.43
  -4   1  14    0.09    0.47
   4   1 -14    0.55    0.49
  -4   1  14   -0.15    0.50
   4  -1 -14    0.40    0.53
  -4  -1  14    0.06    0.46
  -4  -1  14    0.84    0.49
  -5   1  13    2.84    0.64
   5   1 -13    2.96    0.40
  -5   1  13    3.03    0.55
  -5   1  13    2.91    0.37
  -5   1  13    3.58    0.52
   5   1 -13    2.49    0.49
   5  -1 -13    3.25    0.54
  -5  -1  13    2.55    0.49
  -5  -1  13    2.00    0.56
  -5  -1  13    2.15    0.48
   5  -1 -13    2.69    0.48
  -6   1  12    0.21    0.46
   6   1 -12    0.92    0.29
  -6   1  12    1.06    0.34
   6   1 -12    0.59    0.37
  -6   1  12   -0.37    0.41
  -6  -1  12    0.00    0.36
  -6  -1  12    0.10    0.44
  -6  -1  12    0.64    0.46
   6  -1 -12    0.41    0.37
  -6  -1  12    0.66    0.13
  -7   1  11    1.93    0.52
   7   1 -11    1.73    0.43
  -7   1  11    3.25    0.58
  -7   1  11    1.78    0.45
  -7  -1  11    2.69    0.53
  -7  -1  11    2.17    0.34
  -7  -1  11    2.07    0.54
  -7  -1  11    1.87    0.42
   7  -1 -11    2.15    0.46
   7  -1 -11    2.31    0.41
   8   1 -10    6.52    0.82
   8   1 -10    6.14    0.85
  -8   1  10    8.38    0.99
  -8   1  10    7.13    0.90
   8   1 -10    7.02    0.76
  -8   1  10    9.00    0.61
   8  -1 -10    8.54    0.95
  -8  -1  10    6.83    0.92
   8  -1 -10    9.15    0.97
  -8  -1  10    7.52    0.39
  -8  -1  10    8.40    0.94
   8  -1 -10    7.82    0.67
   9   1  -9    3.07    0.64
   9   1  -9    3.94    0.59
  -9   1   9    3.64    0.64
   9   1  -9    3.90    0.69
   9  -1  -9    2.46    0.59
  -9  -1   9    3.06    0.59
   9  -1  -9    3.05    0.47
   9  -1  -9    2.29    0.67
  -9  -1   9    3.64    0.37
  10   1  -8    1.02    0.49
  10   1  -8    1.39    0.58
  10   1  -8    1.10    0.56
  10  -1  -8    0.70    0.38
  10  -1  -8    0.27    0.53
  10  -1  -8    0.93    0.57
  11   1  -7    1.52    0.68
  11   1  -7    0.28    0.53
  11   1  -7    0.79    0.60
  11  -1  -7   -0.27    0.52
  11  -1  -7    2.12    0.72
  11  -1  -7    0.86    0.63
  12   1  -6    0.19    0.73
  12   1  -6    1.42    0.87
  12   1  -6    1.31    0.63
  12  -1  -6   -0.10    0.58
  12  -1  -6    2.37    0.88
  12  -1  -6    2.53    0.82
  -3   2  15   -0.07    0.57
   3   2 -15    0.14    0.71
  -3   2  15    0.27    0.41
  -3   2  15    0.42    0.51
  -3   2  15    0.35    0.59
  -3  -2  15   -0.03    0.63
   3  -2 -15    0.02    0.73
  -3  -2  15   -0.13    0.57
   4   2 -14    0.87    0.46
  -4   2  14    1.51    0.57
  -4   2  14    0.59    0.44
  -4   2  14    1.56    0.42
  -4   2  14    0.12    0.47
   4  -2 -14    0.45    0.50
  -4  -2  14    1.86    0.52
  -4  -2  14    1.97    0.60
   4  -2 -14    1.12    0.59
  -5   2  13    6.49    0.69
  -5   2  13    8.27    0.98
  -5   2  13    6.70    0.88
   5   2 -13    7.34    0.83
  -5  -2  13    6.63    0.84
   5  -2 -13    6.23    0.68
  -5  -2  13    7.76    0.75
   5  -2 -13    6.86    0.88
  -6   2  12    3.70    0.51
   6   2 -12    2.60    0.48
  -6   2  12    3.61    0.67
  -6   2  12    3.23    0.53
  -6  -2  12    2.98    0.51
   6  -2 -12    3.28    0.57
  -6  -2  12    3.48    0.52
   6  -2 -12    2.62    0.48
  -7   2  11    6.57    0.74
  -7   2  11    7.80    0.93
  -7   2  11    6.27    0.76
   7   2 -11    7.46    0.73
   7  -2 -11    6.28    0.62
   7  -2 -11    6.89    0.82
  -7  -2  11    5.92    0.66
  -7  -2  11    6.07    0.78
  -8   2  10    1.93    0.54
  -8   2  10    3.81    0.65
   8   2 -10    3.14    0.49
   8   2 -10    3.45    0.61
   8   2 -10    3.32    0.58
  -8  -2  10    3.39    0.61
  -8  -2  10    4.66    0.77
  -8  -2  10    4.77    0.59
   8  -2 -10    4.61    0.60
   8  -2 -10    3.57    0.70
   8  -2 -10    3.05    0.63
  -8  -2  10    3.26    0.37
   8  -2 -10    3.05    0.38
   9   2  -9    1.31    0.51
  -9   2   9    3.26    0.67
   9   2  -9    3.18    0.57
   9   2  -9    2.19    0.58
  -9  -2   9    3.09    0.71
  -9  -2   9    2.78    0.45
   9  -2  -9    1.48    0.44
   9  -2  -9    2.23    0.60
   9  -2  -9    2.22    0.62
  10   2  -8    1.24    0.57
  10   2  -8    1.43    0.56
  10   2  -8    0.01    0.47
  10  -2  -8    1.01    0.56
  10  -2  -8    1.38    0.36
 -10  -2   8    0.87    0.38
  10  -2  -8    0.27    0.60
  11   2  -7    0.80    0.61
  11   2  -7    0.61    0.68
  11   2  -7    1.70    0.63
  11  -2  -7    0.89    0.43
  11  -2  -7    0.69    0.66
  11  -2  -7    1.53    0.68
  12   2  -6    0.99    0.75
  12   2  -6    2.44    0.95
  12   2  -6    1.32    0.80
  12  -2  -6    2.00    0.91
  12  -2  -6    2.89    0.97
  -3   3  15   -0.70    0.45
  -3   3  15    0.13    0.58
   3   3 -15   -1.00    0.80
  -3   3  15   -0.12    0.68
  -3   3  15   -0.29    0.53
  -3  -3  15   -0.24    0.75
   3  -3 -15   -0.02    0.82
  -4   3  14   -0.67    0.49
   4   3 -14   -0.38    0.50
  -4   3  14   -0.18    0.43
  -4   3  14    0.30    0.53
   4  -3 -14    0.36    0.61
  -4  -3  14    0.15    0.56
   4  -3 -14   -0.79    0.58
  -4  -3  14    0.19    0.74
  -5   3  13    3.67    0.63
  -5   3  13    2.83    0.60
  -5   3  13    2.61    0.57
   5   3 -13    1.85    0.53
   5  -3 -13    2.18    0.61
  -5  -3  13    3.89    0.55
   5  -3 -13    4.93    0.75
  -5  -3  13    3.68    0.65
   6   3 -12    1.37    0.43
  -6   3  12    2.83    0.57
  -6   3  12    1.67    0.53
   6  -3 -12    1.83    0.48
  -6  -3  12    2.31    0.50
  -6  -3  12    2.38    0.50
   6  -3 -12    1.75    0.70
  -7   3  11    6.01    0.86
   7   3 -11    4.48    0.62
  -7   3  11    7.49    0.97
  -7  -3  11    4.07    0.66
   7  -3 -11    5.26    0.63
  -7  -3  11    6.26    0.68
   7  -3 -11    4.19    0.70
   8   3 -10    4.86    0.65
   8   3 -10    7.23    0.81
  -8   3  10    7.67    0.97
  -8   3  10    5.11    0.70
   8  -3 -10    5.47    0.57
   8  -3 -10    4.77    0.67
   8  -3 -10    5.29    0.67
  -8  -3  10    5.48    0.64
  -8  -3  10    5.52    0.70
   8  -3 -10    6.82    0.97
  -9   3   9    0.65    0.56
   9   3  -9    0.15    0.44
   9   3  -9    0.29    0.51
  -9   3   9   -0.10    0.57
   9   3  -9    0.16    0.49
   9  -3  -9    0.37    0.29
   9  -3  -9   -0.30    0.49
   9  -3  -9    0.76    0.59
   9  -3  -9    0.23    0.56
  -9  -3   9    0.73    0.41
  10   3  -8    4.35    0.70
  10   3  -8    4.27    0.78
  10   3  -8    3.26    0.66
  10  -3  -8    3.25    0.74
 -10  -3   8    3.17    0.47
  10  -3  -8    3.29    0.76
  10  -3  -8    4.33    0.70
  11   3  -7    5.05    0.81
  11   3  -7    3.12    0.84
  11   3  -7    3.75    0.78
  11  -3  -7    4.13    1.11
 -11  -3   7    4.00    0.56
  11  -3  -7    4.82    0.79
  11  -3  -7    5.19    0.88
  12   3  -6    1.00    0.98
  12   3  -6    1.57    1.15
  12   3  -6    1.80    0.97
  12  -3  -6    2.80    1.00
  -4   4  14    1.20    0.61
   4   4 -14    1.98    0.64
  -4   4  14    2.71    0.71
  -4   4  14    1.98    0.61
  -4  -4  14    3.53    0.80
   4  -4 -14    1.57    0.77
   4  -4 -14   -0.18    0.79
  -5   4  13    2.43    0.62
  -5   4  13    2.34    0.60
  -5   4  13    2.77    0.62
   5   4 -13    2.64    0.67
   5  -4 -13    3.13    0.69
   5  -4 -13    2.65    0.76
  -5  -4  13    3.19    0.65
  -6   4  12    0.58    0.54
  -6   4  12    0.50    0.56
  -6   4  12    0.73    0.55
   6   4 -12    0.27    0.51
   6  -4 -12    2.83    1.00
   6  -4 -12    0.74    0.52
  -6  -4  12    0.35    0.48
  -7   4  11    0.09    0.48
   7   4 -11   -0.05    0.47
  -7   4  11    0.14    0.53
  -7   4  11    0.68    0.57
   7  -4 -11    0.27    0.42
  -7  -4  11    0.90    0.45
   7  -4 -11   -0.04    0.59
  -8   4  10    4.06    0.68
   8   4 -10    2.15    0.63
  -8   4  10    2.92    0.72
   8   4 -10    3.33    0.58
  -8   4  10    4.10    0.73
  -8  -4  10    4.50    0.62
   8  -4 -10    2.77    0.70
   8  -4 -10    3.04    0.73
   8  -4 -10    3.47    0.73
   9   4  -9    9.80    1.10
   9   4  -9   11.47    1.10
  -9   4   9   11.89    1.25
   9   4  -9   11.48    1.05
  -9   4   9   11.17    1.18
   9  -4  -9   12.65    1.24
  -9  -4   9   11.82    0.83
   9  -4  -9   12.48    1.22
  10   4  -8    1.26    0.68
  10   4  -8    2.19    0.72
 -10   4   8    1.20    0.73
  10   4  -8    0.68    0.58
  10  -4  -8    1.57    0.79
  10  -4  -8    1.07    0.72
 -10  -4   8    1.79    0.46
  11   4  -7    1.46    0.83
  11   4  -7    2.20    0.87
  11   4  -7    1.22    0.91
 -11  -4   7    1.28    0.54
  11  -4  -7    3.03    0.90
  11  -4  -7    2.01    0.85
  -5   5  13    0.96    0.62
   5   5 -13    1.36    0.65
  -5   5  13    0.55    0.69
  -5   5  13   -0.20    0.67
  -5  -5  13    0.23    0.81
   5  -5 -13    1.95    0.87
   5  -5 -13    0.45    1.28
  -6   5  12    0.72    0.65
  -6   5  12    1.31    0.66
  -6   5  12    0.89    0.62
   6   5 -12    1.28    0.64
   6  -5 -12    0.53    0.79
  -6  -5  12    0.04    0.61
   7   5 -11    2.17    0.70
  -7   5  11    2.62    0.76
  -7   5  11    3.86    0.72
  -7   5  11    2.22    0.68
  -7  -5  11    2.14    0.63
   7  -5 -11    2.97    0.83
   8   5 -10    5.39    0.84
  -8   5  10    4.13    0.78
  -8   5  10    4.87    0.82
  -8   5  10    5.60    0.85
  -8  -5  10    6.13    0.71
   8  -5 -10    3.54    0.89
  -9   5   9    0.56    0.75
   9   5  -9   -1.55    0.68
   9   5  -9    2.26    0.63
  -9   5   9   -0.21    0.69
  -9  -5   9    0.92    0.53
   9  -5  -9    0.46    0.78
   9  -5  -9    0.05    0.81
 -10   5   8    4.36    0.98
  10   5  -8    2.94    1.06
 -10   5   8    1.67    1.14
  10   5  -8    3.98    0.91
  10   5  -8    4.79    0.85
  10  -5  -8    3.37    0.98
 -10  -5   8    4.23    0.69
  10  -5  -8    3.84    1.03
  -7   6  11    1.05    0.95
  -7   6  11    1.29    0.92
  -7   6  11    0.51    0.80
   7   6 -11   -0.51    0.88
   7  -6 -11   -0.41    1.15
  -7  -6  11    0.94    0.81
   7  -6 -11    2.79    1.05
   8   6 -10    1.04    0.99
  -8   6  10    2.41    0.93
  -8   6  10    4.08    1.13
  -8   6  10    2.79    1.01
   8  -6 -10    5.05    1.27
   8  -6 -10    3.31    1.15
  -8  -6  10    4.98    0.86
  -3   0  16    1.53    0.66
   3   0 -16    1.54    1.08
  -3   0  16   -0.04    0.67
  -4   0  15    0.37    0.52
   4   0 -15    0.33    0.61
  -4   0  15    1.15    0.53
  -5   0  14    1.47    0.49
  -5   0  14   -0.10    0.49
   5   0 -14    0.64    0.46
  -5   0  14    0.05    0.44
  -6   0  13    4.71    0.67
  -6   0  13    5.74    0.73
   6   0 -13    4.14    0.57
   6   0 -13    6.27    0.69
  -6   0  13    5.62    0.45
  -6   0  13    6.82    0.86
  -7   0  12    9.50    0.61
  -7   0  12   10.27    1.15
   7   0 -12   10.37    0.82
   7   0 -12   11.33    0.77
  -7   0  12    9.85    0.99
  -8   0  11    3.40    0.62
   8   0 -11    2.65    0.50
  -8   0  11    3.30    0.72
  -8   0  11    3.72    0.56
   8   0 -11    2.83    0.61
   8   0 -11    3.38    0.65
   9   0 -10    0.42    0.47
   9   0 -10    0.21    0.37
   9   0 -10   -0.46    0.48
  -9   0  10    0.38    0.47
  10   0  -9    4.36    0.75
  10   0  -9    3.02    0.68
  10   0  -9    2.88    0.61
  11   0  -8    2.90    0.73
  11   0  -8    3.75    0.78
  11   0  -8    4.38    0.60
  12   0  -7    1.82    0.79
  12   0  -7    2.97    0.68
  12   0  -7    5.07    1.02
  -3   1  16    1.74    0.71
   3   1 -16   -0.48    1.17
   3  -1 -16    1.07    1.04
  -3  -1  16    1.61    0.69
  -3  -1  16   -0.05    0.65
  -4   1  15    2.41    0.58
   4   1 -15    0.71    0.63
  -4   1  15    2.89    0.66
  -4   1  15    2.30    0.54
  -4  -1  15    2.50    0.68
  -4  -1  15    2.22    0.60
   4  -1 -15    2.92    0.74
  -5   1  14    4.37    0.74
  -5   1  14    5.32    0.53
   5   1 -14    3.70    0.54
  -5   1  14    4.85    0.62
  -5   1  14    7.05    0.89
   5  -1 -14    5.01    0.68
  -5  -1  14    4.44    0.65
   5  -1 -14    4.65    0.61
  -5  -1  14    5.18    0.69
  -6   1  13    1.60    0.58
   6   1 -13    0.83    0.35
   6   1 -13    0.41    0.43
  -6   1  13    0.68    0.47
  -6   1  13    0.55    0.33
   6  -1 -13    0.36    0.43
  -6  -1  13    1.93    0.48
  -6  -1  13    1.14    0.59
  -6  -1  13    1.36    0.53
   6  -1 -13    1.02    0.46
  -7   1  12    1.32    0.42
  -7   1  12    1.10    0.50
   7   1 -12    2.58    0.50
  -7   1  12    2.41    0.60
   7  -1 -12    1.71    0.45
   7  -1 -12    1.61    0.42
  -7  -1  12    1.65    0.55
  -7  -1  12    1.71    0.51
  -7  -1  12    1.69    0.44
   8   1 -11    3.16    0.57
  -8   1  11    5.55    0.63
  -8   1  11    6.46    0.80
  -8   1  11    5.42    0.60
  -8   1  11    4.68    0.70
   8   1 -11    4.74    0.61
  -8  -1  11    5.66    0.74
   8  -1 -11    5.69    0.75
  -8  -1  11    4.51    0.52
   8  -1 -11    4.67    0.69
  -8  -1  11    5.51    0.62
   8  -1 -11    5.23    0.66
  -8  -1  11    8.03    0.97
   8  -1 -11    4.51    0.74
  -9   1  10   11.50    1.13
   9   1 -10   11.70    1.12
   9   1 -10   12.86    1.07
   9   1 -10   12.92    0.96
  -9   1  10   12.50    1.12
   9  -1 -10   13.57    1.04
  -9  -1  10   12.20    1.08
   9  -1 -10   13.48    1.50
   9  -1 -10   13.11    0.85
  10   1  -9    3.40    0.77
  10   1  -9    3.60    0.64
  10   1  -9    3.86    0.61
  10  -1  -9    3.62    0.71
  10  -1  -9    4.63    0.55
  10  -1  -9    4.61    0.73
  11   1  -8    0.88    0.52
  11   1  -8    0.63    0.69
  11   1  -8    2.25    0.63
  11  -1  -8    1.83    0.63
  11  -1  -8    1.80    0.72
  11  -1  -8    0.37    0.57
  12   1  -7    3.70    0.66
  12   1  -7    2.69    0.93
  12   1  -7    3.51    0.81
  12  -1  -7    2.36    0.88
  12  -1  -7    2.38    0.65
  12  -1  -7    2.09    0.82
   4   2 -15    1.68    0.64
  -4   2  15    1.81    0.66
  -4   2  15    1.14    0.44
  -4   2  15    0.87    0.53
  -4   2  15    1.59    0.59
  -4  -2  15    0.85    0.58
  -4  -2  15    1.21    0.65
   4  -2 -15    0.83    0.77
  -5   2  14    3.59    0.68
   5   2 -14    3.65    0.61
  -5   2  14    3.21    0.60
  -5   2  14    2.62    0.46
  -5   2  14    2.91    0.57
   5  -2 -14    3.27    0.63
   5  -2 -14    2.97    0.64
  -5  -2  14    3.37    0.63
  -5  -2  14    2.98    0.60
  -6   2  13    2.69    0.51
  -6   2  13    3.51    0.66
   6   2 -13    2.74    0.38
  -6   2  13    2.94    0.55
   6   2 -13    3.06    0.52
   6  -2 -13    2.58    0.59
  -6  -2  13    2.13    0.56
  -6  -2  13    1.83    0.49
   6  -2 -13    2.81    0.54
  -7   2  12    3.99    0.67
  -7   2  12    4.24    0.54
  -7   2  12    2.67    0.58
   7   2 -12    3.34    0.56
   7  -2 -12    2.77    0.74
   7  -2 -12    3.47    0.64
  -7  -2  12    3.67    0.63
  -7  -2  12    2.81    0.51
   8   2 -11    1.70    0.47
  -8   2  11    2.98    0.57
   8   2 -11    1.88    0.49
  -8   2  11    2.67    0.65
  -8   2  11    2.86    0.82
  -8  -2  11    3.34    0.65
   8  -2 -11    3.41    0.45
   8  -2 -11    4.55    0.76
   8  -2 -11    2.37    0.56
   8  -2 -11    1.99    0.57
  -8  -2  11    3.35    0.54
   9   2 -10    0.34    0.44
  -9   2  10    0.17    0.59
   9   2 -10    1.56    0.55
   9   2 -10    0.82    0.49
  -9   2  10   -0.50    0.55
   9  -2 -10    0.24    0.60
   9  -2 -10    0.64    0.59
   9  -2 -10    0.16    0.31
   9  -2 -10    0.59    0.47
  -9  -2  10    0.26    0.39
 -10   2   9    0.20    0.63
  10   2  -9    0.09    0.50
  10   2  -9    0.55    0.52
  10   2  -9    0.81    0.62
  10  -2  -9    1.16    0.64
  10  -2  -9    1.29    0.65
  10  -2  -9    1.05    0.38
 -10  -2   9    0.79    0.38
  11   2  -8    7.70    1.17
  11   2  -8    5.40    0.74
  11   2  -8    7.18    0.98
  11  -2  -8    9.53    1.31
 -11  -2   8    6.32    0.69
  11  -2  -8    8.49    0.85
  11  -2  -8    8.52    1.17
  12   2  -7    1.62    1.03
  12   2  -7    1.90    0.89
  12   2  -7    0.85    0.75
  12  -2  -7   -0.09    0.87
 -12  -2   7    0.76    0.49
  12  -2  -7    2.51    0.97
  -4   3  15    0.46    0.53
  -4   3  15    1.22    0.71
   4   3 -15    0.87    0.78
  -4   3  15    1.25    0.62
  -4   3  15    1.12    0.54
   4  -3 -15   -0.67    0.76
  -4  -3  15    0.09    0.74
  -5   3  14    2.89    0.67
  -5   3  14    3.36    0.62
  -5   3  14    1.95    0.50
   5   3 -14    1.29    0.56
   5  -3 -14    3.42    0.93
  -5  -3  14    2.35    0.68
   5  -3 -14    1.88    0.66
   6   3 -13    3.24    0.59
  -6   3  13    3.60    0.64
  -6   3  13    3.73    0.69
  -6   3  13    3.28    0.59
   6  -3 -13    2.86    0.63
  -6  -3  13    3.91    0.61
   6  -3 -13    2.05    0.73
  -6  -3  13    2.38    0.57
  -7   3  12    4.48    0.65
  -7   3  12    4.42    0.71
   7   3 -12    3.49    0.59
  -7   3  12    4.82    0.72
  -7  -3  12    4.36    0.61
   7  -3 -12    2.99    0.50
  -7  -3  12    3.15    0.58
   7  -3 -12    5.28    0.78
  -8   3  11   -0.14    0.53
   8   3 -11    1.28    0.48
  -8   3  11   -0.41    0.62
  -8   3  11    0.31    0.54
   8  -3 -11    0.09    0.34
  -8  -3  11    0.16    0.41
   8  -3 -11   -0.36    0.74
  -8  -3  11    1.34    0.56
  -9   3  10    1.81    0.64
  -9   3  10    1.22    0.56
   9   3 -10    0.27    0.48
   9   3 -10    1.27    0.53
   9   3 -10    0.73    0.56
   9  -3 -10    0.87    0.59
  -9  -3  10    0.34    0.41
   9  -3 -10    1.80    0.65
   9  -3 -10    0.89    0.32
   9  -3 -10    2.35    0.72
 -10   3   9    0.26    0.63
  10   3  -9    1.29    0.61
  10   3  -9    0.48    0.56
  10   3  -9    0.64    0.61
  10  -3  -9    0.21    0.63
 -10  -3   9    0.36    0.44
  10  -3  -9   -0.16    0.58
  10  -3  -9    1.99    0.71
  11   3  -8    2.87    0.86
  11   3  -8    0.76    0.79
  11   3  -8    0.75    0.67
  11  -3  -8    1.98    0.78
 -11  -3   8    2.16    0.52
  11  -3  -8    2.23    0.75
  -5   4  14    1.03    0.60
  -5   4  14    0.26    0.61
  -5   4  14    0.98    0.67
   5   4 -14    0.34    0.66
   5  -4 -14    0.21    0.72
  -5  -4  14   -0.67    0.74
   5  -4 -14    0.39    0.99
   6   4 -13    0.03    0.53
  -6   4  13    0.13    0.59
  -6   4  13    0.62    0.59
  -6   4  13   -0.38    0.57
   6  -4 -13   -0.63    0.73
  -6  -4  13    0.43    0.63
   6  -4 -13    1.12    0.76
  -7   4  12    0.78    0.60
  -7   4  12    3.40    0.68
  -7   4  12    1.59    0.62
   7   4 -12    2.60    0.62
  -7  -4  12    1.95    0.58
   7  -4 -12    1.32    0.59
   7  -4 -12    2.62    0.76
   8   4 -11    2.46    0.64
  -8   4  11    2.16    0.67
  -8   4  11    1.97    0.69
  -8   4  11    1.14    0.61
   8  -4 -11    1.32    0.67
  -8  -4  11    1.42    0.47
  -9   4  10    2.14    0.74
   9   4 -10    1.92    0.59
  -9   4  10    2.67    0.66
   9   4 -10    1.59    0.60
  -9  -4  10    2.21    0.50
   9  -4 -10    3.21    0.78
   9  -4 -10    2.54    0.78
  10   4  -9    2.48    0.67
 -10   4   9    1.08    0.79
  10   4  -9    2.46    0.73
 -10   4   9    3.05    0.76
  10   4  -9    1.65    0.68
  10  -4  -9    0.76    0.72
 -10  -4   9    1.63    0.51
  10  -4  -9    2.31    0.86
 -11   4   8    1.59    0.95
  11   4  -8    2.39    0.94
  11   4  -8    2.12    0.86
  11   4  -8    1.83    1.02
 -11  -4   8    1.47    0.55
  11  -4  -8    2.43    1.00
  11  -4  -8    0.85    0.86
   6   5 -13   -0.84    0.74
  -6   5  13   -0.15    0.70
  -6   5  13   -0.34    0.72
  -6   5  13   -0.20    0.84
   6  -5 -13    1.43    0.95
  -6  -5  13    0.20    0.85
  -7   5  12    1.27    0.77
  -7   5  12    1.46    0.73
   7   5 -12    0.49    0.68
  -7   5  12    0.60    0.72
   7  -5 -12    0.81    0.96
  -7  -5  12    2.64    0.77
   8   5 -11    2.73    0.83
  -8   5  11    5.81    0.90
  -8   5  11    5.24    0.93
   8  -5 -11    4.65    1.03
  -8  -5  11    6.49    0.83
   9   5 -10    0.05    0.88
  -9   5  10    0.13    0.73
  -9   5  10    0.88    0.86
  -9   5  10    0.23    0.90
   9   5 -10   -0.39    0.59
   9  -5 -10    0.58    0.83
  -9  -5  10    0.93    0.58
   9  -5 -10   -1.75    1.41
   9  -5 -10   -0.55    0.76
  -4   0  16    0.44    0.62
   4   0 -16   -0.81    0.92
  -4   0  16    0.52    0.66
  -5   0  15    0.58    0.53
  -5   0  15    0.06    0.56
   5   0 -15    0.73    0.59
  -6   0  14    0.00    0.58
   6   0 -14   -0.19    0.44
  -6   0  14    0.05    0.44
  -6   0  14    0.21    0.51
  -7   0  13    2.23    0.55
   7   0 -13    4.27    0.59
  -7   0  13    3.62    0.67
   7   0 -13    5.83    0.72
  -7   0  13    3.68    0.58
  -8   0  12    3.43    0.43
  -8   0  12    2.08    0.61
  -8   0  12    3.42    0.66
   8   0 -12    2.76    0.46
  -9   0  11    5.13    0.78
   9   0 -11    3.20    0.96
   9   0 -11    4.45    0.60
  -9   0  11    5.55    0.83
   9   0 -11    5.14    0.73
  10   0 -10    3.64    0.54
  10   0 -10    2.12    0.73
 -10   0  10    4.15    0.67
  10   0 -10    4.18    0.68
  11   0  -9    0.43    0.70
  11   0  -9   -0.09    0.49
  11   0  -9   -0.03    0.64
  12   0  -8   -0.56    0.89
  12   0  -8   -0.06    0.60
  12   0  -8   -0.78    0.68
  -4   1  16    6.33    0.87
   4   1 -16    6.11    1.16
  -4   1  16    8.55    1.16
  -4  -1  16    8.48    1.19
   4  -1 -16    4.90    1.04
  -4  -1  16    5.09    0.79
  -5   1  15    2.84    0.70
  -5   1  15    2.76    0.61
   5   1 -15    1.85    0.59
  -5   1  15    3.81    0.69
   5  -1 -15    1.56    0.64
  -5  -1  15    3.32    0.64
  -5  -1  15    3.88    0.73
  -6   1  14    1.71    0.66
   6   1 -14    1.51    0.50
  -6   1  14    1.57    0.37
  -6   1  14    2.00    0.49
  -6   1  14    3.47    0.67
   6  -1 -14    2.06    0.54
  -6  -1  14    0.95    0.53
   6  -1 -14    0.94    0.49
  -6  -1  14    1.63    0.55
  -7   1  13    1.80    0.64
   7   1 -13    2.01    0.43
  -7   1  13    2.22    0.43
  -7   1  13    2.06    0.59
  -7  -1  13    1.73    0.65
   7  -1 -13    1.69    0.44
  -7  -1  13    3.01    0.59
   7  -1 -13    1.71    0.54
   8   1 -12    2.98    0.49
  -8   1  12    3.26    0.63
  -8   1  12    4.32    0.72
  -8   1  12    4.23    0.55
  -8  -1  12    3.21    0.49
   8  -1 -12    2.68    0.46
  -8  -1  12    3.65    0.69
  -9   1  11    0.87    0.63
   9   1 -11    0.71    0.46
   9   1 -11    0.48    0.53
  -9   1  11    0.40    0.54
   9   1 -11    0.82    0.47
  -9  -1  11    1.55    0.72
   9  -1 -11    0.73    0.52
  -9  -1  11    0.55    0.62
   9  -1 -11    0.38    0.40
   9  -1 -11    0.82    0.58
 -10   1  10    1.72    0.66
  10   1 -10    0.73    0.60
  10   1 -10    1.73    0.61
  10   1 -10    1.61    0.51
  10  -1 -10    1.39    0.68
  10  -1 -10    0.91    0.55
  10  -1 -10    2.38    0.48
  11   1  -9    1.52    0.58
  11   1  -9    0.55    0.75
  11   1  -9    3.49    0.70
  11  -1  -9    2.21    0.52
  11  -1  -9    2.42    0.73
  11  -1  -9    2.39    0.81
  12   1  -8    1.27    0.74
  12   1  -8    1.22    0.64
  12   1  -8   -0.88    0.94
  12  -1  -8    2.07    0.98
  12  -1  -8   -1.06    0.77
  12  -1  -8    0.62    0.80
  -5   2  15    3.08    0.68
  -5   2  15    2.97    0.63
   5   2 -15    2.19    0.65
  -5   2  15    1.60    0.66
  -5   2  15    1.44    0.59
  -5  -2  15    1.55    0.62
  -5  -2  15    3.43    0.76
   5  -2 -15    1.08    0.66
   6   2 -14    4.64    0.65
  -6   2  14    6.05    0.80
  -6   2  14    5.87    0.79
  -6   2  14    5.59    0.80
  -6  -2  14    4.88    0.84
   6  -2 -14    6.35    0.84
   6  -2 -14    6.37    0.71
  -6  -2  14    5.61    0.76
  -7   2  13    5.58    0.67
  -7   2  13    6.97    0.98
   7   2 -13    4.35    0.61
  -7   2  13    6.66    0.94
  -7  -2  13    6.91    1.01
   7  -2 -13    4.74    0.61
  -7  -2  13    7.91    0.79
  -8   2  12   17.08    1.14
  -8   2  12   16.91    1.25
  -8   2  12   20.71    2.01
   8   2 -12   18.65    1.13
  -8  -2  12   17.44    1.24
   8  -2 -12   17.11    1.16
   8  -2 -12   19.16    1.20
  -8  -2  12   17.92    1.06
  -9   2  11    7.69    1.09
   9   2 -11    4.67    0.69
  -9   2  11    5.90    0.80
   9   2 -11    8.72    0.97
   9   2 -11    7.11    0.85
  -9  -2  11    7.01    0.76
  -9  -2  11    5.96    0.83
   9  -2 -11    6.33    0.73
   9  -2 -11    5.16    1.20
   9  -2 -11    5.91    0.83
   9  -2 -11    6.11    0.76
  10   2 -10    7.53    1.01
  10   2 -10    5.11    0.69
 -10   2  10    9.55    1.22
  10   2 -10    4.91    0.83
  10  -2 -10    6.44    0.92
 -10  -2  10    5.40    0.73
  10  -2 -10    6.50    0.77
  10  -2 -10    3.46    0.83
  10  -2 -10    5.86    0.78
  11   2  -9    0.76    0.71
  11   2  -9    0.85    0.76
  11   2  -9    1.25    0.64
  11  -2  -9    1.52    0.54
  11  -2  -9    2.29    0.76
 -11  -2   9    2.44    0.51
  12   2  -8    0.05    0.80
  12   2  -8   -0.04    1.07
  12   2  -8    0.12    0.82
  12  -2  -8   -0.05    0.84
 -12  -2   8    0.04    0.49
  12  -2  -8    0.59    0.98
  -5   3  15    0.51    0.72
   5   3 -15   -1.00    0.74
  -5   3  15   -0.45    0.51
  -5   3  15    1.67    0.65
  -5  -3  15    1.67    0.91
   5  -3 -15    1.52    0.77
  -6   3  14    4.34    0.77
   6   3 -14    5.36    0.74
  -6   3  14    4.45    0.68
  -6   3  14    4.92    0.72
  -6  -3  14    5.19    0.83
   6  -3 -14    4.86    0.74
   6  -3 -14    4.63    0.89
   7   3 -13    4.52    0.68
  -7   3  13    5.60    0.81
  -7   3  13    8.40    1.20
  -7   3  13    5.92    0.75
   7  -3 -13    5.53    0.88
  -7  -3  13    4.90    0.69
  -7  -3  13    5.90    0.82
   7  -3 -13    5.57    0.71
   8   3 -12    0.63    0.54
  -8   3  12    1.95    0.68
  -8   3  12    1.27    0.68
  -8   3  12    0.33    0.57
  -8  -3  12    0.59    0.64
  -8  -3  12    0.77    0.48
   8  -3 -12    1.80    0.67
   8  -3 -12    0.27    0.45
  -9   3  11    7.08    1.01
  -9   3  11    3.83    0.70
   9   3 -11    3.45    0.71
   9   3 -11    5.03    0.77
  -9   3  11    4.04    0.78
   9  -3 -11    4.49    0.51
   9  -3 -11    4.90    0.79
  -9  -3  11    4.07    0.62
   9  -3 -11    5.20    0.82
   9  -3 -11    2.09    0.73
  -9  -3  11    6.03    0.83
 -10   3  10    7.01    0.97
  10   3 -10    7.07    0.92
  10   3 -10    7.35    0.98
 -10   3  10    7.42    1.01
  10   3 -10    7.96    1.09
  10  -3 -10    7.05    1.07
  10  -3 -10    5.65    0.87
 -10  -3  10    6.65    0.77
  10  -3 -10   11.38    1.27
  11   3  -9    3.47    0.88
  11   3  -9    3.73    0.78
 -11   3   9    4.01    0.96
  11   3  -9    2.94    0.95
  11  -3  -9    3.56    0.93
  11  -3  -9    4.22    0.85
 -11  -3   9    4.26    0.64
   6   4 -14    0.90    0.77
  -6   4  14   -0.03    0.67
  -6   4  14    0.62    0.71
  -6   4  14    1.55    0.90
  -6  -4  14    1.91    0.87
   6  -4 -14    1.61    0.90
   6  -4 -14    0.49    0.85
   7   4 -13    1.73    0.73
  -7   4  13    2.29    0.66
  -7   4  13    2.37    0.79
  -7   4  13    2.59    0.70
  -7  -4  13    2.37    0.76
   7  -4 -13    2.43    0.89
   8   4 -12    9.64    1.17
  -8   4  12   12.61    1.29
  -8   4  12   13.14    1.33
  -8   4  12    8.85    1.22
  -8  -4  12   11.51    1.05
   8  -4 -12    9.29    1.10
  -9   4  11    5.45    0.91
   9   4 -11    4.76    0.79
  -9   4  11    6.52    0.91
  -9   4  11    7.96    1.20
   9   4 -11    7.18    0.95
  -9  -4  11    6.63    0.78
   9  -4 -11    6.80    0.94
   9  -4 -11    4.37    0.88
 -10   4  10    5.00    1.04
  10   4 -10    5.56    0.91
  10   4 -10    2.66    0.76
 -10   4  10    2.89    0.80
  10   4 -10    4.54    0.91
  10  -4 -10    5.45    1.00
 -10  -4  10    4.31    0.66
  10  -4 -10    4.63    0.98
  -5   0  16    0.72    0.70
   5   0 -16    0.96    0.82
  -5   0  16    2.07    0.64
  -6   0  15    0.77    0.58
  -6   0  15    3.01    0.65
   6   0 -15    1.53    0.58
  -7   0  14   21.37    1.34
   7   0 -14   20.14    1.19
   7   0 -14   24.40    1.19
  -7   0  14   20.66    1.21
  -8   0  13   17.92    1.06
  -8   0  13   19.70    1.34
  -8   0  13   17.47    1.27
   8   0 -13   17.09    1.06
   8   0 -13   15.67    1.07
  -9   0  12    1.53    0.67
   9   0 -12    1.70    0.56
   9   0 -12    1.19    0.47
  -9   0  12    1.69    0.67
  10   0 -11    8.04    1.00
  10   0 -11    6.39    0.86
 -10   0  11    8.28    1.24
  10   0 -11    7.72    1.11
 -10   0  11    9.21    1.26
  11   0 -10   -0.02    0.49
  11   0 -10   -0.97    0.78
  11   0 -10    0.47    0.65
  12   0  -9   -0.01    0.63
  12   0  -9   -0.92    0.94
  12   0  -9   -1.07    0.72
   5   1 -16   11.22    1.57
   5  -1 -16   10.85    1.52
   6   1 -15    1.36    0.60
  -6   1  15    1.90    0.92
  -6   1  15    0.31    0.62
  -6   1  15    0.52    0.58
  -6  -1  15    1.58    0.62
   6  -1 -15    0.14    0.65
  -6  -1  15    1.21    0.61
  -7   1  14    8.42    1.01
   7   1 -14    5.83    0.76
  -7   1  14    9.55    1.24
   7  -1 -14    5.90    0.67
  -7  -1  14    8.28    1.07
  -7  -1  14    5.66    0.72
   7  -1 -14    6.13    0.80
   8   1 -13    3.37    0.55
  -8   1  13    5.02    0.85
  -8   1  13    3.70    0.57
  -8   1  13    3.81    0.72
   8  -1 -13    3.64    0.67
  -8  -1  13    5.97    0.80
  -8  -1  13    4.46    0.73
   8  -1 -13    2.24    0.50
  -9   1  12    1.54    0.72
   9   1 -12    0.29    0.52
  -9   1  12    1.27    0.51
  -9   1  12    2.00    0.67
   9   1 -12    0.36    0.52
  -9  -1  12    1.32    0.64
   9  -1 -12    0.81    0.53
   9  -1 -12    0.64    0.51
   9  -1 -12    1.47    0.43
  -9  -1  12    1.22    0.49
  10   1 -11    2.60    0.73
  10   1 -11    1.34    0.68
  10   1 -11    1.27    0.53
 -10   1  11    0.63    0.71
 -10   1  11    1.99    0.70
  10  -1 -11    2.69    0.77
  10  -1 -11    1.21    0.49
  10  -1 -11    1.28    0.61
 -10  -1  11    2.07    0.69
 -11   1  10    3.02    0.86
  11   1 -10    2.25    0.81
  11   1 -10    2.34    0.70
  11   1 -10    0.74    0.57
  11  -1 -10    1.15    0.86
  11  -1 -10    0.86    0.71
  11  -1 -10    1.20    0.56
  12   1  -9    5.28    1.24
  12   1  -9    5.17    0.94
  12   1  -9    2.64    0.72
  12  -1  -9    4.58    0.69
  12  -1  -9    4.37    1.08
  12  -1  -9    5.01    1.00
  -6   2  15    1.54    0.62
  -6   2  15    1.02    0.70
  -6   2  15    1.50    0.73
   6   2 -15    0.75    0.67
  -6  -2  15    2.15    0.70
  -6  -2  15    1.85    0.71
   6  -2 -15    0.85    0.68
   7   2 -14    1.17    0.58
  -7   2  14    2.56    0.56
  -7   2  14    2.45    0.66
  -7   2  14    3.03    0.71
   7  -2 -14    0.71    0.53
   7  -2 -14    0.88    0.71
  -7  -2  14    1.58    0.67
  -7  -2  14    2.12    0.60
  -8   2  13    3.84    0.80
  -8   2  13    4.15    0.77
  -8   2  13    4.30    0.79
   8   2 -13    2.45    0.62
   8  -2 -13    4.09    0.57
   8  -2 -13    3.96    1.24
  -8  -2  13    4.64    0.70
  -9   2  12    1.30    0.73
   9   2 -12    0.89    0.52
  -9   2  12    0.38    0.71
  -9   2  12    1.14    0.61
   9   2 -12    1.06    0.61
   9  -2 -12    0.59    0.43
   9  -2 -12   -0.27    0.62
  -9  -2  12    1.66    1.10
  -9  -2  12    0.87    0.50
   9  -2 -12    0.71    0.58
  10   2 -11    2.14    0.64
 -10   2  11    3.54    0.80
  10   2 -11    2.43    0.75
 -10   2  11    2.50    0.74
  10   2 -11    2.39    0.63
 -10  -2  11    4.88    0.84
  10  -2 -11    2.52    0.74
  10  -2 -11    2.69    0.71
 -10  -2  11    3.80    0.61
  10  -2 -11    1.57    0.83
  11   2 -10    2.03    0.87
  11   2 -10    1.45    0.65
  11   2 -10    1.11    0.68
 -11   2  10    1.24    0.85
  11  -2 -10   -0.82    0.81
  11  -2 -10    2.51    0.87
  11  -2 -10    1.84    0.68
 -11  -2  10    1.13    0.51
   6  -3 -15   10.63    1.43
  -7   3  14    9.89    1.35
   7   3 -14    9.56    1.25
  -7   3  14   10.84    1.36
  -7   3  14    9.37    1.09
   7  -3 -14    9.30    1.12
   7  -3 -14    8.69    1.18
  -7  -3  14   12.01    1.14
  -8   3  13    4.61    0.80
  -8   3  13    1.56    0.70
  -8   3  13    3.50    0.84
   8   3 -13    3.07    0.68
  -8  -3  13    4.10    0.73
   8  -3 -13    2.96    0.60
   8  -3 -13    4.04    0.85
   9   3 -12    3.30    0.75
  -9   3  12    3.48    0.80
  -9   3  12    5.65    0.85
  -9   3  12    5.48    0.90
   9  -3 -12    4.46    0.78
  -9  -3  12    4.23    0.72
 -10   3  11    0.15    0.68
  10   3 -11    0.30    0.65
  10   3 -11    1.71    0.80
  10   3 -11    0.49    0.66
 -10   3  11    0.97    0.84
  10  -3 -11    0.83    0.80
  10  -3 -11    0.39    0.77
 -10  -3  11    0.15    0.52
  10  -3 -11    0.42    0.69
 -11   3  10    3.90    0.84
  11   3 -10    2.54    1.01
 -11   3  10    1.46    1.09
  11   3 -10    2.33    0.88
  11   3 -10    2.78    0.88
  11  -3 -10    0.46    0.94
  11  -3 -10    3.75    0.92
 -11  -3  10    1.87    0.59
  -8   4  13    4.08    0.86
  -8   4  13    4.88    0.87
  -8   4  13    3.88    1.09
   8   4 -13    3.14    0.95
   8  -4 -13    4.41    0.98
  -8  -4  13    5.36    0.93
  -9   4  12    0.30    0.77
  -9   4  12    1.38    0.99
   9   4 -12   -0.05    0.88
  -9   4  12   -0.77    0.78
  -9  -4  12   -1.12    0.62
   9  -4 -12    1.83    0.91
  -7   0  15    3.49    0.78
   7   0 -15    1.28    0.60
  -7   0  15    3.06    0.76
  -8   0  14    1.40    0.64
   8   0 -14   -0.33    0.55
  -8   0  14   -0.51    0.52
   8   0 -14   -0.71    0.48
   9   0 -13   -0.12    0.52
  -9   0  13    0.03    0.65
   9   0 -13    0.54    0.46
  10   0 -12    2.92    0.57
  10   0 -12    3.14    0.77
  10   0 -12    1.97    0.79
 -10   0  12    3.90    0.75
  11   0 -11   27.12    1.70
  11   0 -11   28.90    1.90
  11   0 -11   29.65    1.47
  -7   1  15    4.35    0.76
   7   1 -15    4.54    0.74
  -7   1  15    4.73    0.81
  -7  -1  15    4.65    0.75
  -7  -1  15    4.26    0.88
   7  -1 -15    4.67    0.69
   8   1 -14    4.18    0.66
  -8   1  14    4.60    0.97
  -8   1  14    4.38    0.75
  -8  -1  14    5.42    0.78
   8  -1 -14    3.62    0.58
  -8  -1  14    4.58    0.78
   8  -1 -14    3.77    0.79
  -9   1  13    6.75    1.11
   9   1 -13    6.00    0.74
  -9   1  13    5.25    0.79
  -9  -1  13    7.21    0.90
   9  -1 -13    5.38    0.78
  -9  -1  13    6.94    0.86
   9  -1 -13    5.20    0.63
 -10   1  12    8.31    1.01
 -10   1  12    7.04    1.29
  10   1 -12    6.33    1.02
  10   1 -12    7.56    1.00
 -10   1  12    9.85    1.32
  10   1 -12    6.44    0.85
  10  -1 -12    8.23    1.23
 -10  -1  12    7.22    0.91
  10  -1 -12    7.63    0.90
  10  -1 -12    8.14    1.08
 -10  -1  12    8.69    1.26
  10  -1 -12    7.66    1.04
 -11   1  11    1.24    0.83
  11   1 -11    1.29    0.61
  11   1 -11    1.90    0.77
  11   1 -11    0.90    0.89
 -11   1  11    2.07    0.93
  11  -1 -11    0.92    0.77
  11  -1 -11    1.08    0.55
  11  -1 -11    0.26    0.89
  -7   2  15    4.63    0.86
   7   2 -15    2.28    0.78
  -7   2  15    3.03    0.89
  -7  -2  15    2.74    0.86
   7  -2 -15    2.86    0.71
  -7  -2  15    2.77    0.93
  -8   2  14    0.37    0.76
  -8   2  14    0.24    0.80
   8   2 -14   -0.93    0.58
   8  -2 -14    0.83    0.78
  -8  -2  14    0.19    0.73
   8  -2 -14   -0.18    0.53
  -8  -2  14    0.08    0.58
  -9   2  13    2.21    0.68
   9   2 -13    0.62    0.61
  -9   2  13   -0.11    0.73
  -9   2  13    1.55    0.76
  -9  -2  13    1.32    0.63
  -9  -2  13    1.80    0.75
   9  -2 -13    1.59    0.72
   9  -2 -13    1.18    0.52
  10   2 -12   13.30    1.24
 -10   2  12   10.98    1.40
 -10   2  12   10.34    1.44
  10   2 -12   12.56    1.35
 -10   2  12   13.84    1.49
 -10  -2  12   13.78    1.66
  10  -2 -12   11.44    0.99
  10  -2 -12   13.92    1.31
 -10  -2  12   12.10    1.09
  10  -2 -12   12.82    1.47
  10  -2 -12   12.19    1.37
  11   2 -11   14.99    1.74
  11   2 -11   16.28    1.46
 -11   2  11   18.31    1.91
 -11   2  11   17.63    1.76
  11   2 -11   18.24    1.64
  11  -2 -11   15.69    1.60
  11  -2 -11   15.93    1.76
 -11  -2  11   16.38    1.15
  11  -2 -11   16.91    1.42
  -8   3  14    1.30    0.94
  -8   3  14    1.34    0.82
  -8   3  14    0.34    0.71
   8   3 -14    1.12    0.85
  -8  -3  14    1.00    0.89
   8  -3 -14    0.89    0.86
   8  -3 -14    1.61    0.94
  -9   3  13    8.16    1.10
  -9   3  13    7.43    1.16
   9   3 -13    6.36    0.93
  -9   3  13    8.95    1.25
   9  -3 -13   10.22    1.45
  -9  -3  13    9.73    1.16
 -10   3  12    5.45    0.81
 -10   3  12    3.29    0.93
  10   3 -12    1.70    0.91
  10   3 -12    4.27    0.95
 -10   3  12    2.94    1.09
  10  -3 -12    4.71    1.05
 -10  -3  12    6.10    0.82
  10  -3 -12    2.87    0.90
  -8   0  15    2.35    1.32
  -8   0  15    2.09    0.78
   8   0 -15    0.80    0.62
   9   0 -14    2.67    0.71
  -9   0  14    3.64    0.78
  -9   0  14    2.33    0.78
   9   0 -14    2.65    0.61
  10   0 -13    1.44    0.75
 -10   0  13    1.87    0.79
  10   0 -13    0.24    0.57
  11   0 -12    0.16    0.57
  11   0 -12   -0.07    1.60
 -11   0  12    0.14    0.90
  11   0 -12   -0.21    0.77
  -9   1  14    1.67    0.86
   9   1 -14    3.00    0.63
   9  -1 -14    3.06    0.74
  -9  -1  14    2.70    0.87
   9  -1 -14    1.82    0.59
  -9  -1  14    2.00    0.80
  10   1 -13    0.02    0.63
  10   1 -13    1.06    0.73
 -10   1  13    0.95    0.84
  10  -1 -13    0.52    0.52
  10  -1 -13    0.75    0.70
 -10  -1  13    0.70    0.71
 -10  -1  13    2.33    0.81
   0   0   0    0.00    0.00
;
_shelx_hkl_checksum              77152
loop_
_space_group_symop_operation_xyz
'x, y, z'
'-x, y+1/2, -z'
loop_
_atom_site_label
_atom_site_type_symbol
_atom_site_fract_x
_atom_site_fract_y
_atom_site_fract_z
_atom_site_U_iso_or_equiv
_atom_site_adp_type
_atom_site_occupancy
_atom_site_site_symmetry_order
_atom_site_calc_flag
_atom_site_refinement_flags_posn
_atom_site_refinement_flags_adp
Cl1 Cl 0.56460(11) -0.09376(15) 0.82822(9) 0.0692(3) Uani 1 1 d . .
O1 O 0.6623(3) 0.6987(3) 0.6058(2) 0.0533(6) Uani 1 1 d . .
O2 O 0.6589(2) 0.3940(3) 0.56936(16) 0.0384(4) Uani 1 1 d . .
O3 O 0.7814(3) 0.0363(3) 0.7142(2) 0.0476(5) Uani 1 1 d . .
H3A H 0.7578 0.0885 0.6518 0.071 Uiso 1 1 calc R U
C1 C 0.4678(4) 0.5108(5) 0.6255(4) 0.0594(10) Uani 1 1 d . .
H1A H 0.4455 0.3808 0.6141 0.089 Uiso 1 1 calc R U
H1B H 0.4785 0.5434 0.7036 0.089 Uiso 1 1 calc R U
H1C H 0.3904 0.5824 0.5752 0.089 Uiso 1 1 calc R U
C2 C 0.6051(3) 0.5506(4) 0.6000(3) 0.0391(6) Uani 1 1 d . .
C3 C 0.7951(3) 0.3999(4) 0.5496(2) 0.0340(5) Uani 1 1 d . .
C4 C 0.7967(3) 0.4001(5) 0.4371(2) 0.0428(7) Uani 1 1 d . .
H4A H 0.7104 0.4104 0.3772 0.051 Uiso 1 1 calc R U
C5 C 0.9273(4) 0.3849(5) 0.4146(3) 0.0487(8) Uani 1 1 d . .
H5A H 0.9290 0.3889 0.3392 0.058 Uiso 1 1 calc R U
C6 C 1.0551(4) 0.3639(4) 0.5022(3) 0.0464(8) Uani 1 1 d . .
H6A H 1.1426 0.3511 0.4865 0.056 Uiso 1 1 calc R U
C7 C 1.0516(3) 0.3619(4) 0.6138(3) 0.0388(7) Uani 1 1 d . .
C8 C 0.9216(3) 0.3818(4) 0.6386(2) 0.0319(5) Uani 1 1 d . .
C9 C 0.9496(3) 0.3910(4) 0.7672(2) 0.0336(6) Uani 1 1 d . .
C10 C 1.0964(3) 0.2869(5) 0.8101(3) 0.0445(7) Uani 1 1 d . .
H10A H 1.1518 0.3283 0.8863 0.053 Uiso 1 1 calc R U
H10B H 1.0814 0.1537 0.8118 0.053 Uiso 1 1 calc R U
C11 C 1.1748(3) 0.3370(5) 0.7224(3) 0.0479(8) Uani 1 1 d . .
H11A H 1.2304 0.4508 0.7437 0.057 Uiso 1 1 calc R U
H11B H 1.2391 0.2377 0.7149 0.057 Uiso 1 1 calc R U
C12 C 0.9667(4) 0.5963(4) 0.8095(2) 0.0413(7) Uani 1 1 d . .
H12A H 1.0669 0.6361 0.8270 0.050 Uiso 1 1 calc R U
H12B H 0.9062 0.6779 0.7513 0.050 Uiso 1 1 calc R U
C13 C 0.9193(4) 0.6009(5) 0.9170(3) 0.0490(8) Uani 1 1 d . .
H13A H 1.0019 0.5877 0.9855 0.059 Uiso 1 1 calc R U
H13B H 0.8691 0.7160 0.9218 0.059 Uiso 1 1 calc R U
C14 C 0.8185(3) 0.4366(5) 0.9018(2) 0.0424(7) Uani 1 1 d . .
C15 C 0.7211(4) 0.3965(7) 0.9612(3) 0.0557(8) Uani 1 1 d . .
H15A H 0.7088 0.4784 1.0162 0.067 Uiso 1 1 calc R U
C16 C 0.6432(4) 0.2341(6) 0.9376(3) 0.0576(10) Uani 1 1 d . .
H16A H 0.5773 0.2050 0.9764 0.069 Uiso 1 1 calc R U
C17 C 0.6633(3) 0.1135(5) 0.8555(3) 0.0455(7) Uani 1 1 d . .
C18 C 0.7589(3) 0.1519(4) 0.7940(2) 0.0366(6) Uani 1 1 d . .
C19 C 0.8362(3) 0.3168(4) 0.8179(2) 0.0342(6) Uani 1 1 d . .
loop_
_atom_site_aniso_label
_atom_site_aniso_U_11
_atom_site_aniso_U_22
_atom_site_aniso_U_33
_atom_site_aniso_U_23
_atom_site_aniso_U_13
_atom_site_aniso_U_12
Cl1 0.0732(6) 0.0674(6) 0.0767(6) -0.0034(5) 0.0375(5) -0.0304(5)
O1 0.0520(14) 0.0360(13) 0.0782(17) -0.0043(11) 0.0291(12) -0.0029(10)
O2 0.0335(9) 0.0353(10) 0.0471(10) -0.0027(10) 0.0134(8) -0.0039(9)
O3 0.0632(14) 0.0353(11) 0.0544(12) -0.0047(10) 0.0331(11) -0.0053(10)
C1 0.0424(18) 0.053(2) 0.089(3) -0.0057(19) 0.0298(18) -0.0025(15)
C2 0.0349(14) 0.0389(16) 0.0423(15) 0.0012(13) 0.0103(12) 0.0009(13)
C3 0.0389(14) 0.0272(12) 0.0394(13) -0.0048(13) 0.0170(11) -0.0023(12)
C4 0.0552(17) 0.0367(14) 0.0355(13) -0.0022(14) 0.0126(12) -0.0062(15)
C5 0.075(2) 0.0419(17) 0.0390(14) -0.0030(14) 0.0312(15) -0.0007(16)
C6 0.0578(19) 0.0418(18) 0.0541(17) -0.0013(14) 0.0383(15) -0.0001(14)
C7 0.0413(15) 0.0333(16) 0.0485(15) -0.0010(12) 0.0237(12) -0.0011(12)
C8 0.0376(13) 0.0267(13) 0.0349(12) -0.0017(11) 0.0163(10) -0.0017(11)
C9 0.0340(13) 0.0375(14) 0.0320(12) -0.0019(13) 0.0140(10) -0.0023(12)
C10 0.0376(15) 0.0516(19) 0.0435(15) 0.0050(14) 0.0113(12) 0.0021(14)
C11 0.0374(15) 0.054(2) 0.0577(18) 0.0015(15) 0.0222(13) 0.0024(14)
C12 0.0470(17) 0.0389(16) 0.0384(14) -0.0070(12) 0.0137(13) -0.0087(13)
C13 0.0570(19) 0.052(2) 0.0393(15) -0.0143(14) 0.0172(14) -0.0091(15)
C14 0.0455(16) 0.0488(19) 0.0344(14) -0.0055(13) 0.0143(11) -0.0016(14)
C15 0.063(2) 0.069(2) 0.0452(15) -0.0156(18) 0.0313(14) -0.009(2)
C16 0.055(2) 0.080(3) 0.0489(18) -0.0028(18) 0.0322(17) -0.0105(19)
C17 0.0415(16) 0.0520(18) 0.0454(16) 0.0031(14) 0.0169(13) -0.0076(14)
C18 0.0397(15) 0.0384(15) 0.0337(13) 0.0025(11) 0.0140(11) 0.0004(12)
C19 0.0357(14) 0.0386(15) 0.0299(12) 0.0023(11) 0.0123(10) 0.0004(12)
loop_
_atom_type_symbol
_atom_type_description
_atom_type_scat_dispersion_real
_atom_type_scat_dispersion_imag
_atom_type_scat_source
C C 0.0033 0.0016 'International Tables Vol C Tables 4.2.6.8 and 6.1.1.4'
H H 0.0000 0.0000 'International Tables Vol C Tables 4.2.6.8 and 6.1.1.4'
O O 0.0106 0.0060 'International Tables Vol C Tables 4.2.6.8 and 6.1.1.4'
Cl Cl 0.1484 0.1585 'International Tables Vol C Tables 4.2.6.8 and 6.1.1.4'
loop_
_geom_angle_atom_site_label_1
_geom_angle_atom_site_label_2
_geom_angle_atom_site_label_3
_geom_angle
C2 O2 C3 119.1(2)
O1 C2 O2 123.6(3)
O1 C2 C1 126.1(3)
O2 C2 C1 110.3(3)
C8 C3 C4 120.7(2)
C8 C3 O2 120.8(2)
C4 C3 O2 117.9(2)
C5 C4 C3 119.4(3)
C6 C5 C4 120.8(3)
C5 C6 C7 119.1(3)
C6 C7 C8 121.0(3)
C6 C7 C11 128.8(3)
C8 C7 C11 110.2(2)
C3 C8 C7 118.9(2)
C3 C8 C9 130.7(2)
C7 C8 C9 110.3(2)
C19 C9 C8 119.4(2)
C19 C9 C10 113.3(2)
C8 C9 C10 100.6(2)
C19 C9 C12 102.3(2)
C8 C9 C12 110.8(2)
C10 C9 C12 110.7(3)
C11 C10 C9 104.3(2)
C7 C11 C10 102.7(2)
C13 C12 C9 106.3(2)
C14 C13 C12 103.4(2)
C15 C14 C19 121.1(3)
C15 C14 C13 128.1(3)
C19 C14 C13 110.8(3)
C16 C15 C14 119.0(3)
C15 C16 C17 119.7(3)
C16 C17 C18 122.4(3)
C16 C17 Cl1 118.8(3)
C18 C17 Cl1 118.8(3)
O3 C18 C19 118.9(3)
O3 C18 C17 123.6(3)
C19 C18 C17 117.5(3)
C18 C19 C14 120.4(3)
C18 C19 C9 128.8(3)
C14 C19 C9 110.8(3)
loop_
_geom_bond_atom_site_label_1
_geom_bond_atom_site_label_2
_geom_bond_distance
Cl1 C17 1.747(3)
O1 C2 1.192(4)
O2 C2 1.342(4)
O2 C3 1.412(3)
O3 C18 1.352(4)
C1 C2 1.484(4)
C3 C8 1.373(4)
C3 C4 1.385(4)
C4 C5 1.378(4)
C5 C6 1.375(5)
C6 C7 1.379(4)
C7 C8 1.389(4)
C7 C11 1.500(5)
C8 C9 1.517(3)
C9 C19 1.516(4)
C9 C10 1.548(4)
C9 C12 1.557(4)
C10 C11 1.537(4)
C12 C13 1.524(4)
C13 C14 1.507(5)
C14 C15 1.387(4)
C14 C19 1.393(4)
C15 C16 1.372(6)
C16 C17 1.387(5)
C17 C18 1.389(4)
C18 C19 1.385(4)
