#------------------------------------------------------------------------------
#$Date: 2019-10-28 17:41:46 +0200 (Mon, 28 Oct 2019) $
#$Revision: 220153 $
#$URL: file:///home/coder/svn-repositories/cod/cif/4/51/50/4515012.cif $
#------------------------------------------------------------------------------
#
# This file is available in the Crystallography Open Database (COD),
# http://www.crystallography.net/
#
# All data on this site have been placed in the public domain by the
# contributors.
#
data_4515012
loop_
_publ_author_name
'Arg\"uello-Velasco, Rub\'en Oswaldo'
'Dziuk, B\/la\.zej'
'Zarychta, Bartosz'
'Ord\'o\~nez, Mario'
'Kafarski, Pawe\/l'
_publ_section_title
;
 Reactions of Piperazin-2-one, Morpholin-3-one, and Thiomorpholin-3-one
 with Triethyl Phosphite Prompted by Phosphoryl Chloride: Scope and
 Limitations.
;
_journal_issue                   5
_journal_name_full               'ACS omega'
_journal_page_first              9056
_journal_page_last               9064
_journal_paper_doi               10.1021/acsomega.9b01137
_journal_volume                  4
_journal_year                    2019
_chemical_formula_sum            'C4 H13 Cl N2 O6 P2'
_chemical_formula_weight         282.55
_space_group_crystal_system      triclinic
_space_group_IT_number           2
_space_group_name_Hall           '-P 1'
_space_group_name_H-M_alt        'P -1'
_symmetry_space_group_name_Hall  '-P 1'
_symmetry_space_group_name_H-M   'P -1'
_atom_sites_solution_hydrogens   geom
_audit_creation_method           SHELXL-2014/7
_cell_angle_alpha                98.880(5)
_cell_angle_beta                 99.850(6)
_cell_angle_gamma                97.871(6)
_cell_formula_units_Z            2
_cell_length_a                   7.9283(6)
_cell_length_b                   8.0672(4)
_cell_length_c                   8.2847(5)
_cell_measurement_reflns_used    3463
_cell_measurement_temperature    100.0(1)
_cell_measurement_theta_max      25.998
_cell_measurement_theta_min      3.281
_cell_volume                     508.50(6)
_computing_cell_refinement       'CrysAlisCCD (Oxford Diffraction Ltd., 2008)'
_computing_data_collection       'CrysAlisCCD (Oxford Diffraction Ltd., 2008)'
_computing_data_reduction        'CrysAlisCCD (Oxford Diffraction Ltd., 2008)'
_computing_molecular_graphics    'SHELXTL (Sheldrick, 2008)'
_computing_publication_material  'SHELXL-2014/7 (Sheldrick, 2014)'
_computing_structure_refinement  'SHELXL-2014/7 (Sheldrick, 2014)'
_computing_structure_solution    'SHELXS-2014/7 (Sheldrick, 2014)'
_diffrn_ambient_temperature      100.0(1)
_diffrn_detector_area_resol_mean '1024 x 1024 with blocks 2 x 2'
_diffrn_measured_fraction_theta_full 0.987
_diffrn_measured_fraction_theta_max 0.986
_diffrn_measurement_device_type  Xcalibur
_diffrn_measurement_method       \w--scan
_diffrn_radiation_type           MoK\a
_diffrn_radiation_wavelength     0.71073
_diffrn_reflns_av_R_equivalents  0.0400
_diffrn_reflns_av_unetI/netI     0.0505
_diffrn_reflns_Laue_measured_fraction_full 0.987
_diffrn_reflns_Laue_measured_fraction_max 0.986
_diffrn_reflns_limit_h_max       9
_diffrn_reflns_limit_h_min       -9
_diffrn_reflns_limit_k_max       9
_diffrn_reflns_limit_k_min       -9
_diffrn_reflns_limit_l_max       10
_diffrn_reflns_limit_l_min       -5
_diffrn_reflns_number            3463
_diffrn_reflns_point_group_measured_fraction_full 0.987
_diffrn_reflns_point_group_measured_fraction_max 0.986
_diffrn_reflns_theta_full        25.242
_diffrn_reflns_theta_max         25.998
_diffrn_reflns_theta_min         3.281
_diffrn_source                   'fine-focus sealed tube'
_exptl_absorpt_coefficient_mu    0.703
_exptl_absorpt_correction_type   none
_exptl_crystal_colour            colourless
_exptl_crystal_density_diffrn    1.845
_exptl_crystal_density_method    'not measured'
_exptl_crystal_description       plate
_exptl_crystal_F_000             292
_exptl_crystal_size_max          0.5
_exptl_crystal_size_mid          0.45
_exptl_crystal_size_min          0.4
_refine_diff_density_max         0.987
_refine_diff_density_min         -0.700
_refine_diff_density_rms         0.141
_refine_ls_extinction_method     none
_refine_ls_goodness_of_fit_ref   1.088
_refine_ls_hydrogen_treatment    mixed
_refine_ls_matrix_type           full
_refine_ls_number_parameters     142
_refine_ls_number_reflns         1957
_refine_ls_number_restraints     7
_refine_ls_restrained_S_all      1.087
_refine_ls_R_factor_all          0.0648
_refine_ls_R_factor_gt           0.0553
_refine_ls_shift/su_max          0.000
_refine_ls_shift/su_mean         0.000
_refine_ls_structure_factor_coef Fsqd
_refine_ls_weighting_details
'w=1/[\s^2^(Fo^2^)+(0.0931P)^2^+0.5214P] where P=(Fo^2^+2Fc^2^)/3'
_refine_ls_weighting_scheme      calc
_refine_ls_wR_factor_gt          0.1491
_refine_ls_wR_factor_ref         0.1542
_reflns_Friedel_coverage         0.000
_reflns_number_gt                1622
_reflns_number_total             1966
_reflns_threshold_expression     'I > 2\s(I)'
_cod_data_source_file            ao9b01137_si_002.cif
_cod_data_source_block           BD189_a
_cod_database_code               4515012
_shelx_shelxl_version_number     2014/7
_shelx_space_group_comment
;
The symmetry employed for this shelxl refinement is uniquely defined
by the following loop, which should always be used as a source of
symmetry information in preference to the above space-group names.
They are only intended as comments.
;
_shelx_res_file
;

    BD189_a.res created by SHELXL-2014/7


TITL BD189_a.res in P-1
REM Old TITL BD189 in P-1
REM SHELXT solution in P-1
REM R1 0.140,  Rweak 0.010,  Alpha 0.049,  Orientation as input
REM Formula found by SHELXT:  C10 O2 P3
CELL  0.71073   7.9283   8.0672   8.2847   98.880   99.850   97.871
ZERR    2.000   0.0006   0.0004   0.0005    0.005    0.006    0.006
LATT  1
SFAC C H O N P Cl
UNIT 8.00 26.00 12.00 4.00 4.00  2
OMIT -4 52
OMIT    -4  -2   7
OMIT    -6   5   1
OMIT    -6  -1   1
OMIT     0   3   0
OMIT    -8  -1   1
OMIT    -6   2   1
OMIT    -2  -1   1
OMIT    -5   3   0
OMIT     5   3   0
ACTA
HTAB
EQIV $1 -x+1, -y, -z+1
HTAB C1 O1_$1
EQIV $2 x, y, z-1
HTAB C3 Cl1_$2
EQIV $3 -x+1, -y+1, -z+1
HTAB C3 O3_$3
EQIV $4 x, y, z+1
HTAB O1 O6_$4
EQIV $5 x+1, y, z
HTAB O2 Cl1_$5
HTAB O4 Cl1_$3
HTAB N1 Cl1
HTAB N1 O2_$1
HTAB N1 O3_$3
HTAB N2 Cl1_$2
HTAB N2 O6
EQIV $6 -x+1, -y+1, -z
HTAB N2 O6_$6
EQIV $7 -x+1, -y, -z
HTAB N2 O5_$7
CONF
L.S. 10
BOND $H
LIST 6
FMAP 2
PLAN 20
SIMU 0.005 O1 > H2C
delu 0.005 O1 > H2C
DFIX 0.92 0.01 O4 H4
WGHT    0.093100    0.521400
FVAR       0.74471
P1    5    0.652739    0.272022    0.525481    11.00000    0.01690    0.00977 =
         0.00697    0.00217    0.00210    0.00333
P2    5    0.682279    0.279840    0.093119    11.00000    0.01591    0.00959 =
         0.00740    0.00144    0.00315    0.00393
CL1   6    0.134654    0.246570    0.704478    11.00000    0.01846    0.01523 =
         0.00983    0.00297    0.00258    0.00388
C1    1    0.480255    0.196086    0.338600    11.00000    0.01704    0.00788 =
         0.00742    0.00156    0.00419    0.00583
AFIX  13
H1    2    0.482089    0.075948    0.297104    11.00000   -1.20000
AFIX   0
C2    1    0.494175    0.295909    0.197177    11.00000    0.01532    0.00987 =
         0.00849   -0.00016    0.00434    0.00187
AFIX  13
H2    2    0.495863    0.416287    0.240834    11.00000   -1.20000
AFIX   0
C3    1    0.166500    0.244371    0.118363    11.00000    0.01592    0.01625 =
         0.01028    0.00412    0.00355    0.00557
AFIX  23
H3A   2    0.069665    0.199573    0.026240    11.00000   -1.20000
H3B   2    0.159738    0.362122    0.159285    11.00000   -1.20000
AFIX   0
C4    1    0.157090    0.141754    0.256438    11.00000    0.01680    0.01103 =
         0.01028    0.00173    0.00208    0.00234
AFIX  23
H4A   2    0.050457    0.149856    0.297437    11.00000   -1.20000
H4B   2    0.158185    0.022911    0.214354    11.00000   -1.20000
AFIX   0
O1    3    0.567214    0.213754    0.664906    11.00000    0.02190    0.01476 =
         0.00720    0.00196    0.00327    0.00014
AFIX 148
H1C   2    0.612395    0.294870    0.768561    11.00000   -1.50000
AFIX   0
O2    3    0.786922    0.153608    0.485335    11.00000    0.01802    0.01509 =
         0.01450    0.00063   -0.00242    0.00583
AFIX 148
H2C   2    0.877275    0.192934    0.538295    11.00000   -1.50000
AFIX   0
O3    3    0.715734    0.456776    0.548177    11.00000    0.02188    0.00824 =
         0.01162    0.00162    0.00387    0.00323
O4    3    0.844638    0.376326    0.222042    11.00000    0.01887    0.01109 =
         0.01076    0.00149    0.00318    0.00175
AFIX 148
H4    2    0.842680    0.491041    0.236107    11.00000   -1.50000
AFIX   0
O5    3    0.700997    0.099097    0.045771    11.00000    0.02317    0.00960 =
         0.01501    0.00158    0.00636    0.00536
O6    3    0.640409    0.376303   -0.050399    11.00000    0.02031    0.01545 =
         0.00669    0.00332    0.00404    0.00390
N1    4    0.310121    0.211177    0.393808    11.00000    0.01900    0.00879 =
         0.01064    0.00350    0.00507    0.00310
AFIX  23
H1A   2    0.302990    0.155348    0.477692    11.00000   -1.20000
H1B   2    0.307800    0.320233    0.431045    11.00000   -1.20000
AFIX   0
N2    4    0.334905    0.233965    0.060254    11.00000    0.01718    0.01133 =
         0.00791    0.00282    0.00159    0.00431
AFIX  23
H2A   2    0.340747    0.295596   -0.019549    11.00000   -1.20000
H2B   2    0.335650    0.126355    0.015965    11.00000   -1.20000
AFIX   0
HKLF 4

REM  BD189_a.res in P-1
REM R1 =  0.0553 for    1613 Fo > 4sig(Fo)  and  0.0648 for all    1957 data
REM    142 parameters refined using      7 restraints

END

WGHT      0.0931      0.5214

REM Instructions for potential hydrogen bonds
HTAB C1 O1_$1
HTAB C3 Cl1_$2
HTAB C3 O3_$3
HTAB O1 O6_$4
HTAB O2 Cl1_$5
HTAB O4 Cl1_$3
HTAB N1 Cl1
HTAB N1 O2_$1
HTAB N1 O3_$3
HTAB N2 Cl1_$2
HTAB N2 O6
HTAB N2 O6_$6
HTAB N2 O5_$7

REM Highest difference peak  0.987,  deepest hole -0.700,  1-sigma level  0.141
Q1    1   0.5821  0.3043  0.1373  11.00000  0.05    0.99
Q2    1   0.2507  0.2490  0.6971  11.00000  0.05    0.88
Q3    1   0.0280  0.2629  0.7372  11.00000  0.05    0.80
Q4    1   0.8164  0.3186  0.1170  11.00000  0.05    0.77
Q5    1   0.5319  0.2576  0.5241  11.00000  0.05    0.67
Q6    1   0.2388  0.2401  0.1016  11.00000  0.05    0.62
Q7    1   0.7278  0.3638  0.1961  11.00000  0.05    0.62
Q8    1   0.3561  0.2420  0.6808  11.00000  0.05    0.58
Q9    1   0.1193  0.1621  0.5959  11.00000  0.05    0.49
Q10   1   0.7703  0.2743  0.5241  11.00000  0.05    0.47
Q11   1   0.5547  0.1843  0.4025  11.00000  0.05    0.46
Q12   1   0.7596  0.2268  0.4551  11.00000  0.05    0.45
Q13   1   0.4584  0.2387  0.7096  11.00000  0.05    0.45
Q14   1   0.6165  0.4615  0.5622  11.00000  0.05    0.45
Q15   1   0.9043  0.3441  0.1587  11.00000  0.05    0.44
Q16   1   0.5933  0.3166  0.6056  11.00000  0.05    0.44
Q17   1   0.3872  0.1944  0.3517  11.00000  0.05    0.44
Q18   1   0.8560  0.3984 -0.1008  11.00000  0.05    0.44
Q19   1   0.6222  0.1407  0.1128  11.00000  0.05    0.43
Q20   1   0.8226  0.4558  0.5258  11.00000  0.05    0.42
;
_shelx_res_checksum              87149
_shelx_hkl_file
;
   0   0   2  409.65    6.79
   0   0   2  415.07    6.65
   0   0   2  404.26    7.43
   0   0   2  377.33    5.54
   0   0   3    7.34    2.72
   0   0   3   10.68    2.28
   0   0   3   11.94    3.41
   0   0   3    9.60    2.73
   0   0   4  426.69   11.05
   0   0   4  430.68    9.70
   0   0   4  394.77    8.50
   0   0   4  387.14    9.32
   0   0   5 1166.50   17.75
   0   0   5 1182.98   19.94
   0   0   6    8.02    4.07
   0   0   6   13.02    5.89
   0   0   7  183.18   10.85
   0   0   7  203.55    9.28
   0   0   8   83.42    9.67
   0   0   8   74.95    6.59
   0   0   9    4.72    7.31
   0   0  10   51.25    9.89
   0  -1  11  101.60   12.21
   0  -1  10   25.20    8.53
   0  -1   9  171.48   12.82
   0  -1   8   17.21    6.57
   0  -1   7  604.43   15.72
   0  -1   7  684.13   18.32
   0  -1   7  606.18   14.13
   0  -1   6  754.54   15.71
   0  -1   6  777.72   14.53
   0  -1   6  877.17   18.73
   0  -1   5   15.19    3.18
   0  -1   5   21.29    5.11
   0  -1   5   18.67    4.08
   0  -1   4   19.41    3.52
   0  -1   4   19.06    2.87
   0  -1   4   18.04    3.85
   0  -1   4   19.76    3.47
   0  -1   3 1551.41   13.61
   0  -1   3 1700.66   16.15
   0  -1   3 1611.35   16.77
   0  -1   3 1587.31   16.33
   0  -1   2 2488.51   13.62
   0  -1   2 2263.03   16.21
   0  -1   2 2229.95   15.35
   0  -1   2 2139.17   16.18
   0  -1   1  346.39    5.25
   0  -1   1  316.41    4.93
   0   1   1  399.59    6.66
   0   1   1  393.08    6.10
   0   1   2 1950.52   16.71
   0   1   2 1939.40   16.86
   0   1   2 1791.79    8.66
   0   1   3   68.58    4.73
   0   1   3   64.46    4.72
   0   1   3   56.82    2.58
   0   1   4    2.30    3.79
   0   1   4    1.72    1.87
   0   1   4    1.60    3.34
   0   1   5   11.87    5.32
   0   1   5   12.52    4.06
   0   1   6  302.79   12.90
   0   1   6  257.85   10.61
   0   1   7  728.66   18.38
   0   1   7  776.28   20.91
   0   1   8  125.78    8.67
   0   1   8  140.26   11.15
   0   1   9    9.17    7.16
   0   1  10   16.10    8.31
   0  -2  11   12.69    8.10
   0  -2  10  381.05   17.62
   0  -2   9  146.11   10.57
   0  -2   9  170.52   11.48
   0  -2   8   87.89    8.39
   0  -2   8   78.88    8.03
   0  -2   7  340.24   13.54
   0  -2   7  338.12   12.22
   0  -2   6    6.51    4.83
   0  -2   6   12.87    5.24
   0  -2   6    8.96    2.99
   0  -2   5 2820.59   27.07
   0  -2   5 2537.69   22.25
   0  -2   5 2732.26   27.91
   0  -2   4  241.16    7.72
   0  -2   4  257.74    8.06
   0  -2   3  262.12    7.17
   0  -2   3  261.88    6.98
   0  -2   2   70.20    3.38
   0  -2   2   74.18    4.08
   0  -2   1   76.53    2.86
   0  -2   1   83.86    3.96
   0   2   0 9621.32   37.87
   0  -2   0 9999.00   31.62
   0   2   1   27.96    2.94
   0   2   1   35.70    4.02
   0   2   2   72.95    4.43
   0   2   2   74.86    5.00
   0   2   3  639.99   12.79
   0   2   3  537.95    4.82
   0   2   3  664.93   13.06
   0   2   4   10.68    4.51
   0   2   4   11.62    4.45
   0   2   5  271.14   10.89
   0   2   5  271.04   11.38
   0   2   6   -0.64    4.73
   0   2   6    0.70    5.88
   0   2   7   14.66    4.88
   0   2   7   10.58    6.55
   0   2   8    5.39    4.89
   0   2   8   16.13    6.80
   0   2   9   99.33    9.05
   0   2   9   79.72   10.26
   0   2  10   85.75   11.48
   0  -3  10   -1.09    6.56
   0  -3  10    8.72    6.72
   0  -3   9   87.78    8.84
   0  -3   9   88.98    8.95
   0  -3   8   11.24    5.86
   0  -3   8    7.23    5.54
   0  -3   7  183.29    9.38
   0  -3   7  189.40   10.05
   0  -3   6  488.59   13.82
   0  -3   6  426.48   12.63
   0  -3   5  111.21    7.12
   0  -3   5   80.40    5.70
   0  -3   4    0.53    2.88
   0  -3   4   -0.28    3.51
   0  -3   3 3673.88   27.65
   0  -3   3 3640.17   23.49
   0  -3   2 1601.59   13.55
   0  -3   2 1504.85   16.35
   0  -3   1 2393.54   20.08
   0   3   0  252.59    8.00
   0  -3   0  245.21    6.68
   0   3   1  222.61    8.16
   0   3   2  544.64   12.86
   0   3   2  437.63    4.67
   0   3   2  508.59   10.79
   0   3   3  426.18   12.04
   0   3   3  405.29   10.94
   0   3   4   -2.01    4.66
   0   3   4    1.38    4.67
   0   3   5   20.79    5.96
   0   3   5   10.79    5.64
   0   3   6   36.13    5.87
   0   3   6   46.49    7.38
   0   3   7  497.58   17.91
   0   3   7  485.52   17.08
   0   3   8   46.89    7.35
   0   3   8   53.16    8.36
   0   3   9   33.84    9.05
   0   3   9   33.26    6.51
   0  -4  10  250.54   14.16
   0  -4   9   64.62    8.29
   0  -4   8   69.84    7.65
   0  -4   8   69.05    7.49
   0  -4   7   16.60    5.77
   0  -4   7   15.15    5.17
   0  -4   6    5.70    4.36
   0  -4   6    2.12    5.71
   0  -4   5  812.89   15.10
   0  -4   5 1020.06   18.36
   0  -4   4   35.74    3.92
   0  -4   4   36.56    5.00
   0  -4   3   55.83    3.60
   0  -4   3   56.79    5.42
   0  -4   2  211.44    5.79
   0  -4   2  223.69    7.93
   0   4  -1   84.53    5.85
   0  -4   1   99.33    5.63
   0   4   0  858.27   16.05
   0  -4   0  914.60   14.30
   0  -4  -1  421.42   10.26
   0   4   1  419.74   12.02
   0   4   2  229.28   10.77
   0   4   2  163.89    3.80
   0   4   3   15.52    4.65
   0   4   3   16.35    5.24
   0   4   4  242.20   10.71
   0   4   4  245.06   11.31
   0   4   5  555.32   16.61
   0   4   5  636.11   19.22
   0   4   6   -0.37    5.66
   0   4   6    2.79    5.99
   0   4   7   54.50    8.39
   0   4   7   48.47    8.43
   0   4   8   10.39    5.78
   0   4   8   20.96    7.47
   0   4   9  127.57   11.34
   0   4   9  114.88   12.04
   0  -5  10   23.58    7.62
   0  -5   9   33.46    7.36
   0  -5   8   -0.67    6.49
   0  -5   7  254.82   12.18
   0  -5   6  773.92   18.17
   0  -5   5    2.22    5.45
   0  -5   4   30.04    3.79
   0  -5   4   28.30    5.54
   0  -5   3 1910.10   24.23
   0  -5   3 1749.31   17.48
   0  -5   2  185.07    5.98
   0   5  -2  206.39    8.82
   0  -5   2  227.69    8.97
   0  -5   1  603.19   13.38
   0   5  -1  564.38   14.70
   0   5   0    4.80    4.73
   0  -5   0    5.53    4.28
   0  -5  -1  117.37    7.14
   0   5   1  146.15    8.66
   0  -5  -2 1437.46   21.38
   0   5   2 1540.10   26.29
   0   5   3    4.25    5.82
   0   5   4  155.11   10.21
   0   5   5  292.07   14.13
   0   5   6  174.38   12.68
   0   5   7  255.34   14.97
   0   5   8   -3.94    7.10
   0  -6   9  170.57   11.31
   0  -6   8   36.58    7.51
   0  -6   7   13.41    6.60
   0  -6   6    8.54    5.21
   0  -6   5  584.46   16.13
   0  -6   4  712.04   17.14
   0   6  -3   83.77    7.13
   0  -6   3   78.12    7.13
   0   6  -2  420.74   13.96
   0  -6   2  457.70   13.45
   0   6  -1  102.87    8.07
   0  -6   1   84.27    7.32
   0  -6   0  660.03   15.67
   0   6   0  672.50   17.90
   0  -6  -1    2.16    5.60
   0   6   1    1.09    5.80
   0   6   2  151.81   10.71
   0  -6  -2  135.52    8.58
   0  -6  -3    9.01    5.96
   0   6   3   13.92    6.58
   0   6   4  253.03   13.31
   0   6   5  161.27   11.97
   0   6   6   24.73    7.98
   0   6   7   55.06    8.94
   0  -7   9    2.82    7.22
   0  -7   8   96.50    9.96
   0  -7   7   42.69    7.30
   0  -7   6  213.64   11.72
   0  -7   5  320.70   13.04
   0  -7   4  193.97   10.75
   0  -7   3 1164.46   22.50
   0   7  -3 1114.87   23.42
   0  -7   2    3.88    5.49
   0   7  -2    5.34    5.11
   0   7  -1    1.59    5.82
   0  -7   1    2.87    5.39
   0   7   0   61.20    7.92
   0  -7   0   67.70    7.25
   0   7   1   79.01    8.82
   0  -7  -1   71.85    7.45
   0  -7  -2  461.43   14.55
   0   7   2  537.86   18.68
   0   7   3   97.33    9.73
   0  -7  -3   87.57    8.29
   0   7   4    4.11    6.24
   0  -7  -4    5.90    6.46
   0  -7  -5   70.74    8.03
   0   7   5   76.93    9.60
   0   7   6   19.87    8.52
   0  -8   8   54.29    9.38
   0  -8   7   23.77    7.10
   0  -8   6   79.95    8.48
   0  -8   5  333.72   14.34
   0  -8   4  296.87   13.36
   0   8  -3    4.19    4.77
   0  -8   3    3.42    5.80
   0   8  -2   13.70    6.10
   0  -8   2   16.45    6.35
   0   8  -1   96.20    9.17
   0  -8   1  108.88    9.24
   0  -8   0  262.79   12.50
   0   8   0  271.57   14.12
   0  -8  -1   13.78    6.14
   0   8   1    8.52    6.37
   0  -8  -2   52.54    7.87
   0   8   2   47.00    8.26
   0  -8  -3    6.28    5.98
   0   8   3    7.02    6.82
   0  -8  -4   19.96    6.82
   0   8   4   16.82    7.56
   0  -8  -5   46.66    7.67
   0   8   5   57.59    9.41
   0  -9   7    9.66    7.16
   0  -9   6   39.01    7.84
   0  -9   5   42.50    7.43
   0  -9   4   99.49    9.69
   0  -9   3  148.45   10.40
   0  -9   2   -0.56    5.99
   0   9  -2    0.24    5.75
   0  -9   1   55.77    7.67
   0   9  -1   45.55    7.73
   0  -9   0   77.77    9.15
   0   9   0   70.64    9.31
   0   9   1   43.96    9.00
   0  -9  -1   46.49    8.10
   0   9   2  136.69   12.42
   0  -9  -2  153.85   10.96
   0   9   3  152.97   13.04
   0  -9  -3  157.63   11.30
   0  -9  -4   -7.85    7.12
   0 -10   5  321.90   16.23
   0 -10   4  214.30   13.51
   0 -10   3   40.80    8.13
   0 -10   2    7.75    7.19
   0  10  -1    9.54    6.87
   0 -10   1    4.84    6.60
   0  10   0   16.85    7.49
   0 -10   0   16.51    6.50
   0  10   1   86.50   10.95
   0 -10  -1   99.31    9.41
   0 -10  -2   32.06    7.98
   1 -11   1    1.92    7.41
   1 -11   2    1.80    7.60
  -1  10   2   18.66    7.50
  -1  10   1    5.39    7.28
   1 -10  -1    3.30    6.88
   1 -10   0   73.13    8.86
  -1  10   0   54.78    8.23
   1 -10   1    0.30    6.78
   1 -10   2  487.20   17.75
   1 -10   3   16.02    6.95
   1 -10   4   27.68    7.22
   1 -10   5   28.89    7.69
  -1   9   4   58.83    9.77
  -1   9   3   26.76    7.69
   1  -9  -2   -7.76    5.98
  -1   9   2   -8.55    6.13
   1  -9  -1  100.30    9.17
  -1   9   1  100.24    9.65
   1  -9   0   72.27    7.87
  -1   9   0   68.16    8.84
   1  -9   1    8.90    5.98
  -1   9  -1   11.36    5.72
   1  -9   2   31.21    6.81
   1  -9   3    0.75    6.01
   1  -9   4   79.22    8.74
   1  -9   5   91.64    8.94
   1  -9   6    0.08    6.43
   1  -9   7  279.82   14.89
  -1   8   5   32.22    8.47
  -1   8   4    4.58    7.06
   1  -8  -3  307.10   12.96
  -1   8   3  331.48   16.03
   1  -8  -2   89.47    8.74
  -1   8   2   87.45    9.25
   1  -8  -1   36.34    6.49
  -1   8   1   40.94    7.24
  -1   8   0   38.89    6.53
   1  -8   0   35.14    6.23
  -1   8  -1   19.93    5.46
   1  -8   1   20.94    6.44
   1  -8   2 1167.58   23.01
   1  -8   3   29.17    6.58
   1  -8   4    3.98    5.09
   1  -8   5  251.51   11.99
   1  -8   6   13.30    5.89
   1  -8   7  314.43   15.09
   1  -8   8   -6.81    6.68
  -1   7   6    1.81    7.44
  -1   7   5  138.50   12.06
   1  -7  -4  300.40   12.49
  -1   7   4  362.37   16.83
  -1   7   3    6.15    5.74
   1  -7  -3    3.52    4.81
  -1   7   2    8.89    5.70
   1  -7  -2    4.57    5.03
   1  -7  -1    3.10    4.89
  -1   7   1    1.65    5.22
  -1   7   0   21.05    5.66
   1  -7   0   20.44    5.33
   1  -7   1   87.97    7.43
  -1   7  -1   84.94    7.39
  -1   7  -2  110.59    8.16
   1  -7   2  118.32    8.60
   1  -7   3  503.89   14.98
   1  -7   4  406.57   13.88
   1  -7   5   36.28    6.68
   1  -7   6    2.72    5.31
   1  -7   7  428.42   16.67
   1  -7   8   71.57    9.01
   1  -7   9  272.56   15.36
  -1   6   7   98.26   11.14
  -1   6   6  123.04   12.02
  -1   6   5   91.13    9.81
   1  -6  -4   47.86    6.43
  -1   6   4   52.87    7.58
   1  -6  -3  466.91   13.45
  -1   6   3  508.05   16.43
   1  -6  -2  339.21   11.17
  -1   6   2  361.89   14.03
  -1   6   1    6.36    5.15
   1  -6  -1    7.83    5.06
  -1   6   0  543.62   15.10
   1  -6   0  554.48   13.79
  -1   6  -1  110.98    7.41
   1  -6   1  105.53    7.32
   1  -6   2 2036.73   23.33
  -1   6  -2 1960.71   25.43
   1  -6   3  105.97    6.39
  -1   6  -3   87.30    6.28
   1  -6   3  112.04    7.92
   1  -6   4  159.37    9.10
   1  -6   4  139.08    6.77
   1  -6   5  236.85   10.92
   1  -6   6   10.79    5.76
   1  -6   7  103.34    9.02
   1  -6   8   44.52    8.57
   1  -6   9    8.28    6.39
  -1   5   8   31.17    7.96
  -1   5   7   39.03    8.71
  -1   5   6   68.70    8.98
  -1   5   5    5.49    5.87
  -1   5   4 1335.23   26.93
  -1   5   3   64.82    7.49
  -1   5   2   32.05    5.75
   1  -5  -2   31.04    5.15
  -1   5   2   27.31    2.98
   1  -5  -1  911.65   15.33
  -1   5   1  963.41   18.91
   1  -5   0   96.53    6.07
  -1   5   0   91.76    6.63
  -1   5  -1   58.67    5.47
   1  -5   1   63.35    5.37
  -1   5  -2  580.73   12.41
   1  -5   2  707.12   13.95
   1  -5   2  699.09   13.05
   1  -5   3  379.35   10.23
   1  -5   3  356.85   11.06
  -1   5  -3  337.80    9.54
   1  -5   4  653.50   13.67
   1  -5   4  649.48   15.14
   1  -5   5   41.37    6.57
   1  -5   5   39.20    5.13
   1  -5   6   91.47    7.67
   1  -5   6  126.61    8.85
   1  -5   7  165.96    9.58
   1  -5   7  183.84   10.75
   1  -5   8  161.95   10.59
   1  -5   9   51.52    8.52
   1  -5  10  115.83   10.87
  -1   4   9   33.03    7.90
  -1   4   8  213.97   13.58
  -1   4   7  563.21   19.45
  -1   4   6  205.74   11.97
  -1   4   5   87.14    8.64
  -1   4   4  206.63   11.14
  -1   4   3  308.07    5.96
  -1   4   3  375.56   12.55
  -1   4   2   28.94    2.56
  -1   4   2   36.45    5.17
   1  -4  -2   31.84    4.13
  -1   4   1    7.64    3.88
   1  -4  -1    8.44    3.09
   1  -4   0  632.34   11.34
  -1   4   0  595.09   12.54
   1  -4   1   72.46    4.87
  -1   4  -1   60.30    4.55
   1  -4   2  226.86    7.60
   1  -4   2  227.88    7.48
  -1   4  -2  217.48    7.06
   1  -4   3    9.95    3.68
   1  -4   3    9.50    3.50
   1  -4   4  804.92   15.09
   1  -4   4  837.83   15.62
   1  -4   5    7.50    4.41
   1  -4   5    3.06    5.07
   1  -4   6   51.18    6.32
   1  -4   6   83.19    8.13
   1  -4   7   95.68    8.13
   1  -4   7   88.26    7.85
   1  -4   8   20.24    6.58
   1  -4   8   18.31    5.59
   1  -4   9  152.62   10.97
   1  -4   9  139.94   10.69
   1  -4  10   -0.93    7.01
  -1   3  10    8.76    7.57
  -1   3   9  742.55   24.04
  -1   3   9  744.91   25.00
  -1   3   8   59.59    7.55
  -1   3   8   47.83    8.71
  -1   3   7   22.06    9.45
  -1   3   7   24.35    6.18
  -1   3   6   -1.56    5.38
  -1   3   6   14.07    6.19
  -1   3   5   42.12    6.89
  -1   3   5   43.45    7.12
  -1   3   4  449.07    6.81
  -1   3   4  496.93   13.61
  -1   3   4  555.63   15.20
  -1   3   3   17.89    1.95
  -1   3   3   22.14    4.89
  -1   3   2   28.04    2.38
  -1   3   2   29.45    4.12
   1  -3  -1 2140.97   17.09
  -1   3   1 2181.01   22.20
  -1   3   0 1032.05   13.47
   1  -3   0  981.36   11.85
  -1   3  -1  309.79    7.12
   1  -3   1  315.31    7.22
   1  -3   2    0.98    2.58
   1  -3   2    0.53    2.69
  -1   3  -2    2.11    1.80
   1  -3   3  185.81    6.95
   1  -3   3  152.59    6.22
   1  -3   4    5.16    3.58
   1  -3   4   11.12    4.12
   1  -3   5   30.59    6.01
   1  -3   5   12.92    5.00
   1  -3   6   75.57    7.26
   1  -3   6   77.59    7.38
   1  -3   7  575.32   17.19
   1  -3   7  559.46   16.14
   1  -3   8  132.28   10.29
   1  -3   8  119.90    9.45
   1  -3   9   29.38    7.49
   1  -3   9   24.31    7.45
   1  -3  10    6.57    6.61
   1  -3  11   19.02    8.08
  -1   2  10    6.34    8.22
  -1   2  10    6.41    6.78
  -1   2   9   24.61    7.44
  -1   2   9   28.29    7.02
  -1   2   8    8.58    4.79
  -1   2   8   10.76    6.63
  -1   2   7  395.54   15.22
  -1   2   7  391.30   14.76
  -1   2   6  218.81   11.29
  -1   2   6  231.08   11.25
  -1   2   5   88.06    7.11
  -1   2   5   81.74    7.41
  -1   2   5   73.12    3.86
  -1   2   4   63.06    5.77
  -1   2   4   57.06    3.04
  -1   2   4   63.27    6.05
  -1   2   3   97.09    5.83
  -1   2   3  107.32    6.16
  -1   2   3   95.02    3.60
  -1   2   2   34.96    2.39
  -1   2   2   35.92    4.11
  -1   2   1   83.89    3.20
   1  -2  -1   80.39    3.26
  -1   2   1   81.69    4.42
  -1   2   0 1804.08   14.13
   1  -2   0 1852.65   12.37
   1  -2   1   65.89    3.99
   1  -2   1   69.26    3.70
  -1   2  -1   67.47    2.87
   1  -2   2    7.65    3.09
   1  -2   2    1.97    2.50
   1  -2   3   39.21    4.04
   1  -2   3   31.30    3.97
   1  -2   4  364.61    6.50
   1  -2   4  430.04   10.55
   1  -2   4  433.73   11.37
   1  -2   5    5.46    2.23
   1  -2   5    7.30    4.59
   1  -2   5    8.62    4.33
   1  -2   6    3.28    5.34
   1  -2   6   -1.52    5.20
   1  -2   7  338.27   12.55
   1  -2   7  370.13   14.37
   1  -2   8    0.14    6.10
   1  -2   8   11.95    6.19
   1  -2   9  422.09   17.71
   1  -2  10   27.85    9.20
  -1   1  10   12.88    7.32
  -1   1   9  784.85   23.37
  -1   1   9  745.97   20.88
  -1   1   8    6.82    7.08
  -1   1   8    3.23    4.72
  -1   1   7   37.48    6.03
  -1   1   7   25.12    6.78
  -1   1   6   -0.03    2.81
  -1   1   6    5.18    4.22
  -1   1   6    2.40    5.73
  -1   1   5   28.16    5.50
  -1   1   5   36.67    5.15
  -1   1   5   31.40    3.35
  -1   1   4   42.07    4.55
  -1   1   4   37.48    4.88
  -1   1   4   33.19    2.90
  -1   1   3   -0.33    1.79
  -1   1   3    0.38    2.97
  -1   1   3    1.19    3.00
  -1   1   2  888.43   12.21
  -1   1   2  834.34   11.16
  -1   1   2  854.86    8.81
  -1   1   1  779.41    7.50
  -1   1   1  630.50    8.56
  -1   1   0  157.41    3.13
   1  -1   1  350.57    5.41
   1  -1   1  278.83    5.91
   1  -1   2 1467.67   13.57
   1  -1   2 1236.62   13.86
   1  -1   3 2138.70   19.76
   1  -1   3 2115.57   21.43
   1  -1   3 1942.97   14.01
   1  -1   4  349.24    9.39
   1  -1   4  316.67    6.96
   1  -1   4  342.14   10.40
   1  -1   5  392.55    9.00
   1  -1   5  460.39   13.57
   1  -1   5  386.59   11.14
   1  -1   6   48.53    4.26
   1  -1   6   57.99    6.80
   1  -1   6   56.59    7.26
   1  -1   7 1438.89   27.47
   1  -1   8   77.56    9.11
   1  -1   9   78.85   10.03
   1  -1  10    1.16    8.58
  -1   0  11   26.97    8.20
  -1   0  10   10.13    7.58
  -1   0   9  188.82   10.75
  -1   0   9  208.21   12.83
  -1   0   8   12.16    6.46
  -1   0   8   11.05    4.10
  -1   0   7  740.09   15.91
  -1   0   7  764.24   19.29
  -1   0   7  732.86   16.96
  -1   0   6   16.68    5.74
  -1   0   6   16.02    4.54
  -1   0   6   16.18    3.86
  -1   0   6   20.23    4.54
  -1   0   5   15.12    3.07
  -1   0   5   22.80    4.81
  -1   0   5   16.81    3.66
  -1   0   5   14.45    3.74
  -1   0   4  122.73    5.23
  -1   0   4  139.73    6.26
  -1   0   4  134.38    5.41
  -1   0   4  153.35    6.84
  -1   0   3  401.35    8.53
  -1   0   3  363.75    7.09
  -1   0   3  392.42    8.57
  -1   0   3  350.98    6.81
  -1   0   2 2496.71   17.56
  -1   0   2 2523.52   15.40
  -1   0   2 2389.84   13.26
  -1   0   2 2546.51   16.38
  -1   0   1   38.31    2.01
  -1   0   1   26.04    1.80
   1   0   1    8.22    1.59
   1   0   1    5.27    2.13
   1   0   2  115.93    3.82
   1   0   2  135.42    5.61
   1   0   3  576.93    9.58
   1   0   3  568.82   11.69
   1   0   4 1021.63   14.66
   1   0   4 1035.50   17.62
   1   0   5   25.98    3.94
   1   0   5   26.71    6.05
   1   0   6   31.38    7.06
   1   0   6   33.20    4.66
   1   0   7   57.24    7.98
   1   0   7   52.10    5.30
   1   0   8   43.54    8.14
   1   0   9  404.24   18.18
   1   0  10   45.45   10.56
  -1  -1  11   12.70    7.84
  -1  -1  10    0.95    6.60
  -1  -1   9  344.88   15.43
  -1  -1   8   41.50    5.08
  -1  -1   8   44.57    6.19
  -1  -1   8   41.09    6.98
  -1  -1   7  885.50   18.43
  -1  -1   7  829.17   17.23
  -1  -1   7  883.37   21.98
  -1  -1   7  734.25   16.33
  -1  -1   6   11.00    4.43
  -1  -1   6    9.77    4.29
  -1  -1   6   13.14    5.04
  -1  -1   6   13.48    3.81
  -1  -1   5  354.62    9.58
  -1  -1   5  334.08    9.14
  -1  -1   5  390.18   10.62
  -1  -1   5  351.27    9.83
  -1  -1   4    3.55    2.71
  -1  -1   4    3.32    2.88
  -1  -1   4    4.83    2.92
  -1  -1   4    2.17    2.63
  -1  -1   3 2771.10   19.47
  -1  -1   3 2698.16   19.09
  -1  -1   3 2844.83   21.50
  -1  -1   3 2691.36   19.99
  -1  -1   2 2105.10   12.81
  -1  -1   2 2135.22   14.78
  -1  -1   2 2272.26   16.34
  -1  -1   1   80.60    3.18
  -1  -1   1   62.60    3.11
   1   1   0  469.89    5.09
  -1  -1   0  478.59    5.25
   1   1   1    8.02    2.56
   1   1   1   12.75    3.35
   1   1   2 1904.75   18.09
   1   1   2 1931.53   18.42
   1   1   3  217.31    7.88
   1   1   3  223.32    7.20
   1   1   4  646.06   14.75
   1   1   4  595.98   12.71
   1   1   5   37.09    6.29
   1   1   5   37.32    4.85
   1   1   6    6.31    4.45
   1   1   6    7.64    6.16
   1   1   7  215.52   10.36
   1   1   7  204.11   12.50
   1   1   8  112.73   10.60
   1   1   9   35.31    9.41
   1   1  10    9.33    9.19
  -1  -2  11   -0.98    7.52
  -1  -2  10    8.60    6.93
  -1  -2  10   18.31    6.29
  -1  -2   9  247.22   12.11
  -1  -2   9  276.46   13.59
  -1  -2   8    6.79    3.78
  -1  -2   8    8.93    5.84
  -1  -2   8    6.16    5.12
  -1  -2   7  727.77   16.14
  -1  -2   7  783.42   17.91
  -1  -2   7  750.49   16.86
  -1  -2   7  765.98   18.41
  -1  -2   6    3.08    3.36
  -1  -2   6    0.72    4.63
  -1  -2   6    1.51    3.94
  -1  -2   6    5.04    4.36
  -1  -2   5   29.82    4.47
  -1  -2   5   25.36    4.22
  -1  -2   5   30.46    4.87
  -1  -2   5   29.98    3.94
  -1  -2   4    0.56    2.41
  -1  -2   4    2.35    3.28
  -1  -2   4    2.33    3.14
  -1  -2   3  492.99    9.66
  -1  -2   3  462.13    7.48
  -1  -2   3  562.12   10.62
  -1  -2   2  555.91    9.38
  -1  -2   2  549.24    5.48
  -1  -2   1   11.79    2.45
  -1  -2   1   12.95    3.16
  -1  -2   0    7.19    3.14
  -1  -2   0    7.51    1.77
   1   2   0    5.38    1.49
   1   2   1  322.73    9.21
   1   2   1  224.24    6.49
   1   2   2  265.08    7.59
   1   2   2  290.92    8.83
   1   2   3   86.07    5.71
   1   2   3   87.97    5.95
   1   2   4  241.28    9.31
   1   2   4  250.71    9.86
   1   2   5   38.42    5.73
   1   2   5   35.06    6.43
   1   2   6  688.42   19.05
   1   2   6  715.16   18.26
   1   2   7    8.61    5.17
   1   2   7    9.03    6.12
   1   2   8    3.24    5.34
   1   2   8   -1.19    6.35
   1   2   9  377.99   18.69
  -1  -3  11   39.08    8.38
  -1  -3  10   59.40    7.90
  -1  -3   9  112.95    9.32
  -1  -3   9  109.12    9.30
  -1  -3   8    2.58    4.96
  -1  -3   8    0.42    5.00
  -1  -3   7  284.44   11.38
  -1  -3   7  275.01   10.64
  -1  -3   6    7.60    4.12
  -1  -3   6    2.22    5.32
  -1  -3   6    4.19    5.12
  -1  -3   5  314.39    9.04
  -1  -3   5  334.85   10.28
  -1  -3   5  367.63   12.38
  -1  -3   4   55.89    5.15
  -1  -3   4   45.46    3.51
  -1  -3   4   61.24    5.57
  -1  -3   3  591.45    7.82
  -1  -3   3  668.38   12.33
  -1  -3   3  719.94   13.52
  -1  -3   2   46.11    4.06
  -1  -3   2   37.54    4.11
  -1  -3   1   30.75    3.26
  -1  -3   1   34.30    4.18
  -1  -3   0  436.91    7.60
   1   3   0  413.02   10.80
  -1  -3   0  448.25    9.58
   1   3   1    3.21    3.65
   1   3   1    4.96    2.41
   1   3   2  294.16   10.38
   1   3   2  267.01    8.27
   1   3   3 1008.96   18.83
   1   3   3  989.53   17.24
   1   3   4   93.39    7.46
   1   3   4   85.59    7.49
   1   3   5   26.15    7.07
   1   3   5   28.92    6.10
   1   3   6    6.25    5.56
   1   3   6    6.60    5.44
   1   3   7    5.47    5.85
   1   3   7    2.98    6.65
   1   3   8  262.03   15.09
   1   3   8  240.88   13.43
   1   3   9   -2.91    7.75
  -1  -4  10   32.70    8.14
  -1  -4   9  104.27    8.84
  -1  -4   8  121.08    9.24
  -1  -4   7  367.79   13.08
  -1  -4   6   25.45    6.11
  -1  -4   5    1.49    4.52
  -1  -4   5    2.83    3.13
  -1  -4   4 1118.01   18.29
  -1  -4   4 1170.78   20.66
  -1  -4   3 1090.33   17.38
  -1  -4   3 1185.26   18.70
  -1  -4   2  182.56    7.62
  -1  -4   2  192.62    7.89
  -1  -4   2  122.39    2.96
  -1  -4   1  220.06    8.23
   1   4   0    9.66    4.76
  -1  -4   0    7.51    3.88
  -1  -4  -1  815.35   15.15
   1   4   1  888.82   18.20
   1   4   2   57.11    4.97
   1   4   2   71.76    7.30
   1   4   3   22.85    6.26
   1   4   3   20.07    5.06
   1   4   4  213.06   10.34
   1   4   4  228.67   11.59
   1   4   5  129.00    9.43
   1   4   5  143.88    9.81
   1   4   6   85.03    8.81
   1   4   6   87.01    8.89
   1   4   7   23.00    6.79
   1   4   7   16.83    6.18
   1   4   8    8.86    7.43
   1   4   8   16.19    6.68
   1   4   9  491.00   20.37
  -1  -5  10   20.30    7.02
  -1  -5   9   78.50    8.41
  -1  -5   8    1.34    5.40
  -1  -5   7   88.80    8.27
  -1  -5   6    9.17    5.60
  -1  -5   5   58.77    6.75
  -1  -5   4  181.49    9.45
  -1  -5   3    7.49    5.24
  -1  -5   2  568.28   13.89
   1   5  -1   68.32    7.20
  -1  -5   1   79.24    6.61
   1   5   0   -0.39    5.40
  -1  -5   0    3.90    4.79
   1   5   1   20.96    6.46
  -1  -5  -1   16.96    5.45
   1   5   2   57.00    7.76
   1   5   3 1883.26   30.79
   1   5   3 1798.89   25.92
   1   5   4    0.51    4.99
   1   5   4    2.31    5.27
   1   5   5    9.10    5.48
   1   5   5    9.90    9.37
   1   5   6  117.70   10.11
   1   5   6  142.92   11.17
   1   5   7    4.06    6.61
   1   5   7    4.47    6.16
   1   5   8   52.18    9.76
   1   5   8   47.06    7.70
  -1  -6  10   26.00    7.80
  -1  -6   9  242.34   13.76
  -1  -6   8   88.05    8.88
  -1  -6   7  134.10    9.90
  -1  -6   6   90.12    8.28
  -1  -6   5  197.11   10.35
  -1  -6   4  795.97   18.42
  -1  -6   3   45.04    7.11
   1   6  -2   20.11    6.55
  -1  -6   2   22.52    6.25
  -1  -6   1  361.67   12.70
   1   6  -1  377.53   14.65
  -1  -6   0  304.27   12.02
   1   6   0  337.61   14.03
   1   6   1   43.30    7.98
  -1  -6  -1   40.86    6.97
   1   6   2  235.28   13.00
  -1  -6  -2  219.46   10.93
   1   6   3   42.46    8.02
  -1  -6  -3   46.03    6.45
   1   6   4   98.00    9.78
   1   6   5  171.69   11.97
   1   6   6   14.17    7.07
   1   6   7   -3.68    7.45
  -1  -7   9   -1.96    6.96
  -1  -7   8   26.42    7.27
  -1  -7   7  448.48   16.39
  -1  -7   6   60.38    7.75
  -1  -7   5   10.57    6.11
  -1  -7   4   72.13    7.60
  -1  -7   3   -2.31    5.55
   1   7  -3    6.06    5.59
  -1  -7   2  392.02   13.93
   1   7  -2  428.12   16.40
   1   7  -1   47.20    8.30
  -1  -7   1   59.89    7.47
  -1  -7   0    2.90    6.09
   1   7   0    0.14    6.00
   1   7   1   23.48    6.73
  -1  -7  -1   29.57    6.83
   1   7   2   36.27    7.63
  -1  -7  -2   22.17    6.29
   1   7   3  698.59   22.65
  -1  -7  -3  661.38   19.25
   1   7   4    3.05    7.53
  -1  -7  -4    1.17    6.08
   1   7   5   59.34    9.17
  -1  -7  -5   66.21    8.79
   1   7   6   90.95    9.69
  -1  -8   8    4.60    6.84
  -1  -8   7   35.04    7.10
  -1  -8   6    0.91    5.98
  -1  -8   5   55.09    7.28
  -1  -8   4   42.74    7.46
   1   8  -4   40.39    6.81
   1   8  -3   20.23    6.47
  -1  -8   3    7.06    6.04
  -1  -8   2    6.05    5.90
  -1  -8   1  123.10    9.94
   1   8  -1  133.49   10.89
  -1  -8   0  423.88   15.98
   1   8   0  418.63   18.21
  -1  -8  -1    6.87    6.65
   1   8   1    6.66    6.94
   1   8   2   25.79    6.91
  -1  -8  -2   18.18    6.81
   1   8   3   58.51    9.96
  -1  -8  -3   64.66    8.30
  -1  -8  -4    4.42    6.76
   1   8   4   -0.51    7.14
  -1  -8  -5  262.81   15.05
  -1  -9   7  292.34   16.00
  -1  -9   6   65.00    9.51
  -1  -9   5   27.37    7.68
  -1  -9   4   -1.69    6.05
   1   9  -3    9.59    6.02
  -1  -9   3    7.70    6.77
  -1  -9   2  382.04   16.03
   1   9  -2  371.68   17.24
   1   9  -1    4.12    6.24
  -1  -9   1    0.29    6.13
  -1  -9   0    1.66    6.13
   1   9   0    1.95    7.23
  -1  -9  -1   98.57   10.32
   1   9   1  104.48   11.42
   1   9   2   12.61    7.78
  -1  -9  -2    5.87    7.78
  -1  -9  -3  314.39   15.65
   1   9   3  312.64   18.31
  -1  -9  -4   10.10    7.69
  -1 -10   4   24.09    7.08
  -1 -10   3   26.79    7.84
  -1 -10   2   35.24    8.60
   1  10  -2   34.39    8.53
   1  10  -1    0.16    7.75
  -1 -10   1    5.17    6.79
   1  10   0  647.93   24.76
  -1 -10   0  631.38   21.30
  -1 -10  -1    0.55    7.93
  -2  10   2  444.92   20.42
  -2  10   1    8.07    7.18
   2 -10   1   86.40    8.59
   2 -10   2   79.91    8.78
   2 -10   3    4.32    6.33
   2 -10   4    2.64    6.63
   2 -10   5   14.61    6.88
  -2   9   4   37.33    7.98
  -2   9   3   31.54    8.09
  -2   9   2    4.88    6.53
  -2   9   1   26.13    6.88
  -2   9   0  202.46   12.02
   2  -9   0  201.28   10.83
   2  -9   1    7.19    5.05
   2  -9   2    6.88    5.12
   2  -9   3   37.44    6.65
   2  -9   4  190.00   11.41
   2  -9   5  444.77   16.87
   2  -9   6    3.60    6.50
  -2   8   5   80.76   10.46
  -2   8   4   28.65    7.10
  -2   8   3    2.19    6.21
  -2   8   2  190.60   11.91
  -2   8   1  106.48    9.64
   2  -8  -1   88.43    7.64
  -2   8   0    5.25    4.26
   2  -8   0    1.59    4.66
   2  -8   1   22.09    5.97
   2  -8   2   12.02    5.29
   2  -8   3  233.23   11.57
   2  -8   4   14.41    5.59
   2  -8   5   12.61    5.86
   2  -8   6   34.23    7.41
   2  -8   7  165.50   11.74
   2  -8   8  142.33   11.71
  -2   7   6   -0.48    7.16
  -2   7   5  561.33   21.44
  -2   7   4   57.33    8.99
  -2   7   3   21.84    7.44
   2  -7  -2   26.38    4.97
  -2   7   2   30.79    6.32
  -2   7   1  188.53   10.36
   2  -7  -1  189.12    9.02
   2  -7   0  654.21   15.32
  -2   7   0  666.22   17.31
  -2   7  -1   -0.79    4.15
   2  -7   1   -1.66    4.71
   2  -7   2   92.95    7.27
   2  -7   2   96.02    7.47
   2  -7   3    2.04    4.43
   2  -7   3   -1.75    4.68
   2  -7   4  333.82   12.53
   2  -7   5 1278.21   24.76
   2  -7   6  108.18    9.41
   2  -7   7   96.44    9.11
   2  -7   8   11.10    7.13
  -2   6   8   -1.27    7.77
  -2   6   7  329.66   16.94
  -2   6   6   13.75    6.38
  -2   6   5   79.13    9.79
  -2   6   4  219.66   12.41
  -2   6   3   17.23    7.19
   2  -6  -3    9.10    4.55
  -2   6   2  551.18   16.49
   2  -6  -2  462.65   12.21
  -2   6   1  519.20   14.67
   2  -6  -1  497.05   12.44
  -2   6   0  138.77    7.91
   2  -6   0  135.52    7.48
  -2   6  -1    5.60    4.14
   2  -6   1    9.51    3.86
   2  -6   2  343.76   11.72
   2  -6   2  366.07   11.59
  -2   6  -2  279.02    8.98
   2  -6   3  969.92   18.86
   2  -6   3  974.16   18.82
   2  -6   4   10.06    5.05
   2  -6   4   10.88    4.87
   2  -6   5   39.95    5.97
   2  -6   5   49.93    6.63
   2  -6   6  241.16   11.77
   2  -6   6  203.69   10.49
   2  -6   7  134.36   10.17
   2  -6   8  145.21   10.11
   2  -6   9   -0.25    6.89
  -2   5   8   -1.62    6.80
  -2   5   7    0.80    5.77
  -2   5   6    0.95    6.14
  -2   5   5 1485.30   29.82
  -2   5   4    5.14    5.82
  -2   5   3   11.53    6.08
   2  -5  -3    5.97    3.90
  -2   5   2   66.96    6.85
   2  -5  -2   49.25    4.78
  -2   5   2   55.42    4.32
  -2   5   1  688.97   15.28
   2  -5  -1  671.84   12.66
   2  -5   0 1295.46   17.22
  -2   5   0 1362.91   19.44
  -2   5  -1    1.36    2.46
   2  -5   1    2.18    2.99
   2  -5   2   19.62    4.10
   2  -5   2   34.58    5.46
  -2   5  -2   15.45    3.23
   2  -5   3   -0.12    4.22
   2  -5   3    0.51    4.29
   2  -5   4   92.98    7.25
   2  -5   4   86.33    6.73
   2  -5   5  550.70   15.42
   2  -5   5  687.10   17.01
   2  -5   6  120.76    8.91
   2  -5   6   93.77    7.97
   2  -5   7    1.06    5.18
   2  -5   7    4.73    5.87
   2  -5   8    4.96    6.45
   2  -5   8    6.69    5.95
   2  -5   9   56.21    8.36
   2  -5   9   70.56    8.89
  -2   4   9   49.91    7.70
  -2   4   8   61.70    8.53
  -2   4   7  712.50   21.98
  -2   4   6  203.53   11.91
  -2   4   5    0.29    5.99
  -2   4   4  108.85    8.80
  -2   4   3  129.19    5.32
  -2   4   3  152.69    8.70
  -2   4   2 1240.13   15.03
   2  -4  -2 1257.24   14.62
   2  -4  -1   93.23    4.60
  -2   4   1  110.42    6.46
  -2   4   0  112.41    5.46
   2  -4   0  121.71    5.16
  -2   4  -1  157.49    5.54
   2  -4   1  196.89    6.59
  -2   4  -2  386.96    7.18
   2  -4   2  525.32   11.04
   2  -4   2  496.51   12.19
   2  -4   3  517.83   13.24
   2  -4   3  568.73   12.39
   2  -4   4   36.29    5.43
   2  -4   4   32.51    5.46
   2  -4   5   14.81    5.69
   2  -4   5   19.19    5.74
   2  -4   6   62.71    7.43
   2  -4   6   64.59    7.15
   2  -4   7   45.76    6.94
   2  -4   7   51.39    6.90
   2  -4   8  119.01   10.48
   2  -4   8  112.15    9.72
   2  -4   9   12.03    6.72
   2  -4   9    7.97    6.57
   2  -4  10   82.01   11.24
   2  -4  10  102.81   10.90
  -2   3  10  177.26   12.68
  -2   3   9  172.40   12.33
  -2   3   8    1.82    5.79
  -2   3   7   29.81    6.78
  -2   3   6   21.04    5.89
  -2   3   5  630.10   17.28
  -2   3   4   18.75    2.82
  -2   3   4   16.98    5.37
  -2   3   3   58.73    3.70
  -2   3   3   65.13    6.02
  -2   3   2  257.42    6.92
  -2   3   2  269.18    9.21
   2  -3  -2  255.53    5.92
  -2   3   1   14.79    3.45
   2  -3  -1   10.64    2.18
  -2   3   1   12.82    2.71
   2  -3   0  544.35    8.10
  -2   3   0  600.51   10.28
  -2   3  -1   99.97    3.64
   2  -3   1  108.85    5.88
   2  -3   1  105.53    4.44
   2  -3   2  987.14   15.67
   2  -3   2 1080.78   14.03
   2  -3   3    9.66    4.00
   2  -3   3    8.29    3.47
   2  -3   4   20.09    4.38
   2  -3   4   17.07    4.94
   2  -3   5 1664.33   23.43
   2  -3   5 1524.43   24.49
   2  -3   6   32.53    6.37
   2  -3   6   36.38    7.02
   2  -3   7   37.07    6.81
   2  -3   7   39.94    6.47
   2  -3   8    6.42    5.99
   2  -3   8    8.26    6.55
   2  -3   9   79.82   10.71
   2  -3  10  160.32   12.99
  -2   2  10   11.89    7.04
  -2   2   9   46.29   10.00
  -2   2   9   43.50    6.69
  -2   2   8  246.09   13.62
  -2   2   8  261.50   12.82
  -2   2   7  797.27   20.76
  -2   2   7  813.44   21.17
  -2   2   6  306.91   12.91
  -2   2   6  331.20   13.26
  -2   2   5  132.87    8.62
  -2   2   5  117.23    5.30
  -2   2   4   25.62    4.76
  -2   2   4   27.57    3.27
  -2   2   3    7.20    2.27
  -2   2   3   11.75    3.77
  -2   2   2 2293.65   22.34
  -2   2   2 2233.26   18.10
  -2   2   1 1294.14   14.64
  -2   2   1 1312.37   13.71
   2  -2  -1 1256.18    8.28
   2  -2   0    2.90    1.51
  -2   2   0    3.52    1.94
   2  -2   1  157.40    4.69
  -2   2  -1  129.90    2.79
   2  -2   1  162.21    6.28
   2  -2   2  305.95    7.37
   2  -2   2  290.15    8.67
   2  -2   3    3.98    3.22
   2  -2   3    3.62    4.00
   2  -2   4    2.97    4.27
   2  -2   4    3.42    3.63
   2  -2   4    1.81    0.94
   2  -2   5  399.41   13.74
   2  -2   5  387.66   12.03
   2  -2   6   17.62    6.36
   2  -2   6   20.78    5.90
   2  -2   7  643.59   17.78
   2  -2   7  713.59   20.59
   2  -2   8    1.43    6.91
   2  -2   9   57.62    9.79
   2  -2  10  219.34   14.98
  -2   1  10   56.22    9.17
  -2   1  10   47.06    7.15
  -2   1   9   44.36    6.95
  -2   1   9   65.65    9.43
  -2   1   8   56.52    7.96
  -2   1   8   52.86    6.81
  -2   1   7    3.32    6.01
  -2   1   7    4.72    4.98
  -2   1   7    4.78    3.05
  -2   1   6   71.13    7.46
  -2   1   6   58.50    6.58
  -2   1   6   55.42    4.80
  -2   1   5  372.65    9.34
  -2   1   5  424.10   12.65
  -2   1   5  416.79   12.37
  -2   1   4  144.76    7.29
  -2   1   4  123.36    5.25
  -2   1   3  600.09   10.44
  -2   1   3  571.52   11.79
  -2   1   2  292.01    6.98
  -2   1   2  218.17    6.80
  -2   1   1  160.36    5.17
  -2   1   1  145.84    4.92
  -2   1   0 3048.56   18.77
   2  -1   0 2849.58   12.01
  -2   1   0 2727.82   14.98
   2  -1   1  789.27   12.06
   2  -1   1  890.37    9.76
   2  -1   2  328.49    8.41
   2  -1   2  298.74    4.12
   2  -1   2  388.64    8.15
   2  -1   3  126.04    6.81
   2  -1   3  105.49    3.40
   2  -1   3  128.07    5.88
   2  -1   4   67.83    5.60
   2  -1   4   55.83    3.29
   2  -1   4   75.03    6.71
   2  -1   5 2147.37   20.01
   2  -1   5 2568.50   32.12
   2  -1   6   47.75    8.09
   2  -1   7  209.00   11.96
   2  -1   8   15.45    7.57
   2  -1   9   27.20   12.04
   2  -1  10   18.44    8.85
  -2   0  11  134.44   12.36
  -2   0  10    9.16    5.88
  -2   0  10    2.84    6.86
  -2   0   9   -7.67    4.78
  -2   0   9   -5.19    6.42
  -2   0   8   14.91    5.13
  -2   0   8   14.45    7.72
  -2   0   8   13.47    4.56
  -2   0   7  507.24   13.17
  -2   0   7  502.12   15.02
  -2   0   7  508.70   15.56
  -2   0   6  413.32   11.23
  -2   0   6  390.33   10.46
  -2   0   6  422.61   13.05
  -2   0   6  437.17   12.98
  -2   0   5   13.75    4.26
  -2   0   5    4.89    4.04
  -2   0   5   13.91    3.50
  -2   0   5    8.04    3.56
  -2   0   4  125.53    6.29
  -2   0   4  112.91    4.60
  -2   0   4  111.11    5.34
  -2   0   4  126.15    6.11
  -2   0   3  567.59   10.95
  -2   0   3  543.77    9.74
  -2   0   3  488.11    7.41
  -2   0   2   25.94    3.27
  -2   0   2   26.13    3.39
  -2   0   2   21.11    1.79
  -2   0   1 1064.55   11.28
  -2   0   1  996.65    7.16
  -2   0   1 1011.05   11.69
   2   0   0 2401.31   16.98
  -2   0   0 2400.92   15.98
   2   0   1  775.45   10.72
  -2   0  -1  694.57    8.46
   2   0   2 5185.19   32.90
   2   0   2 5055.95   25.48
   2   0   3  110.57    4.74
   2   0   3  133.87    7.34
   2   0   4   71.44    6.53
   2   0   4   61.62    4.28
   2   0   5  588.39   12.49
   2   0   5  686.51   17.71
   2   0   6   36.91    7.59
   2   0   6   19.94    4.15
   2   0   7  770.58   21.91
   2   0   8    8.45    7.20
   2   0   9   44.77    8.96
   2   0  10   75.90   11.53
  -2  -1  11   15.31    7.71
  -2  -1  10   67.86    9.24
  -2  -1   9  197.03   10.85
  -2  -1   9  175.02   10.11
  -2  -1   9  201.72   12.07
  -2  -1   9  221.35   11.41
  -2  -1   8   11.86    4.44
  -2  -1   8   12.61    5.39
  -2  -1   8   22.67    5.02
  -2  -1   8   10.76    5.32
  -2  -1   7  153.54    9.23
  -2  -1   7  147.95    8.04
  -2  -1   7  151.21    8.66
  -2  -1   7  140.73    7.85
  -2  -1   6   28.28    5.82
  -2  -1   6   16.10    5.12
  -2  -1   6   45.20    5.55
  -2  -1   6   16.65    5.51
  -2  -1   5 1901.75   20.37
  -2  -1   5 1978.30   23.07
  -2  -1   5 2042.21   22.63
  -2  -1   5 2014.25   23.65
  -2  -1   4  520.93    9.85
  -2  -1   4  537.29   11.58
  -2  -1   4  509.51   10.93
  -2  -1   4  515.95   10.08
  -2  -1   3  714.35    9.93
  -2  -1   3  741.92   12.83
  -2  -1   3  735.24   11.89
  -2  -1   2   40.07    3.51
  -2  -1   2   38.65    2.97
  -2  -1   1  103.48    4.61
   2   1  -1   83.51    3.17
  -2  -1   1   86.83    3.85
   2   1   0 2048.96   13.87
  -2  -1   0 2093.71   14.67
  -2  -1  -1  105.97    3.50
   2   1   1  110.73    4.83
   2   1   2   10.54    3.77
   2   1   2   10.42    3.16
  -2  -1  -2   13.14    1.94
   2   1   3  144.21    7.57
   2   1   3  144.15    6.37
   2   1   4   12.10    5.23
   2   1   4   13.20    3.57
   2   1   5  379.65   11.52
   2   1   5  451.74   14.79
   2   1   6   21.68    6.66
   2   1   6   18.21    4.68
   2   1   7  277.49   14.12
   2   1   8   -1.06    6.61
   2   1   9   -9.79    7.90
  -2  -2  10   12.41    6.11
  -2  -2   9   86.29    8.53
  -2  -2   9   89.77    7.92
  -2  -2   9  108.91    8.88
  -2  -2   9   92.61    8.06
  -2  -2   8   59.67    7.35
  -2  -2   8   60.29    6.54
  -2  -2   8   47.76    6.17
  -2  -2   8   60.40    6.79
  -2  -2   7  107.26    8.20
  -2  -2   7  109.00    7.81
  -2  -2   7  107.57    7.30
  -2  -2   7  115.53    8.01
  -2  -2   6  301.86   10.03
  -2  -2   6  291.27    9.88
  -2  -2   6  322.40   11.27
  -2  -2   5  554.06   12.14
  -2  -2   5  557.59   11.30
  -2  -2   5  561.32   13.33
  -2  -2   4   10.91    3.92
  -2  -2   4    6.14    3.00
  -2  -2   4    8.57    2.44
  -2  -2   3  881.24   13.88
  -2  -2   3  825.76   12.31
  -2  -2   2  126.38    5.22
  -2  -2   2  144.04    5.42
  -2  -2   1  334.03    7.32
  -2  -2   1  338.81    7.81
  -2  -2   0  114.27    3.87
   2   2   0  123.98    3.89
  -2  -2  -1   86.31    3.02
   2   2   1   97.06    5.81
   2   2   1   93.33    4.58
   2   2   2 3218.97   27.07
   2   2   2 3426.53   30.66
   2   2   3   19.69    4.68
   2   2   3   16.81    4.58
   2   2   4  210.84   10.18
   2   2   4  207.37    9.24
   2   2   5  260.36   12.00
   2   2   5  229.06   10.14
   2   2   6    3.12    5.74
   2   2   6    0.63    4.43
   2   2   7  271.35   14.15
   2   2   7  251.42   12.26
   2   2   8   -3.29    7.21
   2   2   9   35.42    8.97
  -2  -3  11    7.24    7.18
  -2  -3  10  245.13   12.50
  -2  -3   9  114.34    8.66
  -2  -3   8   15.60    6.21
  -2  -3   8    6.55    4.68
  -2  -3   7   57.90    7.43
  -2  -3   7   55.33    5.69
  -2  -3   7   53.49    6.18
  -2  -3   6    2.50    3.35
  -2  -3   6   -0.42    5.36
  -2  -3   6    2.06    4.77
  -2  -3   5 1195.02   20.25
  -2  -3   5 1129.84   18.13
  -2  -3   5 1068.65   14.26
  -2  -3   4  548.96   12.18
  -2  -3   4  558.17   12.94
  -2  -3   4  456.32    7.37
  -2  -3   3   15.72    3.75
  -2  -3   3   14.29    3.92
  -2  -3   2   91.46    5.17
  -2  -3   2  100.96    5.72
  -2  -3   1  419.60    8.90
  -2  -3   1  432.91   10.21
   2   3   0  867.38    9.94
  -2  -3   0  900.84   11.06
  -2  -3   0  954.75   15.10
   2   3   1  555.40   10.23
  -2  -3  -1  539.51    7.18
   2   3   1  648.50   15.27
   2   3   2    5.34    3.31
   2   3   2    9.12    5.00
   2   3   3 1249.55   22.45
   2   3   3 1227.85   19.97
   2   3   4    6.50    4.80
   2   3   4    3.63    5.07
   2   3   5   62.83    6.75
   2   3   5   71.02    7.67
   2   3   6   89.97    8.19
   2   3   6   95.19    9.11
   2   3   7  234.27   14.20
   2   3   7  213.28   12.44
   2   3   8   57.50    9.11
  -2  -4  11   56.57    7.52
  -2  -4  10    0.26    6.29
  -2  -4   9    3.49    5.02
  -2  -4   8   44.74    6.61
  -2  -4   7   56.50    7.54
  -2  -4   7   59.68    6.75
  -2  -4   6  811.95   18.11
  -2  -4   6  841.21   20.29
  -2  -4   5   29.23    6.27
  -2  -4   5   22.20    5.11
  -2  -4   4   15.14    4.95
  -2  -4   4   13.31    4.80
  -2  -4   3  168.71    7.93
  -2  -4   3  159.86    8.06
  -2  -4   2    5.80    3.54
  -2  -4   2    4.03    4.27
  -2  -4   1  127.74    5.78
  -2  -4   1  132.25    7.17
  -2  -4   0  183.05    5.96
  -2  -4   0  186.51    8.27
   2   4   0  202.96    9.82
   2   4   0  178.18    5.08
   2   4   1   63.64    7.86
   2   4   1   53.71    4.21
   2   4   2 1101.20   17.63
   2   4   2 1319.02   24.41
   2   4   3   76.62    6.65
   2   4   3   80.32    8.35
   2   4   4  247.77   11.52
   2   4   4  245.13   12.04
   2   4   5  358.58   14.34
   2   4   5  336.26   14.32
   2   4   6   39.80    7.80
   2   4   6   35.80    6.89
   2   4   7  203.62   13.13
   2   4   7  208.02   14.12
   2   4   8    3.29    6.94
   2   4   8    0.43    7.21
  -2  -5  10  377.57   16.55
  -2  -5   9  170.65   11.18
  -2  -5   8   -1.77    5.56
  -2  -5   7   54.27    6.76
  -2  -5   6  462.28   16.26
  -2  -5   6  440.18   14.82
  -2  -5   5  206.57   10.11
  -2  -5   5  205.91   11.23
  -2  -5   4 1413.94   22.77
  -2  -5   4 1363.29   23.80
  -2  -5   3    0.72    4.64
  -2  -5   3   -1.74    5.16
  -2  -5   2   53.31    6.54
  -2  -5   2   38.81    5.43
  -2  -5   1   17.55    3.98
  -2  -5   1   14.36    5.92
  -2  -5   0  214.36    9.78
   2   5   0  249.58   12.54
   2   5   1  785.44   20.52
  -2  -5  -1  685.75   16.76
   2   5   2  456.72   16.40
   2   5   2  363.37   10.78
   2   5   3  397.57   15.84
   2   5   3  376.23   12.33
   2   5   4  214.46   12.46
   2   5   4  177.62   10.04
   2   5   5    2.44    5.33
   2   5   5    0.84    5.72
   2   5   6   52.78    7.76
   2   5   6   53.22    8.82
   2   5   7  226.86   14.52
   2   5   7  209.26   14.04
   2   5   8   14.74    8.56
  -2  -6  10   -0.50    7.04
  -2  -6   9    1.26    5.90
  -2  -6   8   30.50    6.92
  -2  -6   7   23.05    6.36
  -2  -6   6  511.14   15.95
  -2  -6   5    8.04    5.22
  -2  -6   4  297.52   12.14
  -2  -6   3  231.48   11.07
  -2  -6   2   22.86    6.69
  -2  -6   1  110.66    9.18
   2   6  -1  113.02   10.26
  -2  -6   0  682.70   17.64
   2   6   0  802.93   22.39
   2   6   1   16.80    7.04
  -2  -6  -1   18.78    6.41
  -2  -6  -2  124.03    9.51
   2   6   2  120.93   10.41
   2   6   3   17.41    7.38
   2   6   4  178.08   12.76
   2   6   4  153.85   10.07
   2   6   5  124.46   11.14
   2   6   5  115.08    9.64
   2   6   6    0.25    6.47
   2   6   6    1.73    6.84
   2   6   7   60.71   10.25
   2   6   7   79.34   10.08
  -2  -7   9  374.13   16.88
  -2  -7   8   27.08    7.33
  -2  -7   7    5.99    5.24
  -2  -7   6  130.73   10.03
  -2  -7   5    4.70    4.79
  -2  -7   4  370.84   14.39
  -2  -7   3  143.28    9.83
   2   7  -2   19.25    6.50
  -2  -7   2   19.61    6.44
  -2  -7   1  248.50   12.22
   2   7  -1  254.95   14.40
   2   7   0   65.82    8.98
  -2  -7   0   66.89    8.25
  -2  -7  -1  159.20   10.59
   2   7   1  173.64   12.77
  -2  -7  -2  129.15   10.43
   2   7   2  137.19   11.51
   2   7   3   -5.02    7.16
  -2  -7  -3    3.18    6.86
   2   7   4   62.51    9.41
  -2  -7  -4   75.65    8.89
   2   7   5    3.01    7.07
  -2  -8   8   -6.38    6.74
  -2  -8   7   40.93    7.33
  -2  -8   6  181.20   11.89
  -2  -8   5    0.97    5.56
   2   8  -4   75.74    8.60
  -2  -8   4   66.34    8.72
   2   8  -3   47.64    8.34
  -2  -8   3   48.63    8.23
   2   8  -2   29.82    8.21
  -2  -8   2   28.30    7.49
  -2  -8   1   79.93    9.31
   2   8  -1   84.29   10.67
  -2  -8   0  268.28   13.77
   2   8   0  264.57   15.38
   2   8   1   25.70    7.43
  -2  -8  -1   30.11    7.53
   2   8   2   17.10    7.82
  -2  -8  -2   18.69    7.42
   2   8   3   22.43    8.22
  -2  -8  -3   12.03    7.63
   2   8   4   33.02    8.77
  -2  -8  -4   14.32    7.70
  -2  -9   6   10.84    6.86
  -2  -9   5   58.24    8.38
  -2  -9   4  127.99   10.68
   2   9  -4  116.02   11.02
   2   9  -3   22.35    7.19
  -2  -9   3   15.67    7.21
   2   9  -2    9.76    7.26
  -2  -9   2   10.74    7.16
   2   9  -1   -1.98    7.12
  -2  -9   1    5.33    7.05
   2   9   0   30.55    8.39
  -2  -9   0   28.04    8.22
  -2  -9  -1   80.91    9.94
   2   9   1   67.94   10.27
   2   9   2   60.86   10.66
  -2  -9  -2   61.72    9.25
   2  10  -3   42.07    8.80
  -2 -10   3   38.83    8.56
  -2 -10   2  199.46   13.91
   2  10  -2  191.58   14.29
   2  10  -1    5.65    8.73
  -2 -10   1    1.67    7.36
  -3  10   3    0.74    8.73
  -3  10   2   12.44    8.18
   3 -10   4   40.59    7.54
   3 -10   5    0.20    6.96
  -3   9   4   -2.54    7.89
  -3   9   3   67.34    9.68
  -3   9   2   26.29    6.80
  -3   9   1   62.58    8.42
   3  -9   2  161.26   10.09
   3  -9   3    4.05    5.27
   3  -9   4   68.21    8.05
   3  -9   5   87.47    8.95
   3  -9   6   30.15    6.90
  -3   8   5  108.13   11.72
  -3   8   4  259.50   15.31
  -3   8   3   -1.20    5.82
  -3   8   2   16.88    5.97
  -3   8   1    6.64    4.91
   3  -8   1   23.48    5.22
   3  -8   2  241.98   10.81
   3  -8   2  216.27   11.47
   3  -8   3   13.24    5.32
   3  -8   4   41.15    6.48
   3  -8   5  106.05    9.42
   3  -8   6    3.68    5.95
   3  -8   7  598.35   20.54
  -3   7   6   12.57    7.08
  -3   7   5   62.84    9.60
  -3   7   4   44.39    7.58
  -3   7   3  186.64   12.42
  -3   7   2  195.96   12.02
  -3   7   1    2.63    5.18
  -3   7   0   85.61    7.31
   3  -7   0   77.21    6.03
   3  -7   1  203.42    9.07
   3  -7   2  139.11    8.94
   3  -7   2  145.53    8.19
   3  -7   3  159.45   10.01
   3  -7   3  172.56    9.01
   3  -7   4  129.31    8.95
   3  -7   4  115.43    8.60
   3  -7   5  210.69   10.86
   3  -7   5  241.07   12.15
   3  -7   6   71.44    8.46
   3  -7   7   50.43    7.57
   3  -7   8  -14.90    7.11
  -3   6   7   65.57    8.91
  -3   6   6   20.54    7.55
  -3   6   5    6.39    6.17
  -3   6   4  209.91   12.28
  -3   6   3   41.16    6.28
  -3   6   2  115.04    8.84
  -3   6   2  101.36    6.59
  -3   6   1   40.70    5.74
   3  -6  -1   34.82    4.41
  -3   6   0  505.65   14.02
   3  -6   0  437.86   10.88
  -3   6  -1   44.23    4.81
   3  -6   1   41.67    4.80
   3  -6   2 1059.13   21.47
   3  -6   2 1031.45   18.18
   3  -6   3  114.30    7.59
   3  -6   3  111.44    8.87
   3  -6   4  405.57   14.24
   3  -6   4  479.40   14.37
   3  -6   5   23.34    5.90
   3  -6   5   27.32    6.19
   3  -6   6    6.71    5.75
   3  -6   6    6.76    5.66
   3  -6   7  547.09   18.09
   3  -6   7  523.41   18.39
   3  -6   8   -0.08    7.13
   3  -6   8   -2.97    7.02
  -3   5   8  212.79   14.55
  -3   5   7  401.12   18.23
  -3   5   6   75.76    8.85
  -3   5   5    9.52    5.37
  -3   5   4  450.36   16.00
  -3   5   3  132.43    6.48
  -3   5   3  170.84   10.21
  -3   5   2  410.44   10.93
  -3   5   2  503.60   14.81
   3  -5  -2  403.61    9.29
  -3   5   1  127.57    7.78
  -3   5   1  113.59    6.65
   3  -5  -1  110.59    5.47
  -3   5   0  165.71    7.54
   3  -5   0  146.86    6.09
  -3   5  -1  460.75   10.53
   3  -5   1  454.57   10.68
   3  -5   2    3.38    5.17
   3  -5   2    2.13    3.61
   3  -5   3   48.84    7.17
   3  -5   3   56.75    6.27
   3  -5   4  266.19   11.75
   3  -5   4  322.90   11.71
   3  -5   5  368.02   13.96
   3  -5   5  454.94   14.07
   3  -5   6   17.87    5.92
   3  -5   6    5.98    5.61
   3  -5   7   12.69    6.56
   3  -5   7   12.59    6.27
   3  -5   8   -5.30    6.47
   3  -5   8    2.70    5.96
   3  -5   9  376.00   18.35
   3  -5   9  364.26   17.09
   3  -5  10    8.88    8.45
  -3   4   9   57.00    9.22
  -3   4   8   12.35    6.20
  -3   4   7  243.72   13.96
  -3   4   6   20.87    5.77
  -3   4   5   46.31    7.21
  -3   4   4  287.08    8.55
  -3   4   4  336.39   13.05
  -3   4   3  351.88    9.74
  -3   4   3  421.39   13.24
  -3   4   2   27.46    5.16
   3  -4  -2   20.02    2.70
  -3   4   2   25.69    4.23
   3  -4  -1   63.72    3.61
  -3   4   1   73.50    5.75
  -3   4   1   68.65    5.17
   3  -4   0   96.21    4.44
  -3   4   0  111.19    5.68
   3  -4   1   35.65    5.55
   3  -4   1   28.23    3.47
  -3   4  -1   22.79    2.73
   3  -4   2  212.83    7.73
   3  -4   2  202.41    9.40
   3  -4   3  113.82    6.73
   3  -4   3  100.51    7.88
   3  -4   4  122.79    8.44
   3  -4   4  157.21    8.46
   3  -4   5   46.55    6.47
   3  -4   5   44.54    7.33
   3  -4   6  188.95   11.11
   3  -4   6  201.21   10.50
   3  -4   7  346.61   14.55
   3  -4   7  382.00   16.36
   3  -4   8  138.02   10.70
   3  -4   8  139.76   12.05
   3  -4   9   -4.38    7.16
   3  -4   9    2.27    7.22
   3  -4  10   15.24    8.53
  -3   3  10   89.80    9.49
  -3   3   9  241.97   14.77
  -3   3   8  177.11   12.20
  -3   3   7  414.81   16.48
  -3   3   6   11.87    5.93
  -3   3   5   -0.50    5.85
  -3   3   5    8.06    3.44
  -3   3   4  318.41    9.07
  -3   3   4  363.87   12.82
  -3   3   3    0.26    4.14
  -3   3   3   13.63    3.71
  -3   3   2  688.27   12.60
  -3   3   2  784.31   15.05
   3  -3  -2  675.92    7.41
  -3   3   1   50.66    4.22
  -3   3   1   44.50    4.31
   3  -3  -1   41.24    2.42
  -3   3   0  351.99    8.00
   3  -3   0  299.79    5.88
   3  -3   1 1050.05   17.73
  -3   3  -1  924.39    9.72
   3  -3   1  976.36   12.38
   3  -3   2  305.64    8.20
   3  -3   2  260.40    9.93
   3  -3   3   77.41    5.54
   3  -3   3   71.05    6.64
   3  -3   4  220.19    9.22
   3  -3   4  200.59   10.09
   3  -3   5  424.78   14.98
   3  -3   5  452.95   13.75
   3  -3   6   48.00    7.82
   3  -3   6   34.76    6.28
   3  -3   7   23.33    7.27
   3  -3   7   16.65    6.32
   3  -3   8    1.44    7.32
   3  -3   9  334.21   17.64
   3  -3  10   23.76    9.26
  -3   2  10   16.35    6.48
  -3   2   9   97.24    9.20
  -3   2   8   18.00    5.56
  -3   2   7    1.02    5.49
  -3   2   6    7.15    5.57
  -3   2   6    4.87    3.37
  -3   2   5   99.83    5.83
  -3   2   5  107.83    8.17
  -3   2   4  433.83   10.58
  -3   2   4  454.13   13.16
  -3   2   3    3.87    3.83
  -3   2   3    6.21    2.84
  -3   2   2  779.31   13.05
  -3   2   2  800.50   14.04
  -3   2   1  104.88    4.94
  -3   2   1  106.58    5.53
  -3   2   0   43.13    2.99
   3  -2   0   43.42    2.30
  -3   2   0   48.48    4.23
   3  -2   1   96.34    6.06
   3  -2   1   98.57    4.15
   3  -2   2  396.63   11.45
   3  -2   2  367.15    8.52
   3  -2   3  816.15   14.21
   3  -2   3  755.51   15.55
   3  -2   4    4.56    5.25
   3  -2   4   10.27    4.52
   3  -2   5  117.65   10.38
   3  -2   5  106.55    7.73
   3  -2   6  406.59   15.94
   3  -2   7  566.30   19.36
   3  -2   8  223.79   14.04
   3  -2   9   13.16    7.62
  -3   1  11    2.84    7.54
  -3   1  10   82.08    9.24
  -3   1   9  420.41   16.76
  -3   1   8  298.14   13.63
  -3   1   7  524.73   16.43
  -3   1   7  423.03   12.23
  -3   1   6   23.90    5.65
  -3   1   6   21.43    4.11
  -3   1   5   67.05    5.18
  -3   1   5   69.55    6.37
  -3   1   4  876.14   14.92
  -3   1   4  898.50   16.67
  -3   1   3   42.30    4.59
  -3   1   3   38.74    4.03
  -3   1   2  285.83    8.11
  -3   1   2  267.35    7.62
  -3   1   1  314.27    8.13
  -3   1   1  308.99    7.33
   3  -1   0    2.39    3.38
  -3   1   0    1.94    2.86
  -3   1  -1  131.53    5.49
   3  -1   1  143.45    6.80
   3  -1   2   24.30    2.15
   3  -1   2   26.01    4.51
   3  -1   3   98.71    6.99
   3  -1   3   78.92    3.31
   3  -1   4 1326.07   23.12
   3  -1   4 1140.85   13.01
   3  -1   5   89.74    9.04
   3  -1   6    5.32    6.58
   3  -1   7  119.22   10.97
   3  -1   8  105.23   11.36
   3  -1   9  566.35   22.69
  -3   0  10   24.95    6.96
  -3   0   9    0.70    5.88
  -3   0   8  119.01    7.68
  -3   0   8  144.01    9.83
  -3   0   7   77.36    5.76
  -3   0   7   93.96    7.96
  -3   0   7   85.91    6.63
  -3   0   6   24.55    5.39
  -3   0   6   21.87    4.74
  -3   0   6   17.82    3.78
  -3   0   5   25.54    4.98
  -3   0   5   26.40    4.28
  -3   0   5   19.60    3.20
  -3   0   4    9.95    3.99
  -3   0   4   11.92    3.39
  -3   0   4   11.90    2.54
  -3   0   3   50.89    4.64
  -3   0   3   50.69    4.64
  -3   0   3   41.20    2.50
  -3   0   2 5652.04   35.48
  -3   0   2 5889.10   33.48
  -3   0   2 5688.25   20.34
  -3   0   1  251.03    6.98
  -3   0   1  241.83    4.90
  -3   0   0   66.93    4.26
   3   0   0   78.76    4.68
  -3   0  -1  109.44    4.83
   3   0   1  112.44    5.69
  -3   0  -2 2359.39   19.34
   3   0   2 2473.41   20.88
   3   0   3  210.24    6.70
   3   0   3  250.71    9.78
   3   0   4  206.96   10.64
   3   0   4  166.17    6.56
   3   0   5   20.57    6.80
   3   0   5   26.10    3.69
   3   0   6  280.55   13.95
   3   0   7  259.48   14.23
   3   0   8   47.06    8.96
   3   0   9   84.35   11.26
  -3  -1  10    9.43    5.91
  -3  -1   9  307.64   13.48
  -3  -1   9  310.62   14.07
  -3  -1   8  157.23   10.03
  -3  -1   8  155.11    9.48
  -3  -1   8  136.47    8.90
  -3  -1   8  147.00    8.11
  -3  -1   7  200.85    8.57
  -3  -1   7  209.01   10.36
  -3  -1   7  206.02    9.83
  -3  -1   6    1.26    4.68
  -3  -1   6    2.00    4.13
  -3  -1   6    2.01    3.45
  -3  -1   5  452.63   13.08
  -3  -1   5  430.69   11.82
  -3  -1   5  424.59    9.79
  -3  -1   4  450.28    8.82
  -3  -1   4  473.46   11.38
  -3  -1   4  491.43   12.60
  -3  -1   3  242.06    7.94
  -3  -1   3  237.34    6.18
  -3  -1   2  177.11    6.75
  -3  -1   2  178.85    5.30
   3   1  -1  182.82    5.34
  -3  -1   1  191.46    6.43
  -3  -1   1  172.31    5.35
  -3  -1   0  204.11    6.00
   3   1   0  222.61    6.21
   3   1   1   10.13    3.18
  -3  -1  -1   11.94    2.51
   3   1   2   22.32    4.64
  -3  -1  -2   18.21    2.77
   3   1   2   22.59    3.99
   3   1   3  112.83    7.38
  -3  -1  -3   82.92    4.06
   3   1   3   98.79    6.11
   3   1   4  980.96   20.32
   3   1   4  874.95   16.08
   3   1   5  355.58   14.62
   3   1   5  256.33    9.66
   3   1   6   20.56    7.25
   3   1   7   14.75    7.67
   3   1   8   41.14    7.85
   3   1   9  299.43   17.64
  -3  -2  10   16.97    7.68
  -3  -2   9   10.12    6.13
  -3  -2   9    9.88    5.34
  -3  -2   8   68.14    7.38
  -3  -2   8   67.86    6.27
  -3  -2   7  641.61   16.71
  -3  -2   7  678.39   15.33
  -3  -2   7  712.82   15.92
  -3  -2   6  424.59   11.50
  -3  -2   6  427.23   13.19
  -3  -2   5  203.75    9.13
  -3  -2   5  196.48    7.57
  -3  -2   4   18.32    4.41
  -3  -2   4   21.38    3.78
  -3  -2   3   72.31    4.72
  -3  -2   3   72.39    5.26
  -3  -2   2  865.28   13.65
   3   2  -2  802.01    8.21
  -3  -2   2  877.34   13.29
  -3  -2   1    7.83    2.56
   3   2  -1    7.63    1.81
  -3  -2   1    8.52    3.21
  -3  -2   0  142.79    5.33
   3   2   0  148.48    5.10
   3   2   1  237.91    7.62
  -3  -2  -1  217.88    5.92
  -3  -2  -2 1014.40   11.03
   3   2   2 1191.59   18.27
   3   2   2 1232.40   20.82
   3   2   3  375.03   12.38
   3   2   3  376.79   12.03
   3   2   4   32.78    6.41
   3   2   4   27.71    5.61
   3   2   5    4.37    5.62
   3   2   5    2.87    4.00
   3   2   6   19.79    5.15
   3   2   6   17.73    7.70
   3   2   7  111.78   10.71
   3   2   8  328.69   17.11
  -3  -3  10   20.31    7.08
  -3  -3  10   22.63    6.55
  -3  -3   9  174.21   11.93
  -3  -3   9  141.57    9.37
  -3  -3   8   36.66    7.04
  -3  -3   8   28.88    5.78
  -3  -3   7   81.00    7.01
  -3  -3   7   85.56    7.87
  -3  -3   6   17.80    5.49
  -3  -3   6   20.79    4.90
  -3  -3   5  628.64   14.05
  -3  -3   5  708.65   16.64
  -3  -3   4  499.38   13.13
  -3  -3   4  474.68   11.72
  -3  -3   3  146.10    7.04
  -3  -3   3  154.86    7.05
  -3  -3   2   -0.33    2.62
  -3  -3   2    1.67    3.73
   3   3  -1  137.44    3.47
  -3  -3   1  170.24    7.38
  -3  -3   1  162.95    6.26
   3   3   0   56.89    3.45
  -3  -3   0   69.71    5.73
  -3  -3   0   58.86    3.70
   3   3   1  691.58   12.33
   3   3   1  817.17   17.79
  -3  -3  -1  651.54    9.49
   3   3   2    6.00    3.76
   3   3   2    8.07    5.20
   3   3   3    3.17    5.08
   3   3   3    2.81    5.18
   3   3   4  401.24   14.05
   3   3   4  394.20   14.16
   3   3   5  304.83   13.68
   3   3   5  312.30   12.87
   3   3   6    6.64    5.96
   3   3   6   -3.50    4.87
   3   3   7   25.44    8.27
   3   3   8   30.20    8.72
  -3  -4  10    3.16    6.01
  -3  -4   9   35.73    8.01
  -3  -4   9   22.64    6.66
  -3  -4   8   10.40    5.31
  -3  -4   8   13.06    5.15
  -3  -4   7  517.51   16.71
  -3  -4   7  472.63   14.34
  -3  -4   6   31.57    6.42
  -3  -4   6   28.66    5.61
  -3  -4   5   66.72    7.29
  -3  -4   5   67.20    6.65
  -3  -4   4  237.67    9.97
  -3  -4   4  242.61    9.73
  -3  -4   3  464.22   12.47
  -3  -4   3  484.68   12.81
  -3  -4   2  724.37   14.35
  -3  -4   2  774.49   16.08
  -3  -4   1  370.26    9.62
  -3  -4   1  358.88   11.27
  -3  -4   0  105.24    5.08
  -3  -4   0  111.84    8.07
   3   4   1  147.27    6.37
   3   4   1  193.66   11.29
   3   4   2   76.72    6.02
   3   4   2   85.69    8.67
   3   4   3  867.90   18.32
   3   4   3  944.10   22.42
   3   4   4   25.68    6.01
   3   4   4   23.78    6.30
   3   4   5   -5.10    5.44
   3   4   5    6.23    5.77
   3   4   6   13.75    6.89
   3   4   6   26.16    6.35
   3   4   7   31.91    7.79
   3   4   7   35.50    7.49
  -3  -5  10    3.61    6.53
  -3  -5   9  322.57   14.28
  -3  -5   8   96.99    8.65
  -3  -5   8  105.26   10.04
  -3  -5   7    7.12    6.17
  -3  -5   7    4.65    5.05
  -3  -5   6   70.31    8.35
  -3  -5   6   66.14    7.21
  -3  -5   5  254.76   11.89
  -3  -5   5  258.26   11.25
  -3  -5   4  386.50   13.63
  -3  -5   4  407.21   13.35
  -3  -5   3   60.86    6.88
  -3  -5   3   64.52    7.20
  -3  -5   2   30.77    4.66
  -3  -5   2   42.82    6.77
  -3  -5   1  115.25    6.51
  -3  -5   1  119.14    8.84
   3   5   0  423.96   16.18
  -3  -5   0  392.71   13.44
  -3  -5  -1  281.57   12.56
   3   5   1  313.04   15.04
   3   5   2   -3.52    5.97
   3   5   3   25.88    5.26
   3   5   3   25.11    7.18
   3   5   4  321.81   13.49
   3   5   4  317.79   14.91
   3   5   5  200.05   12.10
   3   5   5  225.17   13.90
   3   5   6   -1.71    6.29
   3   5   6    4.67    6.06
   3   5   7   -3.79    7.37
   3   5   7   -7.19    7.99
  -3  -6  10    5.17    7.44
  -3  -6   9   25.09    6.59
  -3  -6   8   14.32    6.27
  -3  -6   7  362.77   14.09
  -3  -6   7  382.60   17.02
  -3  -6   6  139.90    9.43
  -3  -6   6  163.15   11.86
  -3  -6   5    6.11    5.21
  -3  -6   5    4.04    5.20
  -3  -6   4  280.36   12.02
  -3  -6   4  307.05   13.17
  -3  -6   3   -1.16    4.46
  -3  -6   3   -0.86    5.83
  -3  -6   2 1057.73   22.03
  -3  -6   2 1019.89   19.98
   3   6  -1    6.79    6.61
  -3  -6   1   14.28    6.50
   3   6   0    8.15    7.07
  -3  -6   0    2.64    5.58
   3   6   1    3.22    6.37
  -3  -6  -1    1.84    6.15
   3   6   2   21.86    8.33
  -3  -6  -2   18.65    7.33
   3   6   3  306.60   16.06
   3   6   4   17.68    7.11
   3   6   5    0.05    6.44
   3   6   6   38.46    8.51
  -3  -7   9  194.47   13.17
  -3  -7   8   37.59    7.45
  -3  -7   7   37.97    7.71
  -3  -7   6    5.51    5.68
  -3  -7   5  170.06   10.72
  -3  -7   4  288.77   13.37
  -3  -7   3   19.14    6.29
   3   7  -2   10.65    7.17
  -3  -7   2   16.00    6.90
   3   7  -1   14.30    7.02
  -3  -7   1   14.91    6.77
  -3  -7   0   82.86    8.83
   3   7   0   84.09    8.90
   3   7   1   53.84    9.35
  -3  -7  -1   33.05    7.40
   3   7   2   28.59    8.41
  -3  -7  -2   33.79    7.90
   3   7   3    0.55    7.18
  -3  -7  -3   10.15    8.11
   3   7   4   70.00   10.60
  -3  -7  -4   68.78   10.47
   3   7   5  201.77   14.10
  -3  -8   7  322.42   16.06
  -3  -8   6   22.51    7.28
  -3  -8   5   -2.34    6.08
  -3  -8   4   13.95    6.28
   3   8  -3   26.21    8.66
  -3  -8   3   19.17    7.47
  -3  -8   2  572.51   19.23
   3   8  -2  525.95   21.13
   3   8  -1   34.59    9.02
  -3  -8   1   30.16    7.46
   3   8   0    6.84    6.86
  -3  -8   0    7.83    6.72
   3   8   1   69.75   10.31
  -3  -8  -1   54.70    8.77
   3   8   2   12.39    7.90
  -3  -8  -2    6.73    6.60
  -3  -8  -3  105.49   10.41
   3   8   3   92.72   12.16
  -3  -9   6    6.71    7.13
   3   9  -5   40.78    8.43
  -3  -9   5   41.91    7.92
   3   9  -4   48.12    9.71
  -3  -9   4   59.90    9.02
  -3  -9   3   66.95    9.11
   3   9  -3   56.32    9.20
   3   9  -2   51.75   10.46
  -3  -9   2   45.85    8.32
   3   9  -1   24.64    8.17
  -3  -9   1   20.98    8.65
  -3  -9   0  128.29   11.70
   3   9   0  135.49   13.34
   3   9   1   22.55    9.29
  -3  -9  -1    4.88    8.02
   3  10  -3    1.35    9.23
  -4   9   4   15.41    7.69
  -4   9   3   25.02    8.31
  -4   9   2  307.16   15.54
   4  -9   5    7.60    6.48
   4  -9   6   59.20    8.02
  -4   8   5  108.40   11.26
  -4   8   4  106.50   10.40
  -4   8   3   62.84    8.63
  -4   8   2    5.72    5.24
  -4   8   1    9.22    5.07
   4  -8   1    8.85    6.35
   4  -8   2   16.31    6.42
   4  -8   3   15.61    6.93
   4  -8   3   12.61    5.24
   4  -8   4  100.28    9.44
   4  -8   4  104.53    9.05
   4  -8   5  293.81   13.70
   4  -8   6   -0.29    6.02
   4  -8   7   11.37    6.80
  -4   7   6  196.66   14.25
  -4   7   5    1.58    5.95
  -4   7   4   -1.46    6.66
  -4   7   3   20.86    5.66
  -4   7   2  267.29   12.95
  -4   7   2  227.79   10.34
  -4   7   1   55.87    6.31
  -4   7   1   51.29    5.78
   4  -7   1   63.23    8.05
   4  -7   2  308.50   13.73
   4  -7   2  314.06   10.82
   4  -7   3   35.75    6.92
   4  -7   3   33.13    5.66
   4  -7   4    8.73    5.28
   4  -7   4   -0.36    4.49
   4  -7   5   43.58    7.57
   4  -7   5   57.87    7.15
   4  -7   6  178.62   12.20
   4  -7   6  194.06   11.19
   4  -7   7  348.67   16.08
   4  -7   7  358.63   16.57
  -4   6   7   44.85    9.14
  -4   6   6    6.17    6.22
  -4   6   5  361.48   16.38
  -4   6   4   12.02    6.10
  -4   6   3    3.17    5.18
  -4   6   3    0.07    3.67
  -4   6   2  213.64    9.50
  -4   6   2  241.20   11.20
  -4   6   1   64.26    6.32
  -4   6   1   45.57    5.89
  -4   6   0 1636.44   23.34
   4  -6   1   39.45    4.45
   4  -6   1   47.69    7.81
   4  -6   2   20.12    7.17
   4  -6   2   22.32    4.40
   4  -6   3   29.69    6.79
   4  -6   3   33.29    5.54
   4  -6   4   87.43    8.90
   4  -6   4  108.26    7.79
   4  -6   5  364.49   13.62
   4  -6   5  291.95   13.75
   4  -6   6   13.02    6.72
   4  -6   6   12.47    5.79
   4  -6   7    8.71    6.58
   4  -6   7    4.06    6.78
   4  -6   8   13.59    7.66
   4  -6   8   22.83    7.26
   4  -6   9   -8.49    8.62
  -4   5   8   -0.05    6.88
  -4   5   7  125.04   11.44
  -4   5   6  415.25   17.56
  -4   5   5  132.27   10.63
  -4   5   4   -2.24    5.57
  -4   5   4   -2.91    3.22
  -4   5   3 1190.83   23.67
  -4   5   3 1058.26   18.94
  -4   5   2  363.33   12.90
  -4   5   2  322.46   11.22
  -4   5   1  183.32    8.77
  -4   5   1  153.94    8.19
  -4   5   0  332.91   10.12
   4  -5   1   -0.93    5.78
   4  -5   1    0.69    2.95
   4  -5   2  627.76   17.81
   4  -5   2  649.79   13.54
   4  -5   3  145.39   10.40
   4  -5   3  141.52    8.00
   4  -5   4   62.51    7.99
   4  -5   4   71.31    6.78
   4  -5   5    3.31    6.11
   4  -5   5    0.89    4.69
   4  -5   6  170.66   11.60
   4  -5   6  180.37   10.82
   4  -5   7  177.02   12.94
   4  -5   7  177.03   11.87
   4  -5   8    6.03    7.18
   4  -5   8   12.29    6.59
   4  -5   9    5.50    8.58
  -4   4   9   94.53   10.21
  -4   4   8  118.75   10.75
  -4   4   7   75.56    8.82
  -4   4   6   23.14    7.15
  -4   4   5  724.91   15.31
  -4   4   5  805.53   21.64
  -4   4   4    3.45    5.52
  -4   4   4    3.77    3.51
  -4   4   3   23.61    5.87
  -4   4   3   24.95    4.88
  -4   4   2  852.75   17.62
  -4   4   2  753.51   15.80
  -4   4   1   10.03    3.64
  -4   4   1    8.14    4.27
  -4   4   0 1088.79   15.59
  -4   4   0 1065.43   18.26
   4  -4   0  935.89   11.84
   4  -4   1  187.34   10.22
   4  -4   1  159.94    6.15
   4  -4   2   -1.28    5.87
   4  -4   2    1.83    2.82
   4  -4   3   11.30    6.48
   4  -4   3    8.01    4.22
   4  -4   4   18.27    6.29
   4  -4   4   29.15    5.35
   4  -4   5  568.47   18.15
   4  -4   5  597.17   16.19
   4  -4   6   15.39    6.92
   4  -4   6   16.46    5.84
   4  -4   7   11.70    7.28
   4  -4   7   11.88    6.52
   4  -4   8   55.01    9.94
   4  -4   9   10.67    7.97
  -4   3   9   86.87    9.36
  -4   3   8   21.40    5.75
  -4   3   7  288.63   14.08
  -4   3   6  256.86    9.73
  -4   3   6  290.42   13.65
  -4   3   5   97.07    6.90
  -4   3   5  101.01    8.81
  -4   3   4   53.77    5.32
  -4   3   4   53.15    6.76
  -4   3   3 1351.57   19.97
  -4   3   3 1424.17   22.79
  -4   3   2 1221.01   19.13
  -4   3   2 1181.59   18.23
  -4   3   1  597.62   12.16
  -4   3   1  593.96   13.27
   4  -3   0   53.99    2.99
  -4   3   0   67.17    5.54
  -4   3   0   63.96    3.98
  -4   3  -1  136.50    4.45
   4  -3   1  137.30    5.30
   4  -3   1  157.00    8.74
   4  -3   2   48.88    6.70
   4  -3   2   45.27    4.51
   4  -3   3  125.24    9.36
   4  -3   3  111.84    6.72
   4  -3   4    2.47    6.63
   4  -3   4    1.38    4.66
   4  -3   5  162.76    9.14
   4  -3   5  154.73   11.18
   4  -3   6   45.55    8.44
   4  -3   7  108.10   11.05
   4  -3   8   39.16    8.96
   4  -3   9    6.81    7.81
  -4   2  10  126.53   11.89
  -4   2   9  113.35   10.24
  -4   2   8  122.06   10.04
  -4   2   7   23.86    6.18
  -4   2   7   18.17    4.22
  -4   2   6   24.23    6.92
  -4   2   6   11.35    4.47
  -4   2   5 1121.17   22.21
  -4   2   5 1162.58   19.86
  -4   2   4  283.60   11.05
  -4   2   4  254.24    9.30
  -4   2   3    9.20    4.06
  -4   2   3    6.48    3.60
  -4   2   2 1277.95   18.52
  -4   2   2 1285.14   18.76
  -4   2   1  215.38    7.28
  -4   2   1  218.54    8.34
  -4   2   0 1226.73   14.60
   4  -2   0 1282.73   20.17
  -4   2   0 1252.17   18.07
   4  -2   1  493.31   13.20
  -4   2  -1  484.21   11.49
   4  -2   2    7.28    4.93
   4  -2   3   83.79    7.35
   4  -2   4   25.50    6.79
   4  -2   5  421.25   15.81
   4  -2   6   11.18    7.20
   4  -2   7  166.58   12.71
   4  -2   8    7.01    7.22
   4  -2   9    0.75    8.06
  -4   1  10   -1.38    6.37
  -4   1   9   68.24    8.37
  -4   1   8   -0.03    4.10
  -4   1   8    4.40    5.04
  -4   1   7  738.95   16.99
  -4   1   7  804.85   20.85
  -4   1   6  332.13   13.13
  -4   1   6  305.67   10.75
  -4   1   5   27.59    5.97
  -4   1   5   29.77    4.95
  -4   1   4   15.66    4.71
  -4   1   4   20.31    4.74
  -4   1   3  207.36    8.04
  -4   1   3  206.45    8.54
  -4   1   2  168.03    7.09
  -4   1   2  163.69    7.19
  -4   1   1 1039.61   16.32
   4  -1   0   37.13    5.15
  -4   1   0   39.73    4.72
  -4   1  -1  267.23    8.66
   4  -1   1  285.80   10.37
   4  -1   2  313.44   10.78
  -4   1  -2  306.76    9.11
   4  -1   3   50.76    6.57
   4  -1   3   42.71    3.49
   4  -1   4   53.65    7.45
   4  -1   5  735.63   20.84
   4  -1   6   12.04    7.78
   4  -1   7  225.19   14.52
   4  -1   8   -9.48    7.88
   4  -1   9    2.13    8.76
  -4   0  11   79.38    9.87
  -4   0  10  113.00   10.23
  -4   0   9  194.41   10.80
  -4   0   9  189.74   11.46
  -4   0   8   45.47    6.85
  -4   0   8   50.18    5.91
  -4   0   7   82.06    7.66
  -4   0   7   75.93    6.75
  -4   0   6    2.02    5.13
  -4   0   6    4.09    4.26
  -4   0   5  922.09   18.94
  -4   0   5  928.57   17.47
  -4   0   5  808.54   11.37
  -4   0   4 1253.61   20.95
  -4   0   4 1280.09   19.92
  -4   0   4 1161.30   11.99
  -4   0   3   89.70    6.42
  -4   0   3   71.34    3.12
  -4   0   3   83.36    6.25
  -4   0   2  182.27    7.53
  -4   0   2  188.17    4.72
   4   0  -1  119.59    6.21
  -4   0   1  123.35    6.09
   4   0   0  780.54   14.26
  -4   0   0  769.20   13.53
   4   0   1    1.08    3.67
  -4   0  -1   -0.25    3.16
   4   0   2  469.96   12.81
  -4   0  -2  456.21   10.53
   4   0   3   17.29    5.94
   4   0   3    5.97    3.07
  -4   0  -3    4.85    3.31
   4   0   4   82.92    8.88
  -4   0  -4   57.05    4.81
   4   0   5   10.51    6.96
   4   0   6   23.27    7.71
   4   0   7  205.51   13.76
   4   0   8   12.04    7.40
  -4  -1  10   22.03    6.77
  -4  -1   9   20.01    5.97
  -4  -1   9   12.61    6.28
  -4  -1   8    4.11    5.63
  -4  -1   8    9.08    4.78
  -4  -1   7   51.51    7.31
  -4  -1   7   38.87    5.79
  -4  -1   6  380.52   12.62
  -4  -1   6  355.99    9.65
  -4  -1   6  399.35   14.25
  -4  -1   5  592.39   14.79
  -4  -1   5  552.56   10.65
  -4  -1   4   73.11    6.13
  -4  -1   4   70.00    4.31
  -4  -1   3   91.46    6.43
  -4  -1   3   95.28    4.48
  -4  -1   2    5.89    3.77
  -4  -1   2    9.18    2.68
   4   1  -1  619.62   11.20
  -4  -1   1  634.67   12.32
  -4  -1   1  600.14   10.54
  -4  -1   0  343.04    8.87
   4   1   0  351.37    9.06
   4   1   1   69.15    5.34
  -4  -1  -1   65.46    4.45
   4   1   2  512.59   12.68
   4   1   2  559.41   14.04
  -4  -1  -2  500.52   10.57
   4   1   3   25.43    6.22
   4   1   3   15.63    4.33
  -4  -1  -3   17.29    3.20
   4   1   4   21.52    6.14
   4   1   4   15.90    4.79
   4   1   5  244.31   13.03
   4   1   6   48.80    8.45
   4   1   7  218.21   14.03
   4   1   8    4.46    7.53
  -4  -2  10  107.84    9.63
  -4  -2   9  146.03   10.53
  -4  -2   8  308.69   13.17
  -4  -2   7   79.49    8.38
  -4  -2   7   71.06    6.00
  -4  -2   6   56.13    5.34
  -4  -2   6   63.46    6.83
  -4  -2   5  554.74   14.77
  -4  -2   5  529.60   11.77
  -4  -2   4  377.44   11.98
  -4  -2   4  383.13    9.65
  -4  -2   3   95.71    6.47
  -4  -2   3   93.64    5.47
   4   2  -2    7.73    2.46
  -4  -2   2    5.95    3.61
  -4  -2   2    7.28    3.38
  -4  -2   1   70.26    5.08
   4   2  -1   67.31    3.71
  -4  -2   1   76.85    5.37
   4   2   0  241.73    7.49
  -4  -2   0  260.87    8.57
   4   2   1   61.69    5.43
  -4  -2  -1   50.75    4.16
   4   2   2  171.88    8.64
  -4  -2  -2  150.17    5.68
   4   2   2  190.05    9.52
   4   2   3    2.09    5.07
   4   2   3    0.10    4.76
   4   2   4   33.98    5.71
   4   2   4   27.07    6.65
   4   2   5   -2.19    4.34
   4   2   5    0.31    5.83
   4   2   6    6.84    6.38
   4   2   7  255.81   15.04
   4   2   8   63.53   10.07
  -4  -3  11  307.75   16.77
  -4  -3  10    1.78    6.88
  -4  -3   9   -5.16    5.60
  -4  -3   8    7.59    5.54
  -4  -3   8    5.11    4.30
  -4  -3   7   20.49    5.87
  -4  -3   7   16.96    4.56
  -4  -3   6  280.50   10.07
  -4  -3   6  294.82   12.40
  -4  -3   5  237.21   10.86
  -4  -3   5  232.47    9.21
  -4  -3   4    8.42    4.64
  -4  -3   4    8.15    4.11
  -4  -3   3  424.76   12.12
  -4  -3   3  420.58   11.50
  -4  -3   2    1.91    3.62
  -4  -3   2    4.40    4.30
  -4  -3   1   62.21    5.07
  -4  -3   1   64.29    5.95
  -4  -3   0  252.43    7.84
   4   3   0  251.62    7.54
  -4  -3  -1  277.31    7.45
   4   3   1  297.43    9.43
   4   3   2  339.34   11.33
   4   3   2  357.89   13.95
   4   3   3  170.94    9.59
   4   3   3  173.80   10.51
   4   3   4   37.17    6.56
   4   3   4   29.20    6.07
   4   3   5  407.24   16.04
   4   3   5  393.44   15.03
   4   3   6  203.51   13.01
   4   3   7   74.04    9.98
  -4  -4  10  163.21   12.46
  -4  -4   9  126.90   11.30
  -4  -4   9  125.57    9.22
  -4  -4   8  101.55    9.37
  -4  -4   8   84.00    7.70
  -4  -4   7    3.15    5.67
  -4  -4   7    3.29    4.45
  -4  -4   6  109.77    8.92
  -4  -4   6  105.27    7.64
  -4  -4   5  685.56   17.96
  -4  -4   5  627.89   15.65
  -4  -4   4  387.19   13.03
  -4  -4   4  389.44   12.60
  -4  -4   3    3.48    4.21
  -4  -4   3    5.57    4.89
  -4  -4   2    5.20    3.78
  -4  -4   2    6.37    5.02
  -4  -4   1  104.46    6.18
  -4  -4   1  108.52    7.76
  -4  -4   0    9.80    2.87
  -4  -4   0    9.34    5.81
   4   4   1  186.22   11.60
   4   4   2  137.27    7.83
   4   4   2  147.21   10.81
   4   4   3   -1.61    4.66
   4   4   3   -4.30    5.77
   4   4   4   14.27    5.82
   4   4   4    8.05    6.15
   4   4   5   10.07    5.63
   4   4   5    2.45    5.49
   4   4   6   15.36    6.93
   4   4   6   18.59    6.24
   4   4   7  372.23   18.35
  -4  -5   9   -9.91    7.16
  -4  -5   9    0.10    6.05
  -4  -5   8  160.54   11.57
  -4  -5   8  122.98    9.13
  -4  -5   7   54.83    8.22
  -4  -5   7   45.89    7.06
  -4  -5   6    5.77    5.95
  -4  -5   6   -4.38    4.69
  -4  -5   5   75.40    7.66
  -4  -5   5   73.80    7.29
  -4  -5   4  112.06    8.24
  -4  -5   4  131.90    8.78
  -4  -5   3  303.67   11.37
  -4  -5   3  315.43   12.10
  -4  -5   2  264.64    9.99
  -4  -5   2  284.33   12.02
  -4  -5   1    1.25    3.38
  -4  -5   1    2.92    5.65
   4   5   0  147.95   11.24
  -4  -5   0  125.98    9.16
  -4  -5  -1  720.77   19.24
   4   5   1  721.16   22.08
   4   5   2   48.94    8.23
   4   5   3   52.85    8.38
   4   5   4   28.66    8.05
   4   5   5  397.59   17.92
   4   5   6   25.41    8.01
  -4  -6   9   80.90    9.54
  -4  -6   9   88.66   11.25
  -4  -6   8   11.88    6.89
  -4  -6   8   -0.03    5.73
  -4  -6   7    4.80    6.49
  -4  -6   7    4.64    5.41
  -4  -6   6  162.14   11.32
  -4  -6   6  145.40   10.49
  -4  -6   5  129.79    9.90
  -4  -6   5  130.11    9.16
  -4  -6   4  347.82   13.85
  -4  -6   4  357.62   14.03
  -4  -6   3  114.41    8.30
  -4  -6   3  122.73    9.20
  -4  -6   2    2.06    3.76
  -4  -6   2    2.21    5.54
  -4  -6   1   43.47    7.16
   4   6   0   58.68    9.74
  -4  -6   0   59.21    7.64
   4   6   1   46.21    9.33
  -4  -6  -1   40.28    7.49
   4   6   2   67.74    9.74
  -4  -6  -2   72.62    9.60
   4   6   3    6.33    6.23
   4   6   4    4.95    6.83
   4   6   5    0.73    7.51
  -4  -7   8  161.94   11.94
  -4  -7   7   26.53    6.47
  -4  -7   7   27.81    8.44
  -4  -7   6   34.54    7.86
  -4  -7   6   28.44    6.95
  -4  -7   5    8.88    6.47
  -4  -7   5    4.02    5.95
  -4  -7   4  120.61    9.65
  -4  -7   4  140.59   10.29
  -4  -7   3    1.38    4.87
  -4  -7   3    5.30    6.23
  -4  -7   2  131.02   10.57
   4   7  -1   24.40    8.28
  -4  -7   1   51.17    8.52
   4   7   0   44.91    9.93
  -4  -7   0   41.39    8.41
  -4  -7  -1  132.87   10.51
   4   7   1  127.97   11.54
   4   7   2    9.52    7.76
  -4  -7  -2   15.41    7.26
  -4  -7  -3   21.63    8.44
   4   7   3   16.14    8.10
   4   7   4   36.24    8.01
  -4  -8   7   26.75    7.22
  -4  -8   6   56.75    8.84
  -4  -8   5   29.94    7.36
  -4  -8   4  220.55   13.45
   4   8  -3    2.82    7.47
  -4  -8   3   -0.46    6.15
   4   8  -2   22.53    8.07
  -4  -8   2   27.08    7.52
   4   8  -1   20.33    8.94
  -4  -8   1   22.65    7.81
  -4  -8   0   33.04    8.70
   4   8   0   39.59    8.88
   4   8   1   -4.91    7.67
  -4  -8  -1    2.79    7.15
   4   8   2   29.09    8.84
  -4  -8  -2   45.52    9.27
   4   9  -4  128.15   13.18
  -4  -9   4  115.73   11.44
   4   9  -3   -2.95    8.47
  -4  -9   3    4.18    7.52
   4   9  -2   29.69    9.94
  -4  -9   2   37.01    8.58
  -4  -9   1   20.14    7.96
   4   9  -1   16.67    9.38
  -5  10  -1    2.03    7.22
  -5   9   4  106.23   11.52
  -5   9   0   32.58    6.69
   5  -9   1  160.03   11.93
   5  -9   2   77.75   10.03
  -5   8   5   39.69    8.44
  -5   8   4   -2.60    6.80
  -5   8   3  241.59   13.81
  -5   8   1    3.52    5.55
  -5   8   0  222.40   12.29
   5  -8   1   67.11    9.45
   5  -8   2   22.20    7.22
   5  -8   3   -3.28    6.87
   5  -8   4   29.00    7.29
   5  -8   5    2.04    6.11
   5  -8   6   67.92    7.75
   5  -8   7   -5.50    7.71
  -5   7   6   45.63    9.40
  -5   7   5   76.45   10.09
  -5   7   4   48.93    7.90
  -5   7   3  192.69   12.12
  -5   7   2   34.31    6.32
  -5   7   2   38.94    6.44
  -5   7   1   10.56    5.01
  -5   7   0    8.74    5.30
   5  -7   1   25.61    7.65
   5  -7   2  235.22   13.35
   5  -7   3  195.84   13.01
   5  -7   4   35.35    7.89
   5  -7   5   26.78    7.15
   5  -7   5   41.06    6.49
   5  -7   6   11.40    7.19
   5  -7   6   19.99    6.47
   5  -7   7  228.34   14.46
   5  -7   7  256.79   14.47
  -5   6   7   68.81    9.92
  -5   6   6    5.19    6.28
  -5   6   5   21.64    6.74
  -5   6   4   25.39    7.19
  -5   6   3  225.98   12.16
  -5   6   3  190.02    9.78
  -5   6   2  219.88   10.93
  -5   6   2  179.96   10.00
  -5   6   1   11.78    4.38
  -5   6   1    9.91    5.09
  -5   6   0   26.14    6.11
   5  -6   1  173.94   11.48
   5  -6   2   43.25    7.75
   5  -6   3   16.01    7.45
   5  -6   3   14.32    3.73
   5  -6   4  332.79   15.52
   5  -6   4  365.38   12.99
   5  -6   5    3.00    6.10
   5  -6   5   15.00    5.76
   5  -6   6   56.50    9.27
   5  -6   6   40.72    7.77
   5  -6   7   25.60    8.22
   5  -6   7   22.89    7.74
   5  -6   8   14.45    8.81
  -5   5   8   20.06    7.94
  -5   5   7   94.13   10.00
  -5   5   6   -1.58    6.54
  -5   5   5   25.07    6.96
  -5   5   4   -0.58    5.11
  -5   5   4    8.18    4.29
  -5   5   3  444.81   15.39
  -5   5   3  392.47   13.31
  -5   5   2  157.61    8.91
  -5   5   2  157.85    9.53
  -5   5   1   68.79    6.04
  -5   5   1   78.39    7.67
  -5   5   0   13.62    6.06
   5  -5   1    4.56    6.83
   5  -5   2  359.90   15.22
   5  -5   2  360.40   10.30
   5  -5   3  215.24   12.87
   5  -5   3  212.02    9.21
   5  -5   4   61.02    8.58
   5  -5   4   47.32    6.07
   5  -5   5   12.98    6.33
   5  -5   5   12.57    5.24
   5  -5   6    5.58    7.70
   5  -5   6   11.89    6.30
   5  -5   7  165.21   12.85
   5  -5   7  144.78   11.60
   5  -5   8  206.09   15.63
  -5   4   8   43.86    7.72
  -5   4   7    4.82    6.72
  -5   4   6   11.64    6.87
  -5   4   5   47.39    5.82
  -5   4   5   51.49    7.67
  -5   4   4  347.40   13.87
  -5   4   4  328.23   11.75
  -5   4   3    5.45    4.45
  -5   4   3    9.84    5.27
  -5   4   2  188.64    9.03
  -5   4   2  170.15    9.15
  -5   4   1   89.90    6.17
  -5   4   1   95.29    7.86
  -5   4   0    0.66    2.49
  -5   4   0    3.00    5.38
   5  -4   1  203.16   11.97
  -5   4  -1  181.20    9.76
   5  -4   2    1.07    6.72
   5  -4   2    1.19    3.35
   5  -4   3    9.59    6.98
   5  -4   3    4.33    3.90
   5  -4   4  199.09   11.47
   5  -4   4  190.43    9.60
   5  -4   5   14.50    7.37
   5  -4   5   10.73    4.98
   5  -4   6  115.21   10.97
   5  -4   7   -6.29    8.42
   5  -4   8   10.53    7.92
  -5   3   9   18.56    7.47
  -5   3   8   44.05    8.01
  -5   3   7   60.95    8.46
  -5   3   6   -0.53    6.18
  -5   3   6    2.19    4.15
  -5   3   5  102.15    8.48
  -5   3   5  100.35    7.60
  -5   3   4   -0.24    5.29
  -5   3   4   -0.27    4.42
  -5   3   3  150.10    8.84
  -5   3   3  161.97    8.83
  -5   3   2  145.67    7.99
  -5   3   2  150.41    8.59
  -5   3   1   28.48    4.22
  -5   3   1   34.72    5.81
  -5   3   0   50.56    4.27
  -5   3   0   54.54    6.67
   5  -3   0   59.80    7.71
   5  -3   1   97.94    8.99
  -5   3  -1  103.91    7.62
   5  -3   2  520.37   16.61
  -5   3  -2  504.68   14.19
   5  -3   3 1361.53   26.19
   5  -3   4   39.22    7.54
   5  -3   5   23.36    7.53
   5  -3   6   -1.38    7.05
   5  -3   7  212.63   14.71
   5  -3   8  351.87   18.97
  -5   2  10   58.68    8.36
  -5   2   9  332.81   16.50
  -5   2   8   52.02    7.84
  -5   2   7  108.60    7.70
  -5   2   7  126.21   10.45
  -5   2   6    4.91    5.52
  -5   2   6    2.46    4.54
  -5   2   5   48.62    6.73
  -5   2   5   45.62    7.22
  -5   2   4 1009.21   20.89
  -5   2   4  955.26   18.78
  -5   2   3  477.46   13.69
  -5   2   3  453.21   12.67
  -5   2   2   64.22    5.45
  -5   2   2   65.34    6.25
  -5   2   1   41.53    4.58
  -5   2   1   44.05    5.94
   5  -2   0   28.33    6.26
  -5   2   0   35.52    5.82
  -5   2  -1  157.47    8.60
   5  -2   1  168.27    9.84
   5  -2   2   11.79    6.31
  -5   2  -2    9.20    4.83
   5  -2   3   36.01    6.82
  -5   2  -3   34.19    5.85
   5  -2   4   18.77    7.15
   5  -2   5  173.49   11.66
   5  -2   6   34.38    9.23
   5  -2   7   52.49   10.10
   5  -2   8    3.32    9.50
  -5   1  10    2.20    6.71
  -5   1   9    9.00    6.92
  -5   1   8   -0.68    5.28
  -5   1   8    3.25    4.52
  -5   1   7  240.36   12.80
  -5   1   7  184.37   10.03
  -5   1   6  153.63   10.19
  -5   1   6  146.95    8.73
  -5   1   5   31.72    6.84
  -5   1   5   21.98    5.29
  -5   1   4  379.30   13.00
  -5   1   4  411.25   13.08
  -5   1   3   47.92    6.14
  -5   1   3   49.41    5.94
  -5   1   2  710.38   15.34
  -5   1   1   35.52    5.55
   5  -1  -1   35.74    5.62
   5  -1   0    3.19    4.72
  -5   1   0    1.17    4.15
   5  -1   1  209.09   10.16
  -5   1  -1  193.49    8.87
   5  -1   2  119.37    8.32
  -5   1  -2  125.96    7.56
  -5   1  -3 1610.16   22.80
   5  -1   3 1702.20   27.74
   5  -1   4   48.93    8.05
  -5   1  -4   39.27    5.40
   5  -1   5   10.75    6.95
   5  -1   6  104.27   10.83
   5  -1   7  131.65   12.61
   5  -1   8   54.35    9.95
  -5   0  10  -16.68    6.94
  -5   0   9  294.78   15.33
  -5   0   9  293.82   13.18
  -5   0   8  103.59    9.87
  -5   0   8   88.30    7.76
  -5   0   7   13.55    6.24
  -5   0   7    9.97    5.44
  -5   0   6   48.60    7.13
  -5   0   6   43.15    6.22
  -5   0   5   53.72    7.55
  -5   0   5   52.34    6.43
  -5   0   4  322.57   12.04
  -5   0   3  556.55   14.61
  -5   0   3  483.14    7.36
  -5   0   2  146.72    7.75
  -5   0   2  139.64    4.71
   5   0  -1   53.94    5.59
  -5   0   1   56.71    5.53
   5   0   0  718.10   15.91
  -5   0   0  699.61   14.67
  -5   0  -1  384.16   11.14
   5   0   1  355.78   11.59
   5   0   2   10.72    5.27
  -5   0  -2    7.77    4.07
   5   0   3   61.12    7.60
  -5   0  -3   47.93    5.70
   5   0   4   55.99    8.02
   5   0   5  193.88   12.50
   5   0   6  101.17   10.68
   5   0   7   16.06    7.52
   5   0   8   39.88    9.39
  -5  -1  10    8.25    6.47
  -5  -1   9   22.70    7.40
  -5  -1   8   22.85    5.87
  -5  -1   7  561.33   16.93
  -5  -1   6  138.70    8.83
  -5  -1   5   75.22    7.22
  -5  -1   4   21.73    5.25
  -5  -1   4   20.19    3.08
  -5  -1   3    3.25    4.99
  -5  -1   3    2.03    2.45
   5   1  -2  570.55   12.32
  -5  -1   2  645.11   15.08
  -5  -1   2  564.88   10.83
   5   1  -1  374.32   10.68
  -5  -1   1  396.60   11.41
  -5  -1   1  376.97    9.54
   5   1   0    9.85    4.19
  -5  -1   0    8.59    4.08
   5   1   1   13.11    4.79
  -5  -1  -1   13.45    3.83
   5   1   2   47.16    6.61
  -5  -1  -2   39.05    4.66
   5   1   3  373.64   14.16
   5   1   3  302.46   11.52
   5   1   4   -2.41    5.94
   5   1   5    6.80    6.43
   5   1   6   89.21   10.43
   5   1   7   19.75    8.03
  -5  -2  10   17.88    7.01
  -5  -2   9   69.58    8.37
  -5  -2   8  123.91    9.67
  -5  -2   7  151.85   10.20
  -5  -2   6  168.01    9.90
  -5  -2   5    4.35    4.91
  -5  -2   5    4.89    3.53
  -5  -2   4  341.52   12.37
  -5  -2   4  334.04    9.42
  -5  -2   3  124.60    7.89
  -5  -2   3  118.22    6.31
  -5  -2   2   30.59    4.48
  -5  -2   2   31.12    5.22
   5   2  -1    3.03    2.76
  -5  -2   1    3.33    4.10
  -5  -2   1    0.13    4.10
  -5  -2   0  932.18   17.04
   5   2   0  832.12   15.18
   5   2   1  315.99   10.93
  -5  -2  -1  323.51    9.67
   5   2   2   97.57    8.19
   5   2   2  102.52    8.26
   5   2   3   38.71    6.38
   5   2   3   43.55    6.21
   5   2   4  369.55   15.21
   5   2   4  310.76   12.78
   5   2   5  223.73   12.97
   5   2   6   57.38    9.46
   5   2   7   55.45    9.15
  -5  -3  10   77.70   10.32
  -5  -3   9   15.35    6.67
  -5  -3   8   16.20    6.38
  -5  -3   7  393.19   15.64
  -5  -3   6   41.19    5.17
  -5  -3   6   43.24    7.01
  -5  -3   5   36.72    5.24
  -5  -3   5   31.94    6.07
  -5  -3   4   13.38    5.38
  -5  -3   4   11.20    4.45
  -5  -3   3   47.38    6.12
  -5  -3   3   53.45    6.11
  -5  -3   2  612.18   14.72
  -5  -3   2  611.74   14.68
  -5  -3   1   33.46    4.89
  -5  -3   1   33.69    5.92
  -5  -3   0  119.17    6.60
  -5  -3   0  111.97    8.01
   5   3   1  237.14    9.37
   5   3   2   41.56    5.74
   5   3   2   44.90    6.78
   5   3   3  197.67   10.41
   5   3   3  196.59   11.03
   5   3   4   18.85    6.34
   5   3   4   20.00    6.34
   5   3   5   19.95    5.43
   5   3   6   10.11    6.56
   5   3   7   74.20    9.52
  -5  -4   9   24.24    6.97
  -5  -4   8  233.61   13.43
  -5  -4   7    8.77    6.00
  -5  -4   7   18.46    4.57
  -5  -4   6   30.28    6.59
  -5  -4   6   24.67    5.87
  -5  -4   5   29.68    6.25
  -5  -4   5   34.88    5.63
  -5  -4   4  202.20   10.30
  -5  -4   4  210.00    9.81
  -5  -4   3    3.19    4.72
  -5  -4   3   10.49    5.29
  -5  -4   2  321.76   11.32
  -5  -4   2  339.48   12.43
  -5  -4   1  127.00    7.09
  -5  -4   1  117.38    8.44
  -5  -4   0  745.09   18.39
   5   4   1    4.09    5.01
   5   4   2   41.27    7.58
   5   4   3  163.07   11.28
   5   4   4  256.08   13.76
   5   4   5  336.98   15.43
   5   4   5  304.00   15.08
   5   4   6   14.82    7.09
  -5  -5   9   85.99   10.31
  -5  -5   8  176.91   13.16
  -5  -5   8  145.76    9.54
  -5  -5   7  219.52   12.58
  -5  -5   7  177.66   10.11
  -5  -5   6  187.02   11.45
  -5  -5   6  170.24   10.03
  -5  -5   5   32.66    6.48
  -5  -5   5   38.84    6.10
  -5  -5   4   65.89    7.06
  -5  -5   4   62.70    6.86
  -5  -5   3    3.26    4.23
  -5  -5   3    2.53    5.30
  -5  -5   2  435.40   13.44
  -5  -5   2  429.94   14.58
  -5  -5   1  300.32   12.88
  -5  -5   0  158.68   10.41
  -5  -5  -1  104.72    9.97
   5   5   1  110.30   11.37
   5   5   2   33.98    8.13
   5   5   3  248.72   14.92
   5   5   4   -0.66    6.73
   5   5   5    6.87    7.15
  -5  -6   8  120.46   11.36
  -5  -6   8  125.47    9.30
  -5  -6   7   22.37    7.69
  -5  -6   7   10.59    5.75
  -5  -6   6   17.18    6.44
  -5  -6   6   14.88    5.37
  -5  -6   5  173.00   11.14
  -5  -6   5  161.17   10.29
  -5  -6   4   18.00    5.67
  -5  -6   4   16.23    5.88
  -5  -6   3   52.75    6.48
  -5  -6   3   43.56    7.10
  -5  -6   2  533.40   17.57
  -5  -6   1   45.65    8.13
  -5  -6   0  180.87   11.50
   5   6   0  206.02   14.22
   5   6   1   10.30    7.95
  -5  -6  -1    3.37    6.59
   5   6   2   26.40    8.02
  -5  -6  -2   25.09    7.55
   5   6   3   70.80    9.91
  -5  -6  -3   77.77   10.39
   5   6   4   -0.69    7.70
  -5  -7   8   65.94    8.50
  -5  -7   7   82.17    9.33
  -5  -7   7   96.13   10.75
  -5  -7   6  130.73   11.08
  -5  -7   6   84.50    9.23
  -5  -7   5  151.55   11.77
  -5  -7   5  143.44   10.56
  -5  -7   4  111.56   10.30
  -5  -7   4  110.57   10.13
  -5  -7   3   58.35    8.54
  -5  -7   2  436.54   17.22
   5   7  -1  213.99   15.22
  -5  -7   1  256.68   13.93
   5   7   0   10.62    7.75
  -5  -7   0   10.94    6.71
   5   7   1    4.87    7.76
  -5  -7  -1    1.86    7.40
   5   7   2    1.19    7.76
  -5  -7  -2    4.38    7.60
   5   7   3  247.58   16.28
  -5  -8   6   -3.31    7.35
  -5  -8   5   43.58    8.22
  -5  -8   5   62.76    9.16
  -5  -8   4    1.66    6.92
  -5  -8   3   80.90    9.58
   5   8  -3   83.53   11.60
  -5  -8   2  245.70   14.27
   5   8  -2  197.87   16.27
   5   8  -1    3.62    9.03
  -5  -8   1   13.74    7.58
   5   8   0   95.84   12.47
  -5  -8   0  115.78   11.43
   6 -10   0    7.51    8.91
   6 -10   1    5.00    8.80
  -6  10  -1    5.86    7.54
   6  -9   0  258.89   16.65
  -6   9   0  299.41   15.25
   6  -9   1   -1.74    7.18
  -6   9  -1    8.11    6.93
   6  -9   2    4.83    7.32
  -6   9  -2    3.04    6.74
   6  -9   3   64.41   11.27
   6  -9   4   74.97    8.89
  -6   8   5    3.46    8.23
  -6   8   4   12.66    6.96
  -6   8   2  278.15   13.65
  -6   8   1  223.31   12.75
   6  -8   0   35.00    8.52
  -6   8   0   34.91    7.42
   6  -8   1   -5.35    7.31
  -6   8  -1    3.03    5.87
   6  -8   2   45.73    9.10
   6  -8   3   -6.23    7.31
   6  -8   4   28.68    9.04
   6  -8   5   79.16   10.41
   6  -8   6    1.68    8.65
  -6   7   6    5.16    7.76
  -6   7   5  326.42   16.49
  -6   7   4   75.97    9.05
  -6   7   3   15.20    6.02
  -6   7   3   16.94    5.42
  -6   7   2   50.91    7.52
  -6   7   1   46.44    7.57
   6  -7   0  180.06   13.01
  -6   7   0  193.66   11.68
   6  -7   1   48.81    8.97
  -6   7  -1   58.72    8.15
   6  -7   2   40.40    8.25
   6  -7   3  122.63   12.45
   6  -7   4   12.16    6.95
   6  -7   5   81.12   10.67
   6  -7   6    7.93    8.39
  -6   6   7  116.98   11.11
  -6   6   6  228.78   14.89
  -6   6   5   47.81    7.80
  -6   6   4   10.21    5.79
  -6   6   4   13.83    5.15
  -6   6   3   12.65    5.64
  -6   6   3   23.24    6.48
  -6   6   2    3.62    4.10
  -6   6   2    9.56    5.47
  -6   6   1  291.80   13.33
   6  -6   0  340.28   15.94
  -6   6   0  349.97   14.71
   6  -6   1    4.13    6.86
  -6   6  -1   10.03    6.51
   6  -6   2  503.52   19.67
  -6   6  -2  497.90   17.30
   6  -6   3   11.40    7.77
   6  -6   4   52.52    9.19
   6  -6   5  168.95   12.28
   6  -6   6   -0.65    8.20
   6  -6   6    1.02    6.29
   6  -6   7   99.11   11.71
  -6   5   7   -3.27    7.44
  -6   5   6   59.70    8.97
  -6   5   5  202.66   12.26
  -6   5   5  191.51   10.55
  -6   5   4  238.96   12.24
  -6   5   4  178.54   10.13
  -6   5   3  405.87   14.68
  -6   5   3  403.46   14.54
  -6   5   2    8.43    4.50
  -6   5   2    8.03    5.27
  -6   5   1   93.47    8.61
   6  -5   0   75.62    9.53
  -6   5   0   77.06    7.98
   6  -5   1   35.38    8.20
  -6   5  -1   44.31    7.41
   6  -5   2  185.10   12.87
  -6   5  -2  191.99   11.40
   6  -5   3  344.40   16.16
   6  -5   4   26.54    8.00
   6  -5   5   35.85    8.98
   6  -5   5   24.39    5.75
   6  -5   6   -3.16    7.62
   6  -5   7   89.18   10.82
  -6   4   8    2.37    7.16
  -6   4   7   12.79    7.15
  -6   4   6  468.52   18.38
  -6   4   6  484.85   16.80
  -6   4   5  225.33   12.68
  -6   4   5  208.00   10.73
  -6   4   4   24.49    5.64
  -6   4   4   22.35    5.45
  -6   4   3   45.49    6.56
  -6   4   3   40.28    6.68
  -6   4   2   26.79    4.92
  -6   4   2   30.09    6.59
  -6   4   1  141.58    7.79
  -6   4   1  143.67   10.18
   6  -4   0  304.45   14.30
  -6   4   0  315.64   13.30
   6  -4   1   23.88    7.97
  -6   4  -1   29.09    6.94
   6  -4   2  568.21   18.98
  -6   4  -2  532.46   16.57
   6  -4   3    2.54    6.91
  -6   4  -3    5.84    5.95
   6  -4   4   70.16    8.83
   6  -4   5  265.92   15.04
   6  -4   6  184.71   13.54
   6  -4   7   64.21   11.72
  -6   3   9   42.06    9.16
  -6   3   8  234.62   14.22
  -6   3   7   30.94    7.09
  -6   3   7   26.56    5.59
  -6   3   6   97.61    9.47
  -6   3   6  109.54    8.66
  -6   3   5  102.80    8.99
  -6   3   5   94.64    7.85
  -6   3   4  471.92   15.72
  -6   3   4  408.06   13.88
  -6   3   3  274.91   11.79
  -6   3   3  265.38   11.83
  -6   3   2   92.97    6.81
  -6   3   2  107.03    8.73
  -6   3   1   10.65    4.07
  -6   3   1    1.48    5.89
   6  -3   0  544.16   17.35
  -6   3   0  578.24   16.52
   6  -3   1  378.25   15.46
  -6   3  -1  394.28   13.95
   6  -3   2   74.00    8.82
  -6   3  -2   64.86    7.40
   6  -3   3  438.45   16.44
  -6   3  -3  442.68   14.86
   6  -3   4    5.83    8.44
  -6   3  -4    2.99    4.79
   6  -3   5    9.59    7.73
  -6   3  -5   20.32    5.71
   6  -3   6  -11.13    7.52
   6  -3   7   61.05   11.26
  -6   2   9   16.52    7.09
  -6   2   8   36.56    7.85
  -6   2   8   30.00    5.91
  -6   2   7    4.34    5.83
  -6   2   7    5.89    5.14
  -6   2   6  524.00   18.37
  -6   2   6  509.04   16.36
  -6   2   5   45.47    7.00
  -6   2   5   40.73    6.59
  -6   2   4   96.61    7.99
  -6   2   4   92.41    8.18
  -6   2   3  122.26    8.64
  -6   2   3  121.07    8.72
  -6   2   2    5.29    5.94
  -6   2   2    4.48    4.42
  -6   2   1   48.65    7.17
   6  -2  -1   39.47    7.48
   6  -2   0  887.24   20.76
  -6   2   0  951.05   19.81
   6  -2   1  246.72   12.65
  -6   2  -1  253.68   11.44
   6  -2   2  136.31   10.45
  -6   2  -2  144.62    9.31
   6  -2   3  228.16   12.27
  -6   2  -3  209.08   10.49
   6  -2   4   69.75    9.51
  -6   2  -4   63.08    6.77
   6  -2   5  472.52   19.02
  -6   2  -5  469.63   15.07
   6  -2   6   92.34   11.54
   6  -2   7   80.93   12.01
  -6   1   9  251.26   15.18
  -6   1   9  239.62   12.19
  -6   1   8   90.70    9.30
  -6   1   8  102.37    8.52
  -6   1   7  174.12   11.91
  -6   1   7  151.92    9.88
  -6   1   6  387.79   15.66
  -6   1   6  379.97   14.02
  -6   1   5  188.86   11.39
  -6   1   5  189.61   10.62
  -6   1   4  489.61   15.31
  -6   1   4  533.60   16.71
  -6   1   3   17.92    5.60
  -6   1   2  108.69    8.13
   6  -1  -1    8.00    5.79
  -6   1   1    6.21    5.52
   6  -1   0  265.28   11.99
  -6   1   0  312.98   11.85
   6  -1   1  850.21   20.04
  -6   1  -1  867.97   18.45
   6  -1   2  200.52   10.96
  -6   1  -2  219.06   10.37
   6  -1   3   27.85    6.87
  -6   1  -3   26.99    5.22
   6  -1   4   -0.56    6.62
  -6   1  -4    3.79    4.64
   6  -1   5    1.50    7.39
   6  -1   6    4.85    8.06
   6  -1   7  173.29   14.66
  -6   0  10    7.30    7.95
  -6   0   9   36.74    6.78
  -6   0   9   51.07    9.44
  -6   0   8   20.53    6.88
  -6   0   8   20.69    5.94
  -6   0   7   38.16    6.49
  -6   0   7   35.76    7.36
  -6   0   6  175.89   10.32
  -6   0   5    3.65    4.79
  -6   0   4  531.67   16.41
  -6   0   3   46.20    7.06
   6   0  -2  215.00   10.03
  -6   0   2  247.45   10.91
   6   0  -1  251.60   10.97
  -6   0   1  269.94   10.79
   6   0   0 1449.19   24.11
  -6   0   0 1509.93   23.38
   6   0   1    2.35    5.36
  -6   0  -1    4.39    4.55
   6   0   2   17.23    6.13
  -6   0  -2   23.50    5.14
   6   0   3   42.15    7.33
  -6   0  -3   37.43    5.45
   6   0   4   86.93    9.52
   6   0   5  302.38   15.98
   6   0   6    6.07    7.51
   6   0   7   89.34   11.82
  -6  -1  10   80.20    8.60
  -6  -1   9  418.78   17.11
  -6  -1   8   23.93    5.66
  -6  -1   7   -2.05    5.02
  -6  -1   6  235.26   11.79
  -6  -1   5   92.10    7.98
  -6  -1   4  274.87   11.92
   6   1  -3  161.48    8.21
  -6  -1   3  189.31   10.46
   6   1  -2   55.13    6.09
  -6  -1   2   71.73    7.36
  -6  -1   2   53.84    4.64
   6   1  -1  134.96    7.87
  -6  -1   1  129.39    8.04
  -6  -1   1  124.42    6.79
   6   1   0   70.25    6.60
  -6  -1   0   77.35    6.51
   6   1   1  642.43   16.52
  -6  -1  -1  686.03   15.25
   6   1   2  159.78    9.87
  -6  -1  -2  167.01    8.08
   6   1   3    3.24    6.02
   6   1   4   10.04    6.91
   6   1   5    5.91    6.71
   6   1   6    2.40    6.89
   6   1   7  224.65   15.34
  -6  -2  10    4.16    6.98
  -6  -2   9  191.08   12.93
  -6  -2   8   96.08    9.52
  -6  -2   7   59.21    7.79
  -6  -2   6  357.00   14.20
  -6  -2   5    9.57    5.43
  -6  -2   4    2.73    5.09
  -6  -2   3   14.22    5.33
  -6  -2   3   15.43    3.93
  -6  -2   2  327.72   12.28
  -6  -2   2  303.60   10.12
  -6  -2   1  298.81   11.72
  -6  -2   1  268.50   10.09
  -6  -2   0  469.99   13.82
   6   2   1   11.15    4.53
  -6  -2  -1   11.15    3.67
   6   2   2   23.19    5.97
   6   2   2   24.05    6.29
   6   2   3    2.82    4.76
   6   2   3    4.44    4.64
   6   2   4   -3.04    6.58
   6   2   5  179.64   12.40
   6   2   6   94.05   10.01
  -6  -3   9  350.26   16.49
  -6  -3   8   13.52    6.72
  -6  -3   7    1.78    5.40
  -6  -3   6  167.48   10.87
  -6  -3   5  110.24    8.85
  -6  -3   4  315.43   12.81
  -6  -3   4  324.88   10.93
  -6  -3   3  184.14    9.87
  -6  -3   3  187.13    9.04
  -6  -3   2   22.69    5.00
  -6  -3   2   21.65    5.34
  -6  -3   1  213.81    9.39
  -6  -3   1  204.46    9.87
  -6  -3   0   11.87    3.73
  -6  -3   0   11.97    5.58
   6   3   2  305.40   14.63
   6   3   3    8.45    5.68
   6   3   4    5.99    5.82
   6   3   5   66.75    9.18
   6   3   6   13.06    7.78
  -6  -4   9  112.05   10.16
  -6  -4   8    6.39    6.00
  -6  -4   7   17.74    6.84
  -6  -4   6  115.23    9.72
  -6  -4   5   90.48    8.34
  -6  -4   5   94.49    7.41
  -6  -4   4   34.55    6.21
  -6  -4   4   50.40    6.39
  -6  -4   3  169.99    9.82
  -6  -4   3  163.27    9.34
  -6  -4   2  232.08   10.66
  -6  -4   2  240.84   11.07
  -6  -4   1    2.79    3.48
  -6  -4   1    4.28    5.06
  -6  -4   0   64.84    7.56
   6   4   1  104.81   10.05
  -6  -4  -1  127.73   10.46
   6   4   2    8.87    6.43
   6   4   3   17.27    6.71
   6   4   4   25.99    7.21
  -6  -5   8    3.44    6.79
  -6  -5   7   43.91    7.76
  -6  -5   6   55.58    7.06
  -6  -5   6   54.39    7.91
  -6  -5   5    5.34    5.19
  -6  -5   5    1.56    5.09
  -6  -5   4   32.81    6.42
  -6  -5   4   34.44    6.05
  -6  -5   3  162.23    9.92
  -6  -5   3  163.21   10.59
  -6  -5   2   13.64    5.20
  -6  -5   2   17.44    6.10
  -6  -5   1   57.50    8.15
  -6  -5   0   16.95    6.81
   6   5   1   21.70    6.58
  -6  -5  -1   12.20    6.74
  -6  -5  -2  414.31   17.57
   6   5   2  319.43   17.07
   6   5   3   31.40    7.09
   6   5   4   -2.36    8.19
  -6  -6   7    6.37    7.04
  -6  -6   6   -0.45    6.33
  -6  -6   6    5.91    5.85
  -6  -6   5    7.11    6.13
  -6  -6   5    3.16    5.65
  -6  -6   4  256.96   12.77
  -6  -6   4  252.22   13.10
  -6  -6   3   31.08    7.01
  -6  -6   2   98.18    9.37
  -6  -6   1   14.66    6.99
   6   6   0   44.05    8.71
  -6  -6   0   33.91    8.11
  -6  -6  -1  142.71   11.66
   6   6   1  147.16   14.05
   6   6   2    5.49    8.00
  -6  -6  -2   20.17    9.02
   6   6   3   39.14    8.84
  -6  -6  -3   61.46   10.48
  -6  -7   7   22.12    7.34
  -6  -7   6   37.16    8.17
  -6  -7   6   45.02    7.75
  -6  -7   5   20.19    6.95
  -6  -7   5    0.39    6.64
  -6  -7   4   15.57    7.03
  -6  -7   3    9.17    6.87
  -6  -7   2    7.78    7.07
   6   7  -1   33.88    8.94
  -6  -7   1   43.46    9.15
   6   7   0   12.69    8.98
  -6  -7   0   -0.09    7.70
   6   7   1    7.66    8.84
  -6  -7  -1    3.95    7.62
  -6  -8   4  294.41   15.96
  -6  -8   3   52.94    8.50
  -7   9   1   13.99    8.06
   7  -9   0   72.64   11.53
  -7   9   0   94.43   11.05
   7  -9   1   39.31   10.34
  -7   9  -1   43.07    8.59
   7  -9   2   39.44    9.06
  -7   8   2  185.19   12.23
  -7   8   1   11.35    6.91
   7  -8   0   22.71    8.98
  -7   8   0   40.74    8.34
   7  -8   1   -4.61    8.06
  -7   8  -1    0.48    7.36
   7  -8   2  449.68   20.95
  -7   8  -2  469.14   19.88
   7  -8   3   47.56   10.09
  -7   8  -3   71.90    8.74
   7  -8   4   19.54    8.54
  -7   7   5   43.95    7.76
  -7   7   4  312.32   15.34
  -7   7   3   46.12    7.78
  -7   7   2   25.03    6.77
  -7   7   1   -3.20    6.08
   7  -7   0   -1.77    8.08
  -7   7   0   -1.61    6.61
   7  -7   1  123.26   13.02
  -7   7  -1  128.74   10.98
   7  -7   2   11.27    8.03
  -7   7  -2   10.31    7.35
   7  -7   3   42.69    9.77
  -7   7  -3   51.76    8.27
   7  -7   4  128.32   13.26
  -7   7  -4  131.39   11.47
   7  -7   5   50.84   10.44
  -7   6   6   46.97    8.24
  -7   6   5   15.92    6.36
  -7   6   4   10.93    5.84
  -7   6   4    2.74    5.60
  -7   6   3   34.37    7.25
  -7   6   2  208.27   12.31
  -7   6   1   -0.04    6.18
   7  -6   0   35.34    9.31
  -7   6   0   31.66    7.97
   7  -6   1    2.16    7.32
  -7   6  -1    5.94    6.57
   7  -6   2  227.17   14.89
  -7   6  -2  227.82   13.15
   7  -6   3   84.79   11.12
  -7   6  -3   87.90   10.43
   7  -6   4  117.44   11.51
  -7   6  -4  114.12   11.40
   7  -6   5   10.22    8.05
  -7   5   7   19.08    7.50
  -7   5   6   41.22    7.09
  -7   5   5   96.27    9.24
  -7   5   5  100.05    8.76
  -7   5   4  384.51   15.69
  -7   5   4  347.87   14.45
  -7   5   3   26.84    5.77
  -7   5   3   19.30    6.83
  -7   5   2   17.52    6.27
  -7   5   1   65.98    8.72
   7  -5  -1   56.75    9.84
   7  -5   0   10.51    7.97
  -7   5   0    4.24    6.35
   7  -5   1  453.72   18.64
  -7   5  -1  506.87   17.76
   7  -5   2   16.64    8.59
  -7   5  -2   23.29    7.22
   7  -5   3   52.55    9.96
  -7   5  -3   57.93    8.10
   7  -5   4  225.29   14.42
  -7   5  -4  278.59   14.44
   7  -5   5   29.31    8.83
  -7   5  -5   40.82    8.02
   7  -5   6    5.79    9.56
  -7   5  -6   15.60    7.10
  -7   5  -7  -14.92    7.79
  -7   4   7  159.63   12.25
  -7   4   6  131.23   11.04
  -7   4   6  148.90   10.46
  -7   4   5   23.33    5.99
  -7   4   5   14.03    5.37
  -7   4   4   24.63    5.79
  -7   4   4   22.41    5.87
  -7   4   3    0.89    4.44
  -7   4   3    0.85    5.53
  -7   4   2  138.96    8.63
  -7   4   2  145.98   10.23
   7  -4  -1    7.78    6.64
  -7   4   1    5.31    5.65
   7  -4   0   45.26    8.59
  -7   4   0   59.38    7.95
   7  -4   1    9.97    7.87
  -7   4  -1    7.43    6.08
   7  -4   2   89.54   10.30
  -7   4  -2   96.01    9.34
   7  -4   3  255.30   14.65
  -7   4  -3  299.11   14.13
   7  -4   4    4.72    7.64
  -7   4  -4    8.75    6.48
   7  -4   5   -5.14    8.72
  -7   4  -5  -11.09    5.88
   7  -4   6   24.82    9.13
  -7   4  -6   25.51    7.36
  -7   3   8   29.61    8.46
  -7   3   7    1.11    7.22
  -7   3   7    7.43    5.83
  -7   3   6   92.99   10.25
  -7   3   6   87.62    9.04
  -7   3   5  139.96   10.16
  -7   3   5  147.61    9.92
  -7   3   4  553.13   17.67
  -7   3   4  536.17   17.09
  -7   3   3   20.72    5.45
  -7   3   3   27.29    6.31
  -7   3   2   12.32    6.16
   7  -3  -1  322.53   14.75
  -7   3   1  340.34   14.05
   7  -3   0    5.18    7.53
  -7   3   0    1.82    6.23
   7  -3   1  286.38   14.83
  -7   3  -1  316.11   14.02
   7  -3   2    3.91    7.07
  -7   3  -2    4.80    5.25
   7  -3   3   82.93    9.38
  -7   3  -3   95.34    9.17
   7  -3   4  330.76   16.43
  -7   3  -4  335.06   14.44
   7  -3   5  110.48   11.76
  -7   3  -5  141.84   10.42
   7  -3   6   20.61    9.55
  -7   2   8   43.99    8.92
  -7   2   8   27.44    6.20
  -7   2   7  316.33   16.03
  -7   2   7  273.96   13.44
  -7   2   6    0.48    6.23
  -7   2   6    3.28    4.92
  -7   2   5    9.17    6.62
  -7   2   5    1.78    5.93
  -7   2   4  121.04    9.79
  -7   2   4  113.50    9.03
  -7   2   3  151.75   10.09
   7  -2  -2  578.33   18.34
  -7   2   2  665.01   18.52
   7  -2  -1   70.27    8.56
  -7   2   1   70.91    7.90
   7  -2   0   62.34    8.57
  -7   2   0   67.80    7.92
   7  -2   1   13.30    7.05
  -7   2  -1   10.35    6.12
   7  -2   2   71.56    9.26
  -7   2  -2   57.58    8.06
   7  -2   3  339.04   15.85
  -7   2  -3  402.21   15.32
   7  -2   4    0.65    6.45
  -7   2  -4    2.68    5.48
   7  -2   5    2.62    7.98
   7  -2   6    4.78    9.40
  -7   1   9  373.67   18.88
  -7   1   9  343.26   15.62
  -7   1   8   10.95    7.24
  -7   1   8   24.19    5.85
  -7   1   7   30.90    8.52
  -7   1   7   30.97    6.83
  -7   1   6   -0.72    5.25
  -7   1   5    8.50    6.01
  -7   1   4   78.57    8.47
  -7   1   3    4.01    5.82
   7  -1  -2  120.67    9.81
  -7   1   2  137.43    9.36
   7  -1  -1  173.06   11.16
  -7   1   1  191.01   10.65
   7  -1   0   42.17    7.88
  -7   1   0   44.33    6.30
   7  -1   1   36.72    7.38
  -7   1  -1   39.28    6.37
   7  -1   2   17.15    6.49
  -7   1  -2    9.05    5.23
   7  -1   3  271.95   14.45
  -7   1  -3  291.67   12.56
   7  -1   4  146.05   11.86
   7  -1   5  284.46   16.44
   7  -1   6   15.96    8.56
  -7   0   9   67.87    8.85
  -7   0   8    8.11    6.03
  -7   0   7  343.70   15.00
  -7   0   6  124.39    9.80
  -7   0   5   20.09    6.28
  -7   0   4   60.42    8.80
   7   0  -3   64.60    7.23
  -7   0   3   70.53    7.94
   7   0  -2  882.07   20.10
  -7   0   2  980.20   21.54
  -7   0   1   56.44    6.76
   7   0  -1   47.84    7.19
   7   0   0   36.17    6.50
  -7   0   0   41.11    6.10
   7   0   1    2.15    4.98
  -7   0  -1    2.82    4.89
   7   0   2   24.94    6.80
  -7   0  -2   40.73    5.84
   7   0   3  266.70   13.89
   7   0   4    5.58    6.58
   7   0   5    1.19    7.48
   7   0   6   16.21    9.00
  -7  -1   9   61.84    8.74
  -7  -1   8   98.77    9.86
  -7  -1   7  142.01    9.92
  -7  -1   6   11.98    6.18
  -7  -1   5    6.48    5.87
  -7  -1   4   56.88    7.56
  -7  -1   3  151.94   10.45
  -7  -1   2  147.84    9.83
  -7  -1   1   25.69    5.57
   7   1   0   51.32    6.12
  -7  -1   0   52.20    6.36
   7   1   1   99.35    8.46
  -7  -1  -1   97.05    7.57
   7   1   2   29.50    5.93
   7   1   3   57.54    8.89
   7   1   4   80.19   10.03
   7   1   5  240.91   15.24
   7   1   6   23.58    8.30
  -7  -2   9   53.48    8.36
  -7  -2   8    2.49    5.86
  -7  -2   7  333.93   15.45
  -7  -2   6   58.71    8.14
  -7  -2   5   40.40    7.17
  -7  -2   4   65.47    7.67
  -7  -2   3  145.73    9.59
  -7  -2   2  707.37   18.78
  -7  -2   1  124.58    8.86
  -7  -2   1  112.06    7.69
  -7  -2   0   29.62    5.38
   7   2   2   47.44    7.34
   7   2   3  170.75   11.42
   7   2   4   33.78    7.56
   7   2   5   31.62    8.17
  -7  -3   8  265.16   14.45
  -7  -3   7   40.65    8.23
  -7  -3   6   49.57    7.40
  -7  -3   5   86.16    9.44
  -7  -3   4   39.09    6.75
  -7  -3   3  140.46    9.41
  -7  -3   2   23.79    5.04
  -7  -3   2   21.62    5.45
  -7  -3   1   46.68    6.23
  -7  -3   1   49.70    7.24
  -7  -3   0  128.81    9.53
   7   3   2   -2.94    6.13
  -7  -4   8   37.87    9.13
  -7  -4   7  303.37   16.30
  -7  -4   6   97.66   10.46
  -7  -4   5   35.31    6.70
  -7  -4   4   58.84    7.26
  -7  -4   3  185.33   10.86
  -7  -4   3  194.43   10.20
  -7  -4   2   73.20    7.35
  -7  -4   2   79.55    7.76
  -7  -4   1   71.77    7.85
  -7  -4   0  143.32   10.45
   7   4   1    2.97    6.32
  -7  -4  -1   10.27    6.53
   7   4   2   51.12    9.32
   7   4   3   25.06    7.37
  -7  -5   7   39.51    8.08
  -7  -5   6   12.12    7.27
  -7  -5   5   95.53    9.35
  -7  -5   4   12.99    5.52
  -7  -5   3   91.28    8.26
  -7  -5   3   88.85    8.48
  -7  -5   2    1.40    6.14
  -7  -5   1  142.60   10.54
  -7  -5   0   77.66    9.51
   7   5   0   79.23    9.22
   7   5   1   13.49    8.35
  -7  -5  -1   16.20    7.26
   7   5   2   45.37    8.85
  -7  -5  -2   55.85    9.47
   7   5   3  231.54   15.91
  -7  -6   6  124.93   10.75
  -7  -6   5  126.99   10.07
  -7  -6   4    0.11    6.13
  -7  -6   4    0.66    6.36
  -7  -6   3   33.88    7.18
  -7  -6   2   23.15    7.11
  -7  -6   1   31.17    8.41
  -7  -6   0  177.09   12.63
   7   6   0  176.45   15.06
   7   6   1   15.73   15.82
  -7  -6  -1    5.02    7.40
  -7  -7   5   14.09    7.66
  -7  -7   4   18.75    7.56
  -7  -7   3   97.08    9.27
  -7  -7   2   30.15    8.16
  -7  -7   1   41.94    8.05
  -8   8   2  123.44   11.16
  -8   8   1   82.41   10.19
   8  -8   0  197.64   15.57
  -8   8   0  228.32   15.32
  -8   7   4    0.47    7.05
  -8   7   3   10.06    7.20
  -8   7   2    8.00    7.07
   8  -7  -1   23.14    9.85
  -8   7   1   20.06    7.65
   8  -7   0   83.12   12.46
  -8   7   0  161.63   14.32
   8  -7   1   16.41    8.76
  -8   7  -1   17.12    7.53
   8  -7   2   31.76   11.01
  -8   7  -2   22.95    8.30
   8  -7   3    0.62    9.32
  -8   6   6   -9.97    7.67
  -8   6   5  263.38   15.11
  -8   6   5  262.97   13.88
  -8   6   4  215.68   13.05
  -8   6   3   26.54    7.56
  -8   6   2    1.64    6.44
   8  -6  -1  181.04   14.10
  -8   6   1  175.38   12.25
   8  -6   0   56.92   10.66
  -8   6   0   79.93   10.23
   8  -6   1   61.70   11.04
  -8   6  -1   90.46   10.68
   8  -6   2  111.62   12.87
  -8   6  -2  146.14   12.38
   8  -6   3   30.52    9.14
  -8   6  -3   29.87    7.94
   8  -6   4   12.74    8.43
  -8   6  -4   28.92    8.53
  -8   5   6  174.51   13.05
  -8   5   6  169.26   11.96
  -8   5   5   93.53    9.80
  -8   5   5   89.41    9.07
  -8   5   4   10.01    5.66
  -8   5   4   -2.93    5.60
  -8   5   3    2.94    5.49
  -8   5   2    0.90    6.97
   8  -5  -1  106.68   12.18
  -8   5   1  141.82   10.86
   8  -5   0   54.48    9.60
  -8   5   0   65.71    9.49
   8  -5   1   -4.38    7.80
  -8   5  -1    1.22    6.83
   8  -5   2    7.39    8.25
  -8   5  -2    0.25    6.20
   8  -5   3   12.06    8.62
  -8   5  -3    9.57    6.95
   8  -5   4   13.31    8.67
  -8   5  -4   18.13    6.98
  -8   5  -5  150.62   10.97
  -8   4   7   29.01    8.13
  -8   4   7    8.06    7.46
  -8   4   6  168.99   12.45
  -8   4   6  173.54   12.17
  -8   4   5   63.32    8.00
  -8   4   5   65.65    8.20
  -8   4   4  314.77   13.40
  -8   4   4  282.22   14.15
  -8   4   3   90.44    8.55
  -8   4   3  104.36    9.92
   8  -4  -2   53.33    9.40
  -8   4   2   53.73    8.51
   8  -4  -1  110.31   11.35
  -8   4   1  157.56   11.89
   8  -4   0   22.52    7.85
  -8   4   0   14.51    6.89
   8  -4   1  122.22   11.67
  -8   4  -1  140.15   11.55
   8  -4   2  147.72   12.44
  -8   4  -2  165.82   12.26
   8  -4   3   24.61    7.83
  -8   4  -3   27.78    7.50
   8  -4   4    0.20    7.03
  -8   4  -4    1.55    6.63
   8  -4   5   -3.81    8.03
  -8   4  -5    4.55    7.16
  -8   3   8   16.13    7.21
  -8   3   7    2.51    7.47
  -8   3   7    0.75    6.71
  -8   3   6  279.45   15.42
  -8   3   6  260.28   14.58
  -8   3   5    9.97    6.18
  -8   3   5   13.26    6.40
  -8   3   4    4.36    6.22
  -8   3   4    0.30    5.28
  -8   3   3   16.23    6.08
   8  -3  -2   10.88    7.16
  -8   3   2    0.43    5.72
  -8   3   1   72.08    9.13
   8  -3  -1   65.66    9.88
   8  -3   0   99.11   10.15
  -8   3   0  121.38   10.61
   8  -3   1  205.60   14.03
  -8   3  -1  210.08   12.69
   8  -3   2   13.89    8.04
  -8   3  -2    8.34    6.01
   8  -3   3   65.66    9.58
  -8   3  -3   75.88    9.41
   8  -3   4  -15.06    7.24
  -8   3  -4   -0.53    6.26
   8  -3   5  303.66   17.72
  -8   2   8   92.84    9.99
  -8   2   7   30.19    8.52
  -8   2   7   30.53    7.00
  -8   2   6  206.00   13.11
  -8   2   5  108.51   10.23
  -8   2   4  188.12   11.58
  -8   2   3  107.18    9.35
   8  -2  -2   29.33    9.47
  -8   2   2   43.52    7.54
   8  -2  -1   42.62    8.42
  -8   2   1   45.99    7.43
   8  -2   0    2.02    7.14
  -8   2   0    5.13    6.46
   8  -2   1    0.69    6.63
  -8   2  -1    5.39    5.59
   8  -2   2  107.50   10.59
  -8   2  -2  135.06    9.95
   8  -2   3   27.58    7.95
  -8   2  -3   19.38    6.25
   8  -2   4    4.07    8.05
   8  -2   5   34.73   10.11
  -8   1   8   52.53    7.97
  -8   1   7    7.27    6.13
  -8   1   6   31.39    6.50
  -8   1   5   23.50    7.22
  -8   1   4  215.41   12.77
   8  -1  -3   21.00    6.60
  -8   1   3   14.51    6.66
   8  -1  -2  113.00   10.04
  -8   1   2  132.70   10.08
   8  -1  -1    4.35    6.35
  -8   1   1    4.80    4.97
   8  -1   0   69.91    8.78
  -8   1   0   75.75    8.40
   8  -1   1  354.23   15.62
  -8   1  -1  443.64   16.30
   8  -1   2   -0.47    5.93
  -8   1  -2    1.19    5.38
   8  -1   3  154.51   12.37
   8  -1   4   33.31    7.80
   8  -1   5  393.79   20.62
  -8   0   8   29.33    7.17
  -8   0   7   13.31    5.85
  -8   0   6   27.42    6.76
  -8   0   5   28.73    5.33
  -8   0   4   60.35    8.74
  -8   0   3   18.68    7.07
  -8   0   2   79.47    8.34
   8   0  -1  128.82    9.75
  -8   0   1  163.76   10.77
   8   0   0   11.40    5.76
  -8   0   0   11.21    5.68
   8   0   1    2.40    5.65
  -8   0  -1    3.13    4.64
   8   0   2  145.33   11.02
   8   0   3    4.25    6.98
   8   0   4  129.95   12.75
   8   0   5   33.07    8.89
  -8  -1   8   48.25    8.67
  -8  -1   7    8.15    6.36
  -8  -1   6   53.47    7.83
  -8  -1   5   14.62    6.87
  -8  -1   4  391.84   16.53
  -8  -1   3   41.16    8.20
  -8  -1   2  129.16   10.60
  -8  -1   1   68.35    7.47
  -8  -1   0  178.32   10.28
   8   1   2   33.75    7.17
   8   1   3  254.91   14.73
   8   1   4    7.40    7.38
   8   1   5  174.72   14.16
  -8  -2   8   18.96    7.22
  -8  -2   7   20.52    6.76
  -8  -2   6  180.77   12.29
  -8  -2   5    9.81    6.14
  -8  -2   4  162.39   11.36
  -8  -2   3   20.82    6.11
  -8  -2   2   65.59    8.04
  -8  -2   1  226.48   12.05
  -8  -3   7   40.56    8.86
  -8  -3   6   12.81    6.23
  -8  -3   5   41.44    8.18
  -8  -3   4  314.92   14.56
  -8  -3   3    6.05    5.40
  -8  -3   2   22.51    5.53
  -8  -3  -1  174.69   11.31
  -8  -4   6  204.04   13.10
  -8  -4   5   -0.52    6.31
  -8  -4   4    6.18    5.81
  -8  -4   3    1.34    5.52
  -8  -4   0   20.73    6.45
   8   4   1    6.23    7.66
  -8  -4  -1  -10.88    6.87
  -8  -4  -2  147.86   11.97
  -8  -5   5   13.41    6.66
  -8  -5   4  129.59   10.40
  -8  -5   1   17.58    7.24
   8   5   0   -9.44    8.46
  -8  -5   0   -9.40    7.14
  -8  -5  -1  338.71   16.65
   8   5   1  313.19   18.40
  -8  -6   2   17.57    7.96
  -8  -6   1   32.37    9.36
  -9   6   4   61.09    8.83
   9  -6  -2   39.46    9.75
  -9   6   2   27.74    8.27
   9  -6  -1   15.15    9.32
  -9   6   1   -0.40    7.35
   9  -6   0  102.61   12.31
  -9   6   0  136.49   12.93
   9  -6   1  169.51   14.96
  -9   6  -1  185.79   14.69
  -9   5   5   32.26    7.52
  -9   5   5   48.58    8.57
  -9   5   4   10.32    6.86
  -9   5   3   26.51    8.19
   9  -5  -2  205.77   15.43
  -9   5   2  235.63   14.42
   9  -5  -1   -4.10    8.33
  -9   5   1    6.47    6.72
   9  -5   0   10.72    8.51
  -9   5   0   11.25    7.79
   9  -5   1  135.90   13.83
  -9   5  -1  132.94   12.55
   9  -5   2   19.63    9.03
  -9   5  -2   15.44    7.63
  -9   5  -3  232.03   15.16
  -9   4   6   89.63   10.54
  -9   4   6  119.19   10.54
  -9   4   5    4.53    6.93
  -9   4   5    6.94    6.90
  -9   4   4  258.90   14.96
   9  -4  -3   54.91   10.85
  -9   4   3   58.89    8.87
   9  -4  -2   31.52   10.41
  -9   4   2   37.04    8.15
   9  -4  -1    9.62    8.33
  -9   4   1    4.13    7.48
  -9   4   0   84.68   10.35
   9  -4   0   73.37   11.34
   9  -4   1  190.50   14.83
  -9   4  -1  185.79   13.37
   9  -4   2   10.75    7.87
  -9   4  -2    7.65    7.01
   9  -4   3    2.96    8.29
  -9   4  -3   25.41    8.33
  -9   4  -4  150.83   13.09
  -9   3   7   66.45    8.93
  -9   3   6   35.71    8.19
  -9   3   5   64.07    9.29
  -9   3   4   92.97   10.37
   9  -3  -3   -0.19    6.75
  -9   3   3    5.73    6.15
   9  -3  -2  420.36   19.42
  -9   3   2  479.66   18.54
   9  -3  -1   23.09    8.98
  -9   3   1   31.59    7.43
   9  -3   0   44.24    9.47
  -9   3   0   52.59    8.54
   9  -3   1   55.58    9.94
  -9   3  -1   49.91    8.91
   9  -3   2   16.02    7.43
  -9   3  -2   21.52    7.71
   9  -3   3  169.07   13.71
  -9   3  -3  213.80   13.80
  -9   3  -4   11.91    7.55
  -9   2   7   -5.04    7.35
  -9   2   6    5.78    7.41
  -9   2   5   19.12    6.91
   9  -2  -4  149.15   12.54
  -9   2   4  160.97   12.29
   9  -2  -3   23.47    7.67
  -9   2   3   24.10    7.36
   9  -2  -2  193.38   13.33
  -9   2   2  252.76   13.84
  -9   2   1   64.70    8.71
   9  -2  -1   62.63    9.74
   9  -2   0   26.09    8.20
  -9   2   0   27.39    7.21
   9  -2   1    4.12    7.24
  -9   2  -1    1.50    6.15
   9  -2   2    5.77    7.68
  -9   2  -2    3.49    6.54
   9  -2   3   70.23   10.83
  -9   2  -3   86.41    9.53
   9  -2   4   32.79    9.66
  -9   1   7   94.90    9.88
  -9   1   6    6.27    6.75
  -9   1   5   85.75   10.16
  -9   1   4   62.25    9.81
  -9   1   3    6.41    6.38
   9  -1  -2  182.63   12.45
  -9   1   2  217.33   13.06
  -9   1   1   92.12    9.62
   9  -1  -1   72.43    9.30
   9  -1   0  104.97   11.01
  -9   1   0  120.65    9.83
   9  -1   1   29.52    7.64
  -9   1  -1   16.67    6.23
   9  -1   2    7.04    6.76
  -9   1  -2   10.88    6.29
   9  -1   3  180.46   14.16
   9  -1   4   10.10    8.44
  -9   0   7   -9.75    6.79
  -9   0   6   13.33    6.90
  -9   0   5   20.74    7.45
  -9   0   4   -6.34    6.17
  -9   0   3  217.84   13.83
  -9   0   2  462.74   17.90
  -9   0   1   24.17    6.85
  -9   0   0   41.38    7.42
  -9   0  -1    3.06    5.93
   9   0   2    2.85    7.17
   9   0   3  113.52   11.39
   9   0   4   10.25    9.18
  -9  -1   6   26.93    7.95
  -9  -1   5  194.93   12.78
  -9  -1   4   59.34    8.67
  -9  -1   3   44.61    7.85
  -9  -1   2  176.73   12.29
  -9  -1   1  175.97   12.04
  -9  -1   0   43.34    7.46
  -9  -2   6    6.06    6.90
  -9  -2   5   35.48    7.15
  -9  -2   4   49.65    7.78
  -9  -2   3  121.84   10.44
  -9  -2   2  237.08   13.18
  -9  -2   1   34.23    7.10
  -9  -3   6    0.37    6.89
  -9  -3   5  124.90   11.51
  -9  -3   4   68.65    8.72
  -9  -3   3  121.41    9.81
  -9  -3   2  132.84   10.07
  -9  -4   4   27.75    7.30
  10  -4  -4   30.96   10.55
  10  -4  -3   -3.09    8.32
  10  -4  -2  170.41   14.84
 -10   4   2  214.79   14.51
  10  -4  -1   30.45   10.62
 -10   4   1   32.81    8.86
  10  -4   0   56.03   11.41
 -10   4   0   61.93    9.00
  10  -3  -4  201.15   15.14
 -10   3   4  238.52   14.64
  10  -3  -3   81.52   11.01
 -10   3   3   75.62   10.32
 -10   3   2   90.71   11.07
  10  -3  -2   65.88   11.59
  10  -3  -1  227.29   16.06
 -10   3   1  264.29   15.64
  10  -3   0   10.11    7.97
 -10   3   0   11.28    7.51
  10  -3   1    4.48    8.29
 -10   3  -1   10.19    7.98
 -10   3  -2   81.59   10.42
 -10   2   4  201.57   14.65
 -10   2   3   -2.66    8.03
 -10   2   2   94.70   11.22
  10  -2  -2   69.80   10.40
  10  -2  -1   26.19    8.28
 -10   2   1   22.67    6.97
  10  -2   0   20.63    7.38
 -10   2   0   15.93    6.79
 -10   2  -1  107.72   10.92
  10  -2   1   70.38   10.63
  10  -2   2    6.35    8.28
 -10   2  -2   -5.64    8.04
 -10   1   4   46.49    9.56
 -10   1   3   14.60    7.74
 -10   1   2    8.03    6.92
 -10   1   1   56.05    8.66
 -10   1   0   -8.22    6.83
  10  -1   1   22.94    8.20
 -10   1  -1   18.63    6.92
  10  -1   2   21.99    8.74
 -10   0   4  255.11   14.94
 -10   0   3    9.38    7.78
 -10   0   2   -1.12    7.42
 -10   0   1   27.54    7.21
 -10   0   0   54.23    7.79
 -10  -1   4   15.17    7.27
 -10  -1   3    2.50    7.11
 -10  -1   2   33.83    7.69
 -10  -1   1   89.60   10.74
 -10  -2   3   -9.39    7.48
 -10  -2   2   19.74    7.45

_computing_structure_solution     'SHELXT 2014/4 (Sheldrick, 2014)'
;
_shelx_hkl_checksum              98490
loop_
_space_group_symop_operation_xyz
'x, y, z'
'-x, -y, -z'
loop_
_atom_site_label
_atom_site_type_symbol
_atom_site_fract_x
_atom_site_fract_y
_atom_site_fract_z
_atom_site_U_iso_or_equiv
_atom_site_adp_type
_atom_site_occupancy
_atom_site_site_symmetry_order
_atom_site_calc_flag
_atom_site_refinement_flags_posn
_atom_site_refinement_flags_adp
P1 P 0.65274(13) 0.27202(13) 0.52548(12) 0.0111(3) Uani 1 1 d . .
P2 P 0.68228(13) 0.27984(12) 0.09312(12) 0.0107(3) Uani 1 1 d . .
Cl1 Cl 0.13465(12) 0.24657(12) 0.70448(11) 0.0144(3) Uani 1 1 d . .
C1 C 0.4803(5) 0.1961(5) 0.3386(5) 0.0102(8) Uani 1 1 d . .
H1 H 0.4821 0.0759 0.2971 0.012 Uiso 1 1 calc R U
C2 C 0.4942(5) 0.2959(5) 0.1972(5) 0.0112(8) Uani 1 1 d . .
H2 H 0.4959 0.4163 0.2408 0.013 Uiso 1 1 calc R U
C3 C 0.1665(5) 0.2444(5) 0.1184(5) 0.0136(8) Uani 1 1 d . .
H3A H 0.0697 0.1996 0.0262 0.016 Uiso 1 1 calc R U
H3B H 0.1597 0.3621 0.1593 0.016 Uiso 1 1 calc R U
C4 C 0.1571(5) 0.1418(5) 0.2564(5) 0.0128(8) Uani 1 1 d . .
H4A H 0.0505 0.1499 0.2974 0.015 Uiso 1 1 calc R U
H4B H 0.1582 0.0229 0.2144 0.015 Uiso 1 1 calc R U
O1 O 0.5672(4) 0.2138(4) 0.6649(3) 0.0149(6) Uani 1 1 d . .
H1C H 0.612(5) 0.295(5) 0.769(5) 0.022 Uiso 1 1 calc R U
O2 O 0.7869(4) 0.1536(4) 0.4853(3) 0.0165(6) Uani 1 1 d . U
H2C H 0.877(6) 0.193(4) 0.538(6) 0.025 Uiso 1 1 calc R U
O3 O 0.7157(4) 0.4568(3) 0.5482(3) 0.0138(6) Uani 1 1 d . .
O4 O 0.8446(4) 0.3763(3) 0.2220(3) 0.0137(6) Uani 1 1 d D .
H4 H 0.843(3) 0.4910(14) 0.236(4) 0.021 Uiso 1 1 calc DR U
O5 O 0.7010(4) 0.0991(3) 0.0458(3) 0.0154(6) Uani 1 1 d . .
O6 O 0.6404(4) 0.3763(3) -0.0504(3) 0.0138(6) Uani 1 1 d . .
N1 N 0.3101(4) 0.2112(4) 0.3938(4) 0.0123(7) Uani 1 1 d . .
H1A H 0.3030 0.1553 0.4777 0.015 Uiso 1 1 calc R U
H1B H 0.3078 0.3202 0.4310 0.015 Uiso 1 1 calc R U
N2 N 0.3349(4) 0.2340(4) 0.0603(4) 0.0119(7) Uani 1 1 d . .
H2A H 0.3407 0.2956 -0.0195 0.014 Uiso 1 1 calc R U
H2B H 0.3357 0.1264 0.0160 0.014 Uiso 1 1 calc R U
loop_
_atom_site_aniso_label
_atom_site_aniso_U_11
_atom_site_aniso_U_22
_atom_site_aniso_U_33
_atom_site_aniso_U_23
_atom_site_aniso_U_13
_atom_site_aniso_U_12
P1 0.0169(5) 0.0098(5) 0.0070(5) 0.0022(4) 0.0021(4) 0.0033(4)
P2 0.0159(5) 0.0096(5) 0.0074(5) 0.0014(4) 0.0032(4) 0.0039(4)
Cl1 0.0185(5) 0.0152(5) 0.0098(5) 0.0030(4) 0.0026(4) 0.0039(4)
C1 0.0170(19) 0.0079(18) 0.0074(17) 0.0016(14) 0.0042(15) 0.0058(15)
C2 0.0153(19) 0.0099(18) 0.0085(18) -0.0002(15) 0.0043(15) 0.0019(14)
C3 0.016(2) 0.016(2) 0.0103(18) 0.0041(15) 0.0035(15) 0.0056(15)
C4 0.017(2) 0.0110(19) 0.0103(19) 0.0017(15) 0.0021(16) 0.0023(15)
O1 0.0219(16) 0.0148(14) 0.0072(13) 0.0020(11) 0.0033(12) 0.0001(12)
O2 0.0180(15) 0.0151(14) 0.0145(14) 0.0006(11) -0.0024(12) 0.0058(12)
O3 0.0219(15) 0.0082(13) 0.0116(13) 0.0016(11) 0.0039(11) 0.0032(11)
O4 0.0189(15) 0.0111(14) 0.0108(13) 0.0015(11) 0.0032(11) 0.0017(11)
O5 0.0232(16) 0.0096(14) 0.0150(14) 0.0016(11) 0.0064(12) 0.0054(11)
O6 0.0203(15) 0.0155(15) 0.0067(13) 0.0033(11) 0.0040(11) 0.0039(11)
N1 0.0190(18) 0.0088(16) 0.0106(16) 0.0035(13) 0.0051(13) 0.0031(13)
N2 0.0172(17) 0.0113(16) 0.0079(15) 0.0028(13) 0.0016(13) 0.0043(13)
loop_
_atom_type_symbol
_atom_type_description
_atom_type_scat_dispersion_real
_atom_type_scat_dispersion_imag
_atom_type_scat_source
C C 0.0033 0.0016 'International Tables Vol C Tables 4.2.6.8 and 6.1.1.4'
H H 0.0000 0.0000 'International Tables Vol C Tables 4.2.6.8 and 6.1.1.4'
O O 0.0106 0.0060 'International Tables Vol C Tables 4.2.6.8 and 6.1.1.4'
N N 0.0061 0.0033 'International Tables Vol C Tables 4.2.6.8 and 6.1.1.4'
P P 0.1023 0.0942 'International Tables Vol C Tables 4.2.6.8 and 6.1.1.4'
Cl Cl 0.1484 0.1585 'International Tables Vol C Tables 4.2.6.8 and 6.1.1.4'
loop_
_geom_angle_atom_site_label_1
_geom_angle_atom_site_label_2
_geom_angle_atom_site_label_3
_geom_angle
O3 P1 O1 115.57(16)
O3 P1 O2 115.81(16)
O1 P1 O2 108.87(17)
O3 P1 C1 111.90(17)
O1 P1 C1 102.86(17)
O2 P1 C1 99.97(16)
O5 P2 O6 116.40(16)
O5 P2 O4 109.68(17)
O6 P2 O4 111.12(16)
O5 P2 C2 110.59(17)
O6 P2 C2 102.14(16)
O4 P2 C2 106.24(16)
N1 C1 C2 109.0(3)
N1 C1 P1 106.6(2)
C2 C1 P1 114.4(3)
N1 C1 H1 108.9
C2 C1 H1 108.9
P1 C1 H1 108.9
N2 C2 C1 109.0(3)
N2 C2 P2 105.4(2)
C1 C2 P2 117.4(3)
N2 C2 H2 108.3
C1 C2 H2 108.3
P2 C2 H2 108.3
N2 C3 C4 109.0(3)
N2 C3 H3A 109.9
C4 C3 H3A 109.9
N2 C3 H3B 109.9
C4 C3 H3B 109.9
H3A C3 H3B 108.3
N1 C4 C3 108.4(3)
N1 C4 H4A 110.0
C3 C4 H4A 110.0
N1 C4 H4B 110.0
C3 C4 H4B 110.0
H4A C4 H4B 108.4
P1 O1 H1C 109.5
P1 O2 H2C 109.5
P2 O4 H4 109.5
C4 N1 C1 112.4(3)
C4 N1 H1A 109.1
C1 N1 H1A 109.1
C4 N1 H1B 109.1
C1 N1 H1B 109.1
H1A N1 H1B 107.9
C3 N2 C2 113.8(3)
C3 N2 H2A 108.8
C2 N2 H2A 108.8
C3 N2 H2B 108.8
C2 N2 H2B 108.8
H2A N2 H2B 107.7
loop_
_geom_bond_atom_site_label_1
_geom_bond_atom_site_label_2
_geom_bond_distance
P1 O3 1.478(3)
P1 O1 1.537(3)
P1 O2 1.567(3)
P1 C1 1.843(4)
P2 O5 1.485(3)
P2 O6 1.533(3)
P2 O4 1.550(3)
P2 C2 1.855(4)
C1 N1 1.511(5)
C1 C2 1.531(5)
C1 H1 0.9800
C2 N2 1.514(5)
C2 H2 0.9800
C3 N2 1.503(5)
C3 C4 1.518(5)
C3 H3A 0.9700
C3 H3B 0.9700
C4 N1 1.492(5)
C4 H4A 0.9700
C4 H4B 0.9700
O1 H1C 0.98(5)
O2 H2C 0.77(5)
O4 H4 0.917(10)
N1 H1A 0.8900
N1 H1B 0.8900
N2 H2A 0.8900
N2 H2B 0.8900
loop_
_geom_hbond_atom_site_label_D
_geom_hbond_atom_site_label_H
_geom_hbond_atom_site_label_A
_geom_hbond_distance_DH
_geom_hbond_distance_HA
_geom_hbond_distance_DA
_geom_hbond_angle_DHA
_geom_hbond_site_symmetry_A
C1 H1 O1 0.98 2.39 3.271(5) 148.6 2_656
C3 H3A Cl1 0.97 2.87 3.398(4) 115.1 1_554
C3 H3B O3 0.97 2.58 3.280(5) 128.8 2_666
O1 H1C O6 0.98 1.51 2.447(4) 160.1 1_556
O2 H2C Cl1 0.77 2.20 2.960(3) 166.8 1_655
O4 H4 Cl1 0.92 2.07 2.985(3) 172.2 2_666
N1 H1A Cl1 0.89 2.56 3.122(3) 121.8 .
N1 H1A O2 0.89 2.58 3.287(4) 137.4 2_656
N1 H1B O3 0.89 1.82 2.690(4) 165.6 2_666
N2 H2A Cl1 0.89 2.51 3.123(3) 126.2 1_554
N2 H2A O6 0.89 2.44 2.889(4) 111.4 .
N2 H2A O6 0.89 2.60 3.138(4) 119.8 2_665
N2 H2B O5 0.89 1.78 2.655(4) 166.7 2_655
loop_
_geom_torsion_atom_site_label_1
_geom_torsion_atom_site_label_2
_geom_torsion_atom_site_label_3
_geom_torsion_atom_site_label_4
_geom_torsion
O3 P1 C1 N1 -90.2(3)
O1 P1 C1 N1 34.5(3)
O2 P1 C1 N1 146.6(2)
O3 P1 C1 C2 30.4(3)
O1 P1 C1 C2 155.0(3)
O2 P1 C1 C2 -92.8(3)
N1 C1 C2 N2 -54.5(4)
P1 C1 C2 N2 -173.7(2)
N1 C1 C2 P2 -174.1(2)
P1 C1 C2 P2 66.7(3)
O5 P2 C2 N2 -72.4(3)
O6 P2 C2 N2 52.1(3)
O4 P2 C2 N2 168.6(2)
O5 P2 C2 C1 49.1(3)
O6 P2 C2 C1 173.6(3)
O4 P2 C2 C1 -69.9(3)
N2 C3 C4 N1 58.1(4)
C3 C4 N1 C1 -61.7(4)
C2 C1 N1 C4 60.2(4)
P1 C1 N1 C4 -175.8(2)
C4 C3 N2 C2 -57.6(4)
C1 C2 N2 C3 55.8(4)
P2 C2 N2 C3 -177.4(2)
