#------------------------------------------------------------------------------
#$Date: 2019-10-28 17:50:29 +0200 (Mon, 28 Oct 2019) $
#$Revision: 220168 $
#$URL: file:///home/coder/svn-repositories/cod/cif/4/51/50/4515044.cif $
#------------------------------------------------------------------------------
#
# This file is available in the Crystallography Open Database (COD),
# http://www.crystallography.net/
#
# All data on this site have been placed in the public domain by the
# contributors.
#
data_4515044
loop_
_publ_author_name
'Ahamad, M. Naqi'
'Shahid, M.'
'Ahmad, Musheer'
'Sama, Farasha'
_publ_section_title
;
 Cu(II) MOFs Based on Bipyridyls: Topology, Magnetism, and Exploring
 Sensing Ability toward Multiple Nitroaromatic Explosives.
;
_journal_issue                   4
_journal_name_full               'ACS omega'
_journal_page_first              7738
_journal_page_last               7749
_journal_paper_doi               10.1021/acsomega.9b00715
_journal_volume                  4
_journal_year                    2019
_chemical_formula_moiety         'C5 H4 Cl Cu N'
_chemical_formula_sum            'C5 H4 Cl Cu N'
_chemical_formula_weight         177.09
_space_group_crystal_system      monoclinic
_space_group_IT_number           14
_space_group_name_Hall           '-P 2ybc'
_space_group_name_H-M_alt        'P 1 21/c 1'
_symmetry_Int_Tables_number      14
_symmetry_space_group_name_Hall  '-P 2ybc'
_symmetry_space_group_name_H-M   'P 1 21/c 1'
_atom_sites_solution_primary     iterative
_audit_creation_date             2019-03-29
_audit_creation_method
;
Olex2 1.2
(compiled 2018.05.29 svn.r3508 for OlexSys, GUI svn.r5506)
;
_cell_angle_alpha                90
_cell_angle_beta                 93.668(5)
_cell_angle_gamma                90
_cell_formula_units_Z            4
_cell_length_a                   3.7495(8)
_cell_length_b                   12.724(2)
_cell_length_c                   11.3220(18)
_cell_measurement_reflns_used    581
_cell_measurement_temperature    100(2)
_cell_measurement_theta_max      28.10
_cell_measurement_theta_min      3.13
_cell_volume                     539.05(17)
_computing_cell_refinement       'SAINT V8.38A (?, 2016)'
_computing_data_reduction        'SAINT V8.38A (?, 2016)'
_computing_molecular_graphics    'Olex2 (Dolomanov et al., 2009)'
_computing_publication_material  'Olex2 (Dolomanov et al., 2009)'
_computing_structure_refinement  'olex2.refine (Bourhis et al., 2015)'
_computing_structure_solution    'olex2.solve (Bourhis et al., 2015)'
_diffrn_ambient_temperature      100(2)
_diffrn_measured_fraction_theta_full 0.9906
_diffrn_measured_fraction_theta_max 0.9906
_diffrn_measurement_device_type  'Bruker APEX-II CCD'
_diffrn_measurement_method       '\f and \w scans'
_diffrn_radiation_type           'Mo K\a'
_diffrn_radiation_wavelength     0.71073
_diffrn_reflns_av_R_equivalents  0.0830
_diffrn_reflns_av_unetI/netI     0.1285
_diffrn_reflns_limit_h_max       4
_diffrn_reflns_limit_h_min       -4
_diffrn_reflns_limit_k_max       15
_diffrn_reflns_limit_k_min       -16
_diffrn_reflns_limit_l_max       15
_diffrn_reflns_limit_l_min       -13
_diffrn_reflns_number            2759
_diffrn_reflns_theta_full        26.0285
_diffrn_reflns_theta_max         26.03
_diffrn_reflns_theta_min         3.20
_exptl_absorpt_coefficient_mu    4.406
_exptl_absorpt_correction_T_max  0.7457
_exptl_absorpt_correction_T_min  0.6113
_exptl_absorpt_correction_type   multi-scan
_exptl_absorpt_process_details
;
SADABS-2016/2 (Bruker,2016/2) was used for absorption correction.
wR2(int) was 0.0581 before and 0.0389 after correction.
The Ratio of minimum to maximum transmission is 0.8198.
The \l/2 correction factor is Not present.
;
_exptl_crystal_colour            blue
_exptl_crystal_colour_primary    blue
_exptl_crystal_density_diffrn    2.1819
_exptl_crystal_description       block
_exptl_crystal_F_000             350.0114
_exptl_crystal_size_max          0.35
_exptl_crystal_size_mid          0.25
_exptl_crystal_size_min          0.16
_refine_diff_density_max         1.7396
_refine_diff_density_min         -1.5479
_refine_diff_density_rms         0.3988
_refine_ls_d_res_high            0.8098
_refine_ls_d_res_low             6.3620
_refine_ls_extinction_expression Fc^*^=kFc[1+0.001xFc^2^\l^3^/sin(2\q)]^-1/4^
_refine_ls_goodness_of_fit_ref   1.1100
_refine_ls_hydrogen_treatment    mixed
_refine_ls_matrix_type           full
_refine_ls_number_constraints    9
_refine_ls_number_parameters     68
_refine_ls_number_reflns         1059
_refine_ls_number_restraints     0
_refine_ls_restrained_S_all      1.1100
_refine_ls_R_factor_all          0.0957
_refine_ls_R_factor_gt           0.0580
_refine_ls_shift/su_max          0.0003
_refine_ls_shift/su_mean         0.0001
_refine_ls_structure_factor_coef Fsqd
_refine_ls_weighting_details
'w=1/[\s^2^(Fo^2^)+(0.0224P)^2^+0.8337P] where P=(Fo^2^+2Fc^2^)/3'
_refine_ls_weighting_scheme      calc
_refine_ls_wR_factor_gt          0.0905
_refine_ls_wR_factor_ref         0.1061
_reflns_Friedel_coverage         0.0
_reflns_limit_h_max              4
_reflns_limit_h_min              -4
_reflns_limit_k_max              15
_reflns_limit_k_min              0
_reflns_limit_l_max              13
_reflns_limit_l_min              0
_reflns_number_gt                759
_reflns_number_total             1059
_reflns_threshold_expression     I>=2u(I)
_iucr_refine_instructions_details
;
TITL 
CELL 0.71073 3.7495 12.7241 11.322 90 93.668 90
ZERR 4 0.0008 0.0022 0.0018 0 0.005 0
LATT 1
SYMM -X,0.5+Y,0.5-Z
SFAC C H Cl Cu N
UNIT 20 16 4 4 4
EADP C3 C4

L.S. 4
PLAN  20
SIZE 0.35 0.25 0.16
TEMP -173(2)
FMAP 2
ACTA 
EXTI 0.004275
OMIT -3 52.1
OMIT 0 1 1
WGHT 0.022388 0.833731
FVAR 0.772793
REM <olex2.extras>
REM <HklSrc "%.\\NH13_0m_a.hkl">
REM </olex2.extras>

Cu1   4     0.73563  0.42699  0.44682  11.00000  0.01961  0.01192  0.01964 =
 0.00249 -0.00034 -0.00326 
Cl1   3     0.80084  0.50031  0.64920  11.00000  0.01040  0.01538  0.01216 =
 0.00211 -0.00136 -0.00173 
N1    5     0.64331  0.27504  0.46907  11.00000  0.01040  0.01153  0.01026 =
 0.00046  0.00084 -0.00006 
C1    1     0.47111  0.21859  0.38207  11.00000  0.01666  0.01298  0.00633 =
 0.00306  0.00294 -0.00110 
AFIX 43
H1    2     0.38622  0.25354  0.31163  11.00000 -1.20000 
AFIX 0
C2    1     0.41373  0.11132  0.39188  11.00000  0.01140  0.01299  0.00987 =
 -0.00066  0.00190  0.00174 
AFIX 43
H2    2     0.29425  0.07436  0.32806  11.00000 -1.20000 
AFIX 0
C3    1     0.52941  0.05706  0.49438  11.00000  0.00910  0.01159  0.01094 =
 0.00091  0.00339  0.00078 
C4    1     0.69869  0.11735  0.58315  11.00000  0.00910  0.01159  0.01094 =
 0.00091  0.00339  0.00078 
AFIX 43
H4    2     0.78034  0.08475  0.65538  11.00000 -1.20000 
AFIX 0
C5    1     0.75090  0.22358  0.56874  11.00000  0.01360  0.01805  0.00982 =
 -0.00166 -0.00240 -0.00169 
AFIX 43
H5    2     0.86778  0.26209  0.63184  11.00000 -1.20000 
AFIX 0
HKLF 4

END
Q1 1 1 0.45 0.722222 11 0.05 1.74
Q2 1 0.666667 0.35 0.5 11 0.05 1.36
Q3 1 1 0.3 0.611111 11 0.05 1.29
Q4 1 1.166667 0.125 0.638889 11 0.05 1.27
Q5 1 0 0.225 0.388889 11 0.05 1.25
Q6 1 0.5 0.2 0.583333 11 0.05 1.19
Q7 1 0.75 0.025 0.694444 11 0.05 1.18
Q8 1 1.083333 0.375 0.444444 11 0.05 1.14
Q9 1 1 0.15 0.527778 11 0.05 1.13
Q10 1 0.666667 0.5 0.416667 11 0.05 1.11
Q11 1 0.833333 0.3 0.444444 11 0.05 1.09
Q12 1 0.833333 0.225 0.777778 11 0.05 1.06
Q13 1 0.75 0.375 0.722222 11 0.05 1.04
Q14 1 0.166667 0.175 0.444444 11 0.05 1.04
Q15 1 0.333333 0.125 0.305556 11 0.05 1.04
Q16 1 0.833333 0.425 0.555556 11 0.05 1.04
Q17 1 0.416667 0.3 0.361111 11 0.05 1.02
Q18 1 0.583333 0.15 0.416667 11 0.05 0.99
Q19 1 0.666667 0.45 0.666667 11 0.05 0.99
Q20 1 0.166667 0.075 0.416667 11 0.05 0.98

  REM The information below was added by Olex2.
  REM
  REM R1 = 0.0580 for 759 Fo > 4sig(Fo) and 0.0957 for all 1059 data
  REM 68 parameters refined using 0 restraints
  REM Highest difference peak 1.7396, deepest hole -1.5479
  REM Mean Shift 0.0001, Max Shift 0.0003.

  REM +++ Tabular Listing of Refinement Information +++
  REM R1_all = 0.0957
  REM R1_gt = 0.0580
  REM wR_ref = 0.1061
  REM GOOF = 1.1100
  REM Shift_max = 0.0003
  REM Shift_mean = 0.0001
  REM Reflections_all = 1059
  REM Reflections_gt = 759
  REM Parameters = 68
  REM Hole = -1.5479
  REM Peak = 1.7396
  REM Flack = n/a

  
;
_cod_data_source_file            ao9b00715_si_003.cif
_cod_data_source_block           MOF2
_cod_database_code               4515044
_olex2_refinement_description
;
1. Fixed Uiso
 At 1.2 times of:
  All C(H) groups
2. Uiso/Uaniso restraints and constraints
Uanis(C3) = Uanis(C4)
3.a Aromatic/amide H refined with riding coordinates:
 C1(H1), C5(H5), C4(H4), C2(H2)
;
_iucr_refine_fcf_details
;
data_NH13_0m_a
_computing_structure_refinement   'olex2.refine (Bourhis et al., 2015)'
_shelx_refln_list_code            4
loop_
  _space_group_symop_id
  _space_group_symop_operation_xyz
  1  x,y,z
  2  -x,y+1/2,-z+1/2
  3  -x,-y,-z
  4  x,-y-1/2,z-1/2

_space_group_crystal_system       monoclinic
_space_group_IT_number            14
_space_group_name_H-M_alt         'P 1 21/c 1'
_space_group_name_Hall            '-P 2ybc'
_symmetry_space_group_name_H-M    'P 1 21/c 1'
_symmetry_space_group_name_Hall   '-P 2ybc'
_symmetry_Int_Tables_number       14
_cell_length_a                    3.7495(8)
_cell_length_b                    12.724(2)
_cell_length_c                    11.3220(18)
_cell_angle_alpha                 90
_cell_angle_beta                  93.668(5)
_cell_angle_gamma                 90
_cell_volume                      539.05(17)
loop_
  _refln_index_h
  _refln_index_k
  _refln_index_l
  _refln_F_squared_calc
  _refln_F_squared_meas
  _refln_F_squared_sigma
  _refln_F_squared_weight
  _refln_observed_status
-4 0 2 3195.490 3228.870 286.634 3.632 o
-4 0 4 5.537 0.167 65.806 75.417 o
-4 0 6 257.385 306.727 105.641 28.604 o
-4 1 1 2138.960 1865.660 161.427 10.942 o
-4 1 2 11.413 191.041 118.200 23.289 o
-4 1 3 417.299 440.721 88.538 39.453 o
-4 1 4 91.255 46.885 75.518 56.645 o
-4 1 5 172.757 257.950 90.850 38.715 o
-4 1 6 100.841 -34.352 61.315 85.603 o
-4 1 7 3.103 -75.439 47.462 144.971 o
-4 2 1 47.874 39.052 115.194 24.558 o
-4 2 2 1429.750 1380.110 154.432 12.556 o
-4 2 3 190.004 459.588 116.358 23.663 o
-4 2 4 4.802 59.527 173.206 10.887 o
-4 2 5 116.350 154.871 69.510 66.055 o
-4 2 6 0.975 211.720 116.023 24.168 o
-4 2 7 82.947 245.998 99.789 32.417 o
-4 3 1 986.051 1168.320 161.401 11.896 o
-4 3 2 129.984 162.275 57.099 96.478 o
-4 3 3 38.061 104.848 50.352 126.312 o
-4 3 4 1316.650 1323.620 145.855 14.060 o
-4 3 5 521.662 500.378 85.504 41.514 o
-4 3 6 2166.740 1993.410 245.961 5.068 o
-4 3 7 12.923 60.379 61.965 84.580 o
-4 4 1 0.757 -3.181 53.917 112.407 o
-4 4 2 166.222 193.541 72.328 60.602 o
-4 4 3 322.371 510.348 133.270 18.001 o
-4 4 4 436.130 368.468 149.261 14.392 o
-4 4 5 424.311 392.997 116.199 23.457 o
-4 4 6 42.591 151.354 91.576 38.654 o
-4 5 1 107.071 181.693 67.740 69.428 o
-4 5 2 89.699 174.964 83.555 46.116 o
-4 5 3 268.722 129.921 99.614 32.253 o
-4 5 4 211.786 163.410 112.842 25.305 o
-4 5 5 323.485 378.896 140.135 16.356 o
-4 5 6 168.314 211.467 90.069 39.465 o
-4 6 1 203.270 235.839 89.910 39.446 o
-4 6 2 151.273 152.458 153.029 13.874 o
-4 6 3 14.778 -3.591 51.439 123.134 o
-4 6 4 821.734 735.237 114.923 23.043 o
-4 6 5 99.818 136.954 110.832 26.392 o
-4 7 1 21.331 60.092 57.232 98.897 o
-4 7 2 79.463 119.271 70.276 65.100 o
-4 7 3 206.412 264.199 143.158 15.783 o
-4 7 4 3.694 100.691 72.328 62.110 o
-3 0 2 38.468 -4.186 40.522 196.441 o
-3 0 4 477.098 611.612 132.265 18.091 o
-3 0 6 3401.750 3490.560 268.549 4.041 o
-3 0 8 615.683 598.217 130.926 18.323 o
-3 0 10 0.704 250.147 80.541 49.818 o
-3 1 1 1.567 36.671 28.456 398.134 o
-3 1 2 322.538 321.060 70.705 61.437 o
-3 1 3 20.869 9.749 30.056 356.077 o
-3 1 4 6.691 34.017 34.986 264.133 o
-3 1 5 2348.080 2688.870 165.198 10.093 o
-3 1 6 35.100 6.336 80.617 50.121 o
-3 1 7 1649.290 1578.000 211.040 6.922 o
-3 1 8 20.272 -51.091 44.281 165.718 o
-3 1 9 208.359 202.107 72.328 60.248 o
-3 1 10 41.939 251.327 222.761 6.573 o
-3 1 11 146.863 183.886 243.022 5.520 o
-3 2 1 1198.710 1238.560 161.066 11.803 o
-3 2 2 1.345 22.344 66.057 74.779 o
-3 2 3 1744.580 1737.620 132.503 15.918 o
-3 2 4 1377.210 1411.520 117.289 20.579 o
-3 2 5 488.471 421.646 82.628 44.617 o
-3 2 6 4004.560 4196.050 339.965 2.568 o
-3 2 7 123.819 103.559 95.184 35.662 o
-3 2 8 87.554 166.022 65.722 73.930 o
-3 2 9 702.891 681.105 104.887 27.641 o
-3 2 10 340.578 277.775 128.498 19.420 o
-3 2 11 359.675 199.393 127.418 19.762 o
-3 3 1 0.721 1.811 39.350 210.949 o
-3 3 2 1736.050 1525.770 147.670 13.293 o
-3 3 3 498.961 434.341 74.659 53.698 o
-3 3 4 90.086 85.391 45.390 152.865 o
-3 3 5 322.957 208.602 147.252 14.882 o
-3 3 6 405.404 365.549 77.589 50.875 o
-3 3 7 452.900 432.677 85.516 41.983 o
-3 3 8 733.916 840.792 144.656 14.948 o
-3 3 9 114.779 273.394 62.483 80.539 o
-3 3 10 549.033 508.315 133.772 17.680 o
-3 4 1 2623.590 2914.470 174.387 8.981 o
-3 4 2 1084.690 1170.750 200.499 7.828 o
-3 4 3 1301.960 1457.870 125.237 18.431 o
-3 4 4 1196.000 1014.580 125.651 18.803 o
-3 4 5 122.879 164.271 42.432 169.886 o
-3 4 6 21.359 81.648 64.291 78.399 o
-3 4 7 217.036 302.223 95.938 34.625 o
-3 4 8 77.928 35.934 108.580 27.592 o
-3 4 9 817.309 863.315 165.336 11.517 o
-3 4 10 123.225 -44.112 65.948 73.926 o
-3 5 1 147.765 156.968 61.856 82.462 o
-3 5 2 918.047 995.594 224.352 6.338 o
-3 5 3 1810.340 1665.580 193.969 8.040 o
-3 5 4 290.427 249.677 63.924 75.037 o
-3 5 5 57.022 111.415 48.800 133.567 o
-3 5 6 8.645 118.221 47.897 140.102 o
-3 5 7 51.945 79.914 184.843 9.551 o
-3 5 8 390.682 574.625 247.041 5.313 o
-3 5 9 823.357 692.790 110.672 24.753 o
-3 5 10 614.755 503.716 91.296 36.379 o
-3 6 1 375.991 442.790 67.714 65.407 o
-3 6 2 1236.280 1273.930 116.345 21.279 o
-3 6 3 230.328 168.997 58.456 90.429 o
-3 6 4 1386.140 1356.750 123.357 18.876 o
-3 6 5 7.929 -49.611 42.090 184.022 o
-3 6 6 51.560 51.755 99.706 32.730 o
-3 6 7 0.637 66.978 50.168 128.870 o
-3 6 8 618.559 557.502 94.441 34.054 o
-3 6 9 84.788 -58.615 50.443 126.032 o
-3 7 1 139.365 144.664 50.157 123.638 o
-3 7 2 8.432 40.362 25.820 478.666 o
-3 7 3 1917.940 1942.750 148.031 12.878 o
-3 7 4 97.817 198.786 55.938 100.642 o
-3 7 5 603.029 491.282 216.909 6.854 o
-3 7 6 26.263 94.102 110.506 26.672 o
-3 7 7 142.870 89.052 74.924 57.082 o
-3 7 8 24.427 -12.675 73.509 60.331 o
-3 7 9 318.690 63.405 83.045 45.912 o
-3 8 1 130.272 155.728 77.945 52.707 o
-3 8 2 1335.000 1455.430 129.353 17.360 o
-3 8 3 316.921 203.306 66.311 70.002 o
-3 8 4 1582.770 1705.250 133.689 15.906 o
-3 8 5 95.456 45.062 62.245 82.884 o
-3 8 6 153.778 71.349 129.511 19.354 o
-3 8 7 38.904 24.680 52.204 118.660 o
-3 8 8 569.162 557.704 92.900 35.286 o
-3 9 1 0.068 49.673 67.219 72.109 o
-3 9 2 696.369 654.307 83.193 42.316 o
-3 9 3 869.861 783.792 114.496 23.072 o
-3 9 4 146.173 -42.010 59.148 91.179 o
-3 9 5 2.266 27.044 52.139 119.836 o
-3 9 6 12.469 91.743 91.743 38.677 o
-3 9 7 7.259 -102.836 55.188 107.165 o
-3 10 1 1802.860 1676.220 108.513 22.088 o
-3 10 2 275.848 421.140 63.377 75.311 o
-3 10 3 239.166 467.650 62.775 76.837 o
-3 10 4 138.642 36.034 55.165 104.226 o
-3 10 5 22.568 -65.228 90.496 39.846 o
-3 10 6 77.183 65.043 183.579 9.679 o
-3 11 1 143.185 155.181 105.849 28.826 o
-3 11 2 749.336 718.559 103.310 28.265 o
-3 11 3 40.665 196.391 60.615 87.021 o
-3 11 4 433.708 369.274 223.180 6.505 o
-2 0 2 4470.740 4324.020 231.058 4.887 o
-2 0 4 52.203 62.122 37.843 220.843 o
-2 0 6 16.181 0.335 32.819 300.872 o
-2 0 8 431.064 523.385 112.172 24.997 o
-2 0 10 3461.760 3738.690 258.838 4.284 o
-2 0 12 575.183 445.523 122.888 20.834 o
-2 1 1 13468.600 14120.500 292.309 1.713 o
-2 1 2 499.226 646.875 106.738 27.233 o
-2 1 3 1757.470 1795.370 106.480 22.721 o
-2 1 4 8.718 -28.985 20.298 783.997 o
-2 1 5 41.728 -0.241 24.349 530.184 o
-2 1 6 741.728 661.600 85.382 40.138 o
-2 1 7 37.051 38.524 41.434 186.883 o
-2 1 8 708.126 615.561 87.411 38.745 o
-2 1 9 758.105 812.266 92.924 34.101 o
-2 1 10 30.320 85.298 49.550 130.888 o
-2 1 11 1863.190 2123.370 148.461 12.780 o
-2 1 12 91.547 233.616 168.266 11.492 o
-2 2 1 277.454 350.991 58.854 86.893 o
-2 2 2 1086.050 940.802 79.376 42.415 o
-2 2 3 3983.660 3993.930 160.043 8.856 o
-2 2 4 1516.530 1629.370 123.726 18.346 o
-2 2 5 3094.440 3035.280 142.759 11.806 o
-2 2 6 83.985 41.736 72.412 61.616 o
-2 2 7 578.483 536.528 199.579 8.077 o
-2 2 8 3.042 -28.215 71.156 64.528 o
-2 2 9 4.895 -46.373 55.332 106.652 o
-2 2 10 1793.380 1743.670 124.367 17.637 o
-2 2 11 19.992 -2.271 47.340 145.108 o
-2 2 12 937.932 927.119 122.840 20.043 o
-2 3 1 2272.970 2334.100 99.921 22.489 o
-2 3 2 1728.650 1853.540 110.075 21.554 o
-2 3 3 156.376 155.725 51.322 117.716 o
-2 3 4 3506.070 3347.980 149.237 10.499 o
-2 3 5 296.060 353.711 71.918 59.587 o
-2 3 6 2618.510 2587.330 202.007 7.045 o
-2 3 7 332.027 382.342 66.284 68.873 o
-2 3 8 730.834 769.201 127.418 19.076 o
-2 3 9 107.826 97.345 97.864 33.799 o
-2 3 10 19.176 -5.246 41.477 188.799 o
-2 3 11 636.677 655.509 187.941 9.062 o
-2 3 12 851.528 1047.150 119.791 21.038 o
-2 4 1 229.780 286.529 44.275 148.650 o
-2 4 2 137.258 122.885 32.442 278.933 o
-2 4 3 2342.020 2332.750 126.577 15.778 o
-2 4 4 349.043 327.725 62.461 76.989 o
-2 4 5 3542.040 3665.810 169.182 8.590 o
-2 4 6 235.285 256.140 58.849 88.461 o
-2 4 7 2016.290 1877.680 117.167 18.874 o
-2 4 8 681.107 691.763 92.246 35.086 o
-2 4 9 199.163 185.860 54.367 104.177 o
-2 4 10 79.571 -36.058 46.252 149.587 o
-2 4 11 105.421 14.477 107.241 28.257 o
-2 4 12 3.906 149.975 61.201 86.214 o
-2 5 1 160.878 145.338 35.472 233.413 o
-2 5 2 77.962 46.871 19.799 725.263 o
-2 5 3 2863.150 2921.420 148.591 11.408 o
-2 5 4 792.807 888.998 98.005 30.735 o
-2 5 5 362.958 371.893 69.268 63.213 o
-2 5 6 1048.150 976.620 94.617 31.631 o
-2 5 7 2959.830 2699.650 141.053 12.366 o
-2 5 8 280.614 227.488 55.814 97.007 o
-2 5 9 1375.430 1299.220 103.297 25.715 o
-2 5 10 3.601 -45.526 101.296 31.845 o
-2 5 11 2.406 77.989 118.627 23.186 o
-2 5 12 88.491 383.585 113.009 25.248 o
-2 6 1 3.019 -0.718 22.389 649.804 o
-2 6 2 1254.510 1241.310 76.902 42.228 o
-2 6 3 164.804 233.649 80.533 49.074 o
-2 6 4 2392.630 2300.770 132.944 14.564 o
-2 6 5 356.291 324.211 64.891 71.690 o
-2 6 6 302.926 309.119 60.800 81.756 o
-2 6 7 500.076 316.384 63.016 73.719 o
-2 6 8 2604.570 2548.810 131.486 14.337 o
-2 6 9 316.530 299.814 62.374 77.848 o
-2 6 10 284.794 358.803 67.641 66.954 o
-2 6 11 9.298 119.037 99.279 33.028 o
-2 7 1 1454.040 1515.200 88.911 31.966 o
-2 7 2 101.001 64.854 36.989 225.968 o
-2 7 3 3439.120 3561.980 131.261 12.473 o
-2 7 4 46.464 56.639 56.253 101.902 o
-2 7 5 640.481 689.106 98.282 31.356 o
-2 7 6 40.664 -12.778 42.158 181.540 o
-2 7 7 910.866 1003.240 96.161 31.196 o
-2 7 8 145.887 271.991 52.549 111.325 o
-2 7 9 256.259 285.818 181.243 9.872 o
-2 7 10 51.352 71.166 49.156 132.514 o
-2 7 11 6.218 -114.516 88.897 41.338 o
-2 8 1 11.620 18.199 49.480 132.861 o
-2 8 2 843.201 944.871 82.808 40.986 o
-2 8 3 993.718 970.037 76.312 45.821 o
-2 8 4 1718.230 1711.650 91.545 28.955 o
-2 8 5 696.841 566.560 125.233 19.877 o
-2 8 6 359.030 421.301 66.822 67.330 o
-2 8 7 23.666 57.123 45.304 156.969 o
-2 8 8 2341.680 2277.650 116.994 17.839 o
-2 8 9 13.382 -21.099 49.137 134.945 o
-2 8 10 263.987 264.866 101.958 30.686 o
-2 9 1 6.859 31.606 54.411 109.919 o
-2 9 2 484.643 545.115 70.525 59.182 o
-2 9 3 906.314 866.506 73.643 49.764 o
-2 9 4 1397.050 1457.510 84.925 34.767 o
-2 9 5 354.059 432.276 77.197 51.479 o
-2 9 6 996.636 912.397 104.315 26.878 o
-2 9 7 1047.110 887.521 153.447 13.141 o
-2 9 8 145.803 31.647 79.704 50.683 o
-2 9 9 564.530 780.716 187.355 9.120 o
-2 9 10 14.508 288.643 107.651 27.975 o
-2 10 1 33.706 -23.302 31.600 321.189 o
-2 10 2 1.783 -60.281 57.769 97.904 o
-2 10 3 473.190 506.062 67.366 64.599 o
-2 10 4 572.483 534.270 68.333 61.745 o
-2 10 5 1471.330 1582.030 115.205 20.857 o
-2 10 6 103.455 47.902 51.585 119.477 o
-2 10 7 1399.450 1118.180 105.709 24.915 o
-2 10 8 393.591 302.541 113.679 24.588 o
-2 10 9 259.399 -165.420 105.139 29.146 o
-2 11 1 871.194 909.569 259.097 4.788 o
-2 11 2 642.220 627.028 94.934 33.530 o
-2 11 3 116.779 210.316 60.910 85.014 o
-2 11 4 1709.000 1614.100 153.376 12.411 o
-2 11 5 522.428 401.066 185.681 9.339 o
-2 11 6 679.251 645.817 199.319 8.068 o
-2 11 7 18.420 94.379 79.863 50.943 o
-2 11 8 16.141 65.974 124.061 21.196 o
-2 12 1 0.037 -9.332 66.308 74.332 o
-2 12 2 1076.730 1139.330 123.696 19.431 o
-2 12 3 297.120 338.363 60.054 83.500 o
-2 12 4 110.759 124.099 55.996 100.926 o
-2 12 5 612.322 745.510 107.697 26.437 o
-2 12 6 7.406 -1.155 76.514 55.786 o
-2 12 7 447.695 54.420 130.256 18.913 o
-2 13 1 2412.340 2597.900 193.375 7.685 o
-2 13 2 54.917 247.708 63.281 79.501 o
-2 13 3 55.297 38.143 43.188 171.316 o
-2 13 4 8.931 21.646 41.619 187.484 o
-2 13 5 66.031 -67.427 55.073 106.434 o
-2 14 1 4.007 -109.158 82.383 48.139 o
-2 14 2 1408.310 1305.320 248.046 5.137 o
-1 0 2 5126.170 5441.270 128.843 9.424 o
-1 0 4 7197.500 7482.400 280.606 2.932 o
-1 0 6 10992.500 10892.500 283.871 2.180 o
-1 0 8 75.735 165.085 59.611 89.615 o
-1 0 10 159.825 211.635 80.039 49.748 o
-1 0 12 32.652 2.847 107.986 27.981 o
-1 1 1 1238.460 1191.460 37.433 103.092 o
-1 1 2 9177.590 9706.880 138.397 4.616 o
-1 1 3 3678.430 3851.600 171.178 8.292 o
-1 1 4 804.350 975.864 42.875 111.598 o
-1 1 5 11683.000 12122.800 243.790 2.344 o
-1 1 6 608.597 618.612 44.715 121.166 o
-1 1 7 2349.030 2344.970 108.711 19.762 o
-1 1 8 859.794 813.947 76.498 47.273 o
-1 1 9 96.182 147.544 43.833 161.614 o
-1 1 10 112.875 80.203 45.974 148.300 o
-1 1 11 21.758 -82.107 57.593 98.171 o
-1 1 13 40.864 -92.933 65.547 75.663 o
-1 2 1 3180.210 3251.630 77.620 23.612 o
-1 2 2 207.139 285.149 26.554 352.660 o
-1 2 3 985.588 945.399 35.060 130.025 o
-1 2 4 2714.400 2601.500 68.820 30.951 o
-1 2 5 143.671 202.221 27.392 363.248 o
-1 2 6 3613.440 3543.040 98.200 17.115 o
-1 2 7 200.566 227.345 33.957 242.142 o
-1 2 8 167.580 114.709 28.995 334.511 o
-1 2 9 1268.120 1420.100 81.237 38.133 o
-1 2 10 528.401 582.996 100.618 30.460 o
-1 2 11 1543.230 1584.040 117.375 20.063 o
-1 2 12 87.246 21.885 50.932 123.291 o
-1 2 13 432.386 298.746 85.054 42.818 o
-1 3 1 1396.300 1556.650 53.804 63.374 o
-1 3 2 2767.980 2835.220 63.199 31.968 o
-1 3 3 311.415 364.628 36.289 198.604 o
-1 3 4 261.529 292.542 25.267 362.278 o
-1 3 5 3263.770 3263.460 72.047 24.665 o
-1 3 6 646.452 679.423 43.044 124.858 o
-1 3 7 237.787 301.115 48.088 127.573 o
-1 3 8 2091.970 2102.240 95.670 24.948 o
-1 3 9 537.402 564.386 62.153 73.146 o
-1 3 10 1510.000 1489.620 89.346 31.521 o
-1 3 11 120.813 87.025 73.057 60.136 o
-1 3 12 272.760 221.919 77.770 51.924 o
-1 3 13 109.653 187.118 59.020 90.645 o
-1 4 1 6367.390 6396.300 115.097 8.391 o
-1 4 2 2680.340 2826.800 65.987 31.537 o
-1 4 3 1893.170 1909.920 56.263 49.854 o
-1 4 4 88.657 108.843 22.183 567.251 o
-1 4 5 206.521 219.760 32.933 254.790 o
-1 4 6 15.413 -27.349 12.569 1961.640 o
-1 4 7 2516.540 2509.420 107.737 19.371 o
-1 4 8 915.150 900.389 42.083 110.970 o
-1 4 9 2366.440 2466.780 79.361 29.218 o
-1 4 10 0.997 51.132 22.910 605.491 o
-1 4 11 1038.210 981.230 62.619 61.763 o
-1 4 12 1529.620 1601.010 168.601 10.566 o
-1 4 13 214.047 498.771 125.902 20.228 o
-1 5 1 3003.120 3274.280 98.885 19.052 o
-1 5 2 5530.840 5690.930 139.825 8.204 o
-1 5 3 5496.240 5688.650 101.981 10.704 o
-1 5 4 926.907 909.841 47.151 95.656 o
-1 5 5 52.773 32.935 16.791 1016.610 o
-1 5 6 94.171 104.768 19.564 696.837 o
-1 5 7 211.043 240.357 28.683 316.912 o
-1 5 8 696.025 741.197 70.990 55.528 o
-1 5 9 536.867 769.999 168.601 11.220 o
-1 5 10 695.027 789.423 181.662 9.649 o
-1 5 11 339.744 310.746 100.953 31.063 o
-1 5 12 255.722 300.699 92.748 36.868 o
-1 5 13 519.630 720.117 159.224 12.564 o
-1 6 1 1072.570 1062.430 69.430 52.001 o
-1 6 2 2937.920 2733.540 93.024 21.538 o
-1 6 3 470.161 485.207 34.795 190.011 o
-1 6 4 2324.580 2173.520 75.777 31.945 o
-1 6 5 52.657 39.296 18.395 860.674 o
-1 6 6 816.057 803.212 91.333 34.959 o
-1 6 7 41.396 126.237 70.495 64.975 o
-1 6 8 1856.860 1948.870 215.318 6.573 o
-1 6 9 181.402 217.830 99.781 32.243 o
-1 6 10 14.497 202.760 83.388 46.550 o
-1 6 11 143.604 -9.042 94.088 36.570 o
-1 7 1 2216.050 2065.770 108.625 20.482 o
-1 7 2 362.193 401.864 46.307 129.285 o
-1 7 3 6019.600 6206.110 440.667 1.501 o
-1 7 4 2.449 4.240 11.950 2248.760 o
-1 7 5 1447.540 1477.150 62.345 52.998 o
-1 7 6 159.435 174.337 24.282 441.505 o
-1 7 7 2786.440 3009.030 268.047 4.172 o
-1 7 8 182.821 134.777 87.055 42.271 o
-1 7 9 1934.660 1919.920 240.770 5.319 o
-1 7 10 1.040 201.253 68.150 69.489 o
-1 7 11 448.508 542.809 241.607 5.550 o
-1 7 12 84.654 149.512 112.172 25.781 o
-1 8 1 777.682 754.232 70.829 54.875 o
-1 8 2 4365.030 4123.250 207.783 5.842 o
-1 8 3 202.508 171.031 35.460 227.595 o
-1 8 4 1329.220 1276.840 64.687 53.224 o
-1 8 5 178.986 210.452 29.762 307.824 o
-1 8 6 65.339 122.718 33.894 267.276 o
-1 8 7 33.891 21.266 61.788 85.047 o
-1 8 8 711.372 861.759 187.355 9.072 o
-1 8 9 160.222 293.666 103.800 29.803 o
-1 8 10 0.006 12.893 79.872 51.202 o
-1 8 11 380.743 511.329 161.736 12.286 o
-1 9 1 201.149 236.025 53.633 106.228 o
-1 9 2 1498.770 1670.400 150.768 12.948 o
-1 9 3 1445.900 1412.520 97.838 27.696 o
-1 9 4 200.715 178.370 33.788 247.311 o
-1 9 5 172.182 207.289 30.916 290.234 o
-1 9 6 171.552 189.368 25.653 397.670 o
-1 9 7 605.370 472.816 126.070 19.784 o
-1 9 8 860.587 742.555 179.318 9.851 o
-1 9 9 612.561 1033.540 199.746 8.008 o
-1 9 10 733.191 1052.460 201.420 7.852 o
-1 9 11 177.989 322.969 113.846 24.806 o
-1 10 1 3307.460 3368.740 393.464 2.003 o
-1 10 2 876.440 913.484 91.378 34.450 o
-1 10 3 965.138 981.289 110.422 24.255 o
-1 10 4 93.548 56.365 78.228 52.794 o
-1 10 5 243.866 231.674 32.531 253.934 o
-1 10 6 528.260 595.919 28.855 226.342 o
-1 10 7 2147.250 2632.980 270.224 4.211 o
-1 10 8 298.403 321.797 104.469 29.139 o
-1 10 9 1591.100 1888.770 255.656 4.792 o
-1 10 10 57.438 122.888 98.944 33.150 o
-1 11 1 232.781 290.277 65.757 71.581 o
-1 11 2 894.765 1010.110 105.254 26.586 o
-1 11 3 60.120 14.857 38.147 218.789 o
-1 11 4 166.832 266.062 54.688 102.857 o
-1 11 5 803.944 921.370 77.275 46.486 o
-1 11 6 1.446 65.410 54.495 109.344 o
-1 11 7 1.020 364.161 85.716 43.831 o
-1 11 8 333.267 190.871 116.358 23.651 o
-1 11 9 613.668 585.173 153.866 13.416 o
-1 12 1 1045.890 1119.040 171.067 10.635 o
-1 12 2 48.022 89.186 43.695 166.523 o
-1 12 3 488.740 433.204 78.631 48.884 o
-1 12 4 1318.390 1145.520 107.292 24.464 o
-1 12 5 62.781 222.899 115.125 24.468 o
-1 12 6 1378.050 1469.860 67.648 48.452 o
-1 12 7 78.553 -8.707 105.809 29.075 o
-1 13 1 81.339 174.668 66.248 72.808 o
-1 13 2 364.860 421.998 91.535 37.255 o
-1 13 3 201.034 198.931 66.970 69.952 o
-1 13 4 86.020 14.778 119.205 22.913 o
-1 13 5 3121.630 3002.690 176.054 8.528 o
-1 13 6 2.575 83.388 83.706 46.478 o
-1 13 7 1018.690 1117.580 222.519 6.415 o
-1 14 1 73.768 74.486 63.549 79.657 o
-1 14 2 2.989 6.506 56.725 101.461 o
-1 14 3 32.151 18.376 81.370 49.187 o
-1 14 4 1346.710 1335.990 134.283 16.296 o
-1 14 5 0.160 -51.685 62.234 84.381 o
-1 15 1 12.255 36.781 86.059 44.027 o
-1 15 2 386.625 578.977 132.768 18.052 o
-1 15 3 116.912 214.280 246.120 5.383 o
0 0 2 16767.900 16632.600 152.397 1.843 o
0 0 4 1168.300 1078.960 77.352 43.104 o
0 0 6 108.957 101.455 32.987 276.369 o
0 0 8 1210.130 1111.220 122.554 19.576 o
0 0 10 3569.390 3297.170 219.505 5.719 o
0 0 12 223.364 197.737 86.218 42.802 o
0 1 2 1928.600 1765.210 30.810 76.498 o
0 1 3 25.975 75.702 21.191 673.244 o
0 1 4 1240.160 1215.160 39.467 97.698 o
0 1 5 0.360 20.536 9.578 3346.320 o
0 1 6 661.124 638.304 38.117 147.761 o
0 1 7 142.128 143.449 39.186 196.337 o
0 1 8 488.547 566.775 56.647 86.676 o
0 1 9 5350.520 5574.570 316.112 2.742 o
0 1 10 370.967 423.886 73.500 56.330 o
0 1 11 3158.100 3228.070 162.487 9.577 o
0 1 12 20.655 11.907 72.169 62.570 o
0 1 13 21.278 58.811 52.592 116.945 o
0 2 0 6972.350 7030.270 101.161 8.057 o
0 2 1 608.063 611.482 18.657 313.641 o
0 2 2 260.351 290.599 37.743 193.770 o
0 2 3 4975.310 4700.860 76.583 14.929 o
0 2 4 207.888 209.606 16.651 691.189 o
0 2 5 6740.220 6475.680 144.249 6.734 o
0 2 6 503.785 543.423 36.211 174.188 o
0 2 7 2268.690 2240.920 75.493 32.226 o
0 2 8 247.029 248.873 32.075 258.150 o
0 2 9 2.722 4.890 21.758 686.220 o
0 2 10 2084.420 2172.030 90.396 26.849 o
0 2 11 792.492 968.046 94.417 32.725 o
0 2 12 5.649 11.079 51.066 125.027 o
0 2 13 520.278 496.494 82.931 43.950 o
0 3 1 4234.220 4246.360 103.439 14.065 o
0 3 2 3056.900 3029.090 42.292 36.374 o
0 3 3 3206.130 3070.140 125.614 13.954 o
0 3 4 6443.640 5936.500 172.560 5.970 o
0 3 5 915.529 1003.030 26.373 169.295 o
0 3 6 3668.830 3389.980 99.618 16.921 o
0 3 7 165.450 144.106 22.788 492.313 o
0 3 8 396.366 442.284 35.525 193.365 o
0 3 9 506.164 487.339 47.058 118.566 o
0 3 10 250.742 323.980 38.573 186.197 o
0 3 11 381.333 455.919 61.014 78.866 o
0 3 12 846.684 835.835 88.990 36.401 o
0 3 13 221.285 268.740 65.873 71.593 o
0 4 0 1683.860 1646.130 70.505 42.092 o
0 4 1 917.732 909.039 35.883 132.328 o
0 4 2 416.637 425.662 27.427 274.558 o
0 4 3 4211.250 3876.790 59.697 21.213 o
0 4 4 513.606 459.421 92.581 35.886 o
0 4 5 3315.690 3160.890 209.793 6.276 o
0 4 6 2217.290 2282.720 184.843 8.479 o
0 4 7 1051.890 1188.750 143.987 14.688 o
0 4 8 539.979 666.367 140.470 16.031 o
0 4 9 20.388 11.727 10.610 2567.120 o
0 4 10 500.181 454.060 100.161 30.966 o
0 4 11 353.481 290.543 35.985 200.809 o
0 4 12 4.908 -4.862 35.498 258.794 o
0 4 13 803.975 733.680 168.601 11.123 o
0 5 1 99.313 92.616 18.027 795.868 o
0 5 2 2346.670 2431.380 76.339 30.732 o
0 5 3 3808.210 3812.270 107.555 14.843 o
0 5 4 3691.800 3793.430 228.379 5.253 o
0 5 5 55.261 -4.019 29.805 355.339 o
0 5 6 2615.870 2228.150 193.885 7.643 o
0 5 7 3395.560 3114.670 241.273 4.920 o
0 5 8 641.109 546.827 131.596 18.145 o
0 5 9 417.964 580.819 137.624 16.807 o
0 5 10 6.379 17.414 73.341 60.665 o
0 5 11 140.561 187.020 85.213 44.144 o
0 5 12 87.656 256.661 87.892 41.605 o
0 6 0 6275.010 6363.980 166.349 6.184 o
0 6 1 86.348 110.448 21.515 598.520 o
0 6 2 7944.310 8357.220 173.875 4.688 o
0 6 3 765.161 797.223 37.876 137.139 o
0 6 4 1826.580 1662.290 66.723 43.561 o
0 6 5 1314.360 1223.070 143.652 14.505 o
0 6 6 2444.060 2452.160 212.304 6.522 o
0 6 7 690.687 807.842 167.596 11.284 o
0 6 8 2314.210 2411.650 228.379 5.746 o
0 6 9 43.422 79.704 80.374 50.220 o
0 6 10 75.526 -71.164 77.695 53.756 o
0 6 11 38.443 178.145 90.404 39.628 o
0 6 12 483.269 703.205 189.699 8.928 o
0 7 1 1957.290 1918.900 79.811 33.058 o
0 7 2 26.748 51.141 20.305 739.472 o
0 7 3 5891.590 5512.730 179.194 6.100 o
0 7 4 3.478 -0.521 9.044 3903.670 o
0 7 5 1.982 -7.702 28.633 398.099 o
0 7 6 3.196 3.181 47.052 147.445 o
0 7 7 4367.330 3835.630 297.518 3.242 o
0 7 9 1157.710 1178.530 225.533 6.223 o
0 7 10 78.886 29.303 54.587 107.731 o
0 7 11 339.176 584.168 163.578 12.017 o
0 7 12 25.318 207.281 114.684 24.708 o
0 8 0 272.306 244.621 73.844 57.268 o
0 8 1 91.049 132.712 28.017 372.263 o
0 8 2 3086.700 3174.300 103.358 18.010 o
0 8 3 1145.310 1147.800 59.710 63.102 o
0 8 4 2712.580 2800.900 74.389 28.202 o
0 8 5 2365.210 2492.680 230.891 5.613 o
0 8 6 594.120 564.744 137.289 16.755 o
0 8 7 1044.400 960.368 188.360 8.870 o
0 8 8 1279.820 1257.890 168.936 10.747 o
0 8 9 0.474 -153.531 69.490 67.678 o
0 8 10 92.767 160.396 89.232 40.523 o
0 8 11 281.424 441.002 133.103 18.105 o
0 8 12 354.377 596.040 154.536 13.428 o
0 9 1 502.594 621.235 83.349 43.309 o
0 9 2 1296.910 1296.620 79.371 39.741 o
0 9 3 729.360 735.931 72.138 53.736 o
0 9 4 2482.900 2450.610 77.933 29.186 o
0 9 5 1019.930 918.488 61.605 64.023 o
0 9 6 1200.100 1250.200 168.936 10.788 o
0 9 7 2892.160 2535.710 252.307 4.681 o
0 9 8 125.857 318.281 102.795 30.421 o
0 9 9 35.415 -15.405 72.839 61.370 o
0 9 10 45.563 -50.736 56.429 101.813 o
0 9 11 1.856 -87.055 61.955 85.123 o
0 10 0 629.425 675.409 123.056 20.570 o
0 10 1 332.666 347.939 65.573 70.457 o
0 10 2 283.376 401.335 69.934 62.706 o
0 10 3 1549.160 1350.190 82.844 35.519 o
0 10 4 1424.030 1341.020 71.734 44.848 o
0 10 5 1003.040 1001.530 44.049 99.644 o
0 10 6 70.317 -12.558 55.759 103.777 o
0 10 7 248.610 195.392 78.700 50.964 o
0 10 8 88.182 46.383 73.341 60.038 o
0 10 9 55.661 62.457 70.495 65.111 o
0 10 10 195.897 326.653 106.311 28.344 o
0 11 1 1369.860 1317.250 121.748 19.377 o
0 11 2 723.238 790.537 101.011 29.434 o
0 11 3 296.369 331.126 86.394 42.072 o
0 11 4 2231.640 2288.770 90.307 25.998 o
0 11 5 112.036 175.432 29.079 338.496 o
0 11 6 1920.610 1729.710 221.179 6.261 o
0 11 7 67.788 144.489 47.220 141.366 o
0 11 8 215.070 128.749 101.623 31.126 o
0 11 9 281.713 361.147 100.618 31.339 o
0 12 1 136.542 144.171 53.604 108.975 o
0 12 2 98.681 152.076 63.182 79.795 o
0 12 3 1001.970 1072.720 108.929 24.670 o
0 12 4 49.460 23.645 89.575 40.556 o
0 12 5 1301.400 1289.680 59.780 59.431 o
0 12 6 90.706 118.032 99.781 32.538 o
0 12 7 509.676 256.158 114.014 24.310 o
0 12 8 330.524 493.245 130.591 18.730 o
0 12 9 37.964 226.705 139.633 16.686 o
0 13 1 3500.010 3550.570 438.750 1.621 o
0 13 2 76.106 119.623 56.756 99.011 o
0 13 3 18.780 19.151 53.520 113.467 o
0 13 4 140.933 80.059 57.760 94.893 o
0 13 5 35.806 -177.308 89.232 40.943 o
0 13 6 90.385 110.497 107.316 28.169 o
0 13 7 24.888 -50.234 74.513 58.716 o
0 14 0 3908.430 4381.620 315.267 2.942 o
0 14 1 8.921 54.934 65.570 75.656 o
0 14 2 778.905 921.744 138.910 16.078 o
0 14 3 42.658 -51.788 56.112 103.014 o
0 14 4 8.462 38.345 76.355 55.909 o
0 14 5 80.406 195.225 93.753 36.740 o
0 14 6 28.358 -95.092 84.208 45.986 o
0 15 1 1255.400 1467.910 148.518 13.592 o
0 15 2 250.258 167.803 80.794 48.502 o
0 15 3 50.993 -88.612 69.924 66.452 o
0 15 4 364.832 368.884 86.728 41.400 o
1 0 0 3825.850 3821.280 84.707 18.470 o
1 0 2 383.071 431.948 34.429 204.490 o
1 0 4 10538.400 10215.800 217.830 2.953 o
1 0 6 7079.060 6730.820 279.601 3.018 o
1 0 8 518.944 714.256 129.251 18.822 o
1 0 10 398.549 556.037 122.219 21.201 o
1 0 12 31.061 -26.456 68.988 68.419 o
1 1 0 6686.870 6807.220 156.105 6.206 o
1 1 1 717.665 786.790 31.228 174.981 o
1 1 2 1025.620 1007.010 37.930 116.328 o
1 1 3 7048.030 7069.760 102.981 7.887 o
1 1 4 26.077 47.320 16.580 1078.320 o
1 1 5 11764.400 11561.500 192.304 2.834 o
1 1 6 311.942 384.941 44.803 139.411 o
1 1 7 73.586 103.378 34.883 253.366 o
1 1 8 1223.820 1231.160 96.996 29.221 o
1 1 9 927.339 954.646 98.799 29.761 o
1 1 10 1222.890 1106.540 130.911 17.359 o
1 1 11 26.336 -39.949 39.832 204.093 o
1 1 12 162.399 99.903 72.328 60.981 o
1 1 13 488.707 523.093 89.420 38.277 o
1 2 0 518.801 531.533 30.107 220.880 o
1 2 1 5191.170 5357.220 102.439 11.402 o
1 2 2 44.526 47.661 13.636 1452.680 o
1 2 3 1481.280 1486.050 46.517 72.590 o
1 2 4 8872.740 9058.460 131.212 5.053 o
1 2 5 173.744 214.618 29.300 316.602 o
1 2 6 2306.400 2189.990 86.097 27.509 o
1 2 7 1354.210 1248.100 77.290 41.135 o
1 2 8 621.302 676.174 78.356 47.517 o
1 2 9 1027.290 1075.320 95.168 31.208 o
1 2 10 25.192 -51.337 37.352 231.899 o
1 2 11 449.625 742.737 141.391 15.867 o
1 2 12 24.024 12.947 52.611 117.350 o
1 2 13 165.143 106.990 62.155 81.800 o
1 3 0 5581.470 5612.100 102.420 10.603 o
1 3 1 2313.310 2490.030 67.788 34.792 o
1 3 2 3560.310 3402.320 68.978 23.599 o
1 3 3 445.279 549.776 44.957 128.827 o
1 3 4 120.555 132.122 22.602 525.167 o
1 3 5 546.810 467.292 44.053 130.202 o
1 3 6 906.959 836.224 53.098 82.801 o
1 3 7 134.750 152.190 24.819 439.831 o
1 3 8 1786.930 1731.440 68.835 42.007 o
1 3 9 86.600 75.911 36.925 227.572 o
1 3 10 961.976 1064.640 118.357 21.310 o
1 3 11 296.372 262.079 50.372 116.077 o
1 3 12 186.786 181.354 58.927 89.694 o
1 3 13 89.816 3.414 65.014 76.369 o
1 4 0 112.417 122.601 21.842 563.140 o
1 4 1 5100.190 5078.100 107.216 11.371 o
1 4 2 1252.260 1193.520 55.176 67.614 o
1 4 3 955.474 898.842 40.196 115.231 o
1 4 4 760.815 846.082 46.309 104.927 o
1 4 5 157.236 153.768 43.628 159.759 o
1 4 6 27.635 94.764 20.829 685.477 o
1 4 7 1649.100 1545.380 68.180 44.763 o
1 4 8 937.497 1201.140 208.788 7.267 o
1 4 9 1894.980 1965.560 88.461 29.000 o
1 4 10 117.254 122.079 38.742 203.357 o
1 4 11 643.185 626.622 152.610 13.603 o
1 4 12 741.279 790.585 123.307 20.269 o
1 5 0 5625.710 5906.360 118.428 9.288 o
1 5 1 2914.010 2975.390 93.880 20.982 o
1 5 2 2208.000 2301.140 126.823 15.971 o
1 5 3 1414.140 1299.100 68.745 47.910 o
1 5 4 87.526 76.731 16.287 964.709 o
1 5 5 6.387 -12.396 14.494 1529.830 o
1 5 6 600.255 620.243 43.547 126.336 o
1 5 7 1042.160 1021.580 54.109 75.510 o
1 5 8 1481.760 1656.350 81.527 35.839 o
1 5 9 93.101 86.636 32.973 280.008 o
1 5 10 1294.060 1258.810 123.144 19.160 o
1 5 11 1383.250 942.003 181.411 9.417 o
1 5 12 379.294 378.394 158.219 12.856 o
1 6 0 1420.230 1510.820 92.010 30.460 o
1 6 1 1102.760 1097.440 61.176 62.039 o
1 6 2 5922.720 5862.380 135.646 8.013 o
1 6 3 274.224 272.949 121.139 21.875 o
1 6 4 1249.390 1248.620 48.921 77.505 o
1 6 5 39.829 67.950 18.092 884.397 o
1 6 6 1764.770 1748.480 64.131 45.831 o
1 6 7 302.366 398.512 35.167 207.956 o
1 6 8 2859.940 2616.800 71.844 28.797 o
1 6 9 248.467 405.817 85.054 43.400 o
1 6 10 26.127 -128.247 64.634 77.960 o
1 6 11 136.444 151.857 100.786 31.774 o
1 6 12 1254.780 2106.420 252.642 4.930 o
1 7 0 243.546 296.286 56.350 95.361 o
1 7 1 3811.040 3711.590 161.987 8.943 o
1 7 2 10.524 21.208 17.399 1038.910 o
1 7 3 4903.190 4474.710 136.700 9.608 o
1 7 4 0.002 8.540 34.326 276.811 o
1 7 5 1440.420 1385.440 62.445 53.589 o
1 7 6 6.891 -23.634 26.646 457.825 o
1 7 7 2144.660 2157.330 59.818 42.531 o
1 7 8 76.450 129.251 68.820 67.819 o
1 7 9 115.774 158.387 84.208 45.343 o
1 7 10 87.112 116.023 89.567 40.311 o
1 7 11 1571.680 1927.100 253.144 4.884 o
1 8 0 191.587 281.789 57.194 93.898 o
1 8 1 1497.650 1573.160 103.362 24.919 o
1 8 2 5758.270 5784.370 457.495 1.416 o
1 8 3 458.758 414.272 50.369 108.727 o
1 8 4 1908.120 1733.780 106.842 22.274 o
1 8 5 64.016 73.150 20.092 707.621 o
1 8 6 1281.190 1249.000 98.702 28.150 o
1 8 7 440.067 698.349 146.666 14.796 o
1 8 8 1110.220 1316.990 170.108 10.675 o
1 8 9 243.770 434.304 122.554 21.329 o
1 8 10 277.801 708.061 141.642 15.941 o
1 8 11 99.934 242.277 92.581 37.545 o
1 9 0 2238.150 2095.190 287.563 3.760 o
1 9 1 982.010 1049.840 226.956 6.184 o
1 9 2 1019.730 979.061 122.637 19.945 o
1 9 3 78.294 67.573 42.672 173.288 o
1 9 4 45.330 8.331 23.163 578.887 o
1 9 5 839.695 1109.100 198.239 8.068 o
1 9 6 233.363 224.165 76.789 53.445 o
1 9 7 613.666 765.646 167.931 11.279 o
1 9 8 824.491 847.359 179.653 9.810 o
1 9 9 505.228 539.292 164.080 11.890 o
1 9 10 627.069 795.283 182.834 9.547 o
1 10 0 81.279 71.559 43.771 164.727 o
1 10 1 2228.820 2211.510 260.604 4.524 o
1 10 2 1274.930 1379.460 109.364 23.492 o
1 10 3 325.616 493.434 81.371 46.607 o
1 10 4 2.264 -8.313 39.409 210.271 o
1 10 5 65.528 112.354 26.089 434.838 o
1 10 6 11.818 -21.932 41.240 191.422 o
1 10 7 887.883 1137.680 196.397 8.200 o
1 10 8 410.137 566.084 167.094 11.503 o
1 10 9 1348.460 1436.870 241.942 5.390 o
1 10 10 26.318 12.056 57.266 99.108 o
1 11 0 1938.360 1865.110 158.097 11.497 o
1 11 1 319.799 371.239 72.380 58.605 o
1 11 2 1309.560 1399.820 118.424 20.375 o
1 11 3 5.990 93.604 40.514 195.550 o
1 11 4 47.578 9.535 63.880 79.511 o
1 11 5 590.291 558.832 50.097 103.373 o
1 11 6 395.707 477.061 45.217 131.426 o
1 11 7 15.404 298.187 101.623 31.351 o
1 11 8 700.828 821.405 201.420 7.882 o
1 11 9 32.643 41.526 72.337 62.100 o
1 12 0 256.866 298.777 131.428 18.637 o
1 12 1 872.036 1025.840 203.765 7.651 o
1 12 2 18.706 -13.965 52.662 117.405 o
1 12 3 194.571 184.210 66.130 71.816 o
1 12 4 2987.010 2937.980 172.212 8.940 o
1 12 5 12.044 -11.615 50.340 128.627 o
1 12 6 758.856 659.238 107.157 26.460 o
1 12 7 294.168 219.505 106.646 28.092 o
1 12 8 501.568 648.283 139.298 16.329 o
1 13 0 382.660 359.164 100.208 31.351 o
1 13 1 1.517 9.981 51.824 121.523 o
1 13 2 98.424 257.261 76.849 54.079 o
1 13 3 1166.990 1343.090 200.993 7.750 o
1 13 4 1.514 43.027 154.536 13.678 o
1 13 5 2905.850 2885.860 167.429 9.429 o
1 13 6 27.504 11.386 92.078 38.463 o
1 13 7 233.714 184.174 119.707 22.486 o
1 14 0 0.112 -0.623 46.977 148.089 o
1 14 1 75.977 106.273 190.528 8.985 o
1 14 2 198.735 380.860 86.481 42.286 o
1 14 3 26.158 313.592 107.316 28.112 o
1 14 4 2657.790 2590.190 308.067 3.249 o
1 14 5 7.035 -43.058 154.452 13.698 o
1 15 0 409.264 457.744 106.844 27.555 o
1 15 1 91.081 154.942 130.256 19.150 o
1 15 2 173.756 203.396 90.630 38.982 o
2 0 0 11226.600 11587.600 385.761 1.467 o
2 0 2 944.162 982.019 80.140 42.561 o
2 0 4 81.251 30.603 28.579 374.578 o
2 0 6 813.137 794.560 101.635 28.849 o
2 0 8 7390.200 6910.500 258.344 3.302 o
2 0 10 4428.040 4396.680 221.989 5.209 o
2 0 12 68.840 142.806 59.254 90.951 o
2 1 0 125.640 84.310 51.146 120.356 o
2 1 1 3184.230 3216.990 117.415 15.154 o
2 1 2 248.967 258.584 41.288 167.878 o
2 1 3 193.644 211.963 34.533 236.983 o
2 1 4 945.238 938.791 59.181 69.030 o
2 1 5 91.930 124.562 31.826 296.053 o
2 1 6 841.360 793.791 81.368 42.719 o
2 1 7 23.224 33.554 30.418 344.809 o
2 1 8 101.887 65.162 39.553 198.899 o
2 1 9 2322.790 2487.100 130.775 14.911 o
2 1 10 46.158 149.148 51.594 119.616 o
2 1 11 527.709 534.731 94.625 34.270 o
2 1 12 68.248 103.399 60.286 88.229 o
2 2 0 4276.950 4083.790 132.142 10.942 o
2 2 1 1904.090 1948.790 91.067 27.841 o
2 2 2 147.444 185.083 35.755 229.413 o
2 2 3 3954.130 3899.010 134.415 11.226 o
2 2 4 194.469 260.462 56.619 95.853 o
2 2 5 2115.740 2167.710 143.609 13.241 o
2 2 6 289.919 258.818 58.449 88.605 o
2 2 7 411.452 415.570 122.411 21.203 o
2 2 8 476.935 445.818 65.120 68.970 o
2 2 9 2.213 -82.290 45.165 160.122 o
2 2 10 1191.650 1154.920 102.002 27.044 o
2 2 11 307.667 354.421 67.098 67.750 o
2 2 12 7.710 6.160 63.273 81.513 o
2 3 0 40.295 25.396 16.467 1084.890 o
2 3 1 544.606 595.694 63.059 71.006 o
2 3 2 2328.340 2355.150 102.202 21.598 o
2 3 3 107.648 72.658 68.728 67.972 o
2 3 4 3356.610 3116.440 221.171 5.731 o
2 3 5 389.193 379.486 71.087 59.970 o
2 3 6 1544.670 1599.250 114.798 20.809 o
2 3 7 8.535 50.794 33.210 291.276 o
2 3 8 100.847 146.095 51.065 120.554 o
2 3 9 1037.110 1100.590 119.087 20.916 o
2 3 10 155.969 104.197 55.637 101.474 o
2 3 11 11.565 0.807 53.905 112.218 o
2 4 0 64.974 42.924 20.810 676.965 o
2 4 1 377.282 356.871 51.105 109.326 o
2 4 2 2464.430 2328.160 126.780 15.546 o
2 4 3 1793.740 1684.110 109.646 21.738 o
2 4 4 363.484 413.368 67.516 66.056 o
2 4 5 2106.830 1978.680 127.577 16.234 o
2 4 6 1082.570 1141.000 106.009 25.602 o
2 4 7 669.078 841.624 89.676 36.672 o
2 4 8 1.013 6.250 38.059 225.276 o
2 4 9 3.009 30.451 78.021 53.599 o
2 4 10 291.409 177.785 68.538 66.145 o
2 4 11 287.090 241.775 99.446 32.189 o
2 5 0 257.066 311.831 47.974 127.216 o
2 5 1 1092.280 1110.670 135.371 16.468 o
2 5 2 1788.770 1764.440 112.475 20.784 o
2 5 3 2156.340 2179.240 127.022 16.111 o
2 5 4 2338.990 2305.010 132.557 14.703 o
2 5 5 401.224 370.797 69.633 62.234 o
2 5 6 1189.860 1097.820 224.109 6.301 o
2 5 7 1076.550 1183.700 106.072 25.536 o
2 5 8 117.869 66.269 49.796 127.237 o
2 5 9 12.675 26.096 43.696 169.887 o
2 5 10 101.928 102.553 77.854 53.128 o
2 5 11 107.869 96.926 72.153 61.683 o
2 6 0 1027.870 944.578 83.431 39.396 o
2 6 1 465.582 500.323 90.823 37.306 o
2 6 2 4120.860 3740.370 169.215 8.179 o
2 6 3 861.244 951.200 142.396 15.259 o
2 6 4 92.146 127.231 41.747 178.128 o
2 6 5 461.838 448.723 72.894 56.350 o
2 6 6 3754.210 3571.320 679.177 0.694 o
2 6 7 94.912 179.989 52.861 112.518 o
2 6 8 1826.790 1975.590 288.735 3.770 o
2 6 9 0.044 102.277 54.418 109.292 o
2 6 10 294.332 268.702 79.970 48.967 o
2 6 11 59.793 17.455 78.979 52.069 o
2 7 0 8.202 -16.848 29.205 381.143 o
2 7 1 3057.940 2945.890 153.077 10.707 o
2 7 2 29.622 60.171 34.811 262.345 o
2 7 3 2145.400 1998.130 128.394 15.993 o
2 7 4 6.687 -7.870 26.714 455.599 o
2 7 5 840.089 763.975 99.730 29.825 o
2 7 6 27.283 66.090 50.393 126.983 o
2 7 7 1819.330 1969.340 130.592 16.049 o
2 7 8 4.010 58.386 49.787 130.863 o
2 7 9 88.463 160.166 62.097 82.613 o
2 7 10 0.329 99.021 136.041 17.632 o
2 8 0 193.314 220.941 61.227 82.989 o
2 8 1 965.181 970.644 147.252 14.236 o
2 8 2 1235.040 1296.980 247.041 5.199 o
2 8 3 1615.840 1778.100 215.402 6.644 o
2 8 4 1.831 -0.426 65.388 76.422 o
2 8 5 650.636 678.989 94.618 33.619 o
2 8 6 1716.740 1569.320 143.158 14.040 o
2 8 7 90.893 80.083 54.976 105.462 o
2 8 8 287.038 289.420 104.729 29.052 o
2 8 9 0.309 121.954 151.438 14.229 o
2 8 10 68.971 379.901 117.363 23.457 o
2 9 0 18.253 33.197 39.046 211.639 o
2 9 1 1410.180 1496.310 174.629 9.985 o
2 9 2 785.310 905.535 118.794 21.584 o
2 9 3 3037.520 3082.680 195.309 7.205 o
2 9 4 1517.260 1795.900 121.725 18.720 o
2 9 5 136.820 156.414 89.408 40.232 o
2 9 6 810.921 839.257 100.835 29.210 o
2 9 7 1323.650 1259.770 128.192 17.792 o
2 9 8 43.360 -35.062 185.011 9.541 o
2 9 9 1.956 117.865 92.413 38.114 o
2 10 0 315.689 246.351 74.086 56.587 o
2 10 1 24.943 14.209 49.739 131.147 o
2 10 2 109.603 141.840 58.489 92.622 o
2 10 3 435.760 441.198 79.391 48.320 o
2 10 4 12.185 33.316 48.209 139.646 o
2 10 5 954.999 1168.070 337.872 2.829 o
2 10 6 575.046 520.795 87.355 39.612 o
2 10 7 377.811 514.752 89.493 38.669 o
2 10 8 23.986 49.939 143.401 15.872 o
2 11 0 109.810 157.963 50.206 124.100 o
2 11 1 151.018 10.219 41.910 176.786 o
2 11 2 1439.380 1467.510 173.876 10.058 o
2 11 3 119.336 83.895 135.790 17.633 o
2 11 4 1472.170 1802.880 208.788 7.079 o
2 11 5 74.978 40.593 97.696 34.046 o
2 11 6 479.738 503.039 154.703 13.362 o
2 11 7 6.518 90.412 181.151 9.950 o
2 12 0 1994.230 1953.260 323.639 3.016 o
2 12 1 337.850 395.554 80.200 48.107 o
2 12 2 14.611 -12.727 142.563 16.074 o
2 12 3 943.463 1050.180 146.221 14.412 o
2 12 4 45.381 125.517 64.458 77.491 o
2 12 5 741.994 818.009 240.343 5.568 o
2 12 6 226.730 70.302 77.100 53.531 o
2 13 0 84.375 15.714 130.675 19.080 o
2 13 1 1001.050 1123.640 152.497 13.249 o
2 13 2 53.771 87.595 78.524 52.525 o
2 13 3 10.815 0.237 58.857 94.178 o
2 13 4 99.328 95.583 82.877 46.990 o
2 14 0 1837.870 1517.930 162.203 11.171 o
2 14 1 53.156 -76.523 119.037 23.016 o
3 0 0 57.457 65.639 62.457 82.680 o
3 0 2 1217.980 1080.260 179.820 9.612 o
3 0 4 4423.250 4776.410 321.295 2.785 o
3 0 6 28.239 22.801 75.593 56.970 o
3 0 8 655.949 557.301 97.852 31.764 o
3 0 10 51.223 214.626 98.659 33.257 o
3 1 0 1173.870 1174.040 121.590 19.863 o
3 1 1 4.660 68.910 39.931 202.170 o
3 1 2 387.269 512.473 84.953 42.628 o
3 1 3 3887.030 3975.230 166.674 8.438 o
3 1 4 147.385 139.574 50.724 120.860 o
3 1 5 3801.410 3994.240 175.792 7.853 o
3 1 6 989.353 1075.040 113.282 23.015 o
3 1 7 25.482 36.150 27.696 412.811 o
3 1 8 637.292 576.372 77.596 48.589 o
3 1 9 4.867 -24.624 36.389 246.313 o
3 1 10 115.936 269.205 53.009 110.296 o
3 2 0 400.872 379.021 75.881 53.023 o
3 2 1 387.438 482.793 147.419 14.742 o
3 2 2 84.880 47.651 36.990 228.341 o
3 2 3 67.141 93.882 34.595 258.744 o
3 2 4 2379.980 2348.750 131.503 14.800 o
3 2 5 18.991 60.169 32.438 302.596 o
3 2 6 98.854 60.002 42.121 176.709 o
3 2 7 351.276 465.722 102.474 29.979 o
3 2 8 194.054 201.104 48.453 129.139 o
3 2 9 620.126 737.531 161.903 12.114 o
3 3 0 2261.430 2132.440 146.405 12.692 o
3 3 1 357.602 406.168 62.598 76.002 o
3 3 2 846.720 859.802 155.114 13.004 o
3 3 3 691.069 705.904 87.089 38.873 o
3 3 4 4.256 -26.113 81.705 48.940 o
3 3 5 373.168 355.855 53.489 101.025 o
3 3 6 310.714 300.259 63.543 75.284 o
3 3 7 486.048 491.118 73.634 54.948 o
3 3 8 616.409 737.033 116.214 22.904 o
3 3 9 11.081 -39.645 42.924 176.789 o
3 4 0 812.890 800.193 100.761 29.299 o
3 4 1 2362.040 2447.440 131.010 14.841 o
3 4 2 414.037 499.775 112.925 24.723 o
3 4 3 453.132 428.093 70.223 60.509 o
3 4 4 303.217 315.231 56.634 93.091 o
3 4 5 156.999 205.894 46.897 138.554 o
3 4 6 112.475 124.801 45.540 150.065 o
3 4 7 795.146 849.862 103.619 27.823 o
3 4 8 449.714 450.973 77.373 50.566 o
3 4 9 575.745 677.809 90.902 36.485 o
3 5 0 846.783 929.655 100.731 29.028 o
3 5 1 865.792 734.025 89.609 36.099 o
3 5 2 189.358 181.101 46.465 140.147 o
3 5 3 82.941 122.437 64.746 76.418 o
3 5 4 70.755 124.114 37.196 223.654 o
3 5 5 211.135 174.697 49.223 125.284 o
3 5 6 707.187 605.898 93.437 34.333 o
3 5 7 1388.520 1169.460 133.410 16.538 o
3 5 8 813.769 766.164 130.065 18.257 o
3 5 9 0.076 -101.666 62.774 82.937 o
3 6 0 1020.340 963.568 96.126 30.897 o
3 6 1 128.166 132.186 54.480 105.960 o
3 6 2 1619.680 1614.700 109.837 22.195 o
3 6 3 0.240 -2.288 36.836 240.836 o
3 6 4 103.694 133.581 41.925 175.813 o
3 6 5 53.589 121.845 68.402 68.871 o
3 6 6 557.635 558.046 138.293 16.551 o
3 6 7 131.715 259.915 217.905 6.860 o
3 6 8 247.969 185.373 78.105 51.749 o
3 7 0 252.175 245.588 56.511 95.195 o
3 7 1 3654.480 3456.650 161.091 9.233 o
3 7 2 94.494 80.190 43.292 167.344 o
3 7 3 910.406 815.936 93.357 33.229 o
3 7 4 9.750 -7.962 44.373 165.530 o
3 7 5 533.330 577.585 174.880 10.478 o
3 7 6 80.641 132.573 99.036 33.031 o
3 7 7 1553.760 1505.870 173.373 10.048 o
3 7 8 38.475 123.174 102.636 30.856 o
3 8 0 349.439 373.167 69.448 63.033 o
3 8 1 3.144 -40.456 28.067 413.969 o
3 8 2 641.459 583.374 84.383 41.723 o
3 8 3 2.801 26.765 33.685 285.747 o
3 8 4 66.260 18.114 62.198 83.551 o
3 8 5 1.421 -2.003 62.039 84.899 o
3 8 6 850.636 986.450 133.129 17.317 o
3 8 7 91.543 96.979 242.436 5.553 o
3 9 0 893.793 871.418 106.445 26.223 o
3 9 1 1268.550 1514.800 111.447 22.601 o
3 9 2 304.768 298.850 62.332 78.118 o
3 9 3 82.105 -66.308 89.232 40.805 o
3 9 4 1.454 -75.965 45.556 157.422 o
3 9 5 1.999 12.595 103.130 30.715 o
3 9 6 201.596 207.684 146.833 15.026 o
3 10 0 263.437 375.897 60.486 82.640 o
3 10 1 2214.650 1649.040 150.523 12.378 o
3 10 2 12.343 -14.582 37.966 225.660 o
3 10 3 357.654 286.376 79.664 48.921 o
3 10 4 397.982 315.065 158.219 12.862 o
3 10 5 181.039 299.083 85.473 43.497 o
3 11 0 371.804 293.400 74.023 56.084 o
3 11 1 556.996 446.345 76.374 51.048 o
3 11 2 59.076 248.920 218.240 6.846 o
3 11 3 156.624 187.329 75.604 55.687 o
4 0 0 1914.760 1762.520 220.509 6.295 o
4 0 6 6.042 37.005 73.006 61.161 o
4 1 0 226.271 269.134 83.631 45.243 o
4 1 1 25.385 91.578 64.040 78.910 o
4 1 2 125.485 139.800 70.829 63.660 o
4 1 3 158.336 99.280 96.859 34.378 o
4 1 4 2.616 -90.237 59.276 92.978 o
4 1 5 2.366 4.470 64.048 79.622 o
4 1 6 18.768 0.141 62.893 82.406 o
4 2 0 670.039 712.343 121.015 21.154 o
4 2 1 191.380 102.962 93.251 36.955 o
4 2 2 26.838 75.183 75.853 56.443 o
4 2 3 1055.450 1114.790 174.591 10.227 o
4 2 4 248.669 308.940 76.906 52.929 o
4 2 5 956.523 819.092 216.825 6.782 o
4 2 6 193.465 140.178 143.401 15.769 o
4 3 1 40.153 -17.079 73.509 60.231 o
4 3 2 570.037 764.976 183.169 9.533 o
4 3 3 139.535 140.853 75.998 55.373 o
4 3 4 728.816 739.168 117.284 22.332 o
4 3 5 289.268 333.468 142.765 15.803 o
4 4 0 1.350 140.674 51.129 123.092 o
4 4 1 549.511 567.647 118.292 22.368 o
4 4 2 910.983 931.097 146.006 14.522 o
4 4 3 955.676 1102.990 115.672 22.197 o
4 4 4 11.256 150.713 90.405 39.746 o
4 4 5 581.178 455.822 77.195 49.862 o
4 5 0 28.271 33.931 42.530 178.166 o
4 5 1 1314.310 1254.220 164.456 11.284 o
4 5 2 300.029 293.353 69.605 63.615 o
4 5 3 239.607 428.192 69.731 63.333 o
4 5 4 268.726 251.236 84.985 43.715 o
4 6 0 470.866 570.626 125.157 20.159 o
4 6 1 224.824 388.448 79.937 49.059 o
4 6 2 1111.720 1206.500 213.144 6.948 o
4 6 3 117.419 245.016 115.918 24.061 o
4 7 0 94.711 271.846 57.437 95.032 o
4 7 1 531.986 654.753 79.443 47.002 o
4 7 2 0.377 81.770 59.171 92.729 o
;
_olex2_submission_special_instructions 'No special instructions were received'
loop_
_space_group_symop_id
_space_group_symop_operation_xyz
1 x,y,z
2 -x,y+1/2,-z+1/2
3 -x,-y,-z
4 x,-y-1/2,z-1/2
loop_
_atom_site_label
_atom_site_type_symbol
_atom_site_fract_x
_atom_site_fract_y
_atom_site_fract_z
_atom_site_U_iso_or_equiv
_atom_site_adp_type
_atom_site_occupancy
_atom_site_refinement_flags_posn
Cu1 Cu 0.7356(2) 0.42699(7) 0.44682(8) 0.0171(3) Uani 1.000000 .
Cl1 Cl 0.8008(5) 0.50031(13) 0.64920(15) 0.0127(4) Uani 1.000000 .
N1 N 0.6433(15) 0.2750(4) 0.4691(5) 0.0107(13) Uani 1.000000 .
C1 C 0.4711(19) 0.2186(5) 0.3821(6) 0.0119(16) Uani 1.000000 .
H1 H 0.3862(19) 0.2535(5) 0.3116(6) 0.0143(19) Uiso 1.000000 R
C2 C 0.4137(18) 0.1113(5) 0.3919(6) 0.0114(16) Uani 1.000000 .
H2 H 0.2942(18) 0.0744(5) 0.3281(6) 0.0136(19) Uiso 1.000000 R
C3 C 0.5294(18) 0.0571(5) 0.4944(6) 0.0104(11) Uani 1.000000 .
C4 C 0.6987(18) 0.1174(5) 0.5832(6) 0.0104(11) Uani 1.000000 .
H4 H 0.7803(18) 0.0848(5) 0.6554(6) 0.0125(13) Uiso 1.000000 R
C5 C 0.7509(19) 0.2236(5) 0.5687(6) 0.0140(16) Uani 1.000000 .
H5 H 0.8678(19) 0.2621(5) 0.6318(6) 0.017(2) Uiso 1.000000 R
loop_
_atom_site_aniso_label
_atom_site_aniso_U_11
_atom_site_aniso_U_22
_atom_site_aniso_U_33
_atom_site_aniso_U_12
_atom_site_aniso_U_13
_atom_site_aniso_U_23
Cu1 0.0196(6) 0.0119(5) 0.0196(5) -0.0033(4) -0.0003(4) 0.0025(4)
Cl1 0.0104(9) 0.0154(10) 0.0122(9) -0.0017(8) -0.0014(7) 0.0021(7)
N1 0.010(3) 0.012(3) 0.010(3) -0.000(2) 0.001(2) 0.000(3)
C1 0.017(4) 0.013(4) 0.006(4) -0.001(3) 0.003(3) 0.003(3)
C2 0.011(4) 0.013(4) 0.010(4) 0.002(3) 0.002(3) -0.001(3)
C3 0.009(3) 0.012(3) 0.011(3) 0.001(2) 0.003(2) 0.001(2)
C4 0.009(3) 0.012(3) 0.011(3) 0.001(2) 0.003(2) 0.001(2)
C5 0.014(4) 0.018(4) 0.010(4) -0.002(3) -0.002(3) -0.002(3)
loop_
_atom_type_symbol
_atom_type_scat_dispersion_real
_atom_type_scat_dispersion_imag
_atom_type_scat_Cromer_Mann_a1
_atom_type_scat_Cromer_Mann_a2
_atom_type_scat_Cromer_Mann_a3
_atom_type_scat_Cromer_Mann_a4
_atom_type_scat_Cromer_Mann_b1
_atom_type_scat_Cromer_Mann_b2
_atom_type_scat_Cromer_Mann_b3
_atom_type_scat_Cromer_Mann_b4
_atom_type_scat_Cromer_Mann_c
_atom_type_scat_source
_atom_type_scat_dispersion_source
H 0.00000 0.00000 0.49300 0.32291 0.14019 0.04081 10.51090 26.12570 3.14236
57.79970 0.0030380000826
'International Tables Volume C Table 6.1.1.4 (pp. 500-502)'
'Henke, Gullikson and Davis, At. Data and Nucl. Data Tables, 1993, 54, 2'
C 0.00347 0.00161 2.31000 1.02000 1.58860 0.86500 20.84390 10.20750 0.56870
51.65120 0.215599998832
'International Tables Volume C Table 6.1.1.4 (pp. 500-502)'
'Henke, Gullikson and Davis, At. Data and Nucl. Data Tables, 1993, 54, 2'
Cl 0.14873 0.16029 11.46040 7.19640 6.25560 1.64550 0.01040 1.16620 18.51940
47.77840 -9.55739974976
'International Tables Volume C Table 6.1.1.4 (pp. 500-502)'
'Henke, Gullikson and Davis, At. Data and Nucl. Data Tables, 1993, 54, 2'
Cu 0.34125 1.28947 13.33800 7.16760 5.61580 1.67350 3.58280 0.24700 11.39660
64.81260 1.19099998474
'International Tables Volume C Table 6.1.1.4 (pp. 500-502)'
'Henke, Gullikson and Davis, At. Data and Nucl. Data Tables, 1993, 54, 2'
N 0.00653 0.00323 12.21260 3.13220 2.01250 1.16630 0.00570 9.89330 28.99750
0.58260 -11.5290002823
'International Tables Volume C Table 6.1.1.4 (pp. 500-502)'
'Henke, Gullikson and Davis, At. Data and Nucl. Data Tables, 1993, 54, 2'
loop_
_geom_angle_atom_site_label_1
_geom_angle_atom_site_label_2
_geom_angle_atom_site_label_3
_geom_angle
_geom_angle_site_symmetry_1
_geom_angle_site_symmetry_3
N1 Cu1 Cl1 106.51(16) . 3_666
N1 Cu1 Cl1 126.51(17) . 3_766
N1 Cu1 Cl1 104.95(16) . .
C1 N1 Cu1 120.4(4) . .
C5 N1 Cu1 122.4(5) . .
C5 N1 C1 117.2(6) . .
C2 C1 N1 122.3(6) . .
C3 C2 C1 120.8(6) . .
C3 C3 C2 121.2(7) 3_656 .
C4 C3 C2 115.7(6) . .
C5 C4 C3 121.3(6) . .
C4 C5 N1 122.7(6) . .
loop_
_geom_bond_atom_site_label_1
_geom_bond_atom_site_label_2
_geom_bond_distance
_geom_bond_site_symmetry_2
Cu1 Cu1 2.8804(18) 3_666
Cu1 Cu1 2.9202(18) 3_766
Cu1 Cl1 2.3022(19) 3_766
Cu1 Cl1 2.4092(19) 3_666
Cu1 Cl1 2.4715(19) .
Cu1 N1 1.983(5) .
N1 C1 1.350(8) .
N1 C5 1.344(8) .
C1 C2 1.387(9) .
C2 C3 1.395(9) .
C3 C3 1.476(13) 3_656
C3 C4 1.386(9) .
C4 C5 1.377(9) .
loop_
_refln_index_h
_refln_index_k
_refln_index_l
_refln_F_squared_meas
_refln_F_squared_sigma
-1 0 0 2327.17 89.99
-1 0 0 2271.67 87.99
1 0 0 2250.27 85.09
-2 0 0 6920.21 230.38
-3 0 0 39.2 37.3
-4 0 0 1052.59 131.69
-4 1 0 213.28 58.39
-3 1 0 647.84 108.69
-2 1 0 85.69 32.8
1 -1 0 4287.27 125.29
-1 1 0 4191.78 122.19
-1 1 0 4193.98 122.59
-1 -1 0 3989.8 116.99
1 1 0 3685.63 112.79
-2 -1 0 24.6 23.9
-3 -1 0 738.83 97.59
-4 -1 0 113.39 43.2
-4 2 0 412.76 113.39
-3 2 0 232.28 63.79
2 -2 0 2484.15 138.59
-2 2 0 2538.75 144.29
1 -2 0 353.96 37.8
-1 2 0 319.07 36.6
0 -2 0 4172.58 85.69
0 2 0 4223.88 85.19
-1 -2 0 290.27 34.7
1 2 0 305.87 35
-2 -2 0 2309.77 128.59
-3 -2 0 219.98 64.39
-4 -2 0 433.66 93.79
-3 3 0 1328.27 127.79
2 -3 0 31.1 24
-2 3 0 4.6 12.8
1 -3 0 3453.75 123.39
-1 3 0 3364.56 127.69
0 -3 0 13.9 10.7
0 3 0 6.4 10.4
-1 -3 0 3324.57 121.09
1 3 0 3267.87 117.79
-2 -3 0 18.4 20
-3 -3 0 1221.08 119.89
-4 4 0 99.49 35.6
3 -4 0 609.44 107.49
-3 4 0 399.36 81.39
2 -4 0 29.8 21.7
-2 4 0 21.8 19.3
1 -4 0 98.99 30.8
-1 4 0 45.4 22.1
0 -4 0 1003.3 60.89
0 4 0 963.8 58.29
-1 -4 0 76.89 27.9
1 4 0 79.09 25.9
-2 -4 0 25.8 24.5
-3 -4 0 432.66 94.19
-4 -4 0 58.19 59.39
-4 5 0 30.5 36.8
3 -5 0 556.24 105.29
-3 5 0 494.35 97.89
2 -5 0 215.98 54.69
-2 5 0 154.58 45.1
1 -5 0 3616.34 141.59
-1 5 0 3482.45 143.19
0 -5 0 11.9 12.2
0 5 0 11.3 10.1
-1 -5 0 3537.25 140.69
1 5 0 3469.35 140.39
-2 -5 0 189.68 50.49
-3 -5 0 616.44 110.59
-4 -5 0 10.5 35.1
-4 6 0 261.87 84.19
3 -6 0 588.44 110.19
-3 6 0 663.83 89.59
2 -6 0 547.75 69.39
1 -6 0 862.21 76.49
0 -6 0 3779.52 142.59
0 6 0 3820.32 138.49
-1 -6 0 941.41 78.99
-2 -6 0 580.54 71.59
-3 -6 0 433.26 88.09
-4 -6 0 411.36 99.79
-4 7 0 171.88 42.2
3 -7 0 131.49 59.19
-3 7 0 186.08 60.09
2 -7 0 3.8 26.6
1 -7 0 203.88 51.59
0 -7 0 -8.8 17.2
0 7 0 -22.5 13.3
-1 -7 0 149.79 44.4
-2 -7 0 -22.1 23.1
-3 -7 0 122.99 56.29
-4 -7 0 144.29 58.89
4 -8 0 221.58 73.99
-4 8 0 370.66 72.39
3 -8 0 284.67 83.49
-3 8 0 219.88 69.89
2 -8 0 154.18 58.39
1 -8 0 195.28 53.29
0 -8 0 146.09 44.1
-1 -8 0 142.49 44.5
-2 -8 0 114.09 46.9
-3 -8 0 170.68 65.49
-4 -8 0 183.78 76.99
4 -9 0 51.19 47.1
-4 9 0 76.59 68.59
3 -9 0 580.34 115.69
-3 9 0 583.74 117.59
2 -9 0 23.3 32.3
1 -9 0 1424.86 116.49
0 -9 0 -20 15.8
-1 -9 0 1081.39 100.39
-2 -9 0 16.2 33.7
-3 -9 0 383.56 99.79
-4 -9 0 -44.3 65.69
4 -10 0 56.19 61.19
3 -10 0 227.88 63.19
-3 10 0 177.88 61.19
2 -10 0 189.38 56.99
1 -10 0 52.79 39.6
0 -10 0 403.36 73.49
-1 -10 0 33.9 34.8
-2 -10 0 100.89 56.29
-3 -10 0 257.17 63.39
-4 -10 0 10.9 88.79
3 -11 0 196.48 71.79
-3 11 0 94.79 72.39
2 -11 0 106.79 41.3
1 -11 0 1151.78 135.99
0 -11 0 10.4 29.6
-1 -11 0 1076.09 131.19
-2 -11 0 81.19 43.6
-3 -11 0 247.58 88.79
3 -12 0 65.69 45.1
-3 12 0 18.1 45
2 -12 0 1316.57 134.29
1 -12 0 256.87 66.29
-1 -12 0 99.89 51.39
-2 -12 0 930.01 141.69
-3 -12 0 117.49 57.69
3 -13 0 17.5 64.09
-3 13 0 74.19 54.79
2 -13 0 94.29 55.59
1 -13 0 275.27 79.39
0 -13 0 -50.99 35.9
-1 -13 0 155.58 66.59
-2 -13 0 -61.79 46.6
-3 -13 0 -48.7 66.69
2 -14 0 968 132.49
1 -14 0 -21.8 37.7
0 -14 0 2616.74 188.28
-1 -14 0 23.5 42
-2 -14 0 823.52 141.99
2 -15 0 -6.9 61.19
1 -15 0 237.68 94.39
0 -15 0 99.39 63.99
-1 -15 0 301.57 86.59
-2 -15 0 183.88 85.99
1 -16 0 21.6 71.99
0 -16 0 501.15 99.99
-1 -16 0 -81.99 65.49
-1 -16 1 540.45 108.29
0 -16 1 91.79 75.39
1 -16 1 555.94 124.39
-2 -15 1 876.31 162.08
-1 -15 1 -24.4 52.09
0 -15 1 872.31 115.49
1 -15 1 20.3 58.49
2 -15 1 386.26 100.19
-1 -14 1 76.79 52.89
0 -14 1 19.1 58.39
1 -14 1 154.28 45.6
-3 -13 1 -118.49 65.29
-2 -13 1 1427.36 152.78
-1 -13 1 89.39 54.79
0 -13 1 1884.91 163.58
1 -13 1 43.6 53.99
2 -13 1 741.33 138.79
-3 13 -1 40.5 49.3
3 -13 1 30.8 47.5
-3 -12 1 163.98 83.29
-2 -12 1 39.7 41.1
-1 -12 1 636.54 121.49
0 -12 1 68.59 39.3
1 -12 1 612.64 121.69
2 -12 1 259.37 71.39
-3 12 -1 193.38 72.69
3 -12 1 68.39 60.39
-3 -11 1 241.68 80.49
-2 -11 1 355.96 96.49
-1 -11 1 175.98 55.19
0 -11 1 801.82 135.79
1 -11 1 232.68 68.19
2 -11 1 25.4 44.1
-3 11 -1 275.47 76.49
3 -11 1 222.28 78.99
-4 -10 1 56.09 65.39
-3 -10 1 1031.1 113.49
-2 -10 1 -27.6 34.3
-1 -10 1 1754.42 138.29
0 -10 1 193.88 57.49
1 -10 1 1495.85 131.89
2 -10 1 -19.8 43.7
-3 10 -1 910.81 123.59
-4 -9 1 -19.6 54.19
-3 -9 1 64.89 46.1
-2 -9 1 50.39 41.8
-1 -9 1 157.38 47.6
0 -9 1 379.06 77.59
1 -9 1 745.83 88.59
2 -9 1 893.61 104.29
-3 9 -1 791.42 134.39
3 -9 1 982 118.39
-4 9 -1 203.48 89.09
4 -9 1 284.37 86.19
-4 -8 1 -21.2 39.1
-3 -8 1 191.28 52.59
-2 -8 1 -14.2 19.3
-1 -8 1 456.55 62.59
0 -8 1 80.29 37.3
1 -8 1 947.11 93.79
2 -8 1 676.13 111.19
-3 8 -1 -10.1 26.3
3 -8 1 -34.4 29.5
-4 8 -1 97.59 51.99
-4 -7 1 27.9 54.09
-3 -7 1 110.19 47.8
-2 -7 1 813.32 92.29
-1 -7 1 1297.97 99.29
0 -7 1 1197.88 94.19
1 -7 1 2325.37 136.69
2 -7 1 1745.83 132.39
-3 7 -1 2142.79 170.08
3 -7 1 2075.29 167.28
-4 7 -1 409.76 84.09
4 -7 1 340.37 92.99
-4 -6 1 190.08 59.99
-3 -6 1 210.28 60.99
-2 -6 1 -31.6 23
-1 -6 1 538.25 61.59
0 6 -1 72.19 26.7
0 -6 1 74.69 30.2
1 -6 1 603.04 66.39
2 -6 1 355.26 76.49
-3 6 -1 110.39 43.9
3 -6 1 21.1 35.2
-4 6 -1 244.98 71.69
-4 -5 1 83.39 51.69
-3 -5 1 109.49 44.7
-2 -5 1 68.69 33.6
-1 -5 1 2034.6 112.39
0 5 -1 56.19 21.5
0 -5 1 47.6 23.5
1 -5 1 1768.22 106.59
2 -5 1 746.73 82.69
-3 5 -1 346.97 81.49
3 -5 1 543.15 103.49
-4 5 -1 714.23 133.59
-4 -4 1 -1.9 32.2
-3 -4 1 1728.03 148.09
-2 -4 1 174.18 43.1
1 4 -1 3787.52 145.19
-1 -4 1 3802.92 144.69
0 4 -1 529.75 48.6
0 -4 1 486.35 47.9
-1 4 -1 3121.69 132.69
1 -4 1 2851.61 126.69
-2 4 -1 179.18 48.5
2 -4 1 221.78 55.79
-3 4 -1 1486.25 137.29
3 -4 1 1487.55 139.49
-4 4 -1 351.06 82.39
-3 -3 1 24.2 21.2
-2 -3 1 1271.67 99.29
1 3 -1 965.2 67.79
-1 -3 1 982.1 71.29
0 3 -1 2312.47 88.49
0 -3 1 2526.45 95.09
-1 3 -1 1371.36 83.59
1 -3 1 1486.25 85.99
-2 3 -1 314.77 64.29
2 -3 1 400.96 69.49
-3 3 -1 212.58 65.89
3 -3 1 219.28 58.39
-4 3 -1 -10.2 43.9
-4 -2 1 -23.5 26.2
-3 -2 1 642.24 88.59
-2 -2 1 191.18 47.7
1 2 -1 1926.21 88.69
-1 -2 1 2115.29 96.19
0 2 -1 355.86 30.2
0 -2 1 342.87 30.7
-1 2 -1 3385.56 125.89
1 -2 1 3254.67 120.79
-2 2 -1 1149.89 94.89
2 -2 1 1210.78 97.89
-3 2 -1 192.18 67.49
-4 -1 1 1040.1 133.39
-3 -1 1 14.5 19
-2 -1 1 8447.35 246.38
1 1 -1 735.23 52.29
-1 -1 1 762.72 54.99
0 1 -1 1.7 3.6
0 -1 1 2.7 3.8
-1 1 -1 492.35 44.5
1 -1 1 490.35 45.5
-2 1 -1 1921.01 121.79
2 -1 1 1971.9 124.29
-3 1 -1 57.09 36.5
-4 1 -1 97.59 42.4
-4 0 1 127.79 52.19
-3 0 1 -33 13.6
-2 0 1 4 17.3
1 0 -1 -5.5 7.2
-1 0 1 -0.2 8.2
-1 0 -1 -5.3 7.6
1 0 1 -0.5 6.2
-2 0 -1 -19 13.9
-3 0 -1 -48 21.1
-4 0 -1 19.5 41.8
-4 1 1 1185.28 139.49
-3 1 1 36.7 38
-2 1 1 8418.26 247.38
1 -1 -1 666.53 45.9
-1 1 1 738.43 49.6
-1 1 1 665.03 48.6
-1 -1 -1 457.25 40.9
-1 -1 -1 463.75 40
1 1 1 452.55 38.8
-2 -1 -1 1872.91 118.49
-3 -1 -1 27.4 31.5
-4 -1 -1 21.1 33.2
-4 2 1 114.09 50.79
-3 2 1 834.62 99.69
-2 2 1 227.98 51.99
1 -2 -1 1854.71 82.49
-1 2 1 1827.02 80.59
-1 2 1 2014.3 84.79
0 -2 -1 386.86 19.1
0 2 1 355.16 17.8
-1 -2 -1 3169.68 105.19
1 2 1 3046.7 103.29
-2 -2 -1 1133.99 90.29
-3 -2 -1 368.26 82.99
-4 -2 -1 61.49 55.69
-4 3 1 697.73 96.39
-3 3 1 -22.8 21.9
2 -3 -1 1481.55 105.89
-2 3 1 1426.56 105.29
1 -3 -1 929.71 60.89
-1 3 1 857.41 59.29
0 -3 -1 2494.95 67.79
0 3 1 2689.93 67.49
-1 -3 -1 1468.45 77.29
1 3 1 1591.94 77.99
-2 -3 -1 348.67 62.49
-3 -3 -1 294.97 72.19
-3 4 1 1752.62 146.49
2 -4 -1 139.19 44.2
-2 4 1 197.58 51.29
1 -4 -1 3855.11 128.39
-1 4 1 3823.12 133.89
0 -4 -1 541.95 39.1
0 4 1 582.34 38.8
-1 -4 -1 3014.6 115.69
1 4 1 3161.88 141.29
-2 -4 -1 238.38 55.29
-3 -4 -1 1414.56 130.29
-4 -4 -1 310.47 137.29
-4 5 1 140.09 64.99
3 -5 -1 27 35.2
-3 5 1 167.98 51.89
2 -5 -1 68.99 35.1
-2 5 1 131.69 43.4
1 -5 -1 1841.12 94.49
-1 5 1 2011.7 102.29
0 -5 -1 48.9 19.2
0 5 1 69.19 22.7
-1 -5 -1 1755.32 94.09
1 5 1 1803.62 92.39
-2 -5 -1 585.04 70.89
-3 -5 -1 426.36 97.49
-4 -5 -1 786.22 144.89
-4 6 1 82.69 67.09
3 -6 -1 320.67 74.99
-3 6 1 261.07 77.89
2 -6 -1 13.1 18.4
-2 6 1 11.6 19.4
1 -6 -1 658.83 61.89
-1 6 1 689.83 63.49
0 -6 -1 61.09 22.6
0 6 1 58.29 25
-1 -6 -1 677.73 62.49
1 6 1 673.73 61.29
-2 -6 -1 246.78 61.19
-3 -6 -1 127.69 52.59
-4 -6 -1 220.48 63.99
-4 7 1 42.4 44.1
3 -7 -1 130.79 53.19
-3 7 1 27.5 44.2
2 -7 -1 976.4 93.19
-2 7 1 911.21 90.49
1 -7 -1 1181.08 85.69
0 -7 -1 1144.29 79.59
0 7 1 1110.39 76.79
-1 -7 -1 2131.89 115.49
-2 -7 -1 1771.42 126.39
-3 -7 -1 1975.5 162.78
-4 -7 -1 403.06 73.09
-4 8 1 26.3 46.7
3 -8 -1 29.1 45.3
-3 8 1 57.69 41.3
2 -8 -1 44.9 26.2
1 -8 -1 445.16 57.39
0 -8 -1 57.89 27.7
0 8 1 94.49 25.4
-1 -8 -1 933.61 81.99
-2 -8 -1 500.25 86.79
-3 -8 -1 -30.2 32.2
-4 9 1 24.6 44.2
3 -9 -1 91.69 41.6
-3 9 1 -43.4 32.4
2 -9 -1 -14.6 44.4
1 -9 -1 124.49 43.3
0 -9 -1 365.16 64.89
-1 -9 -1 474.75 79.99
-3 -9 -1 899.51 100.49
-4 -9 -1 422.76 117.99
-4 10 1 -112.09 48.6
3 -10 -1 959 116.69
-3 10 1 1007.4 107.19
2 -10 -1 -4.9 22.6
1 -10 -1 2224.38 141.49
0 -10 -1 218.48 53.49
-1 -10 -1 1184.58 103.49
-2 -10 -1 34.7 40.5
-3 -10 -1 1056.49 130.99
3 -11 -1 131.49 51.29
-3 11 1 12.3 30.8
2 -11 -1 665.43 106.59
1 -11 -1 170.58 55.89
0 -11 -1 780.42 86.09
-1 -11 -1 213.68 55.89
-2 -11 -1 -7.2 30.4
-3 -11 -1 295.17 81.79
2 -12 -1 -39.5 30.8
1 -12 -1 734.73 188.78
0 -12 -1 110.69 55.19
-2 -12 -1 213.18 64.59
-3 -12 -1 186.98 122.19
3 -13 -1 -53.99 50.49
-3 13 1 -31.2 38.7
2 -13 -1 1658.33 152.78
1 -13 -1 119.89 57.19
0 -13 -1 2408.96 204.68
-1 -13 -1 -18.3 34.8
-2 -13 -1 606.04 120.69
-3 -13 -1 -47 75.19
2 -14 -1 -65.19 49.2
1 -14 -1 11.2 54.49
0 -14 -1 45.2 52.79
-1 -14 -1 -73.29 60.89
-2 -14 -1 -45.7 71.09
2 -15 -1 794.22 129.59
1 -15 -1 78.39 63.39
0 -15 -1 882.81 138.49
-1 -15 -1 175.88 67.49
-2 -15 -1 436.36 99.99
1 -16 -1 300.37 92.79
0 -16 -1 97.99 81.39
-1 -16 -1 216.88 88.09
-1 -16 2 122.89 82.29
0 -16 2 -14 64.89
1 -16 2 -34.3 55.89
-2 -15 2 -54.39 79.59
0 -15 2 66.19 68.59
1 -15 2 172.98 85.19
2 -15 2 114.49 73.99
-2 -14 2 587.54 129.89
-1 -14 2 -19.1 46.8
0 -14 2 559.94 113.39
1 -14 2 266.27 73.09
2 -14 2 9 53.79
-3 -13 2 65.89 72.99
-2 -13 2 116.09 56.99
-1 -13 2 260.57 65.99
0 -13 2 35.7 49.4
1 -13 2 187.38 49.5
2 -13 2 100.19 58.49
3 -13 2 -6.2 71.89
-3 -12 2 -74.89 57.29
-2 -12 2 594.44 117.89
-1 -12 2 85.59 47.2
0 -12 2 97.29 54.39
1 -12 2 -36.5 32.1
2 -12 2 78.39 45.5
3 -12 2 14 61.39
-3 -11 2 356.16 102.19
-2 -11 2 427.76 87.09
-1 -11 2 536.95 104.49
0 -11 2 491.05 94.29
1 -11 2 878.81 112.79
2 -11 2 988.3 124.39
3 -11 2 36.7 39.8
-4 -10 2 111.99 51.39
-3 -10 2 155.98 80.19
-2 -10 2 -36 34.5
-1 -10 2 549.54 100.49
0 -10 2 239.38 66.09
1 -10 2 849.12 107.59
2 -10 2 89.19 49.2
-3 10 -2 36.7 38.2
3 -10 2 -44.9 43.3
-4 -9 2 101.69 76.99
-3 -9 2 399.36 99.09
-2 -9 2 263.87 74.79
-1 -9 2 888.01 98.19
0 -9 2 744.53 86.59
1 -9 2 685.33 114.59
2 -9 2 561.14 111.99
-3 9 -2 192.98 76.49
3 -9 2 187.08 57.19
-4 9 -2 144.29 85.99
4 -9 2 153.88 84.69
-4 -8 2 129.49 67.19
-3 -8 2 717.63 121.49
-2 -8 2 681.23 89.89
-1 -8 2 2615.64 158.98
0 -8 2 1771.82 125.09
1 -8 2 3793.62 196.58
2 -8 2 931.91 107.69
-3 8 -2 290.77 71.09
3 -8 2 461.75 100.09
-4 8 -2 665.53 141.29
4 -8 2 580.34 131.49
-4 -7 2 54.09 60.59
-3 -7 2 12.2 19.7
-2 -7 2 1.4 33.9
-1 -7 2 257.67 56.09
0 -7 2 31.6 24.9
1 -7 2 2.5 19.1
2 -7 2 41.6 38.5
-3 7 -2 2.4 31.9
3 -7 2 75.79 39.3
-4 7 -2 129.49 46.1
4 -7 2 40.1 38.2
-4 -6 2 17.1 49.8
-3 -6 2 748.33 96.09
-2 -6 2 757.72 87.99
-1 -6 2 1685.43 114.49
0 -6 2 4787.02 186.08
1 -6 2 3620.94 171.68
2 -6 2 2237.58 152.28
-3 6 -2 933.71 110.79
3 -6 2 1030.7 118.39
-4 6 -2 908.31 113.99
4 -6 2 663.33 123.69
-4 -5 2 104.49 49.9
-3 -5 2 426.46 90.59
-2 -5 2 48 23
-1 -5 2 3247.97 149.59
0 5 -2 1336.47 88.19
0 -5 2 1347.87 92.59
1 -5 2 1457.25 102.79
2 -5 2 1050.59 99.19
-3 5 -2 98.09 48.6
3 -5 2 104.59 49.1
-4 5 -2 123.39 65.99
4 -5 2 225.58 71.59
-4 -4 2 158.08 48.6
-3 -4 2 550.04 105.09
-2 -4 2 108.59 39
1 4 -2 1675.83 102.09
-1 -4 2 1636.84 101.19
0 4 -2 271.17 48.2
0 -4 2 332.07 56.09
1 -4 2 699.73 67.59
2 -4 2 1386.66 111.69
3 -4 2 366.26 84.09
-4 4 -2 618.44 120.89
-4 -3 2 137.39 58.99
-3 -3 2 819.02 102.59
-2 -3 2 1039.1 91.79
1 3 -2 1623.34 96.29
-1 -3 2 1627.34 96.89
0 3 -2 1738.43 85.09
0 -3 2 1794.42 89.99
-1 3 -2 2003.8 106.39
1 -3 2 2229.78 112.59
-2 3 -2 1316.47 106.79
2 -3 2 1502.95 112.29
-3 3 -2 654.33 113.69
3 -3 2 306.47 80.59
-4 3 -2 456.85 109.39
-4 -2 2 807.42 161.38
-3 -2 2 -29.4 27.9
-2 -2 2 579.44 68.59
1 2 -2 185.58 36
0 2 -2 180.38 32.6
0 -2 2 166.78 31.2
-1 2 -2 4.7 11.1
1 -2 2 39.3 19.6
-2 2 -2 120.99 40.3
2 -2 2 106.79 37.6
-3 2 -2 -14.8 29.6
3 -2 2 52.19 37.6
-4 2 -2 44.9 45.3
-4 -1 2 36.8 40.2
-3 -1 2 214.78 66.09
-2 -1 2 310.17 60.89
1 1 -2 6072.49 156.88
-1 -1 2 5983.4 162.38
0 1 -2 1058.69 51.29
0 -1 2 969.1 51.19
-1 1 -2 666.33 64.99
1 -1 2 635.24 54.69
-2 1 -2 161.98 39.5
2 -1 2 123.59 42.9
-3 1 -2 323.37 68.59
-4 0 2 1928.31 171.18
-3 0 2 -2.5 24.2
-2 0 2 2582.34 137.99
1 0 -2 3228.18 107.59
-1 0 2 3271.67 110.09
0 0 -2 9871.61 126.19
0 0 2 9999 131.39
-1 0 -2 262.97 33.8
-1 0 -2 254.27 32.5
1 0 2 256.07 42.9
-2 0 -2 584.84 67.19
2 0 2 588.14 68.19
-3 0 -2 645.14 107.39
-4 1 2 177.98 44.4
-3 1 2 171.88 54.89
-2 1 2 437.66 59.39
1 -1 -2 5743.93 135.79
-1 1 2 5717.23 137.39
-1 1 2 5565.24 136.19
0 -1 -2 1046.7 27.9
0 1 2 1084.59 28.8
-1 -1 -2 576.84 46.2
-1 -1 -2 606.54 46.8
1 1 2 552.54 47
-2 -1 -2 171.78 46.6
-3 -1 -2 282.07 75.39
-4 -1 -2 83.49 42.3
-4 2 2 832.12 112.39
-3 2 2 49.5 23.6
-2 2 2 544.75 65.59
1 -2 -2 174.18 31
-1 2 2 168.08 30.5
-1 2 2 155.58 30.3
-1 -2 -2 19.4 13.3
-1 -2 -2 49.6 16.6
1 2 2 45.1 16.7
-2 -2 -2 105.29 33.9
-3 -2 -2 55.19 32.2
-4 3 2 69.19 40.4
-3 3 2 995.4 108.09
-2 3 2 1170.38 94.19
1 -3 -2 1668.03 77.79
-1 3 2 1769.62 79.89
-1 3 2 1726.13 77.69
0 -3 -2 1803.82 39.8
0 3 2 1830.12 38.5
-1 -3 -2 2011 84.39
-1 -3 -2 2029.5 85.39
1 3 2 1949.3 83.19
-2 -3 -2 1398.76 99.29
-3 -3 -2 558.64 97.79
-4 4 2 71.69 46.3
-3 4 2 789.52 97.99
2 -4 -2 67.79 29.8
-2 4 2 49.3 33.7
1 -4 -2 1607.44 78.19
-1 4 2 1757.52 82.39
-1 4 2 1743.63 84.69
0 -4 -2 249.68 21.9
0 4 2 240.08 20.8
-1 -4 -2 690.73 54.99
1 4 2 738.43 51.89
-2 -4 -2 1393.56 102.99
-3 -4 -2 231.38 66.49
-4 -4 -2 466.35 125.89
-3 5 2 694.43 89.09
2 -5 -2 15.8 20.4
-2 5 2 22.9 18.7
1 -5 -2 3542.75 121.69
-1 5 2 3339.17 125.59
0 -5 -2 1533.25 64.19
0 5 2 1466.95 60.29
-1 -5 -2 1305.77 88.39
-2 -5 -2 1056.39 91.29
-3 -5 -2 121.19 46.6
-4 -5 -2 178.88 80.59
-4 6 2 199.88 73.29
-3 6 2 774.02 100.59
2 -6 -2 761.32 77.69
-2 6 2 708.83 74.69
1 -6 -2 1600.04 86.69
-1 6 2 1633.04 93.39
0 -6 -2 4916.51 131.59
0 6 2 5153.08 130.09
-1 -6 -2 3470.75 132.09
1 6 2 3459.95 127.89
-2 -6 -2 2230.78 135.09
-3 -6 -2 929.81 112.09
-4 -6 -2 425.46 108.59
-4 7 2 87.69 58.19
3 -7 -2 17.6 29.8
-3 7 2 60.79 44.6
2 -7 -2 32.9 17.4
-2 7 2 89.29 35.2
1 -7 -2 189.78 39.9
-1 7 2 284.17 52.59
0 -7 -2 26.8 20.1
0 7 2 33.3 19.2
-1 -7 -2 8.1 18.2
1 7 2 25.9 16.9
-2 -7 -2 32.3 24.7
-3 -7 -2 84.19 50.69
-4 -7 -2 -11.7 39.8
-4 8 2 41.4 48
3 -8 -2 827.52 100.79
-3 8 2 1003.7 111.99
2 -8 -2 510.15 69.09
-2 8 2 525.55 70.69
1 -8 -2 2367.46 119.09
0 -8 -2 1908.11 101.69
0 8 2 1954.7 99.09
-1 -8 -2 3247.18 142.19
-2 -8 -2 636.84 83.29
-3 -8 -2 305.57 82.79
-4 -8 -2 525.85 107.19
-4 9 2 191.68 64.69
3 -9 -2 425.16 86.49
-3 9 2 352.16 76.79
2 -9 -2 343.67 69.89
-2 9 2 351.36 74.49
1 -9 -2 1068.09 86.39
0 -9 -2 868.31 76.09
0 9 2 697.03 69.59
-1 -9 -2 538.85 68.59
-2 -9 -2 526.25 91.69
-3 -9 -2 155.88 63.89
-4 -9 -2 -28.9 72.09
-4 10 2 65.09 54.19
3 -10 -2 270.47 63.09
-3 10 2 279.57 58.59
1 -10 -2 543.85 64.99
0 -10 -2 239.88 53.89
-1 -10 -2 808.32 82.19
-2 -10 -2 80.19 49.6
-3 -10 -2 -21.8 37.1
3 -11 -2 544.35 96.89
-3 11 2 355.56 78.99
2 -11 -2 322.47 74.69
1 -11 -2 635.04 78.69
0 -11 -2 458.05 78.49
-1 -11 -2 805.72 90.79
-2 -11 -2 780.62 102.29
-3 -11 -2 297.37 72.39
3 -12 -2 -30.7 46.7
-3 12 2 85.39 46.1
2 -12 -2 725.93 94.79
1 -12 -2 33.4 29
0 -12 -2 84.59 52.39
-1 -12 -2 26.4 39.6
-2 -12 -2 -91.89 44.6
-3 -12 -2 -19 61.69
3 -13 -2 55.39 56.59
-3 13 2 170.98 50.69
2 -13 -2 172.68 50.49
1 -13 -2 235.38 97.59
0 -13 -2 103.49 44.3
-1 -13 -2 95.59 67.49
-2 -13 -2 6.4 56.09
-3 -13 -2 58.89 75.09
2 -14 -2 883.81 117.39
1 -14 -2 28 49.1
0 -14 -2 539.15 121.69
-1 -14 -2 180.38 72.99
-2 -14 -2 -16.7 60.49
2 -15 -2 125.89 55.09
1 -15 -2 345.77 79.29
0 -15 -2 133.89 67.89
-1 -15 -2 79.09 70.09
-2 -15 -2 180.98 87.49
1 -16 -2 64.59 67.29
0 -16 -2 -39.4 82.39
-1 -16 -2 -139.09 68.79
-1 -16 3 149.69 94.79
0 -16 3 176.48 102.09
1 -16 3 270.47 99.19
-2 -15 3 -17.3 68.79
-1 -15 3 293.87 81.69
0 -15 3 -76.99 49.1
1 -15 3 60.39 64.09
2 -15 3 -59.69 51.39
-2 -14 3 112.79 69.89
-1 -14 3 68.79 60.79
0 -14 3 -50.39 44.2
1 -14 3 187.28 64.09
2 -14 3 55.49 59.19
-3 -13 3 -38.1 72.49
-2 -13 3 65.19 62.49
-1 -13 3 164.68 57.29
0 -13 3 41 50.29
1 -13 3 959.7 158.18
2 -13 3 -27.5 37.9
-3 -12 3 157.48 68.39
-2 -12 3 252.47 75.99
-1 -12 3 270.87 76.49
0 -12 3 649.83 113.49
1 -12 3 88.49 58.69
2 -12 3 663.23 137.79
3 -12 3 -82.39 43.3
-3 -11 3 130.29 68.19
-2 -11 3 134.59 48.3
-1 -11 3 23.3 44.6
0 -11 3 135.59 58.19
1 -11 3 28.8 38.7
2 -11 3 145.79 62.59
3 -11 3 93.49 58.29
-3 -10 3 233.58 66.59
-2 -10 3 236.08 74.49
-1 -10 3 490.45 97.79
0 -10 3 941.81 108.09
1 -10 3 321.47 86.99
2 -10 3 228.38 63.49
3 -10 3 198.18 72.29
-4 -9 3 89.49 80.19
-3 -9 3 462.25 99.19
-2 -9 3 521.95 104.69
-1 -9 3 898.01 106.49
0 -9 3 474.45 92.39
1 -9 3 66.89 43.1
2 -9 3 1700.93 154.38
-4 9 -3 23.5 66.29
4 -9 3 93.09 66.69
-4 -8 3 -36.1 56.29
-3 -8 3 142.49 57.19
-2 -8 3 557.74 109.09
-1 -8 3 101.89 43.1
0 -8 3 675.83 83.79
1 -8 3 228.38 67.09
2 -8 3 1213.68 128.49
-3 8 -3 12.1 34.1
3 -8 3 14.8 33.7
-4 8 -3 112.89 77.39
4 -8 3 151.48 76.59
-4 -7 3 73.69 39.9
-3 -7 3 1140.79 129.49
-2 -7 3 2052.69 152.58
-1 -7 3 4049.89 202.08
0 -7 3 3042.9 165.68
1 -7 3 2843.92 169.38
2 -7 3 1125.39 116.29
-3 7 -3 545.65 103.69
3 -7 3 447.16 102.59
-4 7 -3 79.09 65.79
4 -7 3 6.9 57.19
-4 -6 3 8.7 38.8
-3 -6 3 135.39 50.29
-1 -6 3 337.37 70.29
0 -6 3 534.85 66.89
1 -6 3 81.59 34.7
2 -6 3 684.83 111.79
-3 6 -3 -23.2 30.3
3 -6 3 45.1 31.8
-4 6 -3 20 49.3
4 -6 3 250.47 48.3
-4 -5 3 77.59 59.49
-3 -5 3 871.71 107.49
-2 -5 3 1643.84 128.39
-1 -5 3 3350.86 161.48
0 -5 3 2104.29 122.29
1 -5 3 892.41 85.89
2 -5 3 1273.17 114.19
-3 5 -3 2.9 25.4
3 -5 3 152.68 40.5
-4 5 -3 308.37 67.49
4 -5 3 233.98 76.49
-4 -4 3 226.88 67.09
-3 -4 3 794.72 106.89
-2 -4 3 1380.96 113.29
-1 -4 3 1118.39 88.49
0 4 -3 2323.07 119.99
0 -4 3 2355.96 122.59
1 -4 3 564.64 65.39
2 -4 3 1020.6 101.19
-3 4 -3 229.58 71.59
3 -4 3 311.07 85.99
-4 4 -3 717.63 121.79
4 -4 3 555.74 109.09
-4 -3 3 49.8 37.6
-3 -3 3 265.17 69.39
-2 -3 3 63.79 30.7
1 3 -3 283.07 38.9
-1 -3 3 163.68 40.7
0 3 -3 1856.71 94.99
0 -3 3 1793.72 122.29
1 -3 3 445.66 55.49
2 -3 3 97.89 39.7
-3 3 -3 412.86 88.99
3 -3 3 511.45 103.39
-4 3 -3 78.09 55.49
-3 -2 3 1036.7 116.29
-2 -2 3 2365.16 140.39
1 2 -3 634.74 57.19
-1 -2 3 577.34 56.49
0 2 -3 2805.42 106.89
0 -2 3 2527.45 108.89
-1 2 -3 958.6 72.49
1 -2 3 833.42 70.19
-2 2 -3 2366.56 144.29
2 -2 3 2379.36 144.79
-3 2 -3 24 32.2
3 -2 3 63.79 36
-4 2 -3 684.13 123.99
-4 -1 3 265.67 72.09
-3 -1 3 -12.4 26.5
-2 -1 3 1049.4 90.69
1 1 -3 2528.05 126.29
0 1 -3 10.3 9.5
0 -1 3 78.39 23
-1 1 -3 3909.71 141.59
1 -1 3 4310.77 149.59
-2 1 -3 143.99 43
2 -1 3 127.09 43.8
-3 1 -3 2276.57 171.38
3 -1 3 2456.55 177.28
-4 1 -3 18.6 31.3
-4 0 3 19.9 41.7
-3 0 3 -51.79 20.6
-2 0 3 -2.7 17.4
1 0 -3 -17 8.7
-1 0 3 2.2 9.3
0 0 -3 10.5 8.4
0 0 3 10.8 7.7
1 0 3 -18.6 8.3
-2 0 -3 -21.4 11.8
2 0 3 -19.8 10.1
-3 0 -3 -11.6 28.6
-4 0 -3 46.2 48.3
-4 1 3 260.27 77.79
-3 1 3 22.6 24.4
-2 1 3 1093.39 89.19
1 -1 -3 2137.29 85.39
-1 1 3 2343.17 92.99
0 -1 -3 60.79 11.2
0 1 3 41.2 10.7
-1 -1 -3 4273.57 132.79
-1 -1 -3 4281.57 131.89
1 1 3 4292.27 134.09
-2 -1 -3 124.79 39.9
2 1 3 110.39 38.9
-3 -1 -3 2387.26 168.88
-4 -1 -3 134.29 57.69
-4 2 3 274.47 69.49
-3 2 3 1038.6 107.99
-2 2 3 2402.26 130.49
1 -2 -3 548.05 41.7
-1 2 3 549.85 42.8
-1 2 3 543.25 43
0 -2 -3 2820.92 39.5
0 2 3 2828.82 41.2
-1 -2 -3 915.61 58.99
-1 -2 -3 849.02 56.19
1 2 3 884.11 57.89
-2 -2 -3 2253.17 129.69
-3 -2 -3 87.79 40.6
-4 -2 -3 616.54 192.68
-4 3 3 79.69 50.09
-3 3 3 255.17 58.19
-2 3 3 125.09 37.5
-1 3 3 198.98 33.2
-1 3 3 205.78 26.6
-1 -3 -3 315.47 34.5
-1 -3 -3 325.07 34.6
1 3 3 275.77 33.8
-2 -3 -3 15.8 20.1
-3 -3 -3 347.77 81.69
-4 -3 -3 92.69 78.89
-4 4 3 386.06 89.39
-3 4 3 932.71 104.69
-2 4 3 1402.76 101.49
1 -4 -3 1129.19 60.99
-1 4 3 1178.98 63.79
-1 4 3 1124.29 64.09
0 4 3 2310.17 39.2
-1 -4 -3 568.14 47.3
-1 -4 -3 509.35 43.6
1 4 3 521.25 43.5
-2 -4 -3 994.8 85.89
-3 -4 -3 234.88 64.79
-4 -4 -3 706.43 131.19
-3 5 3 1103.39 113.69
-2 5 3 1821.32 117.79
1 -5 -3 3427.86 111.89
-1 5 3 3360.76 118.99
-1 5 3 3420.06 111.29
0 -5 -3 2243.48 57.79
0 5 3 2343.57 57.99
-1 -5 -3 746.53 55.89
1 5 3 747.53 54.59
-2 -5 -3 1322.97 101.49
-3 -5 -3 87.39 48.2
-4 -5 -3 189.88 73.29
-4 6 3 -16.2 50.29
-3 6 3 67.69 48.5
2 -6 -3 187.18 48.3
-2 6 3 90.99 38.1
1 -6 -3 290.37 36.1
-1 6 3 262.97 42.2
-1 6 3 292.27 35.7
0 -6 -3 482.15 35.2
0 6 3 453.75 32.9
-1 -6 -3 226.28 45.1
-2 -6 -3 514.75 65.49
-3 -6 -3 -26.4 33.8
-4 -6 -3 83.09 54.29
-4 7 3 244.68 57.99
-3 7 3 1176.68 120.99
2 -7 -3 2095.49 127.89
-2 7 3 2209.38 130.59
-1 7 3 3523.55 137.49
0 -7 -3 3442.56 106.39
0 7 3 3237.88 98.69
-1 -7 -3 2722.33 115.79
1 7 3 2547.55 108.19
-2 -7 -3 1240.68 101.99
-3 -7 -3 467.15 86.49
-4 -7 -3 106.29 69.59
-4 8 3 76.39 54.19
-3 8 3 101.19 54.89
2 -8 -3 536.85 70.69
-2 8 3 624.54 71.19
1 -8 -3 106.29 32
-1 8 3 96.99 37.4
0 -8 -3 681.43 56.39
0 8 3 693.33 55.09
-1 -8 -3 245.38 51.59
1 8 3 256.27 44.4
-2 -8 -3 956.4 95.09
-3 -8 -3 21.5 37
-4 -8 -3 241.88 92.99
-4 9 3 163.88 72.59
-3 9 3 473.25 94.39
2 -9 -3 485.75 65.39
-2 9 3 549.65 72.19
1 -9 -3 817.82 69.89
0 9 3 428.76 48.7
-1 -9 -3 20.9 31.6
-2 -9 -3 1934.21 134.29
-3 -9 -3 -39.6 53.29
-4 -9 -3 119.69 85.69
3 -10 -3 248.88 61.19
-3 10 3 338.97 67.59
2 -10 -3 284.77 62.39
-2 10 3 364.36 74.39
1 -10 -3 622.34 67.89
0 -10 -3 739.73 71.59
0 10 3 798.52 69.19
-1 -10 -3 280.77 58.59
-2 -10 -3 297.47 71.29
-3 -10 -3 147.29 63.19
3 -11 -3 34.3 51.29
-3 11 3 174.88 48.5
2 -11 -3 140.19 82.79
-2 11 3 98.69 74.29
1 -11 -3 0.3 26.5
0 -11 -3 238.78 55.29
-1 -11 -3 77.19 30.4
-2 -11 -3 -16.4 43.5
-3 -11 -3 134.39 71.39
3 -12 -3 170.78 61.09
-3 12 3 560.84 72.49
2 -12 -3 160.18 55.59
-2 12 3 203.08 59.69
1 -12 -3 250.77 59.49
0 -12 -3 636.04 79.39
-1 -12 -3 129.59 53.39
-2 -12 -3 600.44 112.89
-3 -12 -3 140.19 66.29
-3 13 3 119.69 54.99
2 -13 -3 13.7 39.7
-2 13 3 4.6 40.4
1 -13 -3 84.69 42.6
0 -13 -3 -12.9 41.4
-1 -13 -3 719.63 99.09
-2 -13 -3 42.8 58.49
2 -14 -3 47.1 59.79
-2 14 3 -103.89 42.8
1 -14 -3 -28.4 41.4
0 -14 -3 -8.3 51.39
-2 -14 -3 -43.8 74.79
2 -15 -3 24.9 65.79
-2 15 3 145.39 50.99
1 -15 -3 -0.1 52.59
0 -15 -3 -14 79.39
-1 -15 -3 -14.6 65.49
-2 -15 -3 -23 84.29
1 -16 -3 161.28 71.79
0 -16 -3 244.18 74.79
-1 -16 -3 -56.89 93.79
-1 -16 4 15.8 75.29
0 -16 4 -61.39 68.99
-1 -15 4 -6 59.69
0 -15 4 272.77 78.89
1 -15 4 102.19 63.59
-2 -14 4 -40.3 77.89
-1 -14 4 680.83 134.19
1 -14 4 1769.22 180.48
2 -14 4 -38 71.09
-3 -13 4 75.19 75.79
-2 -13 4 33.7 51.69
-1 -13 4 -61.09 38.4
0 -13 4 14.8 43.4
1 -13 4 122.19 48.2
2 -13 4 105.09 59.69
-3 -12 4 50.19 80.29
-1 -12 4 696.63 121.19
0 -12 4 71.89 39.2
1 -12 4 1875.91 173.78
2 -12 4 116.19 54.19
3 -12 4 850.31 155.28
-3 -11 4 41.4 76.69
-2 -11 4 681.73 131.89
-1 -11 4 187.58 56.29
0 -11 4 1367.46 140.69
1 -11 4 -27.3 32
2 -11 4 1221.68 135.39
3 -11 4 -77.09 56.59
-3 -10 4 59.69 53.29
-2 -10 4 252.57 71.49
-1 -10 4 -55.29 28.6
0 -10 4 744.53 100.39
1 -10 4 -23.9 33.9
2 -10 4 40.7 39.8
3 -10 4 279.17 76.89
-4 -9 4 42.4 70.29
-3 -9 4 -16.4 59.49
-2 -9 4 934.51 111.89
-1 -9 4 76.99 42.4
0 -9 4 1415.86 129.39
1 -9 4 36.6 37.8
2 -9 4 983.4 109.59
3 -9 4 -63.29 33.4
-4 -8 4 445.36 116.09
-3 -8 4 1089.99 109.59
-2 -8 4 1081.99 121.49
-1 -8 4 832.32 102.49
0 -8 4 1602.44 135.39
1 -8 4 1228.18 121.99
2 -8 4 -32.4 28.4
3 -8 4 62.39 88.99
-4 8 -4 -71.09 56.79
4 -8 4 51.59 57.09
-4 -7 4 13.1 50.79
-3 -7 4 91.69 43.2
-2 -7 4 75.79 36.1
-1 -7 4 -3.2 15
0 -7 4 4.1 19.5
1 -7 4 5.1 20.5
2 -7 4 -10.8 25.8
3 -7 4 13.9 25.8
-4 7 -4 -33 54.89
4 -7 4 -37 41
-4 -6 4 475.15 93.09
-3 -6 4 817.82 106.19
-2 -6 4 1418.76 130.39
-1 -6 4 1318.67 114.49
0 -6 4 1117.69 99.89
1 -6 4 753.92 84.99
2 -6 4 80.19 43
-3 6 -4 65.09 39
3 -6 4 99.89 44.4
-4 6 -4 -5.9 44.9
4 -6 4 98.69 51.89
-4 -5 4 97.59 67.39
-3 -5 4 132.79 53.79
-2 -5 4 556.44 155.28
-1 -5 4 524.95 67.49
0 -5 4 2265.47 136.39
1 -5 4 7.6 19.1
2 -5 4 1424.06 129.59
-3 5 -4 83.19 38.9
3 -5 4 72.59 37.4
-4 5 -4 237.98 75.19
4 -5 4 64.49 48.8
-4 -4 4 121.59 66.29
-3 -4 4 509.85 102.09
-2 -4 4 201.08 57.69
-1 -4 4 68.59 35
0 -4 4 274.37 55.29
1 -4 4 502.65 63.89
2 -4 4 238.78 60.49
-3 4 -4 217.98 58.89
3 -4 4 226.68 65.79
-4 4 -4 92.79 42
4 -4 4 -27.8 39.8
-4 -3 4 711.13 138.59
-3 -3 4 41 36.2
-2 -3 4 2000 134.09
-1 -3 4 170.98 45.9
0 3 -4 3459.85 140.29
0 -3 4 3640.54 151.88
1 -3 4 61.99 30
2 -3 4 2012.8 142.09
-3 3 -4 -56.49 26.4
3 -3 4 41.1 36.6
-4 3 -4 400.26 104.49
-4 -2 4 -70.29 50.49
-3 -2 4 781.22 97.69
-2 -2 4 1052.39 94.49
1 2 -4 1488.25 89.79
-1 -2 4 1570.74 98.09
0 2 -4 92.89 27.4
0 -2 4 139.89 41.6
1 -2 4 5272.97 186.98
2 -2 4 190.08 55.59
-3 2 -4 1484.75 139.19
3 -2 4 1346.87 137.89
-4 2 -4 184.98 62.29
-3 -1 4 27.2 29.7
-2 -1 4 -17.8 18.9
1 1 -4 591.44 54.09
-1 -1 4 622.94 58.99
0 1 -4 784.62 55.99
0 -1 4 719.53 57.09
-1 1 -4 32.7 17.4
1 -1 4 20.4 16.2
-2 1 -4 554.94 71.09
2 -1 4 605.74 75.59
-3 1 -4 89.59 54.69
3 -1 4 93.19 53.79
-4 0 4 0.1 39.3
-3 0 4 365.26 78.99
-2 0 4 37.1 22.6
-1 0 4 4468.55 167.58
0 0 -4 686.73 45.8
0 0 4 594.34 46.3
-1 0 -4 6227.18 177.48
1 0 4 5967 178.98
-2 0 -4 14.4 23.7
2 0 4 22.3 24.6
-3 0 -4 2852.51 191.88
-4 1 4 28 45.1
-3 1 4 13.5 29.4
-2 1 4 -16.9 15.8
1 -1 -4 580.84 47.7
-1 1 4 549.15 46.8
0 -1 -4 716.03 40.4
0 1 4 702.53 42.2
1 1 4 32.4 18
-2 -1 -4 461.45 63.89
2 1 4 622.74 73.99
-3 -1 -4 68.69 49.4
-4 -1 -4 -53.89 35.4
-4 2 4 136.59 48.2
-3 2 4 899.71 100.49
-2 2 4 904.61 81.39
1 -2 -4 1590.34 73.19
-1 2 4 1547.75 75.09
0 -2 -4 134.39 14.4
0 2 4 117.19 17.2
-1 -2 -4 5369.96 144.79
-1 -2 -4 5463.25 150.68
1 2 4 5486.85 153.38
-2 -2 -4 125.39 42.6
-3 -2 -4 1373.36 131.39
-4 -2 -4 183.98 67.99
-4 3 4 834.62 111.99
-3 3 4 62.29 40.9
-2 3 4 1999 119.29
1 -3 -4 194.98 25.5
-1 3 4 159.38 30.1
-1 3 4 159.58 28
-1 -3 -4 86.99 22
-1 -3 -4 80.19 20.8
-2 -3 -4 1748.63 114.09
-4 -3 -4 470.05 94.39
-4 4 4 299.87 73.29
-3 4 4 659.93 87.09
-2 4 4 191.68 48.9
-1 4 4 60.39 19.9
-1 4 4 67.49 20.6
-1 -4 -4 494.55 42.8
-1 -4 -4 517.35 44
-2 -4 -4 252.97 54.09
-3 -4 -4 119.59 53.09
-4 -4 -4 198.48 49.8
-3 5 4 165.28 54.19
-2 5 4 526.45 63.19
-1 5 4 547.35 44.8
-1 5 4 546.85 42.9
-1 -5 -4 44.3 17.5
-1 -5 -4 48.1 22.7
1 5 4 71.19 17.4
-2 -5 -4 1346.67 99.99
-3 -5 -4 66.59 39.2
-4 -5 -4 191.88 80.59
-4 6 4 386.26 101.59
-3 6 4 803.12 102.29
-2 6 4 1346.27 100.09
-1 6 4 1275.97 71.49
-1 6 4 1310.17 67.99
0 -6 -4 965.3 26.6
0 6 4 1009.4 26.8
-1 -6 -4 754.62 56.39
-1 -6 -4 729.63 51.69
1 6 4 751.12 53.89
-2 -6 -4 72.99 30.6
-3 -6 -4 76.09 48.2
-4 -6 -4 -6.3 71.99
-4 7 4 99.49 42.5
-3 7 4 151.68 52.69
-2 7 4 8.6 21.7
1 -7 -4 16.4 16.9
-1 7 4 -7.1 16.4
-1 7 4 4.2 11.2
0 -7 -4 -8.1 7.1
0 7 4 7.7 9.2
-2 -7 -4 0.1 20.3
-3 -7 -4 -39.1 47.5
-4 -7 -4 -18.1 61.09
-4 8 4 783.22 106.09
-3 8 4 930.31 112.29
2 -8 -4 1005.1 85.79
-2 8 4 1006.7 87.39
1 -8 -4 790.42 59.49
-1 8 4 705.53 58.49
0 -8 -4 1678.53 67.69
0 8 4 1682.93 65.39
-1 -8 -4 975.7 70.69
1 8 4 1017.2 66.09
-2 -8 -4 45.7 40.6
-3 -8 -4 -11.9 39.2
-4 -8 -4 152.98 71.29
-4 9 4 259.27 65.39
-3 9 4 -31.5 43.9
2 -9 -4 901.41 79.39
-2 9 4 793.12 81.59
1 -9 -4 118.69 32.7
-1 9 4 113.29 32.2
0 -9 -4 1528.45 74.59
0 9 4 1419.76 67.09
-1 -9 -4 -12.4 22.5
1 9 4 3.7 19.8
-2 -9 -4 1128.79 93.29
-3 -9 -4 -20.2 46.9
-3 10 4 -6.2 38.7
2 -10 -4 366.56 73.09
-2 10 4 319.47 67.79
1 -10 -4 78.09 34.6
-1 10 4 98.49 35.5
0 -10 -4 817.02 64.99
0 10 4 807.02 69.19
-1 -10 -4 13.3 32.7
-2 -10 -4 -1.9 41.7
-3 -10 -4 90.19 68.39
-3 11 4 307.97 61.99
2 -11 -4 957.2 93.89
-2 11 4 1063.59 94.79
1 -11 -4 139.29 40.1
0 -11 -4 1404.16 88.09
0 11 4 1335.97 77.99
-1 -11 -4 49 42
-2 -11 -4 972.3 102.49
-3 -11 -4 -32.8 66.99
-3 12 4 312.57 71.89
2 -12 -4 53.49 38.1
-2 12 4 111.89 69.79
1 -12 -4 679.13 75.49
0 -12 -4 -35.1 33.4
-1 -12 -4 1681.63 127.59
-2 -12 -4 39.2 47
-3 -12 -4 779.92 120.39
-3 13 4 65.09 47.8
2 -13 -4 -16.8 46.2
-2 13 4 21.6 35.9
1 -13 -4 81.29 39.8
0 -13 -4 83.79 47.3
-1 -13 -4 -62.39 44
-2 -13 -4 6.1 63.39
2 -14 -4 -30.3 58.49
-2 14 4 -52.69 37
1 -14 -4 841.22 90.79
0 -14 -4 22.9 45.6
-1 -14 -4 1401.26 129.99
-2 -14 -4 116.39 81.19
1 -15 -4 -13.2 56.69
0 -15 -4 169.18 66.69
-1 -15 -4 -52.49 71.99
-1 -15 5 974.7 168.88
0 -15 5 139.09 66.09
1 -15 5 484.15 132.49
-2 -14 5 -137.59 61.69
-1 -14 5 -35.2 59.49
0 -14 5 116.59 55.99
1 -14 5 60.99 61.09
2 -14 5 -19.2 69.19
-2 -13 5 -46 57.79
-1 -13 5 1493.45 174.08
0 -13 5 -105.89 53.29
1 -13 5 1860.61 178.58
2 -13 5 2.5 51.19
-3 -12 5 -7.2 80.79
-2 -12 5 428.86 119.59
-1 -12 5 233.68 36.1
0 -12 5 839.12 113.09
1 -12 5 20.2 44.6
2 -12 5 658.13 126.89
-3 -11 5 194.98 75.59
-2 -11 5 95.79 65.99
-1 -11 5 532.65 111.59
0 -11 5 95.59 43.4
1 -11 5 462.85 111.59
2 -11 5 88.99 57.59
3 -11 5 163.48 77.19
-3 -10 5 -93.69 43.6
-2 -10 5 910.11 122.39
-1 -10 5 137.09 58.39
0 -10 5 689.73 125.29
1 -10 5 71.19 34.7
2 -10 5 905.21 122.09
3 -10 5 219.68 58.39
-3 -9 5 29.5 41.5
-2 -9 5 301.07 86.89
-1 -9 5 106.99 53.99
0 -9 5 683.23 117.99
1 -9 5 484.85 108.79
2 -9 5 147.59 48.9
3 -9 5 72.09 47.7
-4 -8 5 -6.3 54.39
-3 -8 5 74.39 76.69
-2 -8 5 243.98 69.89
-1 -8 5 92.59 43.9
0 -8 5 1488.65 137.89
1 -8 5 49.8 45.1
2 -8 5 418.76 89.09
3 -8 5 27.4 27.4
-4 -7 5 79.69 68.79
-3 -7 5 431.66 98.89
-2 -7 5 486.75 98.09
0 -7 5 -4.6 17.1
1 -7 5 874.81 100.79
2 -7 5 477.45 100.89
3 -7 5 490.75 159.48
-4 7 -5 477.15 123.59
4 -7 5 403.56 113.09
-4 -6 5 81.79 66.19
-3 -6 5 -40.8 33.8
-2 -6 5 176.08 62.29
-1 -6 5 -1.5 27.3
0 -6 5 730.43 85.79
1 -6 5 20.5 27.5
2 -6 5 235.68 67.29
-3 6 -5 127.69 42.5
3 -6 5 0.4 29.6
-4 6 -5 146.59 50.99
4 -6 5 23.4 62.19
-4 -5 5 226.28 83.69
-3 -5 5 40.5 38.9
-2 -5 5 251.97 70.49
-1 -5 5 22.1 25.8
0 -5 5 -2.4 17.8
1 -5 5 -12.5 20.6
2 -5 5 223.48 69.29
-3 5 -5 132.49 52.59
3 -5 5 84.89 52.99
-4 5 -5 357.26 107.39
4 -5 5 435.26 114.59
-4 -4 5 298.77 85.79
-3 -4 5 115.59 38.9
-2 -4 5 2191.58 179.98
-1 -4 5 192.68 51.99
0 -4 5 1887.71 125.29
1 -4 5 64.99 35.3
2 -4 5 1274.27 122.79
-3 4 -5 96.19 46.1
3 -4 5 162.88 48.9
-4 4 -5 334.97 87.89
4 -4 5 229.78 68.89
-4 -3 5 258.17 64.59
-3 -3 5 43.3 41.2
-2 -3 5 249.88 53.69
-1 -3 5 1848.62 120.79
0 -3 5 648.44 68.39
1 -3 5 269.87 61.29
2 -3 5 251.27 72.99
-3 3 -5 183.78 44.7
3 -3 5 226.98 65.09
-4 3 -5 362.96 76.49
4 -3 5 132.99 60.39
-4 -2 5 80.59 48.7
-3 -2 5 226.38 72.09
-2 -2 5 1793.52 125.49
-1 -2 5 126.59 39.7
0 2 -5 3641.34 141.49
0 -2 5 4021.2 159.28
1 -2 5 108.39 39.8
2 -2 5 1218.28 111.79
-3 2 -5 62.59 31.4
3 -2 5 35.7 32.5
-4 2 -5 618.64 114.99
-4 -1 5 146.59 60.99
-3 -1 5 1618.24 140.79
-2 -1 5 1.2 21.3
1 1 -5 7150.08 197.48
-1 -1 5 6823.52 201.78
0 1 -5 31.3 11
0 -1 5 3.1 17.4
1 -1 5 6739.53 214.58
-2 1 -5 52.09 35.8
2 -1 5 67.19 35.4
-3 1 -5 2179.58 173.88
3 -1 5 2502.65 190.38
-4 1 -5 -12.1 50.89
-3 0 5 22.7 33
-2 0 5 -30.8 13.3
1 0 -5 5.8 10.1
-1 0 5 1.7 16.7
0 0 -5 24.4 15.4
0 0 5 -1.6 10.2
-1 0 -5 17.1 17.2
1 0 5 10.7 19.8
-2 0 -5 10.6 28.6
-3 0 -5 -25 33.6
3 0 5 -11.8 30.8
-4 0 -5 -12 49.6
-4 1 5 168.58 118.79
-3 1 5 1593.64 138.29
-2 1 5 -1.4 19.9
1 -1 -5 7652.53 218.38
-1 1 5 7329.77 181.58
0 -1 -5 7.7 9.2
0 1 5 5.4 9.7
-1 -1 -5 6812.22 183.48
1 1 5 7134.39 195.58
-2 -1 -5 96.39 41.1
2 1 5 86.29 40.9
-3 -1 -5 2475.95 182.38
-4 -1 -5 19.5 57.99
-4 2 5 111.89 79.39
-3 2 5 270.57 67.69
-2 2 5 1828.82 116.19
1 -2 -5 115.29 25
-1 2 5 123.69 25.8
0 -2 -5 3784.12 86.99
0 2 5 4001.1 95.79
-1 -2 -5 113.79 30.7
-1 -2 -5 143.69 34.2
1 2 5 141.19 37.3
-2 -2 -5 1183.78 98.89
2 2 5 1471.35 111.69
-3 -2 -5 4.2 37.7
-4 -2 -5 359.66 87.69
-4 3 5 348.97 83.39
-3 3 5 219.18 59.19
-2 3 5 163.98 48.1
1 -3 -5 1953.4 77.99
-1 3 5 1909.11 80.29
-1 3 5 2024 81.09
0 -3 -5 603.34 22.5
0 3 5 587.94 23.3
-1 -3 -5 362.16 39.7
-1 -3 -5 219.08 30.3
1 3 5 249.08 42.6
-2 -3 -5 211.68 52.19
-3 -3 -5 243.98 64.09
-4 -3 -5 67.39 57.49
-4 4 5 159.98 86.19
-3 4 5 83.09 33.4
-2 4 5 2188.18 122.09
-1 4 5 117.69 25.1
-1 4 5 122.79 23.7
-1 -4 -5 139.59 30.7
-1 -4 -5 55.89 22.5
-2 -4 -5 1121.89 92.59
-3 -4 -5 106.39 50.89
-4 -4 -5 252.77 87.59
-3 5 5 95.99 44
-2 5 5 202.58 51.09
-1 5 5 27.1 15.7
-1 5 5 11.1 15.1
-1 -5 -5 -4.2 13.8
-1 -5 -5 -7.2 13.2
-2 -5 -5 220.28 51.99
-3 -5 -5 96.29 47.7
-4 -5 -5 435.66 119.69
-3 6 5 -17.2 37.6
-2 6 5 203.78 49.5
-1 6 5 37.1 18
-1 6 5 26 16.1
-1 -6 -5 39 18.9
-1 -6 -5 51.29 15
-2 -6 -5 287.07 57.09
-3 -6 -5 118.79 40
-4 -6 -5 38 62.69
-4 7 5 816.12 96.59
-3 7 5 172.58 59.39
-2 7 5 369.36 63.99
-1 7 5 884.51 50.29
-1 7 5 879.31 55.39
-1 -7 -5 829.82 59.49
-1 -7 -5 810.42 54.39
-2 -7 -5 444.06 73.79
-3 -7 -5 281.87 79.49
-4 -7 -5 398.76 101.09
-4 8 5 -11.2 54.49
-3 8 5 0.6 42.5
-2 8 5 393.56 67.89
-1 8 5 124.09 26.5
-1 8 5 140.49 28.6
-1 -8 -5 0.1 25
-1 -8 -5 73.19 20.2
1 8 5 40.5 20.4
-2 -8 -5 396.06 73.09
-3 -8 -5 -46.7 43.6
-3 9 5 1 47.1
-2 9 5 236.78 54.39
-1 9 5 116.69 28.3
-1 9 5 134.69 27.3
0 -9 -5 534.55 23.3
0 9 5 555.94 24
-1 -9 -5 721.63 76.69
-2 -9 -5 40.8 47.2
-3 -9 -5 -51.09 43.3
-3 10 5 14.4 42.5
-2 10 5 960 83.19
1 -10 -5 146.59 34.4
-1 10 5 120.29 38.2
-1 10 5 142.89 34.8
0 -10 -5 603.84 36.5
0 10 5 583.84 35.5
-1 -10 -5 65.29 30.9
-1 -10 -5 48.1 37.7
1 10 5 78.19 25.5
-2 -10 -5 501.65 88.29
-3 -10 -5 117.59 69.19
-3 11 5 96.79 59.09
-2 11 5 317.57 61.59
-1 11 5 557.04 69.09
-1 11 5 549.85 74.59
0 -11 -5 63.09 23
0 11 5 127.59 21.9
-1 -11 -5 259.97 63.59
-1 -11 -5 336.27 53.99
1 11 5 331.87 42.2
-2 -11 -5 -27.7 46.2
-3 -11 -5 148.19 69.59
-3 12 5 13.6 37.8
-2 12 5 451.55 76.29
1 -12 -5 37.1 33.2
-1 12 5 38 30.5
0 -12 -5 747.93 55.49
0 12 5 773.22 51.19
-1 -12 -5 -31.7 40.7
-2 -12 -5 371.06 79.29
-3 -12 -5 -86.39 89.79
-2 13 5 -36.3 40
1 -13 -5 1908.21 103.49
-1 13 5 1761.92 98.29
-1 -13 -5 1660.63 114.19
1 -14 -5 -27.4 47.6
-1 -14 -5 -123.49 68.89
-1 -15 6 88.49 76.69
0 -15 6 224.68 86.89
1 -15 6 -1.8 69.09
-2 -14 6 -39.9 101.49
-1 -14 6 984.2 169.68
0 -14 6 -56.79 50.29
1 -14 6 768.02 154.68
-2 -13 6 49.1 66.39
-1 -13 6 49.8 49.99
0 -13 6 65.99 64.09
1 -13 6 6.8 54.99
2 -13 6 170.18 77.79
-3 -12 6 758.02 150.28
-2 -12 6 -58.29 54.89
0 -12 6 70.49 59.59
1 -12 6 494.75 116.49
2 -12 6 93.39 72.89
-3 -11 6 -27.2 59.89
-2 -11 6 213.18 85.69
0 -11 6 1033 132.09
1 -11 6 303.27 95.19
2 -11 6 396.86 92.89
3 -11 6 120.89 80.99
-3 -10 6 154.08 53.39
-2 -10 6 22.7 48.3
-1 -10 6 370.56 89.09
0 -10 6 -7.5 33.3
1 -10 6 56.59 39.2
2 -10 6 364.46 93.09
3 -10 6 52.19 67.09
-2 -9 6 600.34 112.59
-1 -9 6 137.89 59.39
0 -9 6 746.63 100.89
1 -9 6 272.87 72.39
2 -9 6 511.65 93.89
3 -9 6 196.58 57.89
-3 -8 6 -27.6 46.2
-2 -8 6 202.88 59.79
-1 -8 6 36.7 38.1
0 -8 6 337.27 81.99
1 -8 6 920.81 114.19
2 -8 6 1049.7 131.39
3 -8 6 588.54 132.49
-4 -7 6 -87.19 51.09
-3 -7 6 130.39 50.19
-2 -7 6 -37.2 44
-1 -7 6 85.49 52.29
0 -7 6 1.9 28.1
1 -7 6 12.9 29
2 -7 6 75.49 46.2
3 -7 6 30 45.1
-4 -6 6 133.29 64.29
-3 -6 6 89.79 35.5
-2 -6 6 217.28 64.29
0 -6 6 1464.45 126.79
1 -6 6 1125.29 117.29
2 -6 6 1598.64 154.48
-4 6 -6 548.05 112.19
4 -6 6 499.85 128.49
-4 -5 6 126.29 53.79
-3 -5 6 80.49 38.6
-2 -5 6 608.64 106.39
-1 -5 6 42.9 25.8
0 -5 6 1330.67 115.79
1 -5 6 396.56 84.99
2 -5 6 846.82 138.59
-3 5 -6 385.76 109.09
3 -5 6 356.26 91.59
-4 5 -6 101.89 75.29
4 -5 6 60.09 59.69
-4 -4 6 90.39 54.69
-3 -4 6 88.99 34
-2 -4 6 191.98 57.69
-1 -4 6 -25.4 16
0 -4 6 1363.26 110.39
1 -4 6 68.29 39.3
2 -4 6 756.52 126.69
-3 4 -6 83.19 42.2
3 -4 6 88.29 46.7
-4 4 -6 143.09 78.59
4 -4 6 183.58 94.39
-4 -3 6 1190.48 146.89
-3 -3 6 191.88 66.19
-2 -3 6 1397.96 126.49
-1 -3 6 325.87 67.59
0 -3 6 2237.08 136.69
1 -3 6 555.64 72.99
2 -3 6 984.6 107.89
-3 3 -6 251.37 80.09
3 -3 6 190.88 74.89
-4 3 -6 263.97 81.59
4 -3 6 240.98 77.29
-4 -2 6 181.68 63.49
-3 -2 6 2293.57 171.18
-2 -2 6 76.69 40.1
-1 -2 6 2175.48 128.39
0 -2 6 344.07 63.79
1 -2 6 1307.97 105.59
-3 2 -6 6 28.2
3 -2 6 107.19 58.59
-4 2 -6 4.4 50.79
-4 -1 6 -21.5 53.79
-3 -1 6 61.09 44.1
-2 -1 6 397.96 77.99
-1 -1 6 384.96 51.89
0 1 -6 399.46 46.6
0 -1 6 396.36 65.69
1 -1 6 171.68 48.4
2 -1 6 537.75 95.99
-3 1 -6 616.34 116.09
3 -1 6 660.33 115.69
-4 1 -6 28.6 51.59
-4 0 6 183.18 63.09
-3 0 6 2084.59 160.38
-2 0 6 0.2 19.6
1 0 -6 6341.57 186.28
-1 0 6 6680.63 198.08
0 0 -6 60.59 19.7
1 0 6 4019.7 166.98
-2 0 -6 453.25 85.59
2 0 6 494.25 86.09
-3 0 -6 -21.5 33.6
3 0 6 68.79 52.79
-4 0 -6 22.1 43.6
-4 1 6 -19.6 49.99
-3 1 6 -35.2 30
-2 1 6 392.96 67.39
1 -1 -6 372.06 42.4
-1 1 6 352.96 45.9
0 -1 -6 376.86 39.1
0 1 6 363.86 41.4
-1 -1 -6 231.88 39.9
1 1 6 272.57 54.09
-2 -1 -6 492.55 82.69
2 1 6 399.06 76.99
-3 -1 -6 648.04 119.89
-4 -1 -6 -30.2 54.79
-4 2 6 43.1 95.79
-3 2 6 2699.63 177.38
-2 2 6 -9.8 26.9
1 -2 -6 2114.09 91.39
-1 2 6 2083.79 95.19
0 -2 -6 336.97 31.6
0 2 6 302.87 33.5
-1 -2 -6 1420.46 85.09
-1 -2 -6 1364.96 80.79
1 2 6 1121.39 78.39
-2 -2 -6 154.88 50.39
2 2 6 154.28 48.4
-3 -2 -6 30.3 34.6
-4 -2 -6 175.68 58.89
-3 3 6 239.38 64.89
-2 3 6 1639.24 109.49
1 -3 -6 420.96 38.3
-1 3 6 411.06 40.4
0 -3 -6 1990.2 55.29
0 3 6 2019 59.99
-1 -3 -6 504.25 49.4
1 3 6 461.95 50.19
-2 -3 -6 934.01 88.79
-3 -3 -6 121.59 52.69
-4 -3 -6 155.88 85.49
-3 4 6 12.2 30.9
-2 4 6 121.69 41.7
-1 4 6 -12.6 12.9
-1 4 6 -13.2 11.3
-1 -4 -6 37.5 18.3
-1 -4 -6 68.19 18.8
-2 -4 -6 652.43 73.09
-3 -4 -6 47.1 54.89
-4 -4 -6 158.68 71.49
-3 5 6 59.69 42.6
-2 5 6 572.64 66.69
-1 5 6 73.39 20.4
-1 5 6 64.29 17.1
-1 -5 -6 318.87 38.3
-1 -5 -6 403.06 36.7
-2 -5 -6 579.14 72.49
-3 -5 -6 348.77 92.09
-4 -5 -6 197.68 81.39
-4 6 6 28.8 54.69
-3 6 6 -29.3 36.3
-2 6 6 164.38 44
-1 6 6 526.75 31.5
-1 6 6 417.66 32.2
-1 -6 -6 1028.7 56.19
-1 -6 -6 1039 58.49
-2 -6 -6 2409.86 136.59
-3 -6 -6 333.27 82.59
-4 -6 -6 516.45 110.49
-4 7 6 184.58 63.49
-3 7 6 -1.6 39.1
-2 7 6 13 30.7
-1 7 6 128.59 19.5
-1 7 6 85.69 14.8
-1 -7 -6 -38.8 14.3
-1 -7 -6 1.7 19.9
-2 -7 -6 15.3 31
-3 -7 -6 148.29 63.39
-3 8 6 127.09 55.59
-2 8 6 279.97 53.59
-1 8 6 49.2 12.5
-1 8 6 98.49 15.4
-1 -8 -6 756.62 45.9
-1 -8 -6 681.43 52.09
-2 -8 -6 878.71 86.69
-3 -8 -6 589.44 99.39
-3 9 6 54.79 54.79
-2 9 6 516.45 74.79
-1 9 6 129.49 18
-1 9 6 89.29 16.5
-1 -9 -6 85.29 25.5
-1 -9 -6 126.89 32
-2 -9 -6 493.65 78.49
-3 -9 -6 21.2 72.49
-3 10 6 -65.19 48.2
-2 10 6 33.5 40
-1 10 6 342.27 23.9
-1 10 6 369.46 25.9
-1 -10 -6 -46.6 19.4
-1 -10 -6 -14.4 25.6
-2 -10 -6 279.07 62.99
-3 -10 -6 -44.1 70.19
-3 11 6 -23.4 46.6
-2 11 6 451.25 69.99
-1 11 6 -0.4 14.4
-1 11 6 64.69 14.2
-1 -11 -6 273.37 37.2
-1 -11 -6 295.37 43.1
-2 -11 -6 212.08 64.99
-3 -11 -6 71.89 79.89
-3 12 6 850.31 107.59
-2 12 6 33.1 32.2
-1 12 6 877.81 40.4
-1 -12 -6 366.76 51.79
-2 -12 -6 1.3 57.69
0 -15 7 -31.5 69.79
-1 -14 7 85.09 52.19
0 -14 7 25.2 69.39
1 -14 7 -111.89 57.79
-2 -13 7 53.59 97.09
-1 -13 7 667.43 132.89
0 -13 7 -30 44.5
1 -13 7 109.99 71.49
2 -13 7 3.9 79.59
-2 -12 7 32.5 77.79
-1 -12 7 -5.2 63.19
0 -12 7 152.98 68.09
1 -12 7 131.09 63.69
2 -12 7 -15.7 71.09
-3 -11 7 201.48 79.39
-2 -11 7 117.19 60.89
-1 -11 7 217.48 51.19
0 -11 7 86.29 28.2
1 -11 7 178.08 60.69
2 -11 7 162.18 55.09
-3 -10 7 32 55.79
-2 -10 7 714.13 132.59
-1 -10 7 1572.44 161.38
0 -10 7 116.69 47
1 -10 7 679.43 117.29
2 -10 7 371.36 97.19
3 -10 7 427.36 126.19
-3 -9 7 -67.99 42.4
-2 -9 7 669.53 135.49
-1 -9 7 282.37 75.29
0 -9 7 1514.35 150.68
1 -9 7 457.25 100.29
2 -9 7 687.43 167.38
3 -9 7 280.67 106.49
-3 -8 7 19.2 42.4
-2 -8 7 63.89 48.5
-1 -8 7 12.7 36.9
0 -8 7 573.54 112.49
1 -8 7 417.06 87.59
2 -8 7 74.19 47.2
3 -8 7 182.58 57.19
-4 -7 7 -39.7 81.49
-3 -7 7 106.89 64.69
-2 -7 7 668.13 130.19
-1 -7 7 1797.02 160.08
0 -7 7 2290.67 177.68
1 -7 7 1306.07 140.09
2 -7 7 1155.28 131.19
3 -7 7 764.42 145.99
-4 -6 7 81.29 69.19
-3 -6 7 37.8 38.1
-2 -6 7 230.58 73.09
-1 -6 7 75.39 42.1
0 -6 7 482.45 100.09
1 -6 7 166.68 66.49
2 -6 7 100.89 52.29
3 -6 7 18.4 46
-4 -5 7 84.69 65.29
-3 -5 7 181.28 55.59
-2 -5 7 1618.54 148.19
0 -5 7 1860.11 144.09
1 -5 7 660.63 90.19
2 -5 7 756.12 130.89
-3 5 -7 857.81 179.08
3 -5 7 607.64 138.99
-4 5 -7 86.49 68.89
4 -5 7 -4.8 79.49
-4 -4 7 107.09 64.09
-3 -4 7 235.48 61.89
-2 -4 7 1186.78 118.79
-1 -4 7 1711.43 135.09
0 -4 7 709.93 85.99
1 -4 7 921.91 105.19
2 -4 7 567.44 113.19
-3 4 -7 554.34 116.09
3 -4 7 484.65 103.99
-4 4 -7 -8.2 63.99
4 -4 7 100.49 64.69
-4 -3 7 74.29 60.89
-3 -3 7 239.68 71.39
-2 -3 7 220.18 69.99
-1 -3 7 200.78 52.69
0 -3 7 59.29 31
1 -3 7 107.69 46.8
2 -3 7 36.8 27.9
-3 3 -7 311.77 91.19
3 -3 7 318.87 70.89
-4 3 -7 -26.1 62.49
-4 -2 7 87.79 62.69
-3 -2 7 125.09 42.5
-2 -2 7 174.98 57.29
-1 -2 7 126.59 46
0 -2 7 1342.87 106.39
1 -2 7 842.02 89.89
2 -2 7 376.26 86.99
-3 2 -7 401.46 94.39
3 -2 7 165.88 75.79
-4 2 -7 137.69 79.49
4 -2 7 70.99 67.49
-4 -1 7 -70.49 36.3
-3 -1 7 806.62 106.19
-2 -1 7 52.49 33.6
-1 -1 7 1564.34 111.99
0 -1 7 87.99 33.4
1 -1 7 79.89 32.4
2 -1 7 61.99 47.9
-3 1 -7 36.5 34.8
3 -1 7 13.2 30.6
-4 1 -7 308.07 116.09
-4 0 7 2.1 46.1
-3 0 7 -65.79 37.2
-2 0 7 3.3 25.4
-1 0 7 -44.2 18.7
0 0 -7 -4.5 20.4
0 0 7 16.8 23.5
1 0 7 -10.1 19.2
-2 0 -7 -4.9 23.7
2 0 7 -31.2 18.5
-3 0 -7 53.69 42.2
3 0 7 10.4 29.5
-4 0 -7 7.1 42.2
-4 1 7 -13.8 44.6
-3 1 7 1058.69 112.59
-2 1 7 3 22.8
1 -1 -7 1322.37 83.19
-1 1 7 1366.96 90.99
0 1 7 83.39 32.8
1 1 7 46.5 27.2
-2 -1 -7 25.1 30.1
2 1 7 -7 25.9
-3 -1 -7 -13.9 28.9
3 1 7 66.79 42.1
-4 -1 -7 195.88 101.69
-4 2 7 206.98 66.29
-3 2 7 11.4 33.9
-2 2 7 413.36 70.39
1 -2 -7 135.29 30.6
-1 2 7 141.09 33.5
0 -2 -7 1318.87 66.69
0 2 7 1359.76 74.79
-1 -2 -7 760.02 64.89
1 2 7 660.83 66.29
-2 -2 -7 112.39 41.6
2 2 7 294.47 63.09
-3 -2 -7 254.07 74.09
-4 -2 -7 101.99 69.09
-4 3 7 6.8 46.6
-3 3 7 275.47 73.09
-2 3 7 231.98 48
1 -3 -7 126.09 26.7
-1 3 7 226.98 36.6
0 -3 -7 87.59 20.8
0 3 7 97.49 22.1
-1 -3 -7 110.89 25.3
-1 -3 -7 75.69 28.2
1 3 7 63.59 28
-2 -3 -7 23.8 28.2
-3 -3 -7 245.68 71.09
-4 -3 -7 -21.7 61.09
-4 4 7 126.59 86.69
-3 4 7 120.89 52.89
-2 4 7 1083.29 86.59
1 -4 -7 1470.95 65.09
-1 4 7 1466.15 67.89
-1 -4 -7 943.21 64.99
-1 -4 -7 905.11 60.19
-2 -4 -7 480.55 60.79
-3 -4 -7 488.05 102.89
-4 -4 -7 36.4 58.49
-4 5 7 184.18 92.99
-3 5 7 -39.5 33.4
-2 5 7 1609.24 102.39
-1 5 7 150.98 25.4
-1 5 7 136.69 23.2
-1 -5 -7 614.24 49.1
-1 -5 -7 589.24 48.8
-2 -5 -7 690.43 72.39
-3 -5 -7 670.23 115.79
-4 -5 -7 288.27 70.39
-4 6 7 100.99 70.79
-3 6 7 42.8 48.5
-2 6 7 168.38 43.9
-1 -6 -7 252.47 29.9
-1 -6 -7 234.68 29.9
-2 -6 -7 112.49 39.6
-3 -6 -7 278.67 62.09
-4 7 7 197.18 68.59
-3 7 7 17.4 43.1
-2 7 7 579.94 63.99
-1 -7 -7 1264.77 51.09
-1 -7 -7 1310.77 53.49
-2 -7 -7 1187.18 96.99
-3 -7 -7 971.5 120.39
-3 8 7 9.9 46
-2 8 7 14.1 32.6
-2 -8 -7 22.3 45.7
-3 -8 -7 -106.99 71.09
-3 9 7 -53.29 52.39
-2 9 7 486.25 64.69
-2 -9 -7 767.72 86.09
-3 -9 -7 132.19 81.79
-3 10 7 211.78 66.29
-2 10 7 652.93 71.79
-2 -10 -7 269.17 63.99
-3 -10 -7 234.78 106.09
-3 11 7 232.48 72.69
-2 11 7 21.8 34.6
-2 -11 -7 -54.19 55.09
-1 -14 8 -76.99 77.79
0 -14 8 207.38 107.89
-1 -13 8 26 74.29
0 -13 8 -43.9 57.39
1 -13 8 -99.59 56.09
-2 -12 8 58.69 75.59
0 -12 8 294.57 77.99
1 -12 8 387.16 83.19
2 -12 8 65.69 55.79
-2 -11 8 39.4 74.09
-1 -11 8 113.99 69.49
0 -11 8 76.89 60.69
1 -11 8 490.55 120.29
2 -11 8 -55.09 63.39
-3 -10 8 67.19 76.19
-2 -10 8 180.68 67.89
-1 -10 8 192.18 62.39
0 -10 8 27.7 43.8
1 -10 8 338.07 99.79
2 -10 8 99.09 46.3
-3 -9 8 -82.49 58.39
-2 -9 8 18.9 47.6
-1 -9 8 443.46 107.09
0 -9 8 190.08 61.39
1 -9 8 506.05 107.29
2 -9 8 110.29 67.99
3 -9 8 207.88 95.29
-3 -8 8 308.47 86.89
-2 -8 8 1446.56 147.79
-1 -8 8 514.65 111.89
0 -8 8 751.22 100.89
1 -8 8 786.52 101.59
2 -8 8 238.38 68.39
3 -8 8 186.58 75.29
-3 -7 8 38.6 41.7
-2 -7 8 243.78 62.39
-1 -7 8 80.49 51.99
1 -7 8 77.19 41.1
2 -7 8 55.39 41.9
3 -7 8 130.49 59.99
-4 -6 8 2.6 104.29
-3 -6 8 331.77 82.49
-2 -6 8 1416.66 147.39
-1 -6 8 1163.88 128.59
0 -6 8 1440.26 136.39
1 -6 8 1717.63 160.48
2 -6 8 1399.46 144.29
3 -6 8 67.89 60.39
-4 -5 8 97.39 76.59
-3 -5 8 487.55 94.39
-2 -5 8 108.39 58.09
-1 -5 8 604.44 107.79
0 -5 8 326.57 78.59
1 -5 8 949.9 117.79
2 -5 8 41.1 46.3
3 -5 8 425.46 120.19
-4 -4 8 149.79 78.99
-3 -4 8 90.39 40.5
-2 -4 8 340.27 84.99
0 -4 8 397.96 83.89
1 -4 8 717.33 124.69
2 -4 8 8.8 33.3
-3 4 -8 276.27 93.09
3 -4 8 270.37 70.49
-4 -3 8 222.88 93.69
-3 -3 8 600.34 114.49
-2 -3 8 355.76 79.19
-1 -3 8 1278.17 116.69
0 -3 8 248.08 66.99
1 -3 8 983.8 108.69
2 -3 8 119.39 56.99
-3 3 -8 462.65 118.29
3 -3 8 609.44 129.49
-4 -2 8 94.69 56.19
-3 -2 8 137.99 47.4
-2 -2 8 33.3 32.1
-1 -2 8 100.29 36.5
0 -2 8 158.68 48.4
1 -2 8 336.77 76.89
2 -2 8 291.37 78.39
-3 2 -8 139.79 40.5
3 -2 8 117.39 55.89
-4 2 -8 403.66 101.29
4 -2 8 224.38 99.09
-4 -1 8 -87.39 48.7
-3 -1 8 -1.6 33.4
-2 -1 8 384.26 79.09
-1 -1 8 518.25 70.49
0 -1 8 374.46 74.49
1 -1 8 774.02 88.09
2 -1 8 63.09 45.2
-3 1 -8 373.66 87.09
3 -1 8 482.55 100.59
-4 1 -8 -56.39 71.19
-4 0 8 -11.9 44.7
-3 0 8 357.26 78.19
-2 0 8 312.57 66.99
-1 0 8 98.59 35.6
0 0 8 663.63 73.19
1 0 8 426.56 77.19
-2 0 -8 4143.09 215.88
2 0 8 4110.09 220.58
-3 0 -8 351.96 78.89
3 0 8 306.07 86.99
-4 0 -8 540.75 145.29
-4 1 8 181.18 49.6
-3 1 8 -54.49 27.7
-2 1 8 353.66 69.49
-1 1 8 459.85 59.99
0 -1 -8 324.97 49.5
0 1 8 331.77 59.19
1 1 8 702.73 76.89
-2 -1 -8 30.4 38.5
2 1 8 26.4 39.9
-3 -1 -8 330.97 81.79
3 1 8 204.18 62.19
-4 -1 -8 -141.79 60.59
-4 2 8 123.19 53.59
-3 2 8 59.49 48.4
-2 2 8 -51.69 22.3
1 -2 -8 46.9 25.8
-1 2 8 67.49 30.4
0 -2 -8 152.98 27.2
0 2 8 136.39 32.5
1 2 8 430.36 54.69
-2 -2 -8 292.47 67.19
2 2 8 218.48 60.09
-3 -2 -8 88.69 61.49
-4 -2 -8 432.56 112.59
-4 3 8 561.74 106.79
-3 3 8 427.56 84.19
-2 3 8 507.95 64.79
1 -3 -8 1268.67 112.29
-1 3 8 1237.28 80.69
0 -3 -8 278.87 30.5
0 3 8 248.78 32.9
-1 -3 -8 934.71 71.79
-1 -3 -8 1103.09 78.19
1 3 8 1093.59 81.79
-2 -3 -8 66.89 36.1
-3 -3 -8 337.47 70.89
-4 4 8 299.57 81.79
-3 4 8 -39.3 35.7
-2 4 8 450.45 69.99
1 -4 -8 555.24 40.3
-1 4 8 533.75 44.5
-1 4 8 517.15 46.5
-2 -4 -8 -1 31.1
-3 -4 -8 262.27 81.19
-4 5 8 331.57 71.39
-3 5 8 192.48 60.59
-2 5 8 151.38 40.7
-1 5 8 432.26 30.3
-1 5 8 434.96 30.8
-1 -5 -8 1067.69 58.79
-1 -5 -8 900.41 60.89
-2 -5 -8 38.3 38.8
-3 -5 -8 478.05 101.79
-4 6 8 972.7 110.69
-3 6 8 333.97 77.29
-2 6 8 1560.14 92.79
-1 -6 -8 1550.24 62.09
-1 -6 -8 1548.84 63.89
-2 -6 -8 1054.59 94.59
-3 -6 -8 161.18 71.19
-3 7 8 -49.2 37.6
-2 7 8 117.29 34.4
-2 7 8 155.78 40.9
-2 -7 -8 14.2 42.2
-3 -7 -8 7.9 69.19
-3 8 8 348.07 72.09
-2 8 8 1333.27 79.29
-2 -8 -8 113.29 53.49
-3 -8 -8 80.09 86.59
-3 9 8 188.78 66.09
-2 -9 -8 -110.69 46.5
-3 -9 -8 -39.5 87.69
-2 -10 -8 -72.19 68.19
-1 -13 9 8.3 60.89
0 -13 9 490.95 106.19
-2 -12 9 -82.69 84.29
-1 -12 9 107.59 87.89
0 -12 9 135.39 83.39
1 -12 9 230.78 116.19
-2 -11 9 97.39 85.39
-1 -11 9 349.47 91.89
0 -11 9 215.68 60.09
1 -11 9 24.8 43.2
2 -11 9 698.43 156.38
-2 -10 9 -98.79 62.79
-1 -10 9 1127.99 152.68
0 -10 9 37.3 42.1
1 -10 9 858.11 144.49
2 -10 9 -103.99 44.8
-3 -9 9 259.17 90.59
-2 -9 9 466.25 111.89
-1 -9 9 617.24 119.29
0 -9 9 -9.2 43.5
1 -9 9 322.07 97.99
2 -9 9 70.39 55.19
-3 -8 9 -59.79 67.89
-2 -8 9 -50.29 47.2
-1 -8 9 175.38 61.99
0 -8 9 -91.69 41.5
1 -8 9 259.37 73.19
2 -8 9 161.18 50.69
3 -8 9 223.48 83.49
-3 -7 9 -8.1 48.7
-2 -7 9 30.8 57.39
-1 -7 9 1146.59 143.79
0 -7 9 703.83 134.69
1 -7 9 94.59 50.29
2 -7 9 86.69 49.5
3 -7 9 -75.89 59.79
-3 -6 9 -51.89 47.8
-2 -6 9 182.78 67.39
-1 -6 9 130.09 59.59
0 -6 9 47.6 48
1 -6 9 149.88 61.29
2 -6 9 57.19 47.1
3 -6 9 122.99 75.99
-3 -5 9 413.86 104.39
-2 -5 9 859.81 108.99
-1 -5 9 459.85 100.69
0 -5 9 346.87 82.19
1 -5 9 91.09 50.69
2 -5 9 23 39.3
3 -5 9 -46.9 51.49
-4 -4 9 -177.58 67.09
-3 -4 9 383.36 110.19
-2 -4 9 146.09 63.89
-1 -4 9 1430.26 139.99
0 -4 9 -0.1 35.9
1 -4 9 1095.99 126.09
2 -4 9 -26.5 35.1
-3 4 -9 313.27 97.59
3 -4 9 449.86 96.59
-3 -3 9 197.28 53.59
-2 -3 9 129.99 53.29
0 -3 9 346.67 82.39
1 -3 9 10.2 29
2 -3 9 722.33 133.69
-3 3 -9 8.1 39
3 -3 9 -10.9 44.6
-4 -2 9 -150.28 64.29
-3 -2 9 353.76 82.99
-2 -2 9 7 32.6
-1 -2 9 912.71 98.69
0 -2 9 -9 25.9
1 -2 9 672.33 88.09
2 -2 9 -70.29 33.8
-4 -1 9 335.07 63.29
-3 -1 9 159.18 48.1
-2 -1 9 409.46 88.59
-1 -1 9 106.19 36.2
0 -1 9 3544.25 180.48
1 -1 9 631.74 106.79
2 -1 9 1511.75 146.09
-3 1 -9 -22.4 51.19
3 -1 9 10.4 40.6
-4 0 9 80.69 50.39
-3 0 9 56.09 31.6
-2 0 9 -52.79 21.5
-1 0 9 72.09 27.9
0 0 9 17.1 31.8
1 0 9 -41.2 22.4
-2 0 -9 19.1 35.8
2 0 9 -56.89 33.3
-3 0 -9 -29.4 57.99
3 0 9 5.7 44.4
-4 1 9 162.78 68.49
-3 1 9 72.79 54.29
-2 1 9 520.45 68.29
-1 1 9 69.19 37.9
0 1 9 3166.68 148.29
1 1 9 538.35 70.79
-2 -1 -9 1463.15 127.89
2 1 9 1486.65 133.69
-3 -1 -9 -1.9 36.8
3 1 9 -55.99 50.59
-4 2 9 131.69 55.69
-3 2 9 460.65 95.49
-2 2 9 -59.09 29.5
1 -2 -9 840.82 80.49
-1 2 9 810.52 77.19
0 -2 -9 20.7 19.9
0 2 9 -7 22.9
1 2 9 618.84 74.39
-2 -2 -9 2.6 29.9
2 2 9 -90.69 37.6
-3 -2 -9 440.46 96.69
-4 3 9 141.19 70.19
-3 3 9 122.79 51.99
-2 3 9 13.1 33.4
1 -3 -9 330.77 47.6
-1 3 9 346.37 59.29
0 -3 -9 275.97 39.4
0 3 9 289.87 45.9
-1 -3 -9 22.4 23.9
-1 -3 -9 104.39 47.9
1 3 9 80.99 38
-2 -3 -9 627.74 83.99
-3 -3 -9 -81.59 52.59
-4 4 9 152.08 56.99
-3 4 9 580.84 95.29
-2 4 9 90.29 37.7
1 -4 -9 1495.75 69.09
-1 4 9 1458.55 73.59
0 -4 -9 3 12.8
0 -4 -9 13 10.9
0 4 9 6.6 10.2
-1 -4 -9 1141.29 76.39
-1 -4 -9 1249.57 89.79
-2 -4 -9 66.69 38.1
-3 -4 -9 420.46 88.69
-3 5 9 413.66 85.39
-2 5 9 736.43 69.19
-1 -5 -9 37.7 31
-1 -5 -9 42.2 29.5
-2 -5 -9 9 34.9
-3 -5 -9 -75.39 54.69
-3 6 9 -21.3 38.8
-2 6 9 177.18 44.7
-1 -6 -9 251.47 22.5
-2 -6 -9 64.79 44.9
-3 -6 -9 -18 63.09
-3 7 9 91.09 56.39
-2 7 9 247.28 50.89
-2 -7 -9 105.79 55.99
-3 -7 -9 -26.3 80.59
-2 8 9 8.4 26.3
-2 -8 -9 -19.7 50.09
-3 -8 -9 -29.1 72.89
-1 -12 10 122.89 95.49
0 -12 10 915.01 175.58
-2 -11 10 -136.89 90.29
-1 -11 10 616.14 135.89
0 -11 10 152.78 75.49
1 -11 10 175.98 93.69
-2 -10 10 -96.09 72.59
-1 -10 10 73.39 59.09
0 -10 10 195.08 63.49
1 -10 10 7.2 34.2
2 -10 10 13.9 77.59
-2 -9 10 172.38 64.29
-1 -9 10 628.54 120.29
0 -9 10 -30.3 33.7
1 -9 10 474.95 109.19
2 -9 10 37.6 67.79
-3 -8 10 230.18 91.79
-2 -8 10 158.18 60.89
-1 -8 10 7.7 47.7
0 -8 10 95.79 53.29
1 -8 10 422.86 84.59
2 -8 10 226.88 70.09
-3 -7 10 27 77.49
-2 -7 10 37.3 51.59
-1 -7 10 120.19 40.7
0 -7 10 17.5 32.6
1 -7 10 69.29 53.49
2 -7 10 146.59 64.09
-3 -6 10 98.79 69.79
-2 -6 10 243.08 73.69
-1 -6 10 121.09 49.8
0 -6 10 -42.5 46.4
1 -6 10 -76.59 38.6
2 -6 10 190.78 75.09
3 -6 10 487.15 137.79
-3 -5 10 248.08 81.59
-2 -5 10 -81.79 31.5
-1 -5 10 471.45 108.49
0 -5 10 10.4 43.8
1 -5 10 994.1 120.49
2 -5 10 10 61.49
3 -5 10 164.28 90.79
-3 -4 10 -20.1 60.49
-2 -4 10 -48.2 43.6
-1 -4 10 30.4 45.9
0 -4 10 449.06 99.39
1 -4 10 94.79 53.39
2 -4 10 103.99 57.49
-3 4 -10 83.69 56.49
3 -4 10 96.39 64.99
-2 -3 10 20.8 39.5
-1 -3 10 993.2 117.59
0 -3 10 198.08 61.89
1 -3 10 791.52 134.19
2 -3 10 83.89 54.99
-3 3 -10 316.17 102.69
3 -3 10 223.78 82.39
-3 -2 10 250.17 71.19
-2 -2 10 1052.09 114.99
0 -2 10 1306.97 118.59
1 -2 10 -31.8 31.3
2 -2 10 781.32 101.49
-3 2 -10 -39.8 70.79
3 -2 10 98.99 56.49
-3 -1 10 -14.3 41.3
-2 -1 10 38.2 42
-1 -1 10 63.59 39.6
0 -1 10 200.88 59.49
1 -1 10 708.03 127.89
2 -1 10 98.59 55.19
-3 1 -10 100.39 58.79
3 -1 10 207.48 56.99
-3 0 10 149.39 48.1
-2 0 10 2232.78 154.58
-1 0 10 126.39 47.8
0 0 10 1969.1 131.09
1 0 10 332.07 72.99
-2 0 -10 2607.04 184.18
2 0 10 2645.54 190.98
-3 0 -10 143.79 70.39
3 0 10 104.29 107.69
-3 1 10 251.77 46.3
-2 1 10 63.59 41.7
-1 1 10 32.8 38.1
0 1 10 288.67 58.79
1 1 10 629.14 98.79
-2 -1 -10 90.79 48.3
2 1 10 76.99 58.09
-3 -1 -10 149.19 73.29
3 1 10 173.78 68.29
-3 2 10 96.69 49.9
-2 2 10 1033.5 97.29
-1 2 10 348.17 60.09
0 -2 -10 1319.67 80.69
0 2 10 1260.47 91.89
1 2 10 -29.5 31.8
-2 -2 -10 599.34 102.29
2 2 10 654.53 114.09
-3 -2 -10 -101.39 58.89
-3 3 10 303.57 79.89
-2 3 10 -22.4 31.8
1 -3 -10 803.92 72.09
-1 3 10 926.71 76.89
0 -3 -10 176.18 31.6
0 3 10 214.58 40.1
-1 -3 -10 677.93 70.99
1 3 10 533.75 65.99
-2 -3 -10 45.8 41.7
-3 -3 -10 143.29 92.09
-3 4 10 -31.7 51.89
-2 4 10 0.3 35.7
1 -4 -10 67.29 24.9
-1 4 10 -15.5 23.4
-1 4 10 42.4 24
0 -4 -10 219.78 26.5
0 -4 -10 295.67 30.1
-1 -4 -10 71.29 37.9
-1 -4 -10 60.09 34.9
-2 -4 -10 108.39 58.29
-3 -4 -10 95.69 58.19
-3 5 10 332.57 73.29
-2 5 10 39.2 38.3
-1 -5 -10 726.73 59.79
-1 -5 -10 707.13 52.39
-2 -5 -10 102.99 50.09
-3 -5 -10 179.88 72.59
-3 6 10 289.57 73.99
-2 6 10 199.18 48.3
-2 -6 -10 135.49 61.89
-3 -6 -10 156.98 99.79
-3 7 10 142.79 76.59
-2 7 10 46.1 35.7
-2 -7 -10 -15.9 54.99
-1 -11 11 -24.9 57.59
0 -11 11 78.89 75.79
-1 -10 11 240.08 88.39
0 -10 11 81.79 61.39
1 -10 11 353.16 127.19
-2 -9 11 7.5 67.89
-1 -9 11 192.88 67.99
0 -9 11 -51.99 37
1 -9 11 447.56 117.89
-2 -8 11 66.39 62.79
-1 -8 11 305.37 96.59
0 -8 11 263.37 79.49
1 -8 11 144.69 55.29
2 -8 11 134.69 84.69
-2 -7 11 -68.39 53.09
-1 -7 11 324.17 144.29
0 -7 11 348.87 97.69
1 -7 11 1150.88 151.18
2 -7 11 344.87 112.59
-3 -6 11 -100.69 59.59
-2 -6 11 71.09 59.29
-1 -6 11 -5.4 56.19
0 -6 11 106.39 53.99
1 -6 11 90.69 60.19
2 -6 11 47.1 61.39
-3 -5 11 130.99 71.09
-2 -5 11 132.19 56.49
-1 -5 11 185.58 60.29
0 -5 11 111.69 50.89
1 -5 11 742.03 140.89
2 -5 11 59.89 61.09
-3 -4 11 539.55 97.99
-2 -4 11 82.49 53.09
-1 -4 11 682.93 116.69
0 -4 11 268.37 76.49
1 -4 11 497.35 104.39
-3 -3 11 54.19 38.2
-2 -3 11 503.25 95.79
-1 -3 11 114.99 55.59
0 -3 11 355.06 80.19
1 -3 11 180.28 68.29
2 -3 11 -14.4 41.3
-3 3 -11 396.56 99.19
3 -3 11 185.28 67.19
-3 -2 11 53.09 57.79
-2 -2 11 -20.6 43.5
-1 -2 11 931.21 111.59
0 -2 11 609.34 108.99
1 -2 11 321.37 81.99
2 -2 11 221.98 78.09
-3 2 -11 381.86 103.69
3 -2 11 221.48 70.39
-3 -1 11 -35.3 52.79
-2 -1 11 1320.57 132.39
-1 -1 11 -95.79 65.99
0 -1 11 1911.71 147.29
1 -1 11 -42.2 34.1
2 -1 11 226.88 77.29
-3 1 -11 110.49 64.89
3 -1 11 138.69 52.19
-3 0 11 -33.1 48.5
-2 0 11 22 41.3
-1 0 11 -59.79 28.9
0 0 11 28.7 34.8
1 0 11 75.89 50.99
-2 0 -11 -42 46.1
2 0 11 22.8 47
-3 0 -11 26.3 62.29
3 0 11 -23.3 65.09
-3 1 11 254.97 66.99
-2 1 11 1221.98 119.39
-1 1 11 -27 31.1
0 1 11 1940.01 128.99
1 1 11 -6 33.2
-2 -1 -11 429.36 94.09
2 1 11 282.07 77.59
-3 -1 -11 -23.7 84.19
3 1 11 183.78 57.79
-3 2 11 205.28 75.49
-2 2 11 15.1 37.2
-1 2 11 955.4 90.09
0 2 11 565.84 65.89
1 2 11 490.25 62.59
-2 -2 -11 233.18 63.49
2 2 11 173.98 68.89
-3 -2 -11 173.28 64.99
-3 3 11 102.59 58.69
-2 3 11 278.77 71.59
1 -3 -11 -36.4 42.9
-1 3 11 85.69 36.4
0 -3 -11 229.48 50.19
0 3 11 259.37 70.59
-1 -3 -11 98.39 46.8
1 3 11 189.18 48
-2 -3 -11 19 51.39
-3 -3 -11 38.2 95.99
-3 4 11 398.36 78.79
-2 4 11 -45.6 39
1 -4 -11 544.05 56.39
-1 4 11 597.84 55.29
0 -4 -11 158.18 26.2
0 -4 -11 193.38 29.8
0 4 11 154.68 23.8
-1 -4 -11 315.07 57.59
-2 -4 -11 144.39 59.39
-3 5 11 78.09 60.09
-2 5 11 -9.5 37
-1 -5 -11 525.35 53.99
-2 -5 -11 55.89 60.79
-2 -6 -11 -33.6 73.69
0 -10 12 -73.29 80.19
-1 -9 12 43 77.59
0 -9 12 -42.3 75.99
1 -9 12 153.78 99.79
-2 -8 12 124.99 109.29
-1 -8 12 911.11 120.69
0 -8 12 355.96 92.29
1 -8 12 422.96 116.99
-2 -7 12 87.89 88.19
-1 -7 12 89.29 66.99
0 -7 12 123.79 68.49
1 -7 12 -1.6 54.49
-2 -6 12 330.37 79.29
0 -6 12 419.96 113.29
1 -6 12 1257.97 150.88
2 -6 12 344.97 117.49
-2 -5 12 229.08 67.49
-1 -5 12 179.58 55.39
0 -5 12 153.28 52.49
1 -5 12 225.98 94.49
2 -5 12 236.58 65.09
-3 -4 12 198.78 74.29
-2 -4 12 129.69 51.59
-1 -4 12 1105.39 115.99
0 -4 12 28.6 58.69
1 -4 12 568.34 109.99
2 -4 12 152.98 71.49
-3 -3 12 343.77 94.29
-2 -3 12 526.85 112.99
-1 -3 12 77.39 66.39
0 -3 12 453.05 101.89
1 -3 12 200.38 73.59
2 -3 12 224.88 73.19
-3 -2 12 223.08 64.89
-2 -2 12 539.75 97.29
-1 -2 12 23.4 47
0 -2 12 5.6 46.5
1 -2 12 -15.9 43.1
2 -2 12 6.7 50.69
-3 -1 12 77.39 55.99
-2 -1 12 233.48 56.49
0 -1 12 -37.1 37.8
1 -1 12 106.89 59.09
2 -1 12 78.59 63.79
-3 0 12 144.39 62.09
-2 0 12 266.07 73.39
-1 0 12 1.7 64.49
0 0 12 118.09 51.49
1 0 12 -15.8 41.2
-2 0 -12 62.39 62.29
2 0 12 101.09 43
-3 1 12 58.19 53.89
-2 1 12 32.5 46.7
0 1 12 49.1 35.9
1 1 12 20.5 49
-2 -1 -12 96.89 67.59
2 1 12 17 57.09
-3 2 12 39.8 55.89
-2 2 12 571.04 111.69
-1 2 12 4.3 39.9
0 2 12 7.5 40.4
1 2 12 32.9 45.9
-2 -2 -12 0.3 56.69
-3 3 12 258.47 68.09
-2 3 12 669.93 85.69
-1 3 12 170.28 50.79
0 3 12 514.35 62.29
-1 -3 -12 66.39 47.1
1 3 12 92.99 42.4
-2 -3 -12 221.48 74.59
-3 4 12 91.29 62.69
-2 4 12 56.59 42.4
-1 4 12 904.01 61.99
0 -4 -12 -13.8 20.3
-1 -4 -12 421.06 68.99
-2 -4 -12 -36.3 74.99
-1 -8 13 -75.59 79.79
0 -8 13 47 67.19
-1 -7 13 694.63 136.69
0 -7 13 806.52 100.49
1 -7 13 249.08 117.79
-2 -6 13 25.2 63.39
-1 -6 13 -103.09 57.29
0 -6 13 183.48 61.39
1 -6 13 117.39 63.99
-2 -5 13 180.88 81.19
-1 -5 13 430.06 95.09
1 -5 13 88.29 67.99
-2 -4 13 352.56 95.19
-1 -4 13 297.87 75.19
0 -4 13 438.16 100.69
-1 -3 13 145.29 65.19
0 -3 13 177.48 74.19
1 -3 13 98.39 66.79
2 -3 13 527.35 111.49
-2 -2 13 195.88 73.19
-1 -2 13 122.49 61.99
0 -2 13 278.07 81.89
1 -2 13 123.39 54.19
2 -2 13 476.85 91.49
-2 -1 13 107.79 57.39
-1 -1 13 -96.79 51.89
0 -1 13 36.3 47.9
1 -1 13 315.67 82.29
2 -1 13 176.98 77.09
-2 0 13 2.8 48.9
-1 0 13 19 50.69
0 0 13 -28 46.8
1 0 13 -28.2 47.9
-2 0 -13 101.89 62.49
2 0 13 -20.1 58.79
-2 1 13 -63.09 55.79
-1 1 13 -18.5 46.5
0 1 13 34.1 41.6
1 1 13 309.97 70.19
-2 -1 -13 111.69 75.89
2 1 13 57.89 56.49
-2 2 13 -0.7 57.89
-1 2 13 224.08 61.49
0 2 13 306.17 62.19
-1 -2 -13 -17.4 57.19
1 2 13 80.59 51.59
-2 -2 -13 69.39 86.69
2 2 13 223.68 79.29
-2 3 13 -14.4 51.59
-1 3 13 90.19 41.9
0 3 13 150.68 46.4
-1 -3 -13 -36 49.6
1 3 13 -28.3 44.9
-2 -3 -13 287.07 109.99
0 -6 14 170.58 74.49
-1 -5 14 6.7 63.99
0 -5 14 143.39 65.19
-1 -4 14 25 68.59
0 -4 14 159.68 80.99
1 -4 14 130.09 67.39
-1 -3 14 123.49 59.69
0 -3 14 539.05 101.69
1 -3 14 176.48 61.79
-2 -2 14 -25.3 68.49
-1 -2 14 429.26 105.99
0 -2 14 280.77 65.99
1 -2 14 645.04 86.09
-2 -1 14 210.88 69.19
-1 -1 14 82.59 47.2
0 -1 14 208.68 68.29
1 -1 14 121.19 60.39
-2 0 14 440.66 76.39
-1 0 14 357.56 84.69
0 0 14 60.99 52.19
1 0 14 1171.08 126.59
-2 1 14 48.1 65.99
1 1 14 66.59 59.19
0 -1 15 85.89 49.8
0 0 15 18.9 52.29
