#------------------------------------------------------------------------------
#$Date: 2019-11-10 06:38:51 +0200 (Sun, 10 Nov 2019) $
#$Revision: 225723 $
#$URL: file:///home/coder/svn-repositories/cod/cif/4/51/55/4515568.cif $
#------------------------------------------------------------------------------
#
# This file is available in the Crystallography Open Database (COD),
# http://www.crystallography.net/
#
# All data on this site have been placed in the public domain by the
# contributors.
#
data_4515568
loop_
_publ_author_name
'Teng, Shenghan'
'Tessensohn, Malcolm E.'
'Webster, Richard D.'
'Zhou, Jianrong Steve'
_publ_section_title
;
 Palladium-Catalyzed Intermolecular Heck-Type Reaction of Epoxides
;
_journal_issue                   8
_journal_name_full               'ACS Catalysis'
_journal_page_first              7439
_journal_paper_doi               10.1021/acscatal.8b02029
_journal_volume                  8
_journal_year                    2018
_chemical_absolute_configuration unk
_chemical_formula_sum            'C15 H20 O2'
_chemical_formula_weight         232.31
_space_group_crystal_system      monoclinic
_space_group_IT_number           4
_space_group_name_Hall           'P 2yb'
_space_group_name_H-M_alt        'P 1 21 1'
_atom_sites_solution_hydrogens   geom
_cell_angle_alpha                90
_cell_angle_beta                 107.7105(11)
_cell_angle_gamma                90
_cell_formula_units_Z            2
_cell_length_a                   9.1834(3)
_cell_length_b                   5.2643(2)
_cell_length_c                   13.7823(4)
_cell_measurement_reflns_used    167
_cell_measurement_temperature    100.(2)
_cell_measurement_theta_max      28.8931
_cell_measurement_theta_min      4.7316
_cell_volume                     634.72(4)
_computing_cell_refinement       'APEX3 v2016.9-0 (Bruker AXS)'
_computing_data_collection       'APEX3 (Bruker AXS Inc., 2016)'
_computing_data_reduction        'SAINT V8.37A (Bruker AXS Inc., 2015)'
_computing_molecular_graphics    'XP (Bruker AXS Inc., 2016)'
_computing_publication_material  'APEX3 (Bruker AXS Inc., 2016)'
_computing_structure_refinement  'SHELXL-2014/7 (Sheldrick, 2014)'
_computing_structure_solution    'XS, VERSION 2013/1'
_diffrn_ambient_temperature      100.(2)
_diffrn_detector_area_resol_mean 7.4074
_diffrn_measured_fraction_theta_full 0.994
_diffrn_measured_fraction_theta_max 0.994
_diffrn_measurement_device_type  'Photon II CPADs detector'
_diffrn_measurement_method       'phi and omega scans'
_diffrn_radiation_monochromator  'Multilayer Mirror'
_diffrn_radiation_type           MoK\a
_diffrn_radiation_wavelength     0.71073
_diffrn_reflns_av_R_equivalents  0.0691
_diffrn_reflns_av_unetI/netI     0.0569
_diffrn_reflns_limit_h_max       12
_diffrn_reflns_limit_h_min       -12
_diffrn_reflns_limit_k_max       7
_diffrn_reflns_limit_k_min       -7
_diffrn_reflns_limit_l_max       18
_diffrn_reflns_limit_l_min       -18
_diffrn_reflns_number            13875
_diffrn_reflns_theta_full        28.32
_diffrn_reflns_theta_max         28.32
_diffrn_reflns_theta_min         2.33
_diffrn_source                   'Incoatec microfocus source'
_diffrn_source_type              'Bruker D8 Quest'
_exptl_absorpt_coefficient_mu    0.079
_exptl_absorpt_correction_T_max  0.99
_exptl_absorpt_correction_T_min  0.67
_exptl_absorpt_correction_type   'Numerical Mu Calculated'
_exptl_absorpt_process_details
;
SADABS-2016/2 - Bruker AXS area detector scaling and absorption correction
;
_exptl_crystal_colour            colourless
_exptl_crystal_density_diffrn    1.216
_exptl_crystal_density_method    'not measured'
_exptl_crystal_description       plate
_exptl_crystal_F_000             252
_exptl_crystal_size_max          0.317
_exptl_crystal_size_mid          0.306
_exptl_crystal_size_min          0.122
_refine_diff_density_max         0.290
_refine_diff_density_min         -0.276
_refine_ls_abs_structure_details
;

Flack x determined using 1066 quotients [(I+)-(I-)]/[(I+)+(I-)]
(Parsons, Flack and Wagner, Acta Cryst. B69 (2013) 249-259).
;
_refine_ls_abs_structure_Flack   1.5(10)
_refine_ls_extinction_method     none
_refine_ls_goodness_of_fit_ref   1.045
_refine_ls_hydrogen_treatment    constr
_refine_ls_matrix_type           full
_refine_ls_number_parameters     156
_refine_ls_number_reflns         3125
_refine_ls_number_restraints     1
_refine_ls_restrained_S_all      1.045
_refine_ls_R_factor_all          0.0669
_refine_ls_R_factor_gt           0.0593
_refine_ls_shift/su_max          0.000
_refine_ls_shift/su_mean         0.000
_refine_ls_structure_factor_coef Fsqd
_refine_ls_weighting_details
'w=1/[\s^2^(Fo^2^)+(0.0970P)^2^+0.1381P] where P=(Fo^2^+2Fc^2^)/3'
_refine_ls_weighting_scheme      calc
_refine_ls_wR_factor_gt          0.1456
_refine_ls_wR_factor_ref         0.1541
_reflns_number_gt                2813
_reflns_number_total             3125
_reflns_threshold_expression     'I > 2\s(I)'
_cod_data_source_file            cs8b02029_si_003.cif
_cod_data_source_block           zhou83m
_cod_database_code               4515568
_shelx_res_file
;


    zhou83m.res created by SHELXL-2014/7


TITL zhou83m in P2(1)
CELL 0.71073   9.18340   5.26430  13.78230  90.0000 107.7105  90.0000
ZERR 2.00000 0.00030 0.00020 0.00040 0.0000 0.0011 0.0000
LATT -1
SYMM -X, 0.5+Y, -Z
SFAC C  H  O
UNIT 30 40  4
MERG 2
L.S. 4
ACTA
BOND
FMAP 2
PLAN 5
SIZE 0.122 0.306 0.317
TEMP -173.160
WGHT    0.097000    0.138100
FVAR       0.61945
C1    1    1.105618    0.540689    0.396651    11.00000    0.01355    0.01505 =
         0.01357    0.00100    0.00468   -0.00003
AFIX  13
H1    2    1.081320    0.688161    0.348670    11.00000   -1.20000
AFIX   0
C2    1    1.271321    0.562987    0.463858    11.00000    0.01676    0.01963 =
         0.01344   -0.00367    0.00230   -0.00071
AFIX  23
H2A   2    1.295341    0.421895    0.513704    11.00000   -1.20000
H2B   2    1.285370    0.724856    0.502168    11.00000   -1.20000
AFIX   0
C3    1    1.380200    0.554261    0.399432    11.00000    0.01401    0.02070 =
         0.01668   -0.00306    0.00236   -0.00342
AFIX  23
H3A   2    1.487067    0.562347    0.444524    11.00000   -1.20000
H3B   2    1.361904    0.703524    0.353599    11.00000   -1.20000
AFIX   0
C4    1    1.357183    0.310969    0.336031    11.00000    0.01360    0.01786 =
         0.01771   -0.00122    0.00373   -0.00078
AFIX  23
H4A   2    1.387358    0.162590    0.381906    11.00000   -1.20000
H4B   2    1.423526    0.315192    0.291307    11.00000   -1.20000
AFIX   0
C5    1    1.190441    0.282297    0.270903    11.00000    0.01537    0.01805 =
         0.01342   -0.00297    0.00300   -0.00063
AFIX  23
H5A   2    1.177668    0.117762    0.234485    11.00000   -1.20000
H5B   2    1.164809    0.419164    0.219209    11.00000   -1.20000
AFIX   0
C6    1    1.078937    0.293990    0.334482    11.00000    0.01267    0.01402 =
         0.01286    0.00079    0.00248    0.00042
AFIX  13
H6    2    1.100069    0.146879    0.382665    11.00000   -1.20000
AFIX   0
C7    1    0.916054    0.276761    0.267089    11.00000    0.01585    0.01778 =
         0.01176   -0.00002    0.00108    0.00116
AFIX  43
H7    2    0.879733    0.407939    0.218384    11.00000   -1.20000
AFIX   0
C8    1    0.819074    0.091982    0.270493    11.00000    0.01382    0.01807 =
         0.01295    0.00010    0.00201    0.00147
AFIX  43
H8    2    0.856141   -0.036874    0.320140    11.00000   -1.20000
AFIX   0
C9    1    0.659316    0.067294    0.204663    11.00000    0.01380    0.01619 =
         0.01320   -0.00220    0.00332    0.00082
C10   1    0.590903    0.245172    0.128508    11.00000    0.01426    0.01337 =
         0.01557   -0.00077    0.00445   -0.00153
AFIX  43
H10   2    0.648292    0.387388    0.118380    11.00000   -1.20000
AFIX   0
C11   1    0.441203    0.216128    0.068090    11.00000    0.01669    0.01435 =
         0.01610    0.00039    0.00486    0.00185
AFIX  43
H11   2    0.396823    0.337842    0.016711    11.00000   -1.20000
AFIX   0
C12   1    0.355536    0.010710    0.082001    11.00000    0.01084    0.01806 =
         0.01475   -0.00118    0.00181    0.00183
C13   1    0.419462   -0.167929    0.157145    11.00000    0.01478    0.01517 =
         0.01630   -0.00097    0.00464   -0.00295
AFIX  43
H13   2    0.360938   -0.308601    0.167287    11.00000   -1.20000
AFIX   0
C14   1    0.571268   -0.137495    0.217622    11.00000    0.01584    0.01486 =
         0.01434    0.00123    0.00203    0.00166
AFIX  43
H14   2    0.615358   -0.259752    0.268836    11.00000   -1.20000
AFIX   0
C15   1    0.122674   -0.222796    0.020648    11.00000    0.01354    0.02091 =
         0.02561    0.00053    0.00033   -0.00275
AFIX 137
H15A  2    0.179912   -0.372546    0.010701    11.00000   -1.50000
H15B  2    0.024450   -0.215718   -0.033344    11.00000   -1.50000
H15C  2    0.104643   -0.233784    0.087046    11.00000   -1.50000
AFIX   0
O1    3    1.002645    0.542635    0.456638    11.00000    0.01805    0.01945 =
         0.01769   -0.00394    0.00826   -0.00102
AFIX 147
H1A   2    0.998788    0.689581    0.479485    11.00000   -1.50000
AFIX   0
O2    3    0.208186   -0.000154    0.017085    11.00000    0.01150    0.01971 =
         0.01889    0.00130   -0.00048   -0.00071
HKLF 4

REM  zhou83m in P2(1)
REM R1 =  0.0593 for    2813 Fo > 4sig(Fo)  and  0.0669 for all    3125 data
REM    156 parameters refined using      1 restraints

END

WGHT      0.0970      0.1382

REM Highest difference peak  0.290,  deepest hole -0.276,  1-sigma level  0.051
Q1    1   0.3720  0.1502  0.0874  11.00000  0.05    0.29
Q2    1   0.6423 -0.0736  0.1977  11.00000  0.05    0.29
Q3    1   0.5980 -0.0037  0.2180  11.00000  0.05    0.28
Q4    1   0.4362  0.0666  0.0718  11.00000  0.05    0.22
Q5    1   1.3633  0.4528  0.3583  11.00000  0.05    0.20
;
_shelx_res_checksum              8083
_shelx_hkl_file
;
   1   0   0    5.67    0.53
   2   0   0   21.26    1.89
   2   0   0   20.67    1.73
   2   0   0   22.36    1.75
  -2   0   0   20.38    1.84
  -2   0   0   23.73    1.74
   3   0   0   19.44    1.69
  -3   0   0   19.07    1.82
   3   0   0   20.35    1.70
   3   0   0   18.47    1.88
   4   0   0  414.89   29.54
  -4   0   0  448.26   29.49
  -4   0   0  393.07   29.67
   4   0   0  410.50   29.54
   4   0   0  409.99   29.87
   5   0   0  182.82   14.14
  -5   0   0  178.74   14.25
  -5   0   0  213.90   14.07
   5   0   0  188.72   14.57
   5   0   0  187.27   14.16
  -5   0   0  211.86   14.09
  -6   0   0   15.51    1.48
   6   0   0   10.63    2.18
  -6   0   0   13.97    1.41
   6   0   0   14.38    1.57
   6   0   0   11.88    1.50
  -6   0   0   12.85    1.58
  -7   0   0    3.88    0.90
   7   0   0    5.05    1.02
  -7   0   0    4.76    0.88
   7   0   0    4.33    1.31
  -7   0   0    4.51    0.84
   7   0   0    5.16    1.05
  -8   0   0    1.03    0.48
   8   0   0    0.58    0.49
   8   0   0    1.26    0.61
   8   0   0    1.35    0.78
  -8   0   0    1.54    0.82
  -9   0   0   28.71    2.68
  -9   0   0   27.57    2.61
   9   0   0   24.78    2.86
   9   0   0   34.04    3.77
   9   0   0   27.45    2.94
  10   0   0   23.53    3.22
  10   0   0   17.03    2.24
 -10   0   0   19.50    2.03
  10   0   0   16.75    2.26
 -10   0   0   18.84    2.01
 -11   0   0   55.26    4.80
  11   0   0   51.04    5.04
  11   0   0   69.70    7.24
   0  -1   0    0.10    0.23
   0  -1   0    0.35    0.28
   0  -1   0   -0.12    0.16
   0  -1   0   -0.17    0.14
   0   1   0    0.13    0.21
   0   1   0   -0.19    0.23
  -1  -1   0  184.92   13.81
   1  -1   0  192.83   13.67
  -1  -1   0  200.82   13.84
   1  -1   0  195.76   13.94
   1  -1   0  191.98   13.67
  -1  -1   0  187.87   14.06
   1   1   0  183.30   13.44
  -1   1   0  180.28   13.29
  -1   1   0  190.02   13.38
   1   1   0  191.32   13.46
   1   1   0  190.05   13.70
   2  -1   0   39.21    2.59
  -2  -1   0   32.23    2.80
  -2  -1   0   30.88    2.77
  -2  -1   0   31.48    3.05
   2   1   0   31.59    2.69
   2   1   0   33.37    2.72
   2   1   0   31.48    2.96
  -2   1   0   32.48    2.45
  -3  -1   0   46.39    4.61
   3  -1   0   63.54    4.15
  -3  -1   0   48.82    4.34
   3  -1   0   57.39    4.12
   3  -1   0   56.99    4.26
   3   1   0   48.70    3.97
   3   1   0   44.77    3.93
   3   1   0   49.27    4.32
  -3   1   0   51.28    3.65
   4  -1   0   66.51    4.93
  -4  -1   0   61.23    5.18
   4  -1   0   66.82    5.14
  -4  -1   0   62.84    5.18
   4  -1   0   68.31    4.94
   4   1   0   54.59    4.62
  -4   1   0   57.20    4.28
   4   1   0   51.35    4.60
  -4   1   0   68.17    4.48
   4   1   0   51.97    4.99
  -5  -1   0   11.34    1.73
   5  -1   0   10.76    1.18
  -5  -1   0   12.20    1.42
   5  -1   0   11.43    1.21
  -5  -1   0   10.75    1.37
   5  -1   0   12.36    1.48
  -5   1   0   11.17    1.05
   5   1   0    9.36    1.33
   5   1   0    9.01    1.31
   5   1   0    9.56    1.98
  -5   1   0   12.22    1.08
  -6  -1   0   22.16    2.22
   6  -1   0   20.58    2.52
   6  -1   0   19.98    2.25
  -6  -1   0   21.87    2.17
  -6  -1   0   19.60    2.52
   6  -1   0   19.32    1.93
  -6   1   0   20.13    1.69
   6   1   0   16.58    2.06
  -6   1   0   19.42    1.67
   6   1   0   16.04    2.47
   6   1   0   17.98    2.05
  -7  -1   0   43.94    3.63
  -7  -1   0   39.36    3.51
   7  -1   0   35.75    3.31
   7  -1   0   39.43    4.89
  -7  -1   0   36.21    3.89
   7  -1   0   37.12    3.33
   7   1   0   36.82    4.03
  -7   1   0   35.60    2.85
  -7   1   0   34.88    2.82
   7   1   0   32.63    3.34
   7   1   0   29.79    3.36
  -8  -1   0   21.49    2.19
   8  -1   0   21.26    2.48
  -8  -1   0   14.92    2.31
   8  -1   0   15.22    1.84
   8  -1   0   14.41    1.90
  -8  -1   0   20.54    2.16
   8   1   0   18.36    3.03
   8   1   0   18.11    2.82
   8   1   0   16.75    2.19
  -8   1   0   17.36    1.69
  -8   1   0   17.83    1.70
   9  -1   0   -0.67    0.42
   9  -1   0   -0.16    0.47
  -9  -1   0    0.15    0.52
   9  -1   0    1.04    0.84
  -9  -1   0    1.23    0.81
   9   1   0    0.23    0.84
  -9   1   0    0.62    0.43
  -9   1   0   -0.15    0.27
   9   1   0    0.65    1.00
  10  -1   0   14.97    2.39
  10  -1   0   13.03    1.86
  10  -1   0   15.08    1.89
 -10  -1   0   14.16    1.88
  10   1   0   16.83    2.55
  10   1   0   12.21    2.68
 -10   1   0   14.18    1.50
  11  -1   0    5.62    1.43
  11  -1   0    3.88    1.09
  11  -1   0    6.72    1.89
 -11  -1   0    5.77    1.51
 -11  -1   0    8.33    1.90
  11   1   0    9.43    2.41
 -11   1   0    3.19    0.99
 -11   1   0    4.37    1.03
   0  -2   0   19.18    1.96
   0  -2   0   15.85    1.74
   0  -2   0   19.52    2.09
   0  -2   0   18.83    1.79
   0   2   0   19.46    2.10
   0   2   0   18.32    1.90
   1  -2   0   42.75    3.78
   1  -2   0   43.16    3.62
  -1  -2   0   42.47    3.63
  -1  -2   0   48.23    3.70
   1  -2   0   42.62    3.49
  -1  -2   0   42.88    4.00
   1  -2   0   42.22    3.48
   1   2   0   45.01    4.07
   1   2   0   48.19    3.95
  -1   2   0   53.74    3.86
   1   2   0   49.30    3.97
  -1   2   0   46.43    3.99
   1   2   0   42.21    4.20
   2  -2   0  199.05   12.87
  -2  -2   0  167.89   12.96
  -2  -2   0  171.02   12.96
   2  -2   0  173.31   12.66
  -2  -2   0  162.11   13.39
   2  -2   0  181.23   12.68
   2  -2   0  167.70   12.94
  -2   2   0  165.63   12.01
   2   2   0  173.25   12.34
   2   2   0  150.68   12.44
   2   2   0  168.45   12.32
   2   2   0  164.70   12.76
  -2   2   0  170.41   12.05
   3  -2   0   70.74    5.05
  -3  -2   0   63.14    5.41
  -3  -2   0   59.84    5.37
   3  -2   0   70.52    5.04
   3  -2   0   75.41    5.25
  -3  -2   0   53.52    5.70
  -3   2   0   60.13    4.49
   3   2   0   55.98    4.85
   3   2   0   57.53    4.86
   3   2   0   59.22    5.79
   4  -2   0  126.03    8.37
   4  -2   0  116.26    8.11
  -4  -2   0   97.93    8.53
   4  -2   0  120.78    8.13
  -4  -2   0   96.14    9.01
  -4  -2   0   94.57    8.49
  -4   2   0   89.65    6.68
   4   2   0   89.32    7.22
   4   2   0   90.96    7.23
   4   2   0   90.09    7.78
   5  -2   0   20.45    1.94
   5  -2   0   23.97    2.00
  -5  -2   0   20.36    2.80
  -5  -2   0   19.05    2.64
  -5  -2   0   22.71    2.45
   5  -2   0   24.67    2.27
  -5   2   0   17.35    1.58
   5   2   0   18.28    2.13
   5   2   0   15.43    2.44
   5   2   0   18.45    2.15
   6  -2   0  162.71   11.84
  -6  -2   0  160.64   12.43
  -6  -2   0  161.29   12.46
   6  -2   0  178.96   12.25
   6  -2   0  167.58   11.86
  -6  -2   0  134.82   12.86
  -6   2   0  133.74    9.98
   6   2   0  142.05   10.81
   6   2   0  136.70   10.78
   6   2   0  136.65   11.48
  -7  -2   0    7.00    2.03
  -7  -2   0    9.26    1.79
  -7  -2   0    9.61    1.77
   7  -2   0    7.56    1.06
   7  -2   0    7.73    1.03
   7   2   0    5.63    1.46
  -7   2   0    7.59    0.89
  -7   2   0    6.47    0.83
   7   2   0    9.59    2.31
   7   2   0    6.39    1.51
   8  -2   0   47.79    4.22
  -8  -2   0   51.16    4.78
  -8  -2   0   54.29    4.86
   8  -2   0   46.62    4.18
   8  -2   0   61.39    4.86
  -8  -2   0   44.79    5.13
   8   2   0   48.59    5.28
  -8   2   0   43.68    3.56
  -8   2   0   44.45    3.59
   8   2   0   40.67    4.39
   8   2   0   48.35    4.63
  -9  -2   0    0.29    0.88
   9  -2   0    1.53    0.76
  -9  -2   0    1.62    0.86
   9  -2   0    3.28    1.12
   9  -2   0    2.15    0.60
  -9  -2   0    4.02    1.65
  -9   2   0    3.40    0.91
   9   2   0    1.22    1.04
   9   2   0    3.40    1.18
 -10  -2   0   -0.91    1.27
  10  -2   0    0.83    0.82
 -10  -2   0   -0.10    0.78
  10  -2   0    1.51    0.73
 -10  -2   0    0.74    0.91
  10   2   0   -0.87    1.02
 -10   2   0    0.85    0.40
  10   2   0    0.06    1.27
 -10   2   0    0.28    0.38
  11  -2   0   10.49    2.31
 -11  -2   0   17.71    2.72
  11  -2   0   12.96    1.71
  11   2   0   20.40    3.35
   0  -3   0    0.20    0.34
   0  -3   0    0.06    0.45
   0  -3   0    0.60    0.45
   0  -3   0   -0.10    0.31
   0  -3   0    0.03    0.19
   0   3   0    0.07    0.42
   0   3   0   -0.01    0.43
   1  -3   0   86.77    7.54
   1  -3   0   84.78    7.28
  -1  -3   0   92.59    7.86
   1  -3   0   89.65    7.11
   1  -3   0   88.71    7.09
   1  -3   0   92.31    7.11
  -1  -3   0   91.36    7.25
  -1  -3   0   96.64    7.35
   1  -3   0   89.91    7.09
  -1  -3   0   96.85    7.30
  -1   3   0  119.24    8.13
  -1   3   0  101.23    8.29
   1   3   0   93.89    8.28
   1   3   0   99.90    8.63
   2  -3   0    4.40    0.89
   2  -3   0    5.12    1.27
   2  -3   0    6.01    1.25
  -2  -3   0    6.14    1.58
  -2  -3   0    5.22    1.14
  -2  -3   0    5.21    1.12
   2  -3   0    5.37    1.00
   2   3   0    4.78    1.35
   2   3   0    5.00    1.45
   2   3   0    7.13    1.37
  -2   3   0    5.99    1.01
  -2   3   0    6.32    0.88
  -3  -3   0   39.88    3.96
   3  -3   0   43.47    3.57
   3  -3   0   45.54    3.61
   3  -3   0   41.05    3.79
   3   3   0   43.92    3.94
   3   3   0   37.77    3.80
  -3   3   0   39.93    3.20
   3   3   0   43.36    4.48
   3   3   0   41.89    4.53
  -4  -3   0    7.22    1.95
  -4  -3   0    5.87    1.37
   4  -3   0    6.52    0.90
   4  -3   0    8.18    1.26
  -4  -3   0    7.27    1.55
   4   3   0    7.52    1.84
   4   3   0    6.66    1.84
   4   3   0    6.22    2.20
   4   3   0    5.81    1.46
   5  -3   0   11.05    1.56
   5  -3   0   11.78    1.31
   5  -3   0   12.15    1.30
  -5  -3   0   11.49    2.02
  -5  -3   0   10.57    1.98
  -5  -3   0   11.18    2.55
   5   3   0   10.83    1.97
   5   3   0    9.15    2.31
   5   3   0   10.72    1.97
  -6  -3   0   61.97    6.78
   6  -3   0   72.54    5.51
  -6  -3   0   68.27    6.26
  -6  -3   0   75.04    6.36
   6  -3   0   73.11    5.52
   6   3   0   59.58    6.13
   6   3   0   56.89    5.38
  -6   3   0   54.58    4.51
   6   3   0   59.77    5.43
  -7  -3   0   30.43    4.24
   7  -3   0   34.86    3.03
  -7  -3   0   34.53    3.76
  -7  -3   0   31.66    3.72
   7  -3   0   37.95    3.50
   7  -3   0   36.23    3.01
   7   3   0   29.49    3.47
   7   3   0   29.34    3.44
   7   3   0   29.77    4.11
  -8  -3   0   22.35    3.47
   8  -3   0   18.87    2.11
   8  -3   0   23.63    2.67
  -8  -3   0   26.53    3.02
   8  -3   0   21.60    2.12
  -8  -3   0   23.15    2.96
  -8   3   0   18.32    1.73
   8   3   0   22.72    2.87
   8   3   0   20.03    3.26
   9  -3   0   -0.45    0.37
  -9  -3   0    0.17    0.80
  -9  -3   0    0.86    1.04
   9  -3   0   -0.79    0.48
   9  -3   0   -0.34    0.72
   9   3   0    2.02    1.39
   9   3   0   -1.43    1.00
   9   3   0    2.71    1.05
 -10  -3   0   26.88    3.26
 -10  -3   0   24.43    3.29
  10  -3   0   22.09    2.97
  10  -3   0   19.13    2.29
 -10  -3   0   35.74    5.16
  10   3   0   29.35    4.18
   0  -4   0  498.39   36.49
   0  -4   0  531.86   36.60
   0  -4   0  507.49   36.51
   0  -4   0  516.52   36.55
   0  -4   0  483.32   36.84
   0  -4   0  492.64   37.30
   0   4   0  535.37   39.99
   0   4   0  559.69   39.63
  -1  -4   0   31.81    3.41
   1  -4   0   31.53    3.24
   1  -4   0   35.85    3.33
  -1  -4   0   28.47    3.26
   1  -4   0   37.07    3.98
   1  -4   0   36.11    3.36
  -1  -4   0   31.15    3.35
  -1  -4   0   30.90    3.33
   1  -4   0   35.29    3.30
  -1  -4   0   33.15    3.99
   1  -4   0   32.66    3.56
   1   4   0   35.08    4.20
   1   4   0   32.13    4.00
  -1   4   0   37.01    3.80
  -1   4   0   39.30    3.55
   2  -4   0    0.41    0.67
   2  -4   0   -0.02    0.29
  -2  -4   0    0.52    0.55
   2  -4   0    0.84    0.46
   2  -4   0   -0.31    0.51
  -2  -4   0   -0.77    0.71
   2  -4   0   -0.15    0.27
  -2  -4   0    0.01    0.38
  -2  -4   0   -0.16    0.79
   2  -4   0    0.71    0.48
  -2   4   0    0.17    0.43
  -2   4   0   -0.15    0.48
   2   4   0   -0.29    0.61
   2   4   0   -0.28    0.45
  -3  -4   0   19.00    2.54
  -3  -4   0   17.81    2.37
  -3  -4   0   16.20    2.84
  -3  -4   0   18.75    2.44
   3  -4   0   22.32    2.17
   3  -4   0   20.72    2.14
   3  -4   0   18.50    2.41
   3  -4   0   19.32    2.17
   3  -4   0   18.82    2.16
  -3   4   0   24.22    2.02
   3   4   0   19.57    2.54
   3   4   0   15.93    2.63
  -3   4   0   18.70    1.92
   3   4   0   20.43    3.04
   4  -4   0   26.93    3.00
  -4  -4   0   26.44    3.76
   4  -4   0   28.20    2.68
  -4  -4   0   26.08    3.10
   4  -4   0   29.54    2.69
  -4  -4   0   24.68    3.12
   4   4   0   25.20    3.15
   4   4   0   25.71    2.99
   4   4   0   22.75    3.47
   5  -4   0    1.36    0.71
  -5  -4   0    1.93    0.97
  -5  -4   0    1.17    1.40
   5  -4   0    1.52    0.55
   5  -4   0    2.00    0.67
  -5  -4   0    1.34    1.02
   5   4   0    2.99    1.46
   5   4   0    1.43    0.92
   5   4   0    0.34    1.15
   5   4   0    1.70    0.91
  -6  -4   0    3.06    1.33
   6  -4   0    0.40    0.67
  -6  -4   0   -0.29    0.87
  -6  -4   0    3.78    1.30
   6  -4   0    2.17    0.66
   6   4   0    2.90    1.26
   6   4   0    1.07    0.98
   6   4   0    1.33    0.74
   7  -4   0   19.84    2.07
  -7  -4   0   23.74    3.57
   7  -4   0   21.09    2.65
  -7  -4   0   25.22    3.08
   7  -4   0   21.15    2.17
   7   4   0   20.48    3.31
   7   4   0   17.86    3.10
   7   4   0   17.51    3.71
   8  -4   0    6.08    1.57
  -8  -4   0    8.26    2.34
   8  -4   0    7.72    1.50
   8  -4   0    5.93    1.01
  -8  -4   0    4.49    1.53
  -8  -4   0    6.28    1.78
   8   4   0    6.93    1.73
   8   4   0    6.42    2.33
  -9  -4   0   10.33    2.40
   9  -4   0    8.62    1.32
  -9  -4   0   11.56    2.38
   9  -4   0    6.12    1.65
   9   4   0    7.93    2.21
   9   4   0    9.73    3.04
   0  -5   0    0.95    0.62
   0  -5   0   -1.05    0.63
   0  -5   0    1.81    1.05
   0  -5   0    0.06    0.56
   0  -5   0    1.80    0.87
   0   5   0   -0.27    0.78
   0   5   0   -0.42    0.87
  -1  -5   0   56.18    5.31
  -1  -5   0   52.44    6.02
  -1  -5   0   54.10    5.27
   1  -5   0   56.67    5.90
   1  -5   0   57.78    5.19
   1  -5   0   56.59    5.18
  -1  -5   0   50.60    5.18
   1  -5   0   53.61    5.11
  -1  -5   0   52.48    5.20
   1  -5   0   49.57    5.43
   1  -5   0   61.35    5.27
   1   5   0   54.13    6.00
   1   5   0   54.04    5.63
  -1   5   0   66.00    5.39
   2  -5   0    3.28    1.37
   2  -5   0    2.82    0.96
  -2  -5   0    2.70    1.11
  -2  -5   0    3.67    1.28
   2  -5   0    2.41    0.91
   2  -5   0    2.73    0.94
   2  -5   0    1.17    0.99
   2  -5   0    3.02    1.03
  -2  -5   0    2.80    1.57
  -2  -5   0    3.62    1.25
  -2   5   0    2.98    1.07
   2   5   0    3.34    1.38
  -2   5   0    1.75    0.89
   2   5   0    2.68    1.46
  -3  -5   0   13.05    3.15
  -3  -5   0   16.82    4.05
  -3  -5   0   17.29    2.79
   3  -5   0   18.63    2.20
   3  -5   0   17.87    2.22
  -3  -5   0   13.90    2.66
  -3  -5   0   13.40    2.63
   3  -5   0   17.90    2.27
   3  -5   0   17.39    2.49
   3  -5   0   16.52    2.26
  -3   5   0   18.92    1.78
  -3   5   0   16.53    1.77
   3   5   0   17.77    3.12
   3   5   0   14.21    2.58
   4  -5   0   20.83    2.50
   4  -5   0   17.02    2.63
  -4  -5   0   16.65    2.96
  -4  -5   0   21.67    2.84
   4  -5   0   24.57    2.49
  -4  -5   0   25.20    3.62
  -4  -5   0   17.99    3.08
   4  -5   0   19.90    2.42
   4  -5   0   17.41    2.31
   4   5   0   20.30    4.13
   4   5   0   23.43    4.87
  -5  -5   0    2.40    1.13
   5  -5   0    0.98    0.75
   5  -5   0    2.36    0.76
  -5  -5   0    2.52    1.02
   5  -5   0    2.07    0.95
   5  -5   0    2.78    0.88
  -5  -5   0    3.60    1.06
   5  -5   0    0.98    1.05
   5   5   0    0.77    1.03
   6  -5   0    2.35    0.91
   6  -5   0    1.83    0.76
  -6  -5   0    1.49    1.10
  -6  -5   0    2.42    1.17
   6  -5   0    1.85    0.70
   6  -5   0    1.55    0.91
   6  -5   0    0.28    0.88
   6   5   0    2.85    1.45
   7  -5   0   18.18    2.62
  -7  -5   0   15.65    2.98
   7  -5   0   15.92    2.11
   7  -5   0   16.61    2.13
  -7  -5   0   19.93    3.39
   7  -5   0   16.48    2.82
   7   5   0   15.40    3.42
   8  -5   0   -0.37    0.65
  -8  -5   0    1.34    1.50
   8  -5   0    0.45    1.07
  -8  -5   0    2.51    1.20
   8  -5   0    0.36    0.63
   8  -5   0    1.22    0.73
   8   5   0    4.93    2.03
   0  -6   0   11.25    2.27
   0  -6   0   11.51    2.38
   0  -6   0    7.64    1.83
   0  -6   0    8.94    2.22
   0   6   0   10.84    2.41
   0   6   0    7.68    2.17
   1  -6   0   22.92    2.96
   1  -6   0   27.42    3.15
   1  -6   0   24.66    3.09
   1  -6   0   24.36    3.15
  -1  -6   0   23.39    3.17
  -1  -6   0   24.51    3.25
  -1  -6   0   18.93    3.28
  -1  -6   0   17.87    3.22
   1   6   0   21.60    3.79
  -1   6   0   22.76    3.00
  -1   6   0   24.71    3.20
   1   6   0   24.52    3.64
   2  -6   0    8.18    1.87
  -2  -6   0    4.63    1.54
   2  -6   0    5.90    1.55
  -2  -6   0    6.46    1.69
  -2  -6   0    4.01    2.48
   2  -6   0    4.23    1.40
  -2  -6   0    6.97    1.83
   2  -6   0    4.43    2.16
   2  -6   0    8.95    1.80
   2   6   0    8.85    2.73
   2   6   0    9.06    2.45
  -2   6   0    5.25    1.34
  -2   6   0    7.56    1.67
   3  -6   0   12.98    2.40
  -3  -6   0   11.44    2.60
   3  -6   0   11.25    2.30
  -3  -6   0   11.64    2.40
   3  -6   0   14.01    2.27
   3  -6   0   10.04    2.13
  -3  -6   0   16.03    2.83
   3   6   0   10.38    2.65
   3   6   0   13.84    3.28
  -4  -6   0    2.32    1.22
   4  -6   0    4.50    1.30
   4  -6   0    3.90    1.21
   4  -6   0    3.43    1.23
  -4  -6   0    1.79    1.34
  -4  -6   0    2.63    1.58
   4   6   0    4.17    1.69
   5  -6   0    4.82    2.12
  -5  -6   0    8.29    2.22
   5  -6   0    9.83    1.80
   5  -6   0    8.78    1.84
  -5  -6   0   10.72    2.41
   5  -6   0   12.11    2.08
   5   6   0    9.94    2.34
   6  -6   0   -1.36    0.78
  -6  -6   0    3.20    1.19
   6  -6   0   -0.40    0.86
   6  -6   0    0.59    1.25
   6  -6   0   -1.54    0.64
  -6  -6   0   -0.63    1.15
   6   6   0    2.25    1.29
   0  -7   0   -0.12    0.88
   0  -7   0    0.21    0.99
  -1   7   0   23.52    3.67
   1   7   0   31.47    4.49
 -11   0   1   12.81    1.47
  11   0  -1   16.52    1.90
  11   0  -1    9.49    1.80
 -11   0   1   10.02    1.46
  11   0  -1   11.50    2.62
  10   0  -1   23.37    3.06
 -10   0   1   23.29    2.17
  10   0  -1   16.95    2.29
  10   0  -1   19.47    2.38
 -10   0   1   21.41    2.12
  -9   0   1   43.83    3.66
   9   0  -1   47.03    4.73
  -9   0   1   47.22    3.68
   9   0  -1   38.26    3.89
   9   0  -1   38.35    3.95
  -8   0   1   73.83    5.55
   8   0  -1   64.61    5.78
  -8   0   1   78.56    5.62
   8   0  -1   75.13    6.55
   8   0  -1   60.74    5.75
   7   0  -1   16.46    2.25
  -7   0   1   18.23    1.76
   7   0  -1   17.69    1.91
  -7   0   1   19.45    1.75
   7   0  -1   15.71    1.85
   6   0  -1   -0.02    0.20
  -6   0   1    0.06    0.24
   6   0  -1   -0.11    0.46
  -6   0   1    0.21    0.26
   6   0  -1   -0.09    0.25
   5   0  -1   33.73    3.27
   5   0  -1   33.83    2.97
  -5   0   1   37.88    2.88
   5   0  -1   32.18    2.94
  -5   0   1   38.25    2.90
   4   0  -1   62.33    5.30
  -4   0   1   70.95    5.02
  -4   0   1   73.68    5.02
   4   0  -1   61.38    5.05
   4   0  -1   64.67    5.06
   3   0  -1  152.66   11.14
   3   0  -1  143.14   11.28
   3   0  -1  159.38   11.15
  -3   0   1  164.71   11.11
   2   0  -1   33.32    2.48
   2   0  -1   32.34    2.55
   2   0  -1   32.94    2.48
  -2   0  -1   27.36    2.07
  -2   0  -1   27.06    2.18
  -2   0  -1   22.12    2.18
   2   0   1   25.07    2.25
   2   0   1   26.02    2.07
   3   0   1  378.41   27.28
  -3   0  -1  334.93   27.43
  -3   0  -1  415.49   27.25
   3   0   1  381.95   27.58
  -3   0  -1  411.25   27.26
   3   0   1  381.88   27.28
  -4   0  -1   69.40    6.00
   4   0   1   75.58    5.82
   4   0   1   74.69    6.16
  -4   0  -1   80.29    5.76
   4   0   1   77.55    5.83
   5   0   1   65.93    5.15
   5   0   1   63.80    5.56
  -5   0  -1   69.91    5.06
  -5   0  -1   55.67    5.25
   5   0   1   65.86    5.16
   6   0   1   25.71    2.56
  -6   0  -1   23.32    2.68
   6   0   1   25.55    2.56
   6   0   1   27.43    3.06
  -6   0  -1   31.50    2.52
   7   0   1    1.44    0.63
   7   0   1    0.59    0.78
   7   0   1    1.01    0.53
  -7   0  -1    1.41    0.63
  -7   0  -1    1.69    0.56
  -8   0  -1   12.34    1.68
   8   0   1   13.39    2.18
   8   0   1   13.53    1.80
  -8   0  -1   12.28    1.54
   8   0   1   14.11    1.73
  -8   0  -1   13.35    1.52
  -9   0  -1    7.60    1.38
   9   0   1    3.49    1.05
  -9   0  -1    6.96    1.26
   9   0   1    5.78    1.46
   9   0   1    5.46    1.77
 -10   0  -1   -0.93    0.43
  10   0   1    0.78    0.93
  10   0   1    0.69    0.57
 -10   0  -1    0.54    0.52
  10   0   1    0.47    0.75
 -11   0  -1   63.43    5.63
 -11   0  -1   65.18    5.59
  11   0   1   76.97    7.24
  11  -1  -1   43.83    4.48
  11  -1  -1   29.57    3.56
 -11  -1   1   43.01    3.79
 -11   1   1   31.88    2.69
  10  -1  -1    9.01    1.99
 -10  -1   1    9.61    1.65
  10  -1  -1    6.50    1.41
  10   1  -1    7.22    1.97
  10   1  -1    5.75    1.63
  10   1  -1    7.80    1.50
   9  -1  -1    3.29    1.00
   9  -1  -1    2.77    0.88
  -9  -1   1    4.74    1.11
   9  -1  -1    5.45    1.41
  -9  -1   1    5.90    1.85
  -9   1   1    3.97    0.71
   9   1  -1    6.84    1.92
   9   1  -1    4.85    1.16
   9   1  -1    2.78    1.07
  -8  -1   1   16.78    1.99
   8  -1  -1   17.81    2.23
   8  -1  -1   14.75    1.76
   8  -1  -1   16.05    1.79
   8   1  -1   16.58    2.53
  -8   1   1   16.48    1.47
   8   1  -1   13.38    1.93
   8   1  -1   14.83    1.94
  -7  -1   1  115.13    8.19
   7  -1  -1   94.51    7.80
   7  -1  -1  108.00    8.31
   7  -1  -1   96.47    7.80
  -7  -1   1  105.05    8.50
   7   1  -1   91.27    7.74
  -7   1   1  103.16    7.14
   7   1  -1   98.35    8.46
   7   1  -1   91.86    7.75
   6  -1  -1   10.34    1.19
   6  -1  -1   10.68    1.45
  -6  -1   1   12.61    1.79
  -6  -1   1   11.23    1.42
   6  -1  -1   10.61    1.18
  -6  -1   1   13.21    1.52
   6   1  -1    9.87    1.75
   6   1  -1    9.84    1.39
  -6   1   1   11.57    1.04
   6   1  -1   10.72    1.44
   5  -1  -1   41.00    3.27
   5  -1  -1   42.76    3.52
  -5  -1   1   44.46    3.61
  -5  -1   1   45.43    3.65
   5  -1  -1   40.36    3.27
  -5  -1   1   37.01    3.85
   5   1  -1   37.85    3.49
   5   1  -1   37.79    3.48
   5   1  -1   37.77    3.89
  -5   1   1   43.58    3.04
  -4  -1   1   11.37    1.33
  -4  -1   1   11.31    1.35
   4  -1  -1   13.08    1.09
  -4  -1   1    9.86    1.54
   4  -1  -1   12.38    1.07
   4  -1  -1   11.48    1.17
   4   1  -1   10.70    1.31
   4   1  -1   10.99    1.32
  -4   1   1   12.13    0.95
   4   1  -1    8.74    1.46
   3  -1  -1   46.67    3.07
  -3  -1   1   36.60    3.36
   3  -1  -1   37.30    3.06
   3  -1  -1   46.23    3.07
  -3  -1   1   37.94    3.65
   3   1  -1   36.10    3.02
   3   1  -1   34.71    2.99
   3   1  -1   33.63    3.28
  -3   1   1   36.00    2.61
  -3   1   1   35.90    2.60
   2  -1  -1   14.90    1.16
  -2  -1   1   14.96    1.44
  -2  -1   1   13.57    1.63
   2  -1  -1   15.43    1.16
   2   1  -1   16.20    1.53
   2   1  -1   15.86    1.48
   2   1  -1   13.74    1.66
   0  -1   1  413.54   28.81
   0  -1  -1  405.33   28.75
   0  -1  -1  399.73   28.75
   0  -1  -1  409.23   28.92
   0   1   1  378.74   27.31
   0   1   1  407.35   27.47
   0   1   1  397.60   27.32
   0   1  -1  364.55   27.31
   0   1  -1  383.41   27.33
   1  -1   1  223.19   15.74
   1  -1   1  253.65   15.90
   1  -1   1  229.76   15.75
  -1  -1  -1  212.20   15.85
  -1  -1  -1  194.72   16.04
  -1  -1  -1  212.00   15.85
   1   1   1  204.71   14.76
   1   1   1  201.36   14.76
   1   1   1  210.14   15.02
   2  -1   1  115.18    8.15
  -2  -1  -1  101.98    8.30
   2  -1   1  118.22    8.16
  -2  -1  -1   98.67    8.30
   2  -1   1  125.00    8.33
   2   1   1   92.29    7.27
  -2   1  -1  103.97    7.10
  -2   1  -1  103.38    7.17
   2   1   1   93.68    7.59
   2   1   1   90.33    7.26
   3  -1   1   97.93    7.15
   3  -1   1  100.46    6.94
   3  -1   1   97.93    6.94
  -3  -1  -1   86.30    7.12
  -3  -1  -1   84.90    7.10
   3   1   1   77.35    6.43
   3   1   1   69.42    5.99
  -3   1  -1   85.55    5.79
   3   1   1   80.65    6.07
  -3   1  -1   74.32    5.84
  -3   1  -1   79.06    5.76
   4  -1   1   50.99    3.98
  -4  -1  -1   49.15    4.20
   4  -1   1   51.66    4.00
   4  -1   1   54.83    4.29
  -4  -1  -1   51.64    4.21
  -4  -1  -1   44.89    4.51
  -4   1  -1   48.02    3.46
   4   1   1   38.86    4.07
  -4   1  -1   46.47    3.44
   4   1   1   39.99    3.71
  -4   1  -1   45.24    3.63
   4   1   1   41.48    3.73
  -5  -1  -1   34.38    3.10
   5  -1   1   35.88    2.95
   5  -1   1   32.39    2.91
   5  -1   1   38.79    3.34
  -5  -1  -1   33.73    3.13
  -5  -1  -1   30.53    3.43
   5   1   1   30.96    3.41
   5   1   1   30.02    2.94
   5   1   1   28.36    2.93
  -5   1  -1   33.70    2.62
  -5   1  -1   32.08    2.61
  -6  -1  -1   37.66    4.12
  -6  -1  -1   43.36    3.75
   6  -1   1   42.04    3.57
   6  -1   1   39.50    3.53
  -6  -1  -1   43.16    3.77
   6  -1   1   45.86    4.31
   6   1   1   41.09    3.69
   6   1   1   35.38    3.60
   6   1   1   42.02    4.25
  -6   1  -1   40.72    3.23
  -6   1  -1   36.63    3.34
  -7  -1  -1   18.40    2.67
   7  -1   1   21.26    2.25
  -7  -1  -1   21.50    2.34
   7  -1   1   22.98    2.27
   7  -1   1   25.75    2.80
  -7  -1  -1   22.38    2.40
   7   1   1   19.50    2.39
   7   1   1   20.07    2.87
  -7   1  -1   23.40    2.01
  -7   1  -1   22.03    1.98
   7   1   1   17.63    2.32
   8  -1   1   65.46    5.45
   8  -1   1   48.72    4.64
   8  -1   1   48.58    4.64
  -8  -1  -1   50.41    5.18
  -8  -1  -1   63.71    4.92
   8   1   1   52.26    4.92
  -8   1  -1   56.06    4.34
   8   1   1   46.46    4.79
  -8   1  -1   51.83    4.29
   8   1   1   59.13    5.77
   9  -1   1    2.23    1.03
  -9  -1  -1    3.88    0.90
   9  -1   1    0.90    0.70
  -9  -1  -1    2.61    0.92
   9  -1   1    1.85    0.74
  -9  -1  -1    4.47    1.15
   9   1   1    3.62    1.09
  -9   1  -1    2.29    0.57
   9   1   1    1.64    0.81
  -9   1  -1    1.93    0.59
   9   1   1    3.83    1.51
  10  -1   1   10.87    1.83
  10  -1   1    8.64    1.69
 -10  -1  -1   13.56    2.07
  10   1   1   15.96    3.25
  10   1   1   11.37    2.17
  10   1   1   11.98    2.15
 -10   1  -1   12.12    1.45
 -10   1  -1    9.93    1.38
 -11  -1  -1   16.80    2.61
  11  -1   1   15.40    2.17
  11  -1   1   23.40    2.48
  11  -1   1   19.01    3.03
  11   1   1   12.92    2.58
  11   1   1   17.61    3.64
 -11   1  -1   12.82    2.36
  11  -2  -1    4.47    1.10
  11  -2  -1    4.73    0.92
  11  -2  -1    4.42    1.47
 -11  -2   1    6.86    1.84
  11   2  -1    8.00    2.49
  10  -2  -1    8.34    1.82
 -10  -2   1    9.14    1.84
 -10  -2   1    7.23    1.54
  10  -2  -1    5.24    1.08
  10  -2  -1    5.49    1.05
  10   2  -1    6.84    2.15
  10   2  -1    4.56    1.71
  10   2  -1    6.05    1.52
   9  -2  -1    0.28    0.39
  -9  -2   1    2.97    0.76
  -9  -2   1    1.36    0.78
   9  -2  -1    1.09    0.73
  -9  -2   1    2.60    1.51
   9  -2  -1    0.86    0.56
  -9   2   1    0.86    0.36
   9   2  -1    1.19    0.93
   9   2  -1    0.07    0.71
   9   2  -1    0.68    0.85
  -8  -2   1   13.38    4.22
   8  -2  -1   15.60    2.67
  -8  -2   1   16.98    2.12
  -8  -2   1   15.50    2.43
   8  -2  -1   13.67    1.53
   8  -2  -1   14.48    1.56
   8   2  -1   14.31    2.44
   8   2  -1   11.89    2.18
  -8   2   1   13.48    1.24
   8   2  -1   15.42    3.09
  -7  -2   1  412.73   28.91
  -7  -2   1  376.12   29.55
  -7  -2   1  416.04   28.88
   7  -2  -1  354.11   28.05
   7  -2  -1  430.12   28.54
   7  -2  -1  381.51   28.10
   7   2  -1  344.14   25.92
  -7   2   1  339.05   23.98
   7   2  -1  333.49   25.04
  -7   2   1  339.87   24.04
   7   2  -1  339.01   25.07
  -6  -2   1   10.47    2.24
   6  -2  -1   12.28    1.41
  -6  -2   1   11.08    1.97
   6  -2  -1   11.27    1.17
   6  -2  -1   10.67    1.14
  -6  -2   1   12.34    1.69
   6   2  -1   10.37    1.79
  -6   2   1    9.19    0.89
   6   2  -1   10.91    2.33
   6   2  -1    9.55    1.73
  -5  -2   1   15.66    2.08
  -5  -2   1   14.43    2.37
  -5  -2   1   19.04    2.19
   5  -2  -1   20.87    1.68
   5  -2  -1   20.82    1.87
   5  -2  -1   19.95    1.67
  -5   2   1   16.63    1.43
   5   2  -1   15.41    2.37
   5   2  -1   18.81    2.08
   5   2  -1   15.44    1.98
   4  -2  -1   12.14    1.11
  -4  -2   1   11.92    1.53
   4  -2  -1   12.14    1.22
   4  -2  -1   10.90    1.06
  -4  -2   1   10.01    2.10
  -4  -2   1   10.37    1.69
   4   2  -1    8.80    1.88
   4   2  -1   10.20    1.57
  -4   2   1    7.51    0.83
   4   2  -1   10.22    1.33
   3  -2  -1    3.07    0.51
  -3  -2   1    2.83    0.79
  -3  -2   1    2.72    0.77
   3  -2  -1    4.30    0.63
   3  -2  -1    3.34    0.56
  -3  -2   1    2.82    0.99
   3  -2  -1    2.62    0.64
   3   2  -1    3.72    0.91
   3   2  -1    3.63    0.88
   3   2  -1    4.38    1.18
   2  -2  -1  224.40   16.40
   2  -2  -1  220.31   16.63
   2  -2  -1  229.94   16.40
   2  -2  -1  237.34   16.51
  -2  -2   1  225.37   16.74
  -2  -2   1  235.72   16.77
  -2  -2   1  229.51   17.25
   2   2  -1  228.79   16.75
   2   2  -1  212.11   16.90
   2   2  -1  220.90   17.17
  -2   2   1  250.16   16.19
   1  -2  -1   87.31    6.77
   1  -2  -1   80.32    6.56
  -1  -2   1   94.82    6.72
  -1  -2   1   84.94    6.65
   1  -2  -1   82.86    6.46
  -1  -2   1   86.36    6.87
  -1  -2   1   88.35    7.09
   1  -2  -1   82.93    6.46
  -1  -2   1   87.95    6.68
   1  -2  -1   86.90    6.50
  -1  -2   1   85.43    6.65
   1   2  -1   86.29    7.09
   1   2  -1   85.27    7.28
  -1   2   1   96.86    6.78
  -1   2   1   90.76    6.87
   0  -2   1  217.15   15.94
   0  -2   1  220.01   15.54
   0  -2  -1  204.87   15.66
   0  -2   1  205.96   15.69
   0  -2  -1  208.44   15.49
   0  -2  -1  211.09   15.50
   0  -2  -1  221.36   15.91
   0  -2   1  222.86   15.81
   0   2   1  226.46   16.38
   0   2   1  218.50   16.48
   0   2  -1  214.94   16.71
   0   2   1  230.36   16.66
   0   2   1  223.41   16.38
   0   2  -1  243.57   16.58
  -1  -2  -1   12.24    1.40
   1  -2   1   11.57    1.25
   1  -2   1   12.43    1.54
   1  -2   1   12.06    1.41
  -1  -2  -1   11.72    1.37
  -1  -2  -1   10.61    1.58
   1  -2   1   12.86    1.29
  -1   2  -1   10.03    1.23
  -1   2  -1   12.58    1.52
   1   2   1   11.93    1.39
   1   2   1   13.05    1.42
   1   2   1   12.22    1.65
  -1   2  -1   14.16    1.38
   1   2   1   11.10    1.51
  -2  -2  -1  155.58   13.21
   2  -2   1  180.13   12.57
   2  -2   1  180.30   12.56
   2  -2   1  195.17   12.82
  -2  -2  -1  158.04   12.77
  -2  -2  -1  162.65   12.79
   2   2   1  164.39   12.17
  -2   2  -1  155.27   11.58
   2   2   1  157.00   11.64
   2   2   1  151.65   11.62
  -2   2  -1  150.61   11.36
  -3  -2  -1   35.66    4.15
  -3  -2  -1   40.35    3.84
   3  -2   1   50.11    3.84
   3  -2   1   47.76    3.58
   3  -2   1   47.03    3.57
  -3  -2  -1   42.16    3.87
  -3   2  -1   36.93    3.15
   3   2   1   38.52    3.52
   3   2   1   38.69    3.51
   3   2   1   44.17    4.11
  -3   2  -1   39.36    3.17
  -3   2  -1   39.18    3.18
  -3   2  -1   37.69    3.23
  -4  -2  -1    9.80    1.68
  -4  -2  -1    9.48    2.02
   4  -2   1   11.84    1.25
   4  -2   1   12.81    1.25
   4  -2   1   11.64    1.48
  -4  -2  -1   11.11    2.08
   4   2   1   10.64    1.68
   4   2   1    9.83    1.63
  -4   2  -1    9.35    1.06
   4   2   1    8.95    2.04
  -4   2  -1    9.48    0.90
  -5  -2  -1   31.23    3.84
   5  -2   1   37.68    3.07
  -5  -2  -1   31.62    3.41
  -5  -2  -1   35.86    3.49
   5  -2   1   36.63    3.07
   5  -2   1   41.37    3.44
   5   2   1   32.82    3.72
  -5   2  -1   29.76    2.59
  -5   2  -1   30.96    2.61
   5   2   1   29.63    3.06
   5   2   1   29.92    3.09
   6  -2   1   48.79    4.03
  -6  -2  -1   53.45    4.60
  -6  -2  -1   42.37    4.92
  -6  -2  -1   50.69    4.52
   6  -2   1   50.01    4.05
  -6   2  -1   40.84    3.43
   6   2   1   40.52    4.03
   6   2   1   49.64    4.92
  -6   2  -1   40.14    3.43
   6   2   1   42.25    4.09
   7  -2   1   42.22    3.92
   7  -2   1   37.55    3.41
  -7  -2  -1   43.48    4.02
   7  -2   1   38.44    3.45
  -7  -2  -1   42.38    3.94
  -7  -2  -1   33.99    4.37
  -7   2  -1   33.29    2.88
  -7   2  -1   32.52    2.88
   7   2   1   42.23    4.51
   7   2   1   33.16    4.50
   7   2   1   30.41    3.50
   8  -2   1   36.43    3.53
  -8  -2  -1   43.83    4.16
  -8  -2  -1   51.25    4.29
   8  -2   1   34.83    3.53
  -8  -2  -1   32.57    4.36
   8  -2   1   48.72    4.26
   8   2   1   38.22    4.03
   8   2   1   37.85    3.97
  -8   2  -1   34.38    3.16
   8   2   1   46.54    5.05
   9  -2   1    1.14    0.67
  -9  -2  -1    2.62    0.90
   9  -2   1    0.04    0.72
  -9  -2  -1   -0.23    1.15
  -9  -2  -1    0.05    0.83
   9  -2   1    0.88    0.54
   9   2   1    2.06    1.21
  -9   2  -1    0.64    0.48
   9   2   1   -0.02    0.77
   9   2   1    1.89    1.03
  10  -2   1   24.99    3.08
 -10  -2  -1   22.52    2.86
  10  -2   1   17.26    2.35
 -10  -2  -1   19.06    3.19
 -10  -2  -1   24.47    2.83
  10   2   1   27.15    3.79
 -10   2  -1   16.59    1.84
 -10   2  -1   17.25    1.99
  10   2   1   17.91    2.85
  10  -3  -1    3.61    0.72
 -10  -3   1    2.97    1.40
 -10  -3   1    2.95    1.29
  10  -3  -1    2.83    1.16
  10   3  -1    5.84    1.81
  10   3  -1    5.66    1.69
  -9  -3   1    0.57    0.80
  -9  -3   1    1.89    1.06
   9  -3  -1    1.19    0.42
   9  -3  -1    1.36    0.94
   9  -3  -1    1.56    0.64
   9   3  -1    2.61    1.22
   9   3  -1    0.83    1.36
   9   3  -1    1.49    1.22
  -8  -3   1    1.81    1.21
   8  -3  -1    9.68    1.80
   8  -3  -1    4.62    0.84
  -8  -3   1    8.37    2.03
   8  -3  -1    6.70    1.34
  -8  -3   1    5.75    1.48
   8   3  -1    6.58    1.61
   8   3  -1    6.21    1.74
   7  -3  -1   78.29    5.93
   7  -3  -1   78.20    5.95
  -7  -3   1   76.22    6.86
   7  -3  -1   81.37    6.55
  -7  -3   1   72.81    7.53
  -7  -3   1   77.80    6.91
   7   3  -1   66.27    6.18
   7   3  -1   66.30    6.18
   7   3  -1   68.51    6.96
   6  -3  -1   58.72    4.32
  -6  -3   1   48.93    5.62
  -6  -3   1   55.08    5.16
   6  -3  -1   51.24    4.25
  -6  -3   1   53.65    5.10
   6  -3  -1   57.61    4.66
   6   3  -1   45.57    4.33
   6   3  -1   42.24    4.62
   6   3  -1   39.10    4.17
   6   3  -1   43.78    4.97
   5  -3  -1    2.49    0.55
  -5  -3   1    2.30    0.94
  -5  -3   1    3.10    1.04
   5  -3  -1    2.92    0.60
  -5  -3   1    1.46    1.11
   5  -3  -1    2.68    0.76
   5   3  -1    2.80    1.25
   5   3  -1    2.98    1.08
   5   3  -1    1.97    1.18
   5   3  -1    2.42    0.88
   4  -3  -1    0.64    0.30
  -4  -3   1    1.22    0.68
  -4  -3   1    1.33    0.83
   4  -3  -1    0.73    0.53
  -4  -3   1    1.02    0.60
   4  -3  -1    0.71    0.37
   4   3  -1    0.72    0.53
   4   3  -1    0.06    0.64
   4   3  -1    1.73    0.79
   4   3  -1    1.05    0.87
  -3  -3   1   65.13    5.87
  -3  -3   1   70.88    5.90
   3  -3  -1   71.39    5.41
  -3  -3   1   67.94    6.55
   3  -3  -1   68.25    5.45
   3  -3  -1   68.30    5.80
   3  -3  -1   66.11    5.57
  -3  -3   1   64.67    5.81
   3  -3  -1   80.06    6.18
   3   3  -1   62.25    5.40
   3   3  -1   61.18    5.67
   3   3  -1   63.64    6.01
   2  -3  -1   89.49    7.61
  -2  -3   1   96.24    8.42
   2  -3  -1   98.95    7.50
   2  -3  -1   95.77    7.46
  -2  -3   1  103.06    7.90
  -2  -3   1  102.93    7.85
   2  -3  -1   98.64    7.50
   2  -3  -1  101.46    7.50
   2  -3  -1   92.91    7.87
  -2   3   1  100.35    7.87
   2   3  -1   93.28    8.43
  -2   3   1  121.35    7.81
   2   3  -1   98.38    8.79
   1  -3  -1   54.71    4.43
   1  -3  -1   48.71    4.37
   1  -3  -1   52.51    4.86
   1  -3  -1   57.07    4.46
  -1  -3   1   52.20    4.56
  -1  -3   1   54.15    4.61
  -1  -3   1   52.80    4.87
  -1  -3   1   53.02    4.57
   1  -3  -1   50.21    4.58
  -1  -3   1   53.25    5.13
  -1  -3   1   55.68    4.61
   1  -3  -1   49.39    4.37
  -1   3   1   62.53    5.07
   1   3  -1   48.79    5.26
  -1   3   1   65.96    4.89
   1   3  -1   55.40    5.13
   0  -3  -1   59.59    5.15
   0  -3   1   67.12    5.28
   0  -3   1   61.36    5.46
   0  -3   1   72.20    5.91
   0  -3   1   63.17    5.23
   0  -3  -1   62.76    5.70
   0  -3   1   62.60    5.21
   0  -3  -1   50.62    6.40
   0  -3   1   63.67    5.22
   0   3   1   70.56    5.87
   0   3   1   70.95    6.12
   0   3  -1   71.25    5.92
   0   3  -1   69.68    6.51
  -1  -3  -1  133.60   10.29
   1  -3   1  132.52   10.16
  -1  -3  -1  130.14   10.87
  -1  -3  -1  139.90   10.33
   1  -3   1  130.60   10.67
   1  -3   1  137.72   10.18
   1   3   1  134.15   10.65
   1   3   1  131.34   10.63
   1   3   1  145.46   11.22
   1   3   1  128.62   10.80
  -1   3  -1  133.20   10.88
  -1   3  -1  162.39   10.71
  -2  -3  -1   34.06    3.85
   2  -3   1   30.63    3.25
   2  -3   1   39.70    3.14
  -2  -3  -1   32.64    3.29
  -2  -3  -1   31.78    3.25
   2  -3   1   37.07    3.10
   2   3   1   32.61    3.13
   2   3   1   33.44    3.63
  -2   3  -1   31.97    3.11
   2   3   1   30.16    3.28
  -2   3  -1   31.79    2.88
   2   3   1   28.60    3.02
   3  -3   1   16.48    1.72
  -3  -3  -1   15.34    1.98
  -3  -3  -1   14.96    1.97
  -3  -3  -1   14.07    2.40
   3  -3   1   17.17    1.99
   3  -3   1   18.17    1.77
  -3   3  -1   15.93    1.49
   3   3   1   15.45    1.97
  -3   3  -1   14.01    1.62
   3   3   1   14.57    2.37
   3   3   1   13.28    1.81
  -3   3  -1   13.41    1.62
   4  -3   1   14.59    1.54
  -4  -3  -1   10.73    2.43
   4  -3   1   14.06    1.48
  -4  -3  -1   11.61    2.10
  -4  -3  -1   12.52    2.12
   4   3   1    9.51    1.79
   4   3   1   13.41    2.26
   4   3   1   14.04    2.19
  -4   3  -1   10.17    1.30
  -4   3  -1    9.79    1.25
   5  -3   1   23.96    2.15
  -5  -3  -1   18.10    2.49
   5  -3   1   23.58    2.15
  -5  -3  -1   18.11    3.00
   5  -3   1   23.65    2.52
  -5  -3  -1   19.31    2.52
  -5   3  -1   16.49    1.80
   5   3   1   18.02    2.33
   5   3   1   16.44    2.22
  -5   3  -1   17.99    1.84
   5   3   1   22.40    3.11
  -6  -3  -1   98.05   10.32
   6  -3   1  122.92    9.09
   6  -3   1  126.55    9.12
   6  -3   1  124.79    9.56
  -6  -3  -1  119.06    9.84
  -6  -3  -1  126.01    9.93
   6   3   1   96.63    8.43
  -6   3  -1   96.23    7.63
   6   3   1  107.16    9.41
   6   3   1  103.36    8.52
  -6   3  -1  100.09    7.68
  -7  -3  -1  117.27    9.76
  -7  -3  -1  108.38    8.95
   7  -3   1  107.10    8.07
  -7  -3  -1   84.38    9.26
   7  -3   1  110.58    8.61
   7  -3   1  105.03    8.07
   7   3   1   94.96    8.65
   7   3   1   79.61    7.54
  -7   3  -1   84.56    6.64
   7   3   1   87.62    7.66
   8  -3   1    5.76    1.52
  -8  -3  -1    6.13    2.21
   8  -3   1    6.49    1.19
   8  -3   1    7.96    1.52
  -8  -3  -1    6.60    1.62
   8   3   1    4.40    1.29
  -8   3  -1    4.67    1.27
  -8   3  -1    4.26    0.79
   8   3   1    8.08    2.39
   9  -3   1    1.35    0.67
  -9  -3  -1    1.39    0.90
  -9  -3  -1    0.75    0.78
   9  -3   1    0.66    0.88
   9   3   1   -0.16    1.19
  -9   3  -1    0.65    0.43
   9   3   1    2.36    1.34
 -10  -3  -1   21.81    3.45
  10  -3   1   18.69    2.19
 -10  -3  -1   23.38    3.11
  10  -3   1   20.31    2.97
  10   3   1   30.29    4.25
  -9  -4   1    6.25    1.89
   9  -4  -1    0.69    0.97
   9  -4  -1    2.34    0.58
   9   4  -1    2.81    1.45
   9   4  -1    2.52    1.38
   8  -4  -1    7.44    1.03
  -8  -4   1   11.67    2.64
  -8  -4   1    7.81    2.09
  -8  -4   1   10.15    2.21
   8  -4  -1    7.60    1.18
   8  -4  -1    8.38    1.76
   8   4  -1    8.36    2.42
   8   4  -1    5.19    1.81
   7  -4  -1   23.05    2.49
  -7  -4   1   17.59    3.00
  -7  -4   1   12.16    2.48
  -7  -4   1   17.66    2.97
   7  -4  -1   15.85    2.12
   7  -4  -1   16.48    1.69
   7   4  -1   19.13    3.58
   7   4  -1   16.93    3.64
   7   4  -1   17.91    2.94
  -6  -4   1    6.32    2.02
   6  -4  -1    5.42    0.90
   6  -4  -1    4.19    0.89
   6  -4  -1    4.64    1.23
  -6  -4   1    5.36    1.42
  -6  -4   1    3.93    1.23
   6   4  -1    1.12    1.67
   6   4  -1    2.70    1.35
   6   4  -1    3.61    1.62
  -5  -4   1    2.02    0.97
   5  -4  -1    1.33    0.70
  -5  -4   1    2.75    1.09
   5  -4  -1    2.18    0.60
   5  -4  -1    1.83    0.66
  -5  -4   1    1.43    0.79
  -5  -4   1    1.73    1.15
   5  -4  -1    0.69    0.41
   5   4  -1    1.99    0.97
   5   4  -1    2.11    1.14
   5   4  -1    1.05    1.06
   4  -4  -1   18.78    1.98
  -4  -4   1   18.05    3.04
  -4  -4   1   18.60    2.47
  -4  -4   1   17.49    2.39
   4  -4  -1   20.46    2.05
   4  -4  -1   17.81    2.33
   4  -4  -1   18.57    2.08
   4  -4  -1   16.74    2.02
  -4  -4   1   22.46    2.75
   4   4  -1   14.70    3.08
   4   4  -1   14.34    2.35
   3  -4  -1   11.41    1.58
   3  -4  -1   11.94    1.97
  -3  -4   1   10.14    2.06
  -3  -4   1   14.37    2.34
  -3  -4   1   14.95    2.40
  -3  -4   1   13.09    2.81
   3  -4  -1   13.77    1.59
   3  -4  -1    9.28    1.68
   3  -4  -1   11.31    1.79
  -3  -4   1   11.75    2.12
   3  -4  -1   12.88    1.55
   3   4  -1   11.55    2.60
   3   4  -1   13.12    2.58
  -2  -4   1   12.43    2.69
  -2  -4   1    9.77    1.93
  -2  -4   1   11.71    2.04
   2  -4  -1   11.33    1.80
   2  -4  -1   11.99    1.87
  -2  -4   1   10.29    1.92
   2  -4  -1   10.74    2.20
   2  -4  -1   10.33    1.47
  -2  -4   1    9.87    2.34
   2  -4  -1   12.27    1.59
   2  -4  -1   13.40    1.65
   2   4  -1   12.17    2.03
  -2   4   1   13.92    1.51
  -2   4   1   11.63    1.58
   2   4  -1    8.63    2.19
   1  -4  -1    1.49    0.64
  -1  -4   1    2.05    0.81
   1  -4  -1    0.68    0.54
  -1  -4   1    1.91    0.79
  -1  -4   1    1.85    0.75
  -1  -4   1    2.66    0.96
  -1  -4   1    3.51    1.28
  -1  -4   1    1.90    1.06
   1  -4  -1    1.78    0.88
   1  -4  -1    2.21    1.00
   1  -4  -1    0.96    0.62
   1   4  -1    2.44    1.21
  -1   4   1    1.45    0.74
  -1   4   1    1.35    0.89
   0  -4   1   66.97    6.55
   0  -4   1   64.73    6.20
   0  -4  -1   68.34    5.86
   0  -4  -1   66.66    5.84
   0  -4  -1   68.81    5.89
   0  -4   1   71.01    5.92
   0  -4  -1   71.49    5.95
   0  -4   1   64.52    5.83
   0  -4   1   75.40    6.00
   0  -4   1   65.93    5.86
   0  -4  -1   68.11    6.54
   0   4   1   71.70    6.42
   0   4  -1   81.56    6.63
   0   4   1   76.22    6.79
   0   4  -1   73.35    6.87
   1  -4   1   54.75    4.70
   1  -4   1   47.96    4.91
   1  -4   1   51.19    4.68
   1  -4   1   55.26    4.75
  -1  -4  -1   52.86    5.49
  -1  -4  -1   47.80    4.76
  -1  -4  -1   50.90    4.75
   1  -4   1   53.84    4.69
  -1  -4  -1   53.45    4.80
   1  -4   1   52.90    5.34
   1   4   1   54.10    5.60
  -1   4  -1   64.00    5.14
   1   4   1   55.55    5.39
  -1   4  -1   53.64    5.35
  -2  -4  -1   16.75    2.74
   2  -4   1   19.45    2.17
  -2  -4  -1   18.63    2.32
   2  -4   1   18.40    2.46
  -2  -4  -1   19.02    2.35
   2  -4   1   19.97    2.18
   2  -4   1   18.00    2.17
  -2   4  -1   19.69    2.10
   2   4   1   14.25    2.39
   2   4   1   18.61    2.33
   2   4   1   19.36    2.85
   3  -4   1   34.38    3.14
  -3  -4  -1   27.41    4.00
  -3  -4  -1   34.49    3.54
   3  -4   1   34.00    3.14
   3  -4   1   32.03    3.46
  -3  -4  -1   30.25    3.40
  -3   4  -1   30.29    3.05
   3   4   1   28.07    3.64
   3   4   1   33.73    4.11
   3   4   1   34.45    3.55
  -3   4  -1   35.26    2.88
   3   4   1   30.91    3.44
  -4  -4  -1    4.00    1.23
  -4  -4  -1    4.51    1.35
   4  -4   1    4.10    1.30
   4  -4   1    4.36    0.95
  -4  -4  -1    3.66    1.64
   4  -4   1    3.79    0.92
   4   4   1    4.16    1.60
   4   4   1    5.54    1.88
   4   4   1    3.19    1.15
   4   4   1    5.77    1.47
   5  -4   1   11.07    1.83
  -5  -4  -1   10.98    2.86
  -5  -4  -1    9.89    2.10
   5  -4   1   12.68    1.52
  -5  -4  -1   10.37    2.15
   5  -4   1   11.46    1.42
   5   4   1   11.11    2.21
   5   4   1   11.65    2.67
   5   4   1   10.96    2.73
   5   4   1   10.90    2.21
   6  -4   1    1.61    0.61
  -6  -4  -1    2.02    1.17
   6  -4   1    0.53    0.72
   6  -4   1    2.31    0.68
  -6  -4  -1    2.11    0.95
   6   4   1    2.78    1.38
   6   4   1    1.05    0.70
   6   4   1    0.73    1.16
   6   4   1    2.02    1.09
  -7  -4  -1   32.05    3.64
   7  -4   1   26.64    3.24
   7  -4   1   25.80    2.65
   7  -4   1   28.83    2.76
  -7  -4  -1   27.39    3.43
   7   4   1   28.72    4.13
   7   4   1   25.54    3.21
   7   4   1   23.01    3.27
   8  -4   1    3.77    1.03
  -8  -4  -1    4.13    1.75
   8  -4   1    4.89    1.51
  -8  -4  -1    8.73    2.32
   8   4   1    5.83    2.27
   8   4   1    3.67    1.77
  -9  -4  -1    2.43    1.17
  -9  -4  -1    2.30    1.14
   9  -4   1    1.27    1.09
   9  -4   1    3.85    0.93
   9   4   1    0.66    1.34
   8  -5  -1   60.95    4.69
  -8  -5   1   60.91    6.17
   8  -5  -1   56.55    5.48
  -8  -5   1   67.14    6.25
   8  -5  -1   53.41    4.81
   8  -5  -1   51.18    4.54
   8  -5  -1   54.35    4.85
   8   5  -1   59.54    6.94
  -7  -5   1   15.31    3.00
   7  -5  -1   13.39    1.83
  -7  -5   1   14.49    2.79
   7  -5  -1   11.69    2.35
   7  -5  -1   17.09    1.82
   7   5  -1   12.65    3.13
   6  -5  -1   10.13    1.69
   6  -5  -1    9.74    1.72
  -6  -5   1    7.13    2.11
   6  -5  -1    7.41    1.92
  -6  -5   1    8.75    2.01
   6  -5  -1    8.46    1.42
   6   5  -1    8.15    2.58
  -5  -5   1    2.30    1.21
   5  -5  -1    1.37    0.77
   5  -5  -1    2.66    1.20
  -5  -5   1    0.75    1.19
   5  -5  -1    3.52    0.82
   5  -5  -1    1.74    0.76
   5  -5  -1    2.06    0.84
  -5  -5   1    3.87    1.30
  -5  -5   1    3.58    1.52
   5   5  -1    2.85    1.72
   5   5  -1    3.74    2.26
   4  -5  -1   12.88    1.80
  -4  -5   1   10.85    2.34
  -4  -5   1   15.27    2.58
   4  -5  -1    9.85    1.84
  -4  -5   1   14.35    2.60
  -4  -5   1   16.26    3.45
   4  -5  -1   13.19    2.16
  -4  -5   1   15.00    2.79
   4  -5  -1   14.50    1.92
   4   5  -1   16.32    3.75
   3  -5  -1    8.37    1.57
  -3  -5   1    7.21    1.79
   3  -5  -1    6.00    1.49
   3  -5  -1    9.36    1.62
   3  -5  -1    8.34    2.23
  -3  -5   1    6.53    1.78
   3  -5  -1    9.34    2.15
  -3  -5   1    6.11    1.66
   3  -5  -1    7.36    1.59
  -3  -5   1    3.70    1.28
   3   5  -1    9.30    2.29
   3   5  -1   10.61    2.68
  -2  -5   1    8.17    1.87
   2  -5  -1    6.12    1.41
   2  -5  -1    6.10    1.80
  -2  -5   1    7.73    1.74
  -2  -5   1    5.60    1.57
   2  -5  -1    5.18    1.81
   2  -5  -1    7.01    1.51
   2  -5  -1    6.23    1.49
  -2  -5   1    8.74    2.27
  -2  -5   1    6.54    1.61
   2  -5  -1    7.16    1.58
  -2   5   1    6.69    1.27
   2   5  -1    8.93    2.03
   2   5  -1    5.80    1.80
  -1  -5   1   98.74    8.61
  -1  -5   1  106.00    8.74
   1  -5  -1  107.69    8.54
   1  -5  -1   97.71    8.43
   1  -5  -1  104.73    8.51
  -1  -5   1   91.47    8.50
  -1  -5   1  101.22    9.56
   1  -5  -1   98.01    9.26
  -1  -5   1  106.16    8.72
   1  -5  -1  106.64    8.55
  -1   5   1  120.29    9.53
  -1   5   1  120.49    9.16
   1   5  -1  103.85    9.92
   1   5  -1  107.14    9.56
   0  -5  -1   50.56    4.97
   0  -5   1   57.75    5.15
   0  -5   1   51.14    5.73
   0  -5  -1   55.77    5.84
   0  -5   1   46.28    5.34
   0  -5  -1   51.06    4.95
   0  -5   1   49.51    4.95
   0  -5  -1   57.70    5.13
   0  -5   1   49.13    4.96
   0  -5  -1   49.61    4.91
   0  -5   1   56.49    5.12
   0   5  -1   48.68    5.57
   0   5   1   54.99    5.33
   0   5  -1   59.37    5.46
   0   5   1   63.19    5.81
  -1  -5  -1    2.25    1.08
  -1  -5  -1    3.99    1.21
   1  -5   1    3.35    1.46
   1  -5   1    4.81    1.37
   1  -5   1    4.84    1.25
  -1  -5  -1    3.24    1.10
  -1  -5  -1    3.81    1.56
   1  -5   1    1.66    0.92
  -1  -5  -1    2.95    1.15
   1  -5   1    3.06    1.08
   1   5   1    2.62    1.27
  -1   5  -1    3.21    1.33
   1   5   1    6.32    1.80
  -1   5  -1    5.87    1.64
   2  -5   1    0.86    0.76
   2  -5   1    0.95    0.90
   2  -5   1    2.11    0.84
  -2  -5  -1    2.23    1.26
  -2  -5  -1    1.53    0.92
   2  -5   1    1.91    0.82
  -2  -5  -1   -0.66    0.98
   2  -5   1    0.66    0.71
  -2  -5  -1    0.72    0.96
   2   5   1    1.38    1.07
  -2   5  -1    2.53    1.05
  -2   5  -1    1.30    0.95
   2   5   1    0.63    0.97
  -3  -5  -1   12.03    2.79
  -3  -5  -1   14.37    2.57
   3  -5   1   14.53    3.57
   3  -5   1   13.27    2.32
  -3  -5  -1   13.97    2.65
  -3  -5  -1   14.30    2.61
   3  -5   1   18.31    2.17
   3  -5   1   16.25    2.04
   3  -5   1   13.92    2.37
  -3   5  -1   16.06    1.71
  -3   5  -1   12.78    1.80
   3   5   1   17.02    3.42
   3   5   1   15.90    2.58
  -4  -5  -1    1.09    1.10
  -4  -5  -1    1.14    0.82
  -4  -5  -1    1.43    0.91
   4  -5   1    0.03    0.72
   4  -5   1    1.30    0.60
   4  -5   1    0.39    0.62
  -4  -5  -1    2.45    1.08
   4  -5   1    0.43    0.61
   4  -5   1    0.78    0.66
   4   5   1    1.40    0.94
   4   5   1    1.34    1.07
  -5  -5  -1    6.89    1.98
   5  -5   1   12.51    1.86
   5  -5   1   10.15    1.69
   5  -5   1    9.35    2.20
  -5  -5  -1    6.60    1.86
  -5  -5  -1   11.81    2.48
   5  -5   1    8.85    1.71
   5   5   1    9.06    2.63
  -6  -5  -1    4.64    1.68
  -6  -5  -1    5.79    1.63
   6  -5   1    4.24    1.08
   6  -5   1    3.69    1.47
   6  -5   1    5.12    1.23
   6   5   1    3.16    1.57
  -7  -5  -1   18.90    3.35
   7  -5   1   14.90    2.63
  -7  -5  -1   20.17    3.50
   7  -5   1   21.14    2.23
   7   5   1   21.92    3.77
   6  -6  -1    8.51    1.56
   6  -6  -1    6.69    1.60
   6  -6  -1    8.43    1.59
  -6  -6   1    6.86    1.97
  -6  -6   1    2.89    1.69
   6   6  -1    6.12    2.11
   5  -6  -1   -0.02    0.74
   5  -6  -1    0.95    0.86
   5  -6  -1    0.00    0.71
  -5  -6   1   -0.02    1.12
   5  -6  -1   -0.20    0.56
   5  -6  -1    2.25    1.39
  -5  -6   1    0.88    1.00
   5   6  -1    0.63    1.32
   4  -6  -1    4.61    1.84
  -4  -6   1    2.50    1.08
   4  -6  -1    3.56    1.21
  -4  -6   1    2.81    1.38
  -4  -6   1    3.03    1.49
   4  -6  -1    4.82    1.40
   4  -6  -1    1.76    1.09
   4   6  -1    3.67    1.67
  -3  -6   1    7.83    2.00
   3  -6  -1    5.97    1.45
   3  -6  -1    5.45    1.46
  -3  -6   1    8.94    2.12
   3  -6  -1    6.30    1.78
  -3  -6   1    8.04    1.93
   3  -6  -1    6.35    1.59
   3  -6  -1    7.66    2.72
   3   6  -1    6.63    2.16
  -2  -6   1   16.28    3.05
   2  -6  -1   19.90    2.64
   2  -6  -1   21.68    2.76
   2  -6  -1   17.77    2.52
   2  -6  -1   20.70    2.68
  -2  -6   1   17.81    3.22
  -2  -6   1   17.54    3.04
  -2   6   1   25.05    2.85
  -2   6   1   21.58    2.42
   2   6  -1   19.08    3.41
   2   6  -1   23.04    3.74
   1  -6  -1   36.23    3.96
  -1  -6   1   35.91    4.11
  -1  -6   1   39.89    4.30
   1  -6  -1   34.76    3.96
  -1  -6   1   35.57    4.12
   1  -6  -1   35.60    3.98
  -1  -6   1   27.00    3.92
   1  -6  -1   38.65    4.14
   1   6  -1   32.67    4.52
   1   6  -1   41.40    4.48
   0  -6   1    9.78    2.32
   0  -6  -1    8.42    1.95
   0  -6   1    7.92    1.82
   0  -6   1    6.91    1.81
   0  -6   1    8.14    1.93
   0  -6  -1   10.16    2.13
   0  -6  -1   10.09    2.15
   0  -6  -1    8.86    2.20
   0   6   1    7.68    1.98
   0   6  -1    9.30    2.34
   0   6  -1    7.95    1.94
   0   6   1    7.71    1.84
  -1  -6  -1   28.06    3.27
   1  -6   1   21.31    2.94
   1  -6   1   20.26    3.50
   1  -6   1   22.86    2.98
  -1  -6  -1   20.42    2.88
   1  -6   1   23.17    3.02
  -1  -6  -1   25.34    3.14
   1  -6   1   20.05    2.86
  -1  -6  -1   17.56    3.18
  -1   6  -1   22.50    3.09
   1   6   1   18.63    3.41
  -1   6  -1   20.04    2.97
   1   6   1   21.31    3.36
  -2  -6  -1    2.18    1.25
   2  -6   1    1.08    0.91
   2  -6   1    0.58    0.93
   2  -6   1    4.09    1.34
  -2  -6  -1    2.92    1.19
   2  -6   1    4.40    1.41
   2  -6   1    1.75    1.26
  -2  -6  -1    2.60    1.19
  -2  -6  -1    2.73    1.32
   2   6   1    0.63    2.03
  -2   6  -1    0.14    0.91
   2   6   1    3.17    1.69
  -2   6  -1    0.47    1.13
   3  -6   1    2.49    1.18
   3  -6   1    6.12    2.11
  -3  -6  -1    6.18    1.62
   3  -6   1    4.13    1.32
  -3  -6  -1    6.63    1.83
  -3  -6  -1    3.47    1.38
   3  -6   1    5.91    1.58
   3   6   1    9.94    2.34
   3   6   1    6.84    2.41
  -3   6  -1    7.10    1.60
  -3   6  -1    4.18    0.92
   4  -6   1    4.66    1.89
  -4  -6  -1    2.57    1.22
   4  -6   1    2.15    0.99
  -4  -6  -1    5.10    1.52
   4  -6   1    3.05    1.20
   4  -6   1    8.01    1.44
   4   6   1    6.38    2.20
  -5  -6  -1   13.21    2.49
   5  -6   1   12.50    2.15
   5  -6   1    8.08    1.78
  -5  -6  -1   11.59    2.48
   5  -6   1    8.81    2.39
   5  -6   1   11.50    2.13
   5   6   1   22.17    3.62
  -1   7   1   -1.68    1.67
   1   7  -1    5.42    3.23
   0  -7  -1   16.36    3.24
   0  -7   1   24.46    3.27
   0  -7  -1   25.00    3.31
   0  -7   1   24.61    3.31
   0   7  -1   19.75    4.52
   0   7   1   28.17    3.80
   0   7  -1   26.54    3.75
 -12   0   2   30.08    2.91
  12   0  -2   37.50    4.46
 -11   0   2    8.96    1.59
  11   0  -2    6.03    1.46
 -11   0   2    5.67    1.02
  11   0  -2    9.06    2.19
 -11   0   2    6.85    1.32
 -10   0   2   20.42    1.87
  10   0  -2   16.38    2.23
  10   0  -2   21.99    2.95
 -10   0   2   18.64    1.88
  10   0  -2   16.81    2.13
  -9   0   2   13.76    1.53
   9   0  -2   12.43    1.78
   9   0  -2   14.73    2.38
  -9   0   2   17.88    1.63
   9   0  -2   14.94    1.79
  -8   0   2  120.23    8.26
  -8   0   2  114.87    8.19
   8   0  -2  111.37    9.15
   8   0  -2  101.35    8.46
   8   0  -2   97.03    8.44
  -7   0   2  137.51    9.22
   7   0  -2  115.20    9.40
   7   0  -2  116.19    9.92
  -7   0   2  132.48    9.24
   7   0  -2  118.62    9.42
   6   0  -2    2.94    0.91
   6   0  -2    2.49    0.65
  -6   0   2    2.70    0.57
  -6   0   2    2.94    0.59
  -5   0   2   12.93    1.36
   5   0  -2   12.57    1.56
   5   0  -2   12.08    1.34
  -5   0   2   15.55    1.31
   5   0  -2   13.36    1.36
  -4   0   2   33.12    2.44
   4   0  -2   27.50    2.61
  -4   0   2   33.36    2.43
   4   0  -2   29.66    2.47
   4   0  -2   27.88    2.46
   3   0  -2   12.32    1.15
  -3   0   2   13.11    1.15
  -3   0   2   13.95    1.14
   3   0  -2   12.37    1.23
   3   0  -2   13.14    1.16
  -2   0   2   19.12    1.48
  -2   0   2   19.58    1.48
   2   0  -2   17.94    1.49
  -1   0   2   39.85    3.17
   1   0  -2   39.51    3.18
  -1   0   2   49.62    3.14
   0   0  -2    2.20    0.34
   0   0  -2    2.15    0.35
   0   0  -2    2.42    0.49
   0   0   2    2.05    0.35
   0   0   2    2.33    0.36
   0   0   2    2.48    0.39
   1   0   2  433.52   31.20
  -1   0  -2  441.46   31.19
  -1   0  -2  451.09   31.19
   2   0   2   17.45    1.76
  -2   0  -2   15.62    1.69
  -2   0  -2   16.67    1.51
   2   0   2   17.76    1.56
  -2   0  -2   17.06    1.51
   2   0   2   17.00    1.54
   3   0   2  241.60   17.69
  -3   0  -2  259.29   17.64
   3   0   2  249.13   17.69
  -3   0  -2  208.77   17.84
  -3   0  -2  262.87   17.66
   3   0   2  252.89   18.05
   4   0   2  508.02   37.49
  -4   0  -2  540.78   37.40
  -4   0  -2  540.66   37.42
   4   0   2  499.73   37.48
   4   0   2  545.17   37.97
   5   0   2    1.16    0.47
  -5   0  -2    0.64    0.49
   5   0   2    0.80    0.60
   5   0   2    0.32    0.35
  -5   0  -2    0.52    0.32
  -5   0  -2    1.39    0.41
  -6   0  -2   14.48    1.58
   6   0   2   16.20    2.21
   6   0   2   15.35    1.74
   6   0   2   12.64    1.66
  -6   0  -2   15.64    1.64
  -6   0  -2   11.70    1.82
   7   0   2   -0.72    0.37
  -7   0  -2   -0.51    0.56
  -7   0  -2   -0.02    0.33
   7   0   2    0.44    0.61
   7   0   2   -0.60    0.36
   8   0   2   66.64    5.85
   8   0   2   55.86    4.97
  -8   0  -2   60.95    4.75
  -8   0  -2   46.42    4.84
   8   0   2   49.87    4.86
  -9   0  -2   10.23    1.50
  -9   0  -2    6.62    1.29
   9   0   2    8.74    1.78
   9   0   2    8.58    2.16
   9   0   2    8.66    1.67
  -9   0  -2   10.32    1.64
 -10   0  -2    2.35    0.90
  10   0   2    0.38    1.29
 -10   0  -2    2.41    0.75
  10   0   2    2.73    1.50
  10   0   2    2.28    1.10
  11   0   2   -0.86    0.94
 -11   0  -2    0.30    0.73
 -11  -1   2   22.56    2.37
 -11  -1   2   23.58    2.55
  11  -1  -2   20.26    2.92
 -11   1   2   17.81    1.65
 -11   1   2   21.45    1.79
  11   1  -2   22.27    3.31
  11   1  -2   14.78    2.62
  10  -1  -2    2.15    0.90
  10  -1  -2    0.71    0.63
  10  -1  -2    1.62    0.73
 -10  -1   2    2.40    0.70
 -10  -1   2    4.25    1.07
 -10   1   2    1.14    0.36
 -10   1   2    2.38    0.42
  10   1  -2    3.37    1.13
  10   1  -2    3.11    1.26
 -10   1   2    1.10    0.43
  10   1  -2    2.35    0.91
   9  -1  -2   25.59    2.97
  -9  -1   2   30.78    2.85
   9  -1  -2   21.97    2.47
  -9  -1   2   29.51    2.88
   9  -1  -2   26.11    2.48
   9   1  -2   27.78    2.99
  -9   1   2   26.22    2.07
   9   1  -2   25.83    2.92
  -9   1   2   23.39    2.16
   9   1  -2   23.93    3.38
  -8  -1   2   92.12    6.94
   8  -1  -2   75.16    6.56
   8  -1  -2   80.27    6.62
   8  -1  -2   87.85    7.16
  -8  -1   2   97.04    7.00
  -8   1   2   84.62    6.08
   8   1  -2   79.42    6.86
   8   1  -2   81.11    6.87
   8   1  -2   85.65    7.62
  -7  -1   2   70.37    5.06
   7  -1  -2   53.31    4.57
   7  -1  -2   60.50    5.01
   7  -1  -2   54.08    4.59
  -7   1   2   56.27    4.31
   7   1  -2   56.88    4.97
   7   1  -2   57.45    5.52
  -7   1   2   61.60    4.28
   7   1  -2   54.37    4.94
  -6  -1   2   70.94    5.25
   6  -1  -2   63.56    4.82
   6  -1  -2   59.18    4.79
   6  -1  -2   60.99    5.07
   6   1  -2   57.12    5.00
  -6   1   2   64.58    4.39
   6   1  -2   56.55    4.99
   6   1  -2   51.26    5.34
  -6   1   2   64.89    4.42
  -5  -1   2   63.02    5.23
   5  -1  -2   55.57    4.46
  -5  -1   2   62.01    4.88
   5  -1  -2   60.46    4.49
   5  -1  -2   57.88    4.62
  -5  -1   2   63.87    4.92
  -5   1   2   62.33    4.08
   5   1  -2   53.40    4.65
   5   1  -2   51.05    5.00
   5   1  -2   55.84    4.68
  -4  -1   2   11.36    1.32
  -4  -1   2   13.83    1.63
   4  -1  -2   10.15    0.89
  -4  -1   2   14.10    1.42
   4  -1  -2   12.83    0.99
   4  -1  -2   11.68    0.98
   4   1  -2    9.99    1.21
   4   1  -2   10.80    1.25
   4   1  -2    9.51    1.44
  -3  -1   2  113.32    8.70
  -3  -1   2  104.03    8.36
  -3  -1   2  102.45    8.37
  -3  -1   2  109.28    8.39
   3  -1  -2  127.51    7.93
   3   1  -2   97.78    7.49
   3   1  -2  105.96    7.54
   3   1  -2   95.35    7.78
  -2  -1   2   48.00    3.80
   2  -1  -2   48.37    3.45
  -2  -1   2   46.58    3.78
   2  -1  -2   48.38    3.45
  -2  -1   2   48.03    3.80
  -2  -1   2   47.10    3.78
   2   1  -2   49.19    4.05
   2   1  -2   46.29    3.91
   1  -1  -2  363.56   22.66
   1  -1  -2  317.00   22.58
  -1  -1   2  311.73   22.75
  -1  -1   2  301.33   22.89
  -1  -1   2  303.10   22.74
   1  -1  -2  320.37   22.59
   1   1  -2  305.26   21.35
  -1   1   2  299.73   21.01
  -1   1   2  306.85   21.02
   1   1  -2  282.67   21.17
   1   1  -2  289.29   21.18
   1   1  -2  299.87   21.45
  -1  -1  -2  253.44   18.99
  -1  -1  -2  247.03   18.98
   1  -1   2  278.58   18.93
   1  -1   2  283.54   18.94
   1  -1   2  295.34   19.13
  -1  -1  -2  234.31   19.20
  -1   1  -2  250.61   17.40
  -1   1  -2  247.80   17.40
   1   1   2  232.19   17.46
   1   1   2  256.43   17.76
   1   1   2  231.28   17.46
  -2  -1  -2   31.05    2.77
  -2  -1  -2   30.86    2.77
   2  -1   2   34.37    2.67
   2  -1   2   34.35    2.66
  -2  -1  -2   27.26    2.98
   2  -1   2   37.31    2.91
   2   1   2   28.58    2.55
  -2   1  -2   30.56    2.41
   2   1   2   25.79    2.50
  -2   1  -2   29.45    2.40
   2   1   2   28.20    2.84
  -2   1  -2   32.17    2.57
  -3  -1  -2   95.33    7.63
   3  -1   2  106.31    7.50
   3  -1   2  106.34    7.50
  -3  -1  -2   84.78    7.93
  -3  -1  -2   97.45    7.64
   3  -1   2  111.06    7.80
  -3   1  -2   90.31    6.90
   3   1   2   96.81    7.47
   3   1   2   83.47    6.93
   3   1   2   90.74    6.98
   4  -1   2  238.76   17.14
   4  -1   2  253.82   17.53
  -4  -1  -2  232.45   17.32
   4  -1   2  235.22   17.14
  -4  -1  -2  223.78   17.28
   4   1   2  216.80   15.76
  -4   1  -2  183.88   14.97
  -4   1  -2  219.23   14.86
   4   1   2  199.51   15.15
   4   1   2  209.16   15.19
   5  -1   2   21.18    2.08
   5  -1   2   25.00    2.56
   5  -1   2   22.48    2.10
  -5  -1  -2   23.47    2.27
  -5  -1  -2   15.56    2.38
  -5  -1  -2   21.43    2.22
   5   1   2   20.11    2.61
  -5   1  -2   19.86    1.81
   5   1   2   21.60    2.20
   5   1   2   18.44    2.10
  -5   1  -2   17.05    1.95
  -5   1  -2   19.90    1.83
   6  -1   2   30.26    2.79
  -6  -1  -2   22.07    3.07
   6  -1   2   33.15    3.26
  -6  -1  -2   32.56    2.94
   6  -1   2   29.95    2.77
  -6  -1  -2   28.78    2.88
   6   1   2   22.36    2.71
  -6   1  -2   24.42    2.55
   6   1   2   30.47    3.49
   6   1   2   25.53    2.80
  -6   1  -2   31.88    2.52
  -6   1  -2   28.72    2.45
   7  -1   2   31.93    3.33
  -7  -1  -2   22.55    3.21
  -7  -1  -2   30.27    2.96
   7  -1   2   29.96    2.82
  -7  -1  -2   29.64    2.88
   7  -1   2   27.18    2.77
   7   1   2   22.13    2.69
   7   1   2   25.93    2.81
  -7   1  -2   29.71    2.46
   7   1   2   28.93    3.52
  -7   1  -2   22.67    2.35
  -7   1  -2   25.88    2.62
   8  -1   2    2.65    0.73
  -8  -1  -2    1.84    0.76
  -8  -1  -2    3.27    1.00
   8  -1   2    2.30    1.17
   8  -1   2    0.76    0.62
   8   1   2    1.59    0.83
   8   1   2    2.67    1.32
  -8   1  -2    1.99    0.68
   8   1   2    3.24    0.98
  -8   1  -2    2.71    0.71
  -9  -1  -2   -0.08    0.56
   9  -1   2    1.16    0.71
   9  -1   2    1.68    1.01
   9  -1   2    2.57    0.94
  -9  -1  -2    1.15    0.72
   9   1   2    2.26    0.81
   9   1   2    2.78    1.50
  -9   1  -2    1.72    0.65
   9   1   2    1.53    1.01
  -9   1  -2    2.30    0.70
 -10  -1  -2    6.18    1.49
 -10  -1  -2    6.23    2.30
  10  -1   2    2.85    1.12
  10  -1   2    2.80    1.22
  10  -1   2    5.24    1.75
 -10  -1  -2    7.40    1.61
 -10   1  -2    5.77    1.12
  10   1   2    5.17    1.87
  10   1   2    8.24    1.61
 -10   1  -2    6.23    1.11
  11  -1   2   11.44    2.75
  11  -1   2   11.40    2.11
 -11  -1  -2   10.50    2.04
 -11   1  -2    8.66    1.52
  11   1   2   13.28    3.15
  11  -2  -2    6.01    1.26
  11  -2  -2    7.77    1.73
 -11  -2   2    5.72    1.55
  11  -2  -2    7.12    1.20
  11   2  -2    6.78    1.95
  11   2  -2    4.67    1.68
  11   2  -2    4.86    1.61
  10  -2  -2    7.35    1.29
 -10  -2   2    5.68    1.51
  10  -2  -2    9.83    1.67
 -10  -2   2    8.75    1.74
  10  -2  -2    7.68    1.08
  10   2  -2    8.05    2.32
  10   2  -2    8.34    1.92
  10   2  -2   11.03    2.05
   9  -2  -2    0.91    0.43
  -9  -2   2    1.83    0.77
   9  -2  -2    1.99    0.70
   9  -2  -2    0.62    0.38
  -9  -2   2    1.46    0.77
   9   2  -2    1.12    1.34
   9   2  -2    1.01    0.75
   9   2  -2    1.61    0.79
  -8  -2   2    3.28    0.98
   8  -2  -2    2.84    0.62
   8  -2  -2    4.37    1.02
   8  -2  -2    4.51    0.99
  -8  -2   2    3.78    1.20
   8   2  -2    3.66    1.43
   8   2  -2    3.71    1.05
   8   2  -2    2.44    1.11
  -7  -2   2   56.00    5.49
   7  -2  -2   50.86    4.27
   7  -2  -2   64.18    4.69
  -7  -2   2   58.90    5.25
   7  -2  -2   53.17    4.30
  -7  -2   2   55.08    5.00
   7   2  -2   52.03    4.60
   7   2  -2   44.66    5.05
   7   2  -2   48.60    4.53
   6  -2  -2   43.66    3.33
  -6  -2   2   37.28    3.73
   6  -2  -2   40.71    3.09
  -6  -2   2   43.06    3.86
   6  -2  -2   35.82    3.05
  -6  -2   2   38.21    4.27
   6   2  -2   32.07    3.38
   6   2  -2   38.59    4.10
   6   2  -2   33.00    3.37
   5  -2  -2   27.92    2.16
  -5  -2   2   23.39    2.72
  -5  -2   2   23.53    2.70
   5  -2  -2   30.62    2.32
   5  -2  -2   28.39    2.18
  -5  -2   2   26.86    3.22
   5   2  -2   21.71    2.88
   5   2  -2   25.43    2.56
   5   2  -2   24.11    2.55
  -4  -2   2   28.98    3.02
   4  -2  -2   28.19    2.61
   4  -2  -2   35.90    2.53
   4  -2  -2   38.97    2.61
  -4  -2   2   28.68    3.42
  -4  -2   2   26.93    3.01
   4  -2  -2   35.00    2.51
  -4  -2   2   31.61    3.11
   4   2  -2   23.57    2.87
   4   2  -2   29.76    2.78
   4   2  -2   29.53    2.77
   4   2  -2   27.18    3.12
   3  -2  -2    4.97    0.59
   3  -2  -2    3.93    0.52
  -3  -2   2    2.10    0.73
  -3  -2   2    3.49    0.83
   3  -2  -2    3.83    0.53
  -3  -2   2    4.02    0.97
   3  -2  -2    4.13    0.60
   3  -2  -2    3.67    0.69
  -3  -2   2    3.55    1.15
   3  -2  -2    3.89    0.50
   3   2  -2    4.36    0.99
   3   2  -2    5.66    1.30
  -2  -2   2   86.06    6.63
  -2  -2   2   82.48    6.61
   2  -2  -2   82.12    6.33
  -2  -2   2   85.21    6.88
   2  -2  -2   83.36    6.27
  -2  -2   2   92.33    7.18
  -2  -2   2   82.79    6.61
   2  -2  -2   83.70    6.46
   2  -2  -2   80.58    6.27
  -2  -2   2   87.44    6.66
   2  -2  -2   84.18    6.28
   2   2  -2   83.08    6.94
   2   2  -2   82.55    6.72
   1  -2  -2   71.11    6.11
  -1  -2   2   74.67    6.18
   1  -2  -2   77.02    6.28
  -1  -2   2   82.77    6.25
  -1  -2   2   82.22    6.68
   1  -2  -2   83.95    6.06
  -1  -2   2   81.79    6.47
   1  -2  -2   79.18    6.04
  -1  -2   2   88.04    6.30
  -1   2   2   79.88    6.27
   1   2  -2   75.05    6.76
   1   2  -2   82.63    6.66
  -1   2   2   87.78    6.29
  -1   2   2   89.16    6.33
   0  -2   2  466.33   33.39
   0  -2  -2  464.52   33.12
   0  -2  -2  455.35   33.47
   0  -2   2  481.23   33.17
   0  -2   2  457.04   33.13
   0  -2  -2  467.15   33.13
   0   2  -2  519.42   32.57
   0   2   2  460.29   32.29
   0   2   2  491.50   32.57
   0   2   2  460.05   32.29
   0   2  -2  416.66   32.27
   0   2  -2  409.00   32.25
   0   2   2  428.36   32.37
   0   2  -2  440.35   32.68
  -1  -2  -2   15.60    2.06
  -1  -2  -2   17.88    1.84
   1  -2   2   18.57    1.95
   1  -2   2   19.69    1.78
   1  -2   2   17.24    1.72
  -1   2  -2   16.32    1.61
  -1   2  -2   14.67    1.83
  -1   2  -2   16.26    1.61
   1   2   2   16.59    1.97
   1   2   2   16.44    1.70
   1   2   2   15.25    1.65
  -2  -2  -2   29.44    2.89
  -2  -2  -2   25.11    3.14
   2  -2   2   32.85    2.73
   2  -2   2   34.97    2.76
   2  -2   2   34.84    2.99
  -2  -2  -2   32.20    2.94
   2   2   2   32.38    3.28
   2   2   2   27.35    2.75
  -2   2  -2   30.65    2.61
  -2   2  -2   27.78    2.58
  -2   2  -2   26.41    2.79
  -2   2  -2   35.43    2.74
   2   2   2   30.08    2.81
  -3  -2  -2   28.69    3.54
  -3  -2  -2   35.52    3.61
  -3  -2  -2   30.59    3.19
   3  -2   2   38.81    3.31
   3  -2   2   39.02    3.02
   3  -2   2   37.50    3.01
   3   2   2   25.48    2.76
  -3   2  -2   31.05    2.60
   3   2   2   27.63    2.81
  -3   2  -2   29.24    2.75
   3   2   2   32.43    3.37
  -3   2  -2   28.31    2.54
  -4  -2  -2   30.66    3.11
   4  -2   2   33.15    2.82
   4  -2   2   34.57    3.16
  -4  -2  -2   29.33    3.10
   4  -2   2   31.97    2.80
  -4   2  -2   26.14    2.47
  -4   2  -2   27.21    2.35
   4   2   2   26.55    3.17
   4   2   2   26.33    2.70
  -4   2  -2   25.46    2.33
   4   2   2   25.68    2.71
  -4   2  -2   25.44    2.33
  -5  -2  -2   71.79    6.32
  -5  -2  -2   65.08    7.25
   5  -2   2   82.68    6.79
  -5  -2  -2   73.00    6.31
   5  -2   2   74.50    5.93
   5  -2   2   84.02    6.00
   5   2   2   66.69    6.06
  -5   2  -2   57.92    4.75
   5   2   2   58.19    5.27
  -5   2  -2   61.78    4.80
   5   2   2   59.84    5.28
  -5   2  -2   58.38    4.72
  -6  -2  -2   89.96    7.30
  -6  -2  -2   68.59    7.54
   6  -2   2   84.69    6.79
  -6  -2  -2   92.22    7.30
   6  -2   2   84.73    6.78
   6  -2   2  101.41    7.40
   6   2   2   73.55    6.42
   6   2   2   68.74    6.85
  -6   2  -2   72.65    5.76
  -6   2  -2   72.06    5.73
   6   2   2   81.79    7.27
   7  -2   2   45.59    4.01
   7  -2   2   52.70    4.61
  -7  -2  -2   43.16    4.33
  -7  -2  -2   36.78    4.71
   7  -2   2   44.58    3.95
  -7  -2  -2   51.76    4.54
   7   2   2   48.15    4.96
   7   2   2   35.59    3.94
  -7   2  -2   34.68    3.26
   7   2   2   38.44    3.96
  -7   2  -2   39.01    3.33
   8  -2   2    2.51    1.03
   8  -2   2    2.77    0.79
  -8  -2  -2    2.37    1.48
  -8  -2  -2    1.94    1.04
  -8  -2  -2    4.02    1.18
   8  -2   2    1.98    0.80
   8   2   2    0.79    1.08
   8   2   2    2.22    0.96
  -8   2  -2    0.73    0.51
   8   2   2    3.39    1.25
  -8   2  -2    1.16    0.50
  -9  -2  -2    1.11    0.86
   9  -2   2    0.09    0.68
   9  -2   2    0.64    0.77
   9  -2   2    0.51    0.56
  -9  -2  -2    1.16    0.86
  -9  -2  -2    2.36    1.28
  -9   2  -2    1.14    0.54
   9   2   2    1.82    1.39
  -9   2  -2   -0.11    0.41
   9   2   2    1.36    1.21
   9   2   2    0.28    0.92
  10  -2   2   32.16    3.59
  10  -2   2   48.46    4.65
 -10  -2  -2   39.64    4.15
 -10  -2  -2   42.84    4.20
  10  -2   2   31.21    3.52
 -10  -2  -2   37.85    4.71
 -10   2  -2   28.05    3.43
 -10   2  -2   23.21    2.62
  10   2   2   27.99    3.43
  10   2   2   32.92    3.93
  10  -3  -2    1.10    0.35
  10  -3  -2    0.56    0.45
 -10  -3   2   -1.70    0.62
 -10  -3   2   -1.62    0.81
  10  -3  -2   -0.01    0.70
  10   3  -2    1.95    1.43
  10   3  -2    0.74    0.96
  10   3  -2   -1.24    1.09
   9  -3  -2    0.47    0.41
  -9  -3   2    0.74    0.86
   9  -3  -2    1.41    0.39
  -9  -3   2   -1.57    0.74
   9  -3  -2    0.63    0.67
   9   3  -2   -0.47    0.79
   9   3  -2   -1.48    1.08
   9   3  -2    0.49    0.96
  -8  -3   2   82.51    8.14
  -8  -3   2   71.98    7.36
  -8  -3   2   87.92    7.52
   8  -3  -2   82.27    6.33
  -8  -3   2   95.20    7.60
   8  -3  -2   78.21    6.28
   8  -3  -2   94.98    6.84
   8   3  -2   69.27    6.91
   8   3  -2   81.93    7.95
   8   3  -2   80.67    7.06
  -7  -3   2   75.59    6.24
  -7  -3   2   54.00    5.91
   7  -3  -2   63.54    4.99
  -7  -3   2   61.78    6.65
   7  -3  -2   72.43    5.43
  -7  -3   2   70.54    6.14
   7   3  -2   58.52    6.07
   7   3  -2   59.50    5.38
   7   3  -2   48.55    5.51
   7   3  -2   55.38    5.31
  -6  -3   2   -0.23    0.85
   6  -3  -2    1.20    0.38
  -6  -3   2    1.34    0.74
  -6  -3   2    0.54    0.63
   6  -3  -2    0.73    0.51
  -6  -3   2    1.01    0.73
   6  -3  -2    0.69    0.27
   6   3  -2   -0.52    0.98
   6   3  -2    0.92    0.66
   6   3  -2    1.22    0.93
   6   3  -2    0.83    0.72
  -5  -3   2   12.94    2.19
  -5  -3   2   12.67    2.19
  -5  -3   2   13.37    2.38
  -5  -3   2   13.11    2.20
   5  -3  -2   14.37    1.59
   5  -3  -2   14.19    1.35
   5  -3  -2   15.98    1.40
   5   3  -2   12.80    2.25
   5   3  -2   14.58    2.44
   5   3  -2   16.63    2.93
   4  -3  -2    5.10    1.07
  -4  -3   2    4.33    1.18
   4  -3  -2    4.22    0.81
   4  -3  -2    4.57    0.76
   4  -3  -2    3.89    0.86
  -4  -3   2    3.93    1.12
   4  -3  -2    4.52    0.75
  -4  -3   2    3.37    1.07
  -4  -3   2    4.58    1.58
   4  -3  -2    4.54    0.83
   4   3  -2    3.74    1.30
   4   3  -2    4.28    1.42
   4   3  -2    4.46    1.17
   3  -3  -2   98.44    7.87
   3  -3  -2   95.53    8.06
   3  -3  -2  102.88    7.75
   3  -3  -2  105.74    7.73
  -3  -3   2  102.27    8.26
   3  -3  -2  103.31    7.72
  -3  -3   2  103.39    8.26
   3  -3  -2  109.20    7.79
  -3  -3   2  101.38    8.90
  -3  -3   2  102.08    8.28
  -3  -3   2  100.15    8.22
   3   3  -2   98.11    8.58
   3   3  -2   99.30    8.35
   2  -3  -2   38.69    3.53
  -2  -3   2   38.46    3.66
  -2  -3   2   35.55    3.59
   2  -3  -2   38.80    3.36
   2  -3  -2   38.75    3.35
  -2  -3   2   40.99    4.23
  -2  -3   2   40.02    3.69
  -2  -3   2   44.34    3.85
   2  -3  -2   37.81    3.71
   2  -3  -2   36.89    3.33
   2  -3  -2   40.88    3.38
   2   3  -2   36.01    4.24
  -2   3   2   45.43    3.43
   2   3  -2   45.10    4.21
  -1  -3   2   20.67    2.16
  -1  -3   2   18.73    2.37
  -1  -3   2   16.96    2.02
  -1  -3   2   19.72    2.13
   1  -3  -2   17.42    1.91
   1  -3  -2   18.62    2.31
  -1  -3   2   18.50    2.09
   1  -3  -2   15.55    1.86
  -1  -3   2   20.36    2.61
   1  -3  -2   19.45    2.18
  -1   3   2   22.09    2.24
   1   3  -2   17.02    2.46
  -1   3   2   21.42    2.09
   1   3  -2   20.44    2.41
   0  -3   2   65.36    5.26
   0  -3  -2   57.59    5.14
   0  -3  -2   65.04    5.74
   0  -3   2   64.02    5.25
   0  -3  -2   64.34    5.23
   0  -3   2   63.25    5.28
   0  -3   2   60.87    5.50
   0   3   2   59.68    5.34
   0   3  -2   62.77    5.85
   0   3   2   75.19    5.83
   0   3   2   63.93    5.38
   0   3   2   62.15    5.49
   0   3  -2   70.68    5.66
  -1  -3  -2  112.77    8.78
   1  -3   2  104.73    8.91
  -1  -3  -2  109.99    9.36
   1  -3   2  117.24    8.68
   1  -3   2  120.39    8.70
  -1  -3  -2  108.74    8.75
   1   3   2  107.25    8.54
  -1   3  -2  102.51    8.41
   1   3   2  124.24    9.17
  -1   3  -2  105.75    8.85
   1   3   2  106.08    8.73
   1   3   2  110.29    8.56
  -2  -3  -2    9.07    1.57
  -2  -3  -2    6.92    1.82
   2  -3   2    7.97    1.29
   2  -3   2    9.45    1.20
   2  -3   2    7.59    1.35
  -2  -3  -2    9.39    1.57
   2   3   2    6.99    1.40
  -2   3  -2    8.05    1.36
   2   3   2    9.72    1.61
  -2   3  -2    5.74    1.19
  -2   3  -2   11.50    1.37
  -2   3  -2    8.03    1.42
   2   3   2   10.91    1.86
   2   3   2    9.44    1.95
  -3  -3  -2   10.25    1.85
  -3  -3  -2    9.77    2.26
   3  -3   2   10.77    1.33
   3  -3   2    9.78    1.63
  -3  -3  -2   11.21    1.92
   3  -3   2   10.88    1.32
  -3   3  -2    7.81    1.30
   3   3   2    8.89    2.07
   3   3   2    9.05    1.69
  -3   3  -2   10.03    1.21
   3   3   2   11.07    1.86
  -3   3  -2    7.44    1.32
  -4  -3  -2   11.78    2.58
   4  -3   2   14.24    1.52
  -4  -3  -2   11.82    2.07
  -4  -3  -2   13.26    2.14
   4  -3   2   14.23    1.55
   4  -3   2   11.06    1.77
  -4   3  -2    9.85    1.31
  -4   3  -2   11.04    1.39
   4   3   2   12.07    2.58
   4   3   2   11.63    2.02
  -4   3  -2   10.88    1.22
  -4   3  -2   10.12    1.32
   4   3   2   11.36    1.96
  -5  -3  -2  115.07    9.91
   5  -3   2  135.13    9.43
  -5  -3  -2  101.49   10.47
  -5  -3  -2  123.86    9.98
   5  -3   2  124.44    9.84
   5  -3   2  135.16    9.44
  -5   3  -2   93.62    7.64
   5   3   2   99.00    8.32
   5   3   2  115.36    9.36
  -5   3  -2   94.06    7.66
   5   3   2   99.36    8.32
  -6  -3  -2   91.87    7.69
  -6  -3  -2   91.93    7.74
   6  -3   2   89.22    7.02
   6  -3   2   89.85    7.02
   6  -3   2   95.99    7.60
  -6  -3  -2   75.63    8.18
  -6   3  -2   67.95    5.61
   6   3   2   66.66    6.29
   6   3   2   77.98    7.32
   6   3   2   68.93    6.36
  -6   3  -2   70.19    5.65
  -7  -3  -2    2.84    1.14
  -7  -3  -2    1.08    0.86
   7  -3   2    2.13    0.65
  -7  -3  -2    2.58    1.37
   7  -3   2    1.78    0.60
   7  -3   2    1.29    0.86
  -7   3  -2    0.58    0.50
   7   3   2    1.76    0.92
  -7   3  -2    2.17    0.65
   7   3   2    1.26    0.80
   8  -3   2    6.04    1.66
   8  -3   2    6.68    1.23
   8  -3   2    7.55    1.36
  -8  -3  -2    5.60    2.81
  -8  -3  -2    6.81    1.67
  -8  -3  -2    8.61    1.93
   8   3   2    5.26    1.95
  -8   3  -2    4.40    0.98
   8   3   2    9.42    2.54
   8   3   2    8.07    1.79
   9  -3   2    0.49    0.97
   9  -3   2    1.06    0.65
  -9  -3  -2    0.20    0.95
  -9  -3  -2    2.32    1.75
  -9  -3  -2    1.41    1.28
   9   3   2    2.63    1.58
  -9   3  -2    1.36    0.80
  -9   3  -2    1.34    0.99
   9   3   2    4.19    1.29
 -10  -3  -2    4.00    2.49
  10  -3   2    1.03    0.88
 -10  -3  -2    1.58    1.14
 -10  -3  -2    8.77    2.54
  10   3   2    3.00    1.47
 -10   3  -2    1.18    0.71
  -9  -4   2   55.08    5.29
   9  -4  -2   43.78    4.32
  -9  -4   2   56.00    5.29
   9  -4  -2   44.63    3.64
   9  -4  -2   41.36    3.66
   9  -4  -2   45.51    3.64
   9  -4  -2   49.91    3.79
   9   4  -2   45.49    5.56
   9   4  -2   40.57    4.79
   8  -4  -2   98.98    7.79
   8  -4  -2  102.99    7.88
  -8  -4   2   97.32    9.05
   8  -4  -2   99.59    7.65
   8  -4  -2  105.81    7.72
  -8  -4   2  117.10    9.31
  -8  -4   2  120.62   10.41
   8  -4  -2   98.53    8.30
   8   4  -2   97.72    9.67
   8   4  -2   96.48    8.68
   7  -4  -2   49.31    4.01
  -7  -4   2   49.62    5.76
  -7  -4   2   54.16    5.18
   7  -4  -2   47.26    4.03
  -7  -4   2   45.63    4.96
   7  -4  -2   46.58    4.35
   7  -4  -2   48.99    3.85
   7  -4  -2   46.05    3.79
  -7  -4   2   47.57    4.97
   7   4  -2   38.50    4.96
   7   4  -2   44.02    5.40
   7   4  -2   47.30    4.67
   6  -4  -2    0.77    0.46
  -6  -4   2    1.28    0.74
   6  -4  -2    0.69    0.44
  -6  -4   2    1.75    0.76
   6  -4  -2    1.19    0.41
   6  -4  -2    0.73    0.51
  -6  -4   2    0.79    0.85
  -6  -4   2   -1.01    0.70
   6  -4  -2    0.63    0.69
  -6  -4   2    2.28    1.33
   6   4  -2    1.49    1.10
  -5  -4   2   10.20    2.15
   5  -4  -2    9.83    1.33
   5  -4  -2    8.88    1.59
  -5  -4   2    7.37    1.87
  -5  -4   2    7.07    1.76
  -5  -4   2   11.21    2.68
   5  -4  -2   11.89    1.26
  -5  -4   2   10.23    2.09
   5  -4  -2    9.51    1.33
   5  -4  -2    9.90    1.24
   5   4  -2    9.51    2.27
   5   4  -2   10.57    2.72
   4  -4  -2    2.36    0.78
  -4  -4   2    0.29    0.59
   4  -4  -2    2.09    0.71
  -4  -4   2    2.71    1.12
   4  -4  -2    0.47    0.61
   4  -4  -2    1.43    0.67
   4  -4  -2    1.19    0.54
  -4  -4   2    1.73    0.85
  -4  -4   2    3.04    1.35
   4  -4  -2    1.58    0.61
  -4  -4   2    2.68    0.95
   4   4  -2    0.75    1.04
   4   4  -2    1.95    1.19
   3  -4  -2   12.97    1.56
  -3  -4   2   10.70    2.03
  -3  -4   2   12.50    2.82
  -3  -4   2   12.17    2.16
   3  -4  -2   11.85    1.86
   3  -4  -2   11.35    1.52
   3  -4  -2   12.50    1.58
  -3  -4   2   12.54    2.17
   3  -4  -2   11.33    1.53
  -3  -4   2   10.39    2.06
   3  -4  -2   11.69    1.77
   3   4  -2   13.07    2.69
   3   4  -2   10.40    2.21
  -2  -4   2    9.18    1.77
   2  -4  -2    7.65    1.39
   2  -4  -2    8.16    1.76
  -2  -4   2    6.29    1.47
  -2  -4   2    7.68    2.11
  -2  -4   2    5.71    1.51
  -2  -4   2    8.88    1.73
   2  -4  -2    7.58    1.88
   2  -4  -2    7.07    1.35
   2  -4  -2    8.97    1.49
   2  -4  -2    7.72    1.38
  -2   4   2    8.37    1.18
   2   4  -2    8.22    1.95
  -2   4   2    8.52    1.13
   2   4  -2    6.90    1.89
   1  -4  -2    3.83    0.99
   1  -4  -2    3.57    1.00
  -1  -4   2    3.88    1.49
  -1  -4   2    3.60    1.08
  -1  -4   2    4.92    1.19
  -1  -4   2    5.45    1.63
   1  -4  -2    4.10    1.02
   1  -4  -2    3.43    0.96
  -1  -4   2    3.58    1.07
  -1  -4   2    4.34    1.19
   1   4  -2    5.11    1.44
  -1   4   2    6.10    1.29
   1   4  -2    4.49    1.59
   0  -4  -2   74.34    6.21
   0  -4   2   77.58    6.29
   0  -4   2   70.37    6.58
   0  -4   2   63.21    6.12
   0  -4  -2   73.67    6.91
   0  -4  -2   78.42    6.25
   0  -4   2   68.41    6.19
   0  -4   2   77.64    6.28
   0  -4  -2   72.40    6.22
   0   4  -2   91.44    7.02
   0   4   2   78.71    6.78
   0   4   2   79.09    7.00
   0   4  -2   69.75    7.06
   1  -4   2   57.17    6.01
   1  -4   2   76.85    5.90
  -1  -4  -2   70.72    5.95
  -1  -4  -2   68.54    5.92
   1  -4   2   73.14    5.86
   1  -4   2   63.95    5.80
  -1  -4  -2   66.14    6.60
  -1   4  -2   62.63    6.20
   1   4   2   71.59    5.99
  -1   4  -2   75.54    5.99
   1   4   2   63.83    6.47
   1   4   2   68.16    6.43
   2  -4   2   -0.17    0.47
   2  -4   2    0.46    0.55
   2  -4   2    0.21    0.42
  -2  -4  -2   -0.25    0.44
  -2  -4  -2    0.26    0.47
  -2  -4  -2   -0.35    0.71
  -2   4  -2    0.42    0.57
   2   4   2    0.59    0.48
   2   4   2   -0.98    0.57
   2   4   2    0.57    0.67
  -2   4  -2    0.05    0.58
   2   4   2    1.07    0.79
   3  -4   2   26.54    2.69
   3  -4   2   25.02    3.05
  -3  -4  -2   22.14    2.85
  -3  -4  -2   25.10    3.60
  -3  -4  -2   26.86    3.05
   3  -4   2   30.28    2.79
   3   4   2   25.41    3.53
  -3   4  -2   31.25    2.63
  -3   4  -2   24.47    2.79
   3   4   2   21.95    2.89
   3   4   2   26.36    2.92
   3   4   2   21.98    3.20
   4  -4   2   48.57    4.07
   4  -4   2   44.74    4.48
   4  -4   2   49.45    4.09
  -4  -4  -2   42.06    4.47
  -4  -4  -2   39.04    4.96
  -4  -4  -2   42.48    4.43
   4   4   2   32.69    3.79
   4   4   2   34.26    4.14
  -4   4  -2   30.76    3.35
  -4   4  -2   41.42    3.23
   4   4   2   34.99    3.87
   4   4   2   43.26    4.87
  -4   4  -2   36.95    3.24
  -5  -4  -2   32.07    3.69
   5  -4   2   35.28    3.18
   5  -4   2   29.45    3.49
  -5  -4  -2   32.32    3.67
   5  -4   2   32.69    3.11
   5   4   2   27.33    3.28
  -5   4  -2   25.27    2.71
   5   4   2   31.22    4.11
   5   4   2   23.64    3.09
  -6  -4  -2    2.00    1.13
   6  -4   2    2.48    1.16
  -6  -4  -2    4.49    1.81
   6  -4   2    3.08    0.84
  -6  -4  -2    3.32    1.30
   6  -4   2    3.04    0.90
  -6   4  -2    1.26    0.56
   6   4   2    5.36    1.95
   6   4   2    0.18    1.21
   6   4   2    2.37    0.87
   6   4   2    6.09    2.46
  -7  -4  -2   12.89    3.01
   7  -4   2    9.01    1.97
  -7  -4  -2    9.44    2.31
   7  -4   2    8.73    1.56
   7  -4   2    9.69    1.58
   7   4   2    9.42    2.10
   7   4   2    9.25    2.58
   7   4   2   11.01    2.35
   8  -4   2   19.57    2.19
  -8  -4  -2   20.04    3.26
   8  -4   2   16.53    2.68
  -8  -4  -2   21.57    3.48
   8   4   2   18.31    3.76
  -8   4  -2   12.41    1.65
  -9  -4  -2    0.47    0.84
  -9  -4  -2   -1.41    1.30
   9  -4   2   -0.59    1.17
   9   4   2    4.82    1.64
  -8  -5   2   13.32    2.85
  -8  -5   2   13.21    3.01
   8  -5  -2   11.58    1.33
   8  -5  -2   13.22    1.45
   8  -5  -2   11.81    1.55
   8  -5  -2   10.79    2.21
   8  -5  -2   15.36    1.56
   8   5  -2   12.03    3.19
   7  -5  -2    3.58    0.82
  -7  -5   2    5.95    1.75
  -7  -5   2    2.81    1.28
   7  -5  -2    4.23    0.84
   7  -5  -2    1.65    0.73
   7  -5  -2    2.97    0.67
   7  -5  -2    1.90    1.18
   7   5  -2    3.06    1.42
  -6  -5   2   11.69    2.49
   6  -5  -2   15.06    1.80
   6  -5  -2   15.49    1.65
   6  -5  -2   12.41    1.78
   6  -5  -2   13.89    1.80
   6  -5  -2   12.26    2.08
  -6  -5   2   15.90    2.95
   6   5  -2   13.96    3.11
  -5  -5   2    5.33    1.76
   5  -5  -2   13.67    1.63
   5  -5  -2    8.68    1.92
   5  -5  -2   11.27    1.44
   5  -5  -2   12.45    1.63
  -5  -5   2    6.47    2.10
  -5  -5   2   13.18    3.05
  -5  -5   2   11.75    2.38
   5  -5  -2    7.78    1.65
  -5  -5   2    7.33    1.97
   5   5  -2   10.08    2.81
   5   5  -2    7.19    2.45
   4  -5  -2   13.38    1.71
  -4  -5   2   12.97    2.42
   4  -5  -2   10.47    1.82
   4  -5  -2   12.08    2.62
  -4  -5   2   10.05    2.22
  -4  -5   2    7.03    1.87
   4  -5  -2   13.19    1.62
  -4  -5   2    8.39    2.06
   4  -5  -2   12.14    2.04
   4  -5  -2   12.60    2.06
   4   5  -2   11.72    2.71
   3  -5  -2    1.99    0.84
  -3  -5   2    1.81    1.02
  -3  -5   2    0.55    0.61
   3  -5  -2    1.34    1.07
   3  -5  -2    1.98    0.77
   3  -5  -2    2.70    0.90
   3  -5  -2    2.32    1.18
  -3  -5   2    3.17    1.10
  -3  -5   2    2.26    1.07
   3  -5  -2    1.51    0.67
   3   5  -2    2.41    1.33
   3   5  -2    2.39    1.25
   2  -5  -2   26.45    3.55
   2  -5  -2   30.77    3.11
   2  -5  -2   27.53    3.43
  -2  -5   2   26.37    3.22
  -2  -5   2   26.14    3.22
  -2  -5   2   31.64    4.17
   2  -5  -2   27.48    3.04
   2  -5  -2   24.32    2.85
   2  -5  -2   27.85    3.03
  -2  -5   2   24.52    3.23
  -2  -5   2   27.49    3.31
   2   5  -2   28.89    3.69
   2   5  -2   24.80    3.85
  -2   5   2   30.41    2.83
  -2   5   2   34.09    3.01
  -1  -5   2   24.53    2.97
   1  -5  -2   20.42    3.19
  -1  -5   2   23.71    3.45
   1  -5  -2   23.46    2.79
  -1  -5   2   23.19    2.94
   1  -5  -2   24.08    2.82
   1  -5  -2   23.64    2.85
  -1  -5   2   23.23    2.98
  -1  -5   2   25.30    3.03
   1  -5  -2   25.49    2.86
   1   5  -2   27.07    3.57
  -1   5   2   28.34    3.21
  -1   5   2   29.84    3.12
   1   5  -2   26.15    3.62
   0  -5   2  129.43   11.69
   0  -5   2  148.03   11.37
   0  -5  -2  142.55   11.23
   0  -5  -2  135.16   11.24
   0  -5  -2  141.08   12.18
   0  -5  -2  126.24   11.12
   0  -5   2  159.16   11.47
   0  -5  -2  140.03   11.23
   0  -5   2  136.52   11.27
   0  -5   2  141.73   11.32
   0   5   2  164.31   12.76
   0   5  -2  137.55   12.76
   0   5   2  154.83   12.42
   0   5  -2  165.79   12.57
   1  -5   2   31.61    3.51
   1  -5   2   33.38    3.48
   1  -5   2   30.99    3.43
  -1  -5  -2   36.19    3.63
   1  -5   2   35.14    3.57
  -1  -5  -2   29.09    4.50
  -1  -5  -2   30.35    3.55
  -1  -5  -2   27.77    3.35
   1  -5   2   27.44    3.72
   1   5   2   35.04    4.19
  -1   5  -2   39.03    3.80
   1   5   2   27.18    3.62
  -1   5  -2   31.74    3.90
   2  -5   2    5.88    1.39
   2  -5   2    3.94    1.39
   2  -5   2    2.25    0.99
  -2  -5  -2    4.24    1.37
   2  -5   2    4.49    1.28
  -2  -5  -2    3.50    1.43
  -2  -5  -2    3.80    1.31
  -2  -5  -2    2.48    0.98
   2  -5   2    2.88    1.10
   2   5   2    4.29    1.86
   2   5   2    3.64    1.44
  -2   5  -2    4.34    1.35
  -2   5  -2    3.64    1.29
   3  -5   2   27.47    2.91
   3  -5   2   30.99    3.05
  -3  -5  -2   21.78    4.34
   3  -5   2   23.76    3.01
  -3  -5  -2   23.15    3.06
   3  -5   2   23.58    3.25
   3   5   2   26.13    2.96
  -3   5  -2   17.33    2.87
  -3   5  -2   26.43    2.53
   3   5   2   20.42    3.13
   3   5   2   27.87    3.78
   4  -5   2   38.31    3.36
  -4  -5  -2   33.50    3.72
  -4  -5  -2   29.91    3.63
   4  -5   2   32.05    3.21
   4  -5   2   23.32    3.54
  -4  -5  -2   26.67    4.28
   4  -5   2   29.76    3.30
  -4   5  -2   26.41    2.32
   4   5   2   33.70    4.36
  -5  -5  -2   12.35    2.59
   5  -5   2   11.20    1.80
  -5  -5  -2   14.15    2.71
   5  -5   2    9.97    2.26
   5  -5   2   11.12    1.87
   5   5   2   11.20    2.85
   6  -5   2    3.61    1.04
   6  -5   2    5.77    1.15
  -6  -5  -2    2.13    1.47
   6  -5   2    3.27    1.41
  -6  -5  -2    3.26    1.45
   6   5   2    2.59    1.46
  -7  -5  -2   24.69    4.00
   7  -5   2   22.77    2.71
   7  -5   2   28.22    2.83
  -7  -5  -2   26.44    3.45
   7   5   2   25.94    4.27
   6  -6  -2   22.27    2.51
   6  -6  -2   19.81    2.74
   6  -6  -2   18.56    2.97
  -6  -6   2   26.33    3.44
  -6  -6   2   19.76    3.51
   6  -6  -2   21.81    2.57
   6  -6  -2   17.99    2.46
   6   6  -2   25.24    4.01
  -5  -6   2    4.36    1.45
   5  -6  -2    4.26    1.21
   5  -6  -2    6.32    1.62
   5  -6  -2    5.87    1.92
  -5  -6   2    8.07    1.97
   5  -6  -2    6.86    1.59
   5  -6  -2    9.37    2.18
   5   6  -2    5.97    2.61
   4  -6  -2    5.63    1.76
  -4  -6   2    2.66    1.01
  -4  -6   2    3.40    1.39
   4  -6  -2    3.04    1.14
   4  -6  -2    4.80    1.20
  -4  -6   2    2.51    1.45
   4  -6  -2    2.68    1.08
   4  -6  -2    2.61    0.98
   4   6  -2    4.07    1.86
   3  -6  -2   -1.11    0.46
  -3  -6   2    0.85    0.78
   3  -6  -2    0.98    0.87
   3  -6  -2   -1.11    0.55
   3  -6  -2    0.98    0.74
  -3  -6   2   -0.16    0.59
  -3  -6   2    0.58    1.11
   3   6  -2    0.07    1.24
   2  -6  -2   44.88    4.41
   2  -6  -2   40.31    4.21
  -2  -6   2   38.11    4.47
  -2  -6   2   38.17    4.52
  -2  -6   2   38.36    4.43
   2  -6  -2   37.59    4.30
   2  -6  -2   40.30    4.23
   2   6  -2   40.05    5.25
   2   6  -2   41.63    5.11
  -2   6   2   47.28    4.31
  -1  -6   2   22.71    3.55
  -1  -6   2   19.08    3.21
  -1  -6   2   19.15    3.26
   1  -6  -2   14.76    2.74
   1  -6  -2   24.49    2.93
   1  -6  -2   23.19    2.85
   1  -6  -2   20.66    2.79
  -1  -6   2   23.10    3.56
  -1   6   2   25.42    3.09
   1   6  -2   25.89    3.78
   1   6  -2   25.54    3.91
   0  -6   2   29.37    4.10
   0  -6  -2   27.52    3.36
   0  -6  -2   26.14    3.31
   0  -6  -2   24.19    3.27
   0  -6   2   27.47    3.49
   0  -6   2   27.57    3.46
   0  -6   2   27.22    3.45
   0  -6   2   31.57    3.56
   0  -6  -2   26.42    3.37
   0   6  -2   33.64    4.03
   0   6  -2   30.99    4.09
   0   6   2   26.63    3.74
   0   6   2   36.92    4.05
   1  -6   2   13.89    2.59
  -1  -6  -2   13.47    2.48
   1  -6   2   13.74    2.42
   1  -6   2   12.82    2.44
  -1  -6  -2   12.76    2.41
   1  -6   2    9.69    2.22
  -1  -6  -2    7.57    2.07
   1  -6   2   12.60    3.06
  -1  -6  -2   13.92    2.53
  -1   6  -2   11.79    2.47
  -1   6  -2    9.40    2.20
   1   6   2   12.44    2.83
   1   6   2   13.27    2.85
   2  -6   2    1.64    0.92
  -2  -6  -2    3.34    1.32
  -2  -6  -2    2.80    1.14
  -2  -6  -2    2.53    1.17
   2  -6   2    1.68    0.98
   2  -6   2    0.68    1.19
   2  -6   2    1.47    0.85
   2  -6   2    1.43    1.26
   2   6   2    4.00    1.40
  -2   6  -2    2.47    1.19
   2   6   2    3.69    1.79
  -3  -6  -2    7.88    2.02
   3  -6   2    4.21    1.44
   3  -6   2    5.45    1.94
  -3  -6  -2    5.84    1.82
   3  -6   2    9.19    1.82
  -3  -6  -2    9.95    2.28
   3  -6   2    4.14    1.39
  -3   6  -2    5.91    1.14
   3   6   2    8.59    3.10
  -3   6  -2    3.97    1.50
   3   6   2    5.80    2.15
  -4  -6  -2    1.53    1.24
   4  -6   2    3.85    1.03
  -4  -6  -2    2.96    1.41
   4  -6   2    3.92    1.51
   4   6   2    1.37    1.33
   5  -6   2    2.89    1.11
   5  -6   2    3.24    1.13
  -5  -6  -2    2.14    1.10
  -5  -6  -2    5.15    1.37
   5  -6   2    2.14    1.36
   5   6   2    7.19    2.37
  12   0  -3    0.91    1.00
 -12   0   3   -0.23    0.63
 -12   0   3    1.67    0.72
  11   0  -3    1.68    1.07
 -11   0   3    3.00    0.64
  11   0  -3    2.15    0.89
 -11   0   3    2.69    0.80
 -11   0   3    1.16    0.60
 -10   0   3   -0.26    0.49
 -10   0   3    0.15    0.37
  10   0  -3    0.05    0.73
  10   0  -3    0.55    0.61
  10   0  -3   -0.70    0.50
  -9   0   3    3.10    0.87
   9   0  -3    2.96    0.91
  -9   0   3    3.77    0.84
  -9   0   3    3.64    0.69
   9   0  -3    3.60    1.30
   9   0  -3    4.08    0.95
  -9   0   3    4.62    1.06
  -8   0   3   43.74    3.36
   8   0  -3   40.20    4.11
   8   0  -3   37.34    3.58
   8   0  -3   41.00    3.63
  -8   0   3   43.21    3.31
  -8   0   3   37.87    3.52
  -7   0   3  302.92   20.25
  -7   0   3  288.40   20.43
   7   0  -3  263.92   20.88
  -7   0   3  303.18   20.22
   7   0  -3  267.25   20.52
   7   0  -3  266.47   20.44
  -6   0   3    4.27    0.56
  -6   0   3    4.36    0.78
  -6   0   3    3.60    0.63
  -6   0   3    3.32    0.67
   6   0  -3    1.90    0.59
   6   0  -3    3.23    0.71
   6   0  -3    3.66    0.98
  -5   0   3   21.01    1.97
  -5   0   3   22.01    1.79
   5   0  -3   21.40    1.90
   5   0  -3   18.99    2.05
  -5   0   3   20.66    1.86
  -5   0   3   20.25    1.83
   5   0  -3   22.46    1.91
  -4   0   3   66.96    4.94
  -4   0   3   68.87    4.93
   4   0  -3   63.43    4.96
  -4   0   3   71.68    5.05
   4   0  -3   59.71    5.06
  -3   0   3   12.40    1.09
  -3   0   3   12.28    1.09
  -3   0   3   13.00    1.13
  -2   0   3  242.03   15.98
   2   0  -3  210.77   15.98
   2   0  -3  207.82   15.98
  -2   0   3  241.12   15.97
   0   0  -3  115.97    8.59
   0   0   3  112.92    8.59
   0   0  -3  125.62    8.77
   0   0   3  120.49    8.60
   0   0  -3  118.55    8.60
   0   0   3  119.99    8.74
   1   0   3   92.59    7.07
   1   0   3   95.63    7.09
   1   0   3  100.56    7.31
  -1   0  -3   98.61    7.08
  -1   0  -3   96.13    7.07
  -1   0  -3   92.77    7.26
  -2   0  -3   10.10    1.35
   2   0   3   11.05    1.20
   2   0   3   11.99    1.46
  -2   0  -3   11.80    1.21
   2   0   3   13.48    1.28
   3   0   3  992.13   67.00
   3   0   3  971.62   66.99
  -3   0  -3  832.28   67.17
  -3   0  -3 1000.00   66.93
   4   0   3  134.26   10.84
  -4   0  -3  146.46   10.78
  -4   0  -3  155.16   10.80
   4   0   3  144.79   10.88
  -5   0  -3    2.48    0.99
  -5   0  -3    5.52    1.01
   5   0   3    4.49    0.96
   5   0   3    4.75    1.34
   5   0   3    3.84    0.98
  -5   0  -3    6.52    1.08
   6   0   3    2.14    1.03
   6   0   3    2.12    0.77
  -6   0  -3    1.74    0.67
  -6   0  -3    1.24    0.79
  -6   0  -3    1.42    0.58
   7   0   3   61.94    5.50
   7   0   3   58.99    5.46
   7   0   3   69.91    6.29
  -7   0  -3   51.30    5.53
  -7   0  -3   70.31    5.32
  -7   0  -3   71.67    5.38
  -8   0  -3   16.02    2.10
   8   0   3   12.27    2.12
   8   0   3   12.83    2.15
  -8   0  -3   14.48    1.75
   8   0   3   17.39    2.69
  -8   0  -3   12.75    2.07
   9   0   3    0.06    0.93
   9   0   3   -1.15    0.50
   9   0   3    0.68    0.79
  -9   0  -3    0.47    0.62
  -9   0  -3   -0.25    0.86
  10   0   3    5.89    1.43
 -10   0  -3    1.78    0.89
  10   0   3    1.61    1.39
 -10   0  -3    0.94    0.86
 -12  -1   3    5.35    1.24
  12  -1  -3    7.33    1.86
  12   1  -3    8.19    2.38
  11  -1  -3    9.14    1.94
 -11  -1   3    5.67    1.74
  11  -1  -3    7.56    1.39
 -11  -1   3    8.06    1.51
 -11  -1   3   10.56    1.65
  11   1  -3    9.21    2.56
  11   1  -3    9.01    1.88
  11   1  -3    6.75    1.50
 -10  -1   3   27.15    5.00
 -10  -1   3   23.20    4.39
 -10  -1   3   29.00    2.85
  10  -1  -3   27.44    3.20
 -10  -1   3   30.71    2.82
  10  -1  -3   27.22    2.66
  10   1  -3   27.04    2.93
  10   1  -3   29.07    3.69
  10   1  -3   25.11    2.84
 -10   1   3   23.00    1.80
  -9  -1   3   12.97    1.71
   9  -1  -3   14.00    1.61
   9  -1  -3   15.65    2.08
   9  -1  -3   12.89    1.50
  -9  -1   3   13.69    2.18
  -9  -1   3   12.52    1.70
   9   1  -3   13.34    2.72
   9   1  -3   13.72    1.88
  -9   1   3   14.79    1.17
   9   1  -3   13.08    1.82
  -9   1   3   12.05    1.09
  -8  -1   3    1.93    0.70
   8  -1  -3    3.37    0.74
   8  -1  -3    3.25    0.65
  -8  -1   3    2.58    0.77
   8  -1  -3    2.96    0.92
  -8  -1   3    2.56    0.83
   8   1  -3    2.38    0.84
   8   1  -3    2.69    0.85
  -8   1   3    2.43    0.40
   8   1  -3    2.15    1.13
  -8   1   3    2.79    0.34
  -7  -1   3   67.09    5.50
  -7  -1   3   68.36    5.47
   7  -1  -3   61.66    5.29
  -7  -1   3   71.68    5.42
   7  -1  -3   62.63    4.96
   7  -1  -3   61.63    4.97
   7   1  -3   58.01    5.26
   7   1  -3   64.78    5.35
   7   1  -3   58.75    5.77
  -7   1   3   65.45    4.52
  -7   1   3   64.36    4.55
  -6  -1   3   79.31    6.19
  -6  -1   3   82.76    6.14
   6  -1  -3   71.24    5.62
   6  -1  -3   71.68    5.82
   6  -1  -3   78.61    5.66
   6   1  -3   75.02    6.01
   6   1  -3   75.38    6.01
   6   1  -3   71.66    6.48
   5  -1  -3   29.11    2.26
  -5  -1   3   31.88    2.77
  -5  -1   3   30.76    2.77
  -5  -1   3   35.17    2.81
   5  -1  -3   25.86    2.24
   5  -1  -3   29.98    2.26
   5   1  -3   27.55    2.63
   5   1  -3   29.69    2.67
   5   1  -3   27.90    2.97
   4  -1  -3    3.06    0.30
  -4  -1   3    3.07    0.70
  -4  -1   3    3.49    0.75
  -4  -1   3    3.89    0.77
  -4  -1   3    4.33    0.83
   4   1  -3    2.83    0.84
   4   1  -3    2.29    0.62
  -3  -1   3   51.42    4.01
  -3  -1   3   48.00    3.96
  -3  -1   3   48.54    3.96
   3   1  -3   44.61    3.89
   3   1  -3   43.69    3.78
  -2  -1   3  536.76   37.27
  -2  -1   3  538.21   37.26
  -2  -1   3  502.80   37.41
   2   1  -3  501.85   35.98
  -2   1   3  519.70   35.65
  -2   1   3  512.22   35.64
   2   1  -3  490.87   35.98
   2   1  -3  512.52   36.18
   0  -1  -3  404.17   28.48
   0  -1  -3  405.88   28.48
   0  -1  -3  394.54   28.67
   0  -1   3  408.08   28.51
   0  -1   3  394.68   28.69
   0  -1   3  402.72   28.50
   0   1   3  426.74   27.57
   0   1  -3  433.21   27.65
   0   1  -3  351.32   27.39
   0   1  -3  373.64   27.42
   0   1   3  367.71   27.38
   0   1   3  363.83   27.37
  -1  -1  -3   85.09    6.78
  -1  -1  -3   87.33    6.79
   1  -1   3   95.16    6.77
  -1  -1  -3   82.11    7.03
   1  -1   3   99.91    7.02
   1  -1   3   92.54    6.75
   1   1   3   79.99    6.39
  -1   1  -3   84.78    6.35
  -1   1  -3   82.95    6.33
   1   1   3   84.08    6.65
  -1   1  -3   99.49    6.60
   1   1   3   76.58    6.37
  -2  -1  -3   65.10    5.26
  -2  -1  -3   55.55    5.49
  -2  -1  -3   67.77    5.29
   2  -1   3   74.32    5.48
   2  -1   3   66.61    5.16
   2  -1   3   74.04    5.22
  -2   1  -3   67.20    5.13
   2   1   3   65.18    5.42
  -2   1  -3   63.93    4.92
  -2   1  -3   64.93    4.91
   2   1   3   62.96    5.06
   2   1   3   58.72    5.02
   3  -1   3  257.28   18.54
   3  -1   3  257.10   18.55
  -3  -1  -3  239.93   18.66
   3  -1   3  283.68   18.96
  -3  -1  -3  246.71   18.66
   3   1   3  216.91   16.20
  -3   1  -3  231.41   16.00
   3   1   3  240.22   17.24
  -3   1  -3  220.05   15.96
  -3   1  -3  209.28   16.18
   3   1   3  211.59   16.19
   4  -1   3    5.16    1.16
  -4  -1  -3    4.95    1.02
  -4  -1  -3    5.30    0.98
  -4  -1  -3    3.04    1.05
   4  -1   3    4.10    0.84
   4  -1   3    3.59    0.77
  -4   1  -3    4.22    0.98
   4   1   3    4.29    0.97
   4   1   3    2.56    0.85
  -4   1  -3    4.31    0.82
   4   1   3    4.25    1.28
  -4   1  -3    5.09    0.84
   5  -1   3   21.48    2.12
  -5  -1  -3   21.86    2.22
   5  -1   3   24.75    2.62
  -5  -1  -3   15.18    2.38
   5  -1   3   20.94    2.12
  -5   1  -3   17.81    2.13
   5   1   3   19.35    2.19
   5   1   3   18.63    2.19
  -5   1  -3   20.82    1.99
  -5   1  -3   21.01    1.95
   5   1   3   20.69    2.69
  -6  -1  -3    0.43    0.38
  -6  -1  -3   -0.33    0.45
   6  -1   3   -0.48    0.32
  -6  -1  -3    0.08    0.34
   6  -1   3   -0.51    0.24
   6  -1   3   -0.30    0.44
  -6   1  -3    0.00    0.40
   6   1   3   -0.21    0.56
   6   1   3    0.25    0.32
   6   1   3   -0.33    0.32
  -6   1  -3    0.27    0.33
  -7  -1  -3   20.44    2.24
   7  -1   3   16.39    1.99
  -7  -1  -3   19.69    2.17
   7  -1   3   20.84    2.68
   7  -1   3   14.10    1.93
  -7  -1  -3   13.54    2.34
  -7   1  -3   12.83    1.79
   7   1   3   13.47    2.30
   7   1   3   18.16    2.76
  -7   1  -3   13.97    1.63
  -7   1  -3   14.04    1.64
   7   1   3   18.66    2.21
  -8  -1  -3   10.03    1.89
   8  -1   3   11.76    1.87
   8  -1   3    9.04    1.66
  -8  -1  -3   10.15    2.29
   8  -1   3   15.45    2.37
  -8  -1  -3   12.71    2.05
   8   1   3    7.71    1.82
  -8   1  -3    9.12    1.25
   8   1   3   10.89    2.58
   8   1   3    9.15    1.87
  -8   1  -3    8.77    1.20
  -8   1  -3    7.44    1.34
  -9  -1  -3    0.46    0.70
  -9  -1  -3   -0.47    0.55
  -9  -1  -3    0.32    1.19
   9  -1   3    1.25    0.92
   9  -1   3    0.97    0.71
   9  -1   3    0.94    0.52
  -9   1  -3    0.54    0.55
   9   1   3    0.87    1.10
   9   1   3   -0.21    0.87
   9   1   3   -1.34    0.83
  -9   1  -3   -0.11    0.42
  10  -1   3   12.16    2.37
 -10  -1  -3   20.62    3.00
 -10  -1  -3   15.85    2.58
 -10  -1  -3   17.98    2.28
  10  -1   3   15.80    2.71
 -10   1  -3   15.53    1.92
 -10   1  -3   15.14    1.89
  11  -2  -3    4.90    1.26
 -11  -2   3    2.78    1.27
 -11  -2   3    3.70    1.15
  11  -2  -3    4.59    0.80
  11   2  -3    2.96    1.66
  10  -2  -3    4.38    0.73
  10  -2  -3    3.87    0.71
  10  -2  -3    4.45    1.13
 -10  -2   3    4.17    1.25
  10   2  -3    5.74    1.63
  10   2  -3    6.19    1.70
  -9  -2   3    0.67    0.65
  -9  -2   3    1.23    0.74
  -9  -2   3   -0.34    0.54
  -9  -2   3    1.72    0.55
   9  -2  -3    0.53    0.29
   9  -2  -3    0.78    0.58
   9  -2  -3   -0.08    0.27
   9   2  -3   -0.17    0.67
   9   2  -3   -0.19    0.67
   9   2  -3    1.00    0.60
  -8  -2   3   25.50    2.96
  -8  -2   3   29.82    3.14
   8  -2  -3   22.65    2.08
   8  -2  -3   29.83    2.56
   8  -2  -3   23.45    2.14
  -8  -2   3   29.10    2.96
   8   2  -3   24.21    2.77
   8   2  -3   24.45    3.35
   8   2  -3   22.42    2.75
  -7  -2   3   24.73    2.67
   7  -2  -3   22.17    1.88
   7  -2  -3   26.73    2.22
  -7  -2   3   26.27    2.77
  -7  -2   3   22.18    2.69
   7  -2  -3   22.11    2.02
   7   2  -3   21.22    2.54
   7   2  -3   24.10    2.65
   7   2  -3   20.90    3.04
   6  -2  -3   13.91    1.17
  -6  -2   3   17.41    2.02
   6  -2  -3   15.31    1.36
  -6  -2   3   13.61    1.82
  -6  -2   3   13.11    1.86
   6  -2  -3   15.10    1.21
   6   2  -3   13.66    2.15
   6   2  -3   14.47    1.85
   6   2  -3   13.52    2.23
   5  -2  -3    1.98    0.26
  -5  -2   3    1.74    0.70
   5  -2  -3    1.93    0.23
  -5  -2   3    2.50    0.80
  -5  -2   3    1.04    0.57
   5  -2  -3    1.48    0.31
   5  -2  -3    1.98    0.27
  -5  -2   3    1.17    0.76
   5   2  -3    2.28    1.00
   5   2  -3    2.16    1.02
   5   2  -3    2.15    0.76
  -4  -2   3    2.38    0.82
  -4  -2   3    4.46    1.03
  -4  -2   3    1.98    0.69
  -4  -2   3    3.27    0.84
   4  -2  -3    3.20    0.39
   4  -2  -3    3.18    0.39
   4  -2  -3    4.09    0.39
   4  -2  -3    3.64    0.37
   4  -2  -3    2.79    0.38
   4  -2  -3    3.28    0.43
   4   2  -3    2.45    0.97
   4   2  -3    2.88    1.04
   3  -2  -3  243.68   16.47
   3  -2  -3  223.10   16.36
  -3  -2   3  226.64   16.92
  -3  -2   3  234.70   16.96
  -3  -2   3  222.21   16.91
   3  -2  -3  218.03   16.36
   3  -2  -3  228.81   16.37
   3  -2  -3  231.24   16.37
  -3  -2   3  242.12   16.97
   3   2  -3  218.92   16.41
   2  -2  -3   97.18    7.06
  -2  -2   3   92.65    7.65
   2  -2  -3   87.56    7.11
  -2  -2   3   98.08    7.42
   2  -2  -3   98.23    7.24
  -2  -2   3  101.09    7.45
   2  -2  -3   96.27    7.06
  -2  -2   3   94.03    7.42
   2   2  -3   89.41    7.56
   2   2  -3   94.15    7.41
   1  -2  -3   26.30    2.49
  -1  -2   3   27.82    2.47
   1  -2  -3   26.90    2.27
  -1  -2   3   23.72    2.59
  -1  -2   3   23.61    2.36
   1  -2  -3   26.57    2.28
  -1   2   3   31.71    2.38
  -1   2   3   25.36    2.29
   1   2  -3   23.11    2.73
  -1   2   3   28.24    2.34
   1   2  -3   27.68    2.69
  -1   2   3   25.19    2.31
   1   2  -3   23.82    2.42
   0  -2  -3   76.67    6.56
   0  -2   3   82.72    6.58
   0  -2  -3   81.06    6.26
   0  -2   3   82.16    6.30
   0  -2   3   84.98    6.32
   0  -2  -3   79.36    6.25
   0   2   3   75.31    5.85
   0   2   3   70.94    5.93
   0   2  -3   72.94    5.87
   0   2  -3   73.51    5.89
   0   2   3   73.96    5.84
   0   2   3   86.74    6.13
   0   2  -3   73.84    6.26
   1  -2   3  622.65   42.44
  -1  -2  -3  607.09   42.54
  -1  -2  -3  534.91   42.87
   1  -2   3  628.73   42.44
   1  -2   3  608.17   42.73
  -1  -2  -3  583.56   42.50
   1   2   3  561.44   39.50
   1   2   3  640.52   40.01
  -1   2  -3  543.25   39.40
   1   2   3  530.21   39.46
  -1   2  -3  508.59   39.72
  -1   2  -3  543.05   39.39
  -2  -2  -3    5.77    1.43
   2  -2   3    6.75    0.91
  -2  -2  -3    6.77    1.19
   2  -2   3    4.86    0.91
   2  -2   3    6.34    1.10
  -2  -2  -3    5.25    1.16
   2   2   3    5.33    1.07
  -2   2  -3    6.13    0.94
   2   2   3    4.08    0.96
  -2   2  -3    4.55    0.85
   2   2   3    5.66    1.41
  -2   2  -3    4.78    0.90
   3  -2   3   47.05    3.64
  -3  -2  -3   38.32    3.78
  -3  -2  -3   33.62    4.11
   3  -2   3   45.20    3.61
   3  -2   3   48.53    4.01
  -3  -2  -3   42.68    3.86
  -3   2  -3   39.84    3.24
  -3   2  -3   37.48    3.22
   3   2   3   34.33    3.43
   3   2   3   42.90    4.11
   3   2   3   31.17    3.36
  -3   2  -3   40.07    3.36
   4  -2   3   11.91    1.72
   4  -2   3   10.76    1.32
  -4  -2  -3   11.19    1.79
  -4  -2  -3    8.51    2.28
  -4  -2  -3   13.20    1.64
   4  -2   3   10.25    1.30
   4   2   3    8.56    1.64
  -4   2  -3    9.49    1.20
   4   2   3    9.34    1.69
   4   2   3   11.26    1.94
  -4   2  -3    9.82    1.27
  -5  -2  -3  220.93   17.38
   5  -2   3  232.46   17.06
  -5  -2  -3  235.19   17.48
   5  -2   3  246.77   17.59
   5  -2   3  227.80   17.05
   5   2   3  172.78   14.10
  -5   2  -3  179.76   13.59
   5   2   3  187.74   14.35
   5   2   3  210.38   15.15
  -5   2  -3  178.31   13.60
  -6  -2  -3  116.70    9.36
   6  -2   3  109.73    8.94
   6  -2   3  129.34    9.62
   6  -2   3  108.46    8.92
  -6  -2  -3  117.39    9.39
   6   2   3   84.59    7.56
  -6   2  -3   87.78    6.99
   6   2   3  111.22    8.76
  -6   2  -3   90.84    7.02
  -6   2  -3   83.20    6.93
   6   2   3   91.67    7.66
  -6   2  -3   90.69    7.00
  -7  -2  -3    3.47    1.20
   7  -2   3    1.49    0.70
  -7  -2  -3    2.82    1.31
   7  -2   3    3.77    1.25
   7  -2   3    2.09    0.56
  -7  -2  -3    3.04    1.10
  -7   2  -3    1.76    0.62
   7   2   3    3.01    1.44
   7   2   3    3.32    1.07
  -7   2  -3    1.44    0.61
   7   2   3    3.25    1.05
   8  -2   3    9.68    1.72
   8  -2   3   13.25    2.25
  -8  -2  -3   12.09    2.63
   8  -2   3   13.12    1.68
  -8  -2  -3   12.08    2.16
  -8  -2  -3   12.39    2.25
  -8   2  -3    9.40    1.26
  -8   2  -3   10.13    1.34
   8   2   3   13.71    3.52
   8   2   3    8.64    1.93
   8   2   3   11.13    2.16
   9  -2   3    5.10    1.24
  -9  -2  -3    4.69    1.52
   9  -2   3    7.10    1.34
  -9  -2  -3    5.20    1.40
  -9  -2  -3    5.73    2.09
   9  -2   3    5.48    1.76
  -9   2  -3    3.37    0.98
   9   2   3    6.42    1.51
   9   2   3    3.49    1.59
  -9   2  -3    5.45    0.96
   9   2   3    5.28    2.07
  10  -2   3   37.40    4.38
 -10  -2  -3   41.03    4.20
 -10  -2  -3   39.72    4.15
  10  -2   3   28.46    3.48
 -10  -2  -3   36.22    4.53
 -10   2  -3   23.84    2.36
 -10   2  -3   20.91    2.44
 -10  -3   3    7.90    1.78
  10  -3  -3    8.23    1.58
 -10  -3   3    9.81    2.06
  10   3  -3    8.86    1.81
  10   3  -3    6.06    2.20
  -9  -3   3   18.49    2.96
   9  -3  -3   15.48    1.31
   9  -3  -3   16.39    1.91
  -9  -3   3   15.96    2.77
   9   3  -3   18.77    3.17
   9   3  -3   14.44    2.70
   8  -3  -3    1.73    0.24
  -8  -3   3    2.48    1.36
   8  -3  -3    2.23    0.72
   8  -3  -3    2.16    0.32
  -8  -3   3    2.37    0.96
  -8  -3   3    2.59    1.00
  -8  -3   3    2.55    1.09
   8  -3  -3    2.10    0.38
   8   3  -3    3.09    1.18
   8   3  -3    1.60    1.18
   8   3  -3    4.67    2.10
   7  -3  -3   21.64    1.72
  -7  -3   3   18.03    2.64
  -7  -3   3   21.97    2.79
  -7  -3   3   19.88    2.74
   7  -3  -3   20.30    1.77
   7  -3  -3   23.08    2.13
  -7  -3   3   24.45    2.89
   7  -3  -3   23.79    1.80
   7   3  -3   18.61    2.45
   7   3  -3   19.16    3.03
   7   3  -3   16.41    2.78
   6  -3  -3   16.55    1.31
  -6  -3   3   10.24    2.11
  -6  -3   3   14.17    2.45
   6  -3  -3   15.52    1.38
  -6  -3   3   15.79    2.53
   6  -3  -3   13.98    1.40
   6  -3  -3   16.35    1.60
  -6  -3   3   15.48    2.54
   6   3  -3   15.32    2.12
   6   3  -3   12.96    2.83
   6   3  -3   17.69    3.12
   5  -3  -3    2.41    0.79
   5  -3  -3    4.24    0.83
  -5  -3   3    3.50    1.12
   5  -3  -3    5.16    0.66
   5  -3  -3    3.96    0.71
   5  -3  -3    4.78    0.59
  -5  -3   3    5.02    1.32
  -5  -3   3    5.58    1.48
   5  -3  -3    5.46    0.65
  -5  -3   3    6.87    1.50
  -5  -3   3    3.93    1.48
   5   3  -3    3.53    1.44
   5   3  -3    3.03    1.23
  -4  -3   3   32.77    3.26
  -4  -3   3   26.60    3.06
  -4  -3   3   30.55    3.19
   4  -3  -3   32.93    2.57
   4  -3  -3   28.87    2.85
   4  -3  -3   30.69    2.58
   4  -3  -3   28.32    2.57
   4  -3  -3   30.58    2.56
  -4  -3   3   35.46    3.92
  -4  -3   3   26.71    3.07
   4  -3  -3   30.49    2.71
   4   3  -3   30.01    3.43
   4   3  -3   30.57    3.67
   3  -3  -3    8.82    1.20
  -3  -3   3    7.12    1.44
   3  -3  -3    7.76    1.24
   3  -3  -3    9.28    1.08
   3  -3  -3    6.49    0.95
  -3  -3   3    6.54    1.35
  -3  -3   3    8.72    2.00
   3  -3  -3    8.08    1.01
  -3  -3   3    6.26    1.36
   3  -3  -3    9.31    1.07
  -3  -3   3    5.87    1.31
   3   3  -3    8.25    1.87
   2  -3  -3   14.27    1.87
  -2  -3   3   14.77    1.80
  -2  -3   3   12.89    1.80
  -2  -3   3   17.49    1.95
   2  -3  -3   12.97    1.73
  -2  -3   3   14.15    2.12
   2  -3  -3   13.73    1.56
   2  -3  -3   13.76    1.54
  -2  -3   3   17.76    2.03
  -2   3   3   16.48    1.70
   2   3  -3   14.87    2.11
   2   3  -3   14.03    2.24
  -2   3   3   16.60    1.42
  -1  -3   3  160.59   12.04
   1  -3  -3  145.25   12.16
  -1  -3   3  150.26   12.29
   1  -3  -3  157.81   11.77
  -1  -3   3  165.74   12.02
   1  -3  -3  157.46   11.77
  -1  -3   3  166.78   12.03
  -1   3   3  185.50   12.37
   1   3  -3  147.18   12.89
  -1   3   3  161.27   12.22
  -1   3   3  160.51   12.23
   1   3  -3  165.62   12.72
   0  -3   3  140.18    9.93
   0  -3  -3  126.28    9.79
   0  -3   3  122.21   10.16
   0  -3   3  132.81    9.87
   0  -3  -3  117.95   10.25
   0  -3  -3  129.89    9.82
   0   3  -3  148.49   10.10
   0   3   3  126.53    9.68
   0   3   3  123.63    9.66
   0   3  -3  117.77   10.17
   0   3   3  116.97    9.73
   0   3   3  140.93   10.05
   0   3  -3  109.54    9.63
  -1  -3  -3   14.85    2.26
  -1  -3  -3   17.60    1.97
   1  -3   3   16.29    2.13
   1  -3   3   15.68    1.82
   1  -3   3   17.82    1.91
  -1  -3  -3   17.34    1.95
   1   3   3   13.09    1.92
   1   3   3   15.51    1.84
  -1   3  -3   14.32    1.71
  -1   3  -3   11.52    1.60
   1   3   3   14.95    1.82
   1   3   3   17.86    2.28
  -1   3  -3   14.98    2.05
  -2  -3  -3   25.98    2.82
  -2  -3  -3   27.11    2.85
   2  -3   3   32.10    2.76
   2  -3   3   25.66    2.99
   2  -3   3   27.92    2.67
   2   3   3   29.97    3.17
   2   3   3   21.87    2.79
  -2   3  -3   20.12    2.24
   2   3   3   21.55    2.45
  -2   3  -3   21.80    2.31
  -3  -3  -3   43.12    4.16
  -3  -3  -3   40.10    4.69
   3  -3   3   45.49    3.88
   3  -3   3   48.94    3.93
   3  -3   3   44.04    4.28
  -3  -3  -3   45.16    4.20
   3   3   3   41.30    3.97
  -3   3  -3   47.42    3.76
   3   3   3   37.25    3.87
   3   3   3   46.79    4.68
  -3   3  -3   39.23    3.92
  -3   3  -3   39.48    3.64
  -3   3  -3   38.38    3.61
   4  -3   3   23.22    2.22
  -4  -3  -3   18.70    2.42
   4  -3   3   23.36    2.24
  -4  -3  -3   15.82    2.83
   4  -3   3   23.21    2.64
  -4  -3  -3   20.17    2.52
   4   3   3   14.72    2.15
  -4   3  -3   21.82    2.03
   4   3   3   22.40    3.04
   4   3   3   18.56    2.34
  -4   3  -3   18.37    2.16
  -4   3  -3   14.87    1.88
  -5  -3  -3   26.08    3.05
  -5  -3  -3   28.77    3.13
  -5  -3  -3   20.42    3.26
   5  -3   3   26.28    2.59
   5  -3   3   29.68    3.13
   5  -3   3   25.96    2.57
   5   3   3   22.22    2.67
   5   3   3   24.97    3.37
  -5   3  -3   18.64    1.92
  -5   3  -3   18.92    2.08
  -5   3  -3   20.81    2.12
  -5   3  -3   20.03    2.12
   5   3   3   21.75    2.64
   6  -3   3   65.39    5.59
  -6  -3  -3   71.98    6.27
   6  -3   3   68.77    6.17
   6  -3   3   67.90    5.63
  -6  -3  -3   67.56    6.21
   6   3   3   51.53    4.99
  -6   3  -3   45.50    4.31
  -6   3  -3   51.16    4.40
   6   3   3   62.75    6.15
  -7  -3  -3    9.55    2.13
   7  -3   3   11.03    2.22
  -7  -3  -3   11.63    2.28
   7  -3   3    6.80    1.41
   7  -3   3    8.43    1.57
   7   3   3    5.61    1.76
  -7   3  -3    6.27    1.23
  -7   3  -3    6.44    1.21
   7   3   3    9.66    2.02
   7   3   3    7.13    2.24
   8  -3   3   13.84    2.31
  -8  -3  -3   14.90    2.73
  -8  -3  -3   14.85    2.68
   8  -3   3   10.73    1.86
  -8  -3  -3   14.06    3.20
   8  -3   3   13.30    1.81
  -8   3  -3    9.23    1.45
   8   3   3   11.87    2.80
  -8   3  -3    6.68    1.27
   8   3   3   13.56    2.52
   9  -3   3   14.72    1.99
  -9  -3  -3   23.35    3.42
  -9  -3  -3   18.86    3.16
   9  -3   3   15.73    2.09
  -9  -3  -3   27.02    3.18
   9  -3   3   17.35    2.83
   9   3   3   10.32    2.38
  -9   3  -3   10.45    1.65
  10   4  -3    0.26    1.21
   9  -4  -3   28.51    3.08
  -9  -4   3   32.88    4.02
  -9  -4   3   33.22    3.94
   9   4  -3   33.19    4.65
   8  -4  -3   41.80    2.86
  -8  -4   3   39.96    4.26
   8  -4  -3   36.04    3.66
   8  -4  -3   30.48    2.72
  -8  -4   3   38.53    4.25
   8  -4  -3   36.15    2.77
   8   4  -3   36.13    4.88
   7  -4  -3   78.00    7.26
   7  -4  -3   82.77    6.59
  -7  -4   3   80.30    7.87
  -7  -4   3   90.88    7.95
   7  -4  -3   85.95    6.67
  -7  -4   3   80.70    7.92
   7  -4  -3   90.39    6.49
  -7  -4   3   98.88    8.08
   7  -4  -3  100.43    6.57
   7   4  -3   78.13    7.72
   7   4  -3   81.11    8.20
  -6  -4   3    7.53    1.78
   6  -4  -3    7.95    0.95
  -6  -4   3    8.30    1.94
   6  -4  -3    9.54    1.12
   6  -4  -3    8.13    1.13
  -6  -4   3   10.17    2.15
  -6  -4   3    6.59    1.76
   6  -4  -3    7.76    1.35
   6   4  -3    7.69    2.38
   5  -4  -3   27.38    2.25
   5  -4  -3   26.55    2.28
  -5  -4   3   21.70    3.00
  -5  -4   3   22.17    3.55
  -5  -4   3   23.31    3.02
  -5  -4   3   21.61    2.93
   5  -4  -3   22.52    2.30
   5  -4  -3   23.90    2.30
   5  -4  -3   24.23    2.80
  -5  -4   3   20.82    2.81
   5  -4  -3   22.60    2.73
   5   4  -3   21.45    3.09
   5   4  -3   18.20    3.02
   4  -4  -3   11.96    1.54
  -4  -4   3   13.94    2.43
   4  -4  -3   12.44    1.97
   4  -4  -3   14.77    1.61
  -4  -4   3   14.44    2.46
  -4  -4   3   14.80    3.09
  -4  -4   3   12.67    2.37
   4  -4  -3   13.42    1.62
  -4  -4   3   13.94    2.39
   4  -4  -3   16.95    1.74
   4   4  -3   16.19    3.25
   4   4  -3   14.06    2.79
   3  -4  -3    3.08    0.86
  -3  -4   3    2.68    1.02
  -3  -4   3    5.87    1.57
   3  -4  -3    2.42    1.01
   3  -4  -3    3.40    0.88
   3  -4  -3    3.80    0.98
  -3  -4   3    3.65    1.20
  -3  -4   3    4.21    1.21
   3  -4  -3    2.79    1.04
   3  -4  -3    3.32    0.81
   3   4  -3    2.62    1.36
   3   4  -3    3.29    1.47
   2  -4  -3    1.63    0.61
  -2  -4   3    3.55    1.09
   2  -4  -3    2.73    0.85
  -2  -4   3    0.83    0.76
  -2  -4   3    1.07    0.79
   2  -4  -3    2.42    1.10
   2  -4  -3    3.34    0.93
   2  -4  -3    2.73    0.76
  -2  -4   3    2.53    0.97
  -2  -4   3    2.33    1.30
   2   4  -3    1.69    1.00
  -2   4   3    2.36    0.61
   2   4  -3    1.04    1.06
  -2   4   3    1.65    0.55
  -1  -4   3   77.31    7.23
  -1  -4   3   83.91    6.89
  -1  -4   3   83.96    6.90
  -1  -4   3   82.49    6.92
   1  -4  -3   75.10    7.66
   1  -4  -3   82.22    6.65
   1  -4  -3   76.03    6.58
  -1  -4   3   81.73    6.90
   1   4  -3   92.41    7.49
  -1   4   3   72.52    7.13
   1   4  -3   80.74    7.67
  -1   4   3   91.48    6.91
   0  -4   3   40.97    4.34
   0  -4   3   40.01    4.00
   0  -4  -3   39.70    3.87
   0  -4   3   41.82    3.96
   0  -4  -3   38.59    4.42
   0  -4  -3   41.45    3.92
   0  -4   3   44.98    4.06
   0   4   3   37.58    3.83
   0   4  -3   37.95    4.31
   0   4   3   43.37    4.16
   0   4   3   38.28    3.73
  -1  -4  -3    6.70    1.45
  -1  -4  -3    5.91    1.77
   1  -4   3    4.42    1.46
   1  -4   3    6.32    1.35
  -1  -4  -3    8.26    1.58
   1  -4   3    5.83    1.30
   1   4   3    4.91    1.25
  -1   4  -3    4.92    1.53
  -1   4  -3    6.95    1.48
   1   4   3    6.87    1.89
   1   4   3    7.00    1.54
   2  -4   3    5.90    1.62
   2  -4   3    8.29    1.53
   2  -4   3    6.89    1.37
  -2  -4  -3    4.79    1.73
  -2  -4  -3    6.94    1.57
  -2  -4  -3    7.34    1.62
  -2   4  -3    5.71    1.32
   2   4   3    5.79    1.52
  -2   4  -3    9.29    1.74
   2   4   3    7.76    1.65
  -2   4  -3    6.08    1.62
   2   4   3    8.07    2.02
   2   4   3    7.91    2.01
  -3  -4  -3   54.40    5.21
   3  -4   3   62.68    4.96
  -3  -4  -3   44.78    5.61
   3  -4   3   65.46    5.46
   3  -4   3   52.48    5.30
  -3  -4  -3   54.67    5.20
   3   4   3   55.72    5.59
   3   4   3   45.61    4.69
  -3   4  -3   51.42    4.71
   3   4   3   48.51    4.73
   3   4   3   44.78    4.90
  -3   4  -3   47.78    4.41
   4  -4   3  120.99    9.01
   4  -4   3  128.69    9.08
   4  -4   3  109.66    9.52
  -4  -4  -3   94.79   10.04
  -4  -4  -3  114.69    9.52
  -4  -4  -3  111.75    9.46
   4   4   3   83.99    8.27
   4   4   3  109.36    9.21
   4   4   3   93.67    8.15
   4   4   3   88.64    8.05
  -4   4  -3  109.25    7.44
  -4   4  -3   95.84    7.66
  -4   4  -3   91.04    7.63
  -4   4  -3   81.84    7.50
  -5  -4  -3   -0.60    0.66
   5  -4   3   -0.19    0.36
   5  -4   3   -0.47    0.60
  -5  -4  -3    0.25    0.40
   5   4   3   -0.36    0.52
  -5   4  -3    0.02    0.26
   5   4   3   -0.35    0.65
   5   4   3   -0.67    0.89
  -5   4  -3    0.09    0.43
  -5   4  -3   -0.70    0.44
  -6  -4  -3    2.61    1.17
   6  -4   3    4.97    1.12
   6  -4   3    4.19    1.40
  -6  -4  -3    3.25    1.32
   6  -4   3    4.48    1.09
   6   4   3    2.48    1.52
   6   4   3    3.80    1.42
   6   4   3    2.37    1.11
  -6   4  -3    2.01    0.76
  -6   4  -3    2.92    0.85
   7  -4   3    7.12    1.30
   7  -4   3    5.11    1.64
  -7  -4  -3    2.88    1.41
  -7  -4  -3    8.09    2.01
   7  -4   3    5.85    1.27
  -7   4  -3    2.42    0.90
   7   4   3    6.29    2.11
   7   4   3    5.02    1.60
   7   4   3    4.78    1.75
  -7   4  -3    3.25    0.96
   8  -4   3    8.35    1.45
  -8  -4  -3    5.65    1.79
   8  -4   3    7.31    2.03
  -8  -4  -3    5.93    1.90
   8  -4   3    7.54    1.36
   8   4   3    7.45    2.16
  -8   4  -3    5.63    1.25
   8  -5  -3   17.13    1.53
  -8  -5   3   18.55    3.47
   8  -5  -3   16.21    1.53
   8  -5  -3   15.24    1.67
   8  -5  -3   14.82    1.45
  -8  -5   3   14.94    2.97
   8  -5  -3   16.62    2.33
   8   5  -3   15.33    3.47
   7  -5  -3    6.63    1.07
   7  -5  -3    5.23    1.58
   7  -5  -3    7.54    1.27
  -7  -5   3    6.93    1.85
   7  -5  -3    4.61    0.85
  -7  -5   3    4.90    1.65
   7  -5  -3    6.07    1.01
   7   5  -3    6.18    2.30
  -6  -5   3    0.29    0.82
   6  -5  -3    0.85    0.61
   6  -5  -3    0.37    0.57
   6  -5  -3   -0.35    0.75
   6  -5  -3   -0.34    0.33
  -6  -5   3    0.35    0.96
   6  -5  -3   -0.42    0.47
   6   5  -3    2.39    1.24
   5  -5  -3    4.90    1.20
  -5  -5   3    3.41    1.99
  -5  -5   3    5.37    1.62
   5  -5  -3    4.27    1.38
  -5  -5   3    3.41    1.43
   5  -5  -3    4.52    1.53
   5  -5  -3    5.77    1.19
   5  -5  -3    4.98    1.11
   5  -5  -3    6.40    1.26
  -5  -5   3    7.07    1.75
   5   5  -3    4.68    1.86
   4  -5  -3    1.70    1.10
   4  -5  -3    2.65    0.81
   4  -5  -3    2.72    0.91
   4  -5  -3    3.06    0.91
  -4  -5   3    0.49    1.11
  -4  -5   3    3.44    1.34
  -4  -5   3    2.67    1.19
   4  -5  -3    1.66    1.14
   4  -5  -3    1.31    0.70
   4   5  -3    4.42    1.72
   4   5  -3    2.35    1.70
   3  -5  -3    1.38    0.74
   3  -5  -3    0.07    0.64
   3  -5  -3    1.33    0.75
  -3  -5   3    0.09    0.80
   3  -5  -3    0.94    0.55
  -3  -5   3   -0.30    0.56
   3  -5  -3    2.02    0.99
  -3  -5   3    2.55    0.91
  -3  -5   3    0.10    0.82
   3   5  -3    0.16    1.39
   3   5  -3    1.80    1.18
   2  -5  -3   27.79    3.05
   2  -5  -3   24.87    3.01
  -2  -5   3   27.58    3.35
  -2  -5   3   29.86    3.44
  -2  -5   3   31.39    3.57
   2  -5  -3   31.46    3.18
   2  -5  -3   25.77    3.53
  -2  -5   3   28.68    3.39
   2  -5  -3   34.20    3.31
   2   5  -3   28.25    3.82
   2   5  -3   26.49    3.60
  -1  -5   3   21.22    3.27
   1  -5  -3   21.55    2.58
  -1  -5   3   18.90    3.05
  -1  -5   3   20.38    2.77
  -1  -5   3   21.40    2.75
   1  -5  -3   21.32    2.65
   1  -5  -3   18.77    2.51
   1  -5  -3   22.62    2.63
   1  -5  -3   18.52    3.17
  -1  -5   3   18.73    2.64
   1   5  -3   21.44    3.34
  -1   5   3   21.67    2.60
   1   5  -3   20.71    3.18
   0  -5  -3  119.69   10.32
   0  -5  -3  115.17   11.07
   0  -5   3  124.74   10.98
   0  -5   3  138.54   10.53
   0  -5  -3  140.73   10.49
   0  -5   3  121.74   10.42
   0  -5   3  132.46   10.48
   0  -5  -3  134.42   10.40
   0  -5   3  119.66   10.39
   0   5   3  125.01   11.16
   0   5  -3  123.14   11.31
   0   5  -3  152.44   11.21
   1  -5   3   10.27    2.09
   1  -5   3   11.34    2.07
  -1  -5  -3   11.59    3.22
   1  -5   3    9.40    2.01
  -1  -5  -3   12.65    2.23
   1  -5   3    9.56    2.40
   1  -5   3   11.41    2.03
  -1  -5  -3   13.91    2.40
   1   5   3   10.20    2.29
   1   5   3   14.55    2.51
  -1   5  -3   13.16    2.20
  -1   5  -3   13.50    2.71
   2  -5   3    5.55    1.90
  -2  -5  -3    5.91    1.65
   2  -5   3    7.07    1.53
  -2  -5  -3    9.02    2.33
   2  -5   3    7.99    1.64
   2  -5   3    9.24    1.90
   2   5   3    5.17    1.83
   2   5   3    9.67    1.83
  -2   5  -3    5.75    1.58
   2   5   3    9.46    2.36
   3  -5   3   20.82    3.29
  -3  -5  -3   26.81    3.32
  -3  -5  -3   28.01    3.31
   3  -5   3   27.42    2.97
   3  -5   3   28.03    2.97
  -3  -5  -3   26.19    3.96
  -3   5  -3   26.52    2.66
   3   5   3   29.24    3.91
   3   5   3   20.02    3.45
   3   5   3   18.70    2.74
   3   5   3   16.54    2.98
  -4  -5  -3   21.27    3.06
  -4  -5  -3   24.57    3.16
   4  -5   3   28.79    2.95
   4  -5   3   27.49    2.87
   4  -5   3   21.39    3.20
   4   5   3   22.65    4.88
   4   5   3   27.03    3.94
  -4   5  -3   20.25    2.61
  -4   5  -3   25.18    2.30
   5  -5   3    8.15    2.15
  -5  -5  -3   10.31    2.35
   5  -5   3   11.56    1.92
   5  -5   3   13.50    1.77
  -5  -5  -3   10.66    2.51
   5   5   3    8.41    2.59
  -6  -5  -3   -0.07    0.95
  -6  -5  -3   -0.24    0.47
   6  -5   3   -1.47    0.63
   6   5   3    0.06    0.80
   7  -5   3    2.51    1.37
  -7  -5  -3    3.79    1.40
   7  -5   3    3.21    1.19
   7  -5   3    3.78    1.31
   7   5   3    7.76    2.61
   6  -6  -3    3.83    0.97
  -6  -6   3    6.92    1.90
   6  -6  -3    5.47    1.24
   6  -6  -3    6.18    1.31
  -6  -6   3    7.21    2.03
   6  -6  -3    4.95    1.94
   6   6  -3    8.54    2.11
   5  -6  -3   -1.34    1.31
   5  -6  -3    1.62    0.84
  -5  -6   3    0.82    0.93
  -5  -6   3    1.03    1.11
   5  -6  -3   -0.16    0.53
   5  -6  -3    0.59    0.79
   5   6  -3    1.04    1.31
  -4  -6   3    3.34    1.53
  -4  -6   3    3.83    1.31
   4  -6  -3    2.76    1.14
   4  -6  -3    5.14    1.09
   4  -6  -3    4.01    1.09
  -4  -6   3    2.10    1.52
   4   6  -3    3.60    1.75
  -3  -6   3    7.93    2.02
   3  -6  -3    8.87    1.78
  -3  -6   3    7.06    1.78
   3  -6  -3    7.33    1.61
   3  -6  -3    7.30    1.64
   3  -6  -3    7.80    1.69
  -3  -6   3    6.90    1.92
   3   6  -3    8.58    2.39
   2  -6  -3   32.31    3.60
  -2  -6   3   25.84    5.20
  -2  -6   3   30.17    3.85
   2  -6  -3   33.24    3.60
   2  -6  -3   29.71    3.61
  -2  -6   3   27.86    3.75
  -2  -6   3   31.87    3.88
   2  -6  -3   33.29    3.63
   2   6  -3   34.19    4.68
   2   6  -3   35.26    5.29
  -2   6   3   38.19    3.33
  -2   6   3   32.36    3.05
  -1  -6   3    2.11    1.34
   1  -6  -3    4.57    1.29
  -1  -6   3    2.30    1.23
  -1  -6   3    2.93    1.29
   1  -6  -3    2.30    1.14
   1  -6  -3    2.25    1.19
   1  -6  -3    2.95    1.25
  -1  -6   3    3.30    1.56
  -1   6   3    4.05    1.37
  -1   6   3    1.69    1.07
   1   6  -3    5.18    1.70
   0  -6   3   40.55    4.52
   0  -6  -3   39.99    4.47
   0  -6   3   44.01    4.67
   0  -6  -3   40.40    4.35
   0  -6  -3   43.13    4.50
   0  -6  -3   35.63    4.30
   0  -6   3   41.37    4.55
   0  -6   3   38.48    4.47
   0  -6   3   44.66    5.39
   0   6   3   38.60    4.36
   0   6  -3   42.18    5.01
   0   6  -3   42.61    4.67
   1  -6   3   31.44    3.68
  -1  -6  -3   21.97    3.78
  -1  -6  -3   34.42    3.80
   1  -6   3   27.84    3.45
   1  -6   3   27.93    4.13
   1  -6   3   29.48    3.59
  -1  -6  -3   30.34    3.63
  -1  -6  -3   27.67    3.57
   1  -6   3   27.94    3.49
  -1   6  -3   33.89    3.94
   1   6   3   33.65    4.29
   1   6   3   28.85    3.84
  -1   6  -3   33.53    4.09
   2  -6   3    5.18    1.47
  -2  -6  -3    5.33    1.55
   2  -6   3    5.40    1.58
  -2  -6  -3    5.40    1.62
   2  -6   3    5.21    1.91
   2  -6   3    5.70    1.68
  -2  -6  -3    6.62    1.80
   2   6   3    6.07    2.00
  -2   6  -3    6.84    1.77
   2   6   3    7.88    2.56
   3  -6   3    9.99    2.18
   3  -6   3   16.86    2.67
   3  -6   3   17.63    3.51
  -3  -6  -3   15.30    2.80
  -3  -6  -3   14.86    2.81
   3  -6   3   11.94    2.33
   3   6   3   16.68    3.55
  -3   6  -3   15.26    2.05
  -3   6  -3   12.41    2.20
   4  -6   3   10.51    2.08
   4  -6   3   12.02    2.14
  -4  -6  -3    8.72    1.98
  -4  -6  -3   13.10    2.58
   4  -6   3    9.31    2.68
   4   6   3   13.26    3.18
   5  -6   3   -0.62    0.64
  -5  -6  -3   -1.93    0.96
   5  -6   3   -0.91    1.03
  -5  -6  -3   -1.92    1.04
   5  -6   3   -2.02    0.67
   5   6   3    0.74    1.42
 -12   0   4    3.81    1.06
 -12   0   4    1.70    0.71
  12   0  -4    5.26    1.62
  11   0  -4    5.04    1.35
 -11   0   4    3.19    0.83
 -11   0   4    3.37    0.83
 -11   0   4    2.41    0.59
  11   0  -4    1.04    0.85
 -10   0   4   22.98    2.24
  10   0  -4   22.00    2.94
  10   0  -4   19.46    2.38
   9   0  -4    9.22    1.28
   9   0  -4    7.96    1.87
  -9   0   4   10.66    1.25
  -9   0   4    7.29    1.19
  -9   0   4    8.85    1.01
  -8   0   4  178.14   12.06
   8   0  -4  160.71   12.39
  -8   0   4  165.70   12.22
   8   0  -4  158.42   12.40
   7   0  -4   33.68    2.98
  -7   0   4   34.40    2.85
   7   0  -4   27.97    3.18
  -7   0   4   33.14    2.70
  -7   0   4   38.35    2.93
   6   0  -4   99.46    7.49
  -6   0   4  103.58    7.41
  -6   0   4  101.89    7.37
   6   0  -4   86.11    7.68
  -6   0   4  104.50    7.31
  -5   0   4    1.50    0.38
  -5   0   4    2.03    0.44
   5   0  -4    1.21    0.51
  -5   0   4    1.95    0.41
  -4   0   4  267.89   18.49
  -4   0   4  268.11   18.51
  -4   0   4  244.44   18.51
  -3   0   4   34.61    2.86
  -3   0   4   41.28    2.84
   3   0  -4   35.36    2.86
  -3   0   4   39.62    2.84
   3   0  -4   32.95    2.92
   0   0   4  222.10   16.32
   0   0  -4  239.40   16.55
   0   0  -4  224.93   16.32
   0   0   4  226.49   16.32
   0   0   4  236.03   16.53
   0   0  -4  219.17   16.32
  -1   0  -4   90.67    6.90
   1   0   4   92.11    6.93
  -1   0  -4   91.95    7.17
   1   0   4   91.53    6.93
   1   0   4   98.06    7.21
  -1   0  -4   90.90    6.91
   2   0   4   24.91    2.25
  -2   0  -4   27.35    2.25
   2   0   4   26.82    2.58
  -2   0  -4   24.58    2.21
  -2   0  -4   22.03    2.42
   2   0   4   22.73    2.21
  -3   0  -4  308.50   25.36
   3   0   4  347.74   25.14
  -3   0  -4  358.38   25.08
  -3   0  -4  387.13   25.11
   3   0   4  346.09   25.13
   4   0   4  163.42   12.99
  -4   0  -4  171.45   12.91
   4   0   4  191.55   13.64
   4   0   4  167.53   13.00
  -4   0  -4  178.79   12.91
   5   0   4   37.32    3.72
  -5   0  -4   34.68    3.02
   5   0   4   28.66    3.02
   5   0   4   34.12    3.16
  -5   0  -4   24.76    3.18
  -5   0  -4   36.53    3.03
  -6   0  -4   12.24    2.53
   6   0   4    9.98    1.70
  -6   0  -4    8.15    1.81
   6   0   4   12.54    2.08
  -6   0  -4   12.95    1.51
   6   0   4    9.22    1.73
  -7   0  -4    2.33    1.07
  -7   0  -4    4.90    1.06
   7   0   4    4.09    1.08
  -7   0  -4    4.61    1.03
   7   0   4    5.42    1.68
   7   0   4    5.24    1.25
   8   0   4    6.46    1.89
  -8   0  -4    6.46    1.77
  -8   0  -4    7.74    1.44
   8   0   4    2.95    1.03
   8   0   4    5.76    1.40
  -8   0  -4    6.20    1.28
   9   0   4    1.45    1.37
  -9   0  -4    0.99    0.71
  -9   0  -4    2.01    0.67
   9   0   4    0.92    0.81
   9   0   4    0.46    0.95
  -9   0  -4    1.28    1.25
  10   0   4    2.75    1.12
 -10   0  -4    1.81    1.18
 -10   0  -4    0.68    0.90
  10   0   4   -0.89    1.08
 -12  -1   4    7.21    1.41
  12  -1  -4    8.24    1.85
  12   1  -4   11.12    2.61
  11  -1  -4   12.30    1.64
 -11  -1   4   10.66    1.99
  11  -1  -4   13.74    2.18
 -11  -1   4   15.12    1.74
 -11  -1   4   14.45    1.76
  11   1  -4   10.78    2.10
  11   1  -4   12.55    2.92
  10  -1  -4   12.57    1.50
 -10  -1   4   13.83    1.83
 -10  -1   4   12.95    1.62
 -10  -1   4   10.25    1.80
 -10  -1   4   11.76    1.83
  10  -1  -4   13.24    1.96
  10   1  -4   12.46    2.14
  10   1  -4   14.69    2.52
  -9  -1   4   17.69    1.92
   9  -1  -4   17.60    2.13
  -9  -1   4   16.68    1.95
  -9  -1   4   15.45    1.98
  -9  -1   4   14.87    2.06
   9   1  -4   13.09    2.67
   9   1  -4   14.33    1.97
   8  -1  -4  164.77   13.38
   8  -1  -4  178.46   13.01
  -8  -1   4  187.23   13.60
  -8  -1   4  175.36   13.49
  -8  -1   4  190.62   13.44
   8   1  -4  164.16   13.53
   8   1  -4  174.25   12.94
  -7  -1   4   37.59    3.17
  -7  -1   4   35.35    3.09
  -7  -1   4   34.89    3.17
  -7  -1   4   36.99    3.26
   7  -1  -4   30.78    2.68
   7  -1  -4   29.40    2.91
   7   1  -4   33.30    3.08
   7   1  -4   29.36    3.41
  -6  -1   4   60.02    4.52
  -6  -1   4   54.38    4.49
   6  -1  -4   47.08    4.02
  -6  -1   4   54.13    4.42
  -6  -1   4   52.90    4.45
   6   1  -4   54.49    4.60
  -5  -1   4   32.46    2.88
  -5  -1   4   29.68    2.79
  -5  -1   4   31.78    2.86
   5   1  -4   28.91    2.86
   5   1  -4   27.31    2.93
  -4  -1   4  183.07   13.73
  -4  -1   4  190.30   13.75
  -4  -1   4  186.92   13.69
  -4  -1   4  187.33   13.71
   4   1  -4  164.59   12.29
   4   1  -4  162.07   12.42
  -3  -1   4    2.42    0.62
   3  -1  -4    2.42    0.29
  -3  -1   4    2.19    0.55
   3  -1  -4    2.18    0.28
  -3  -1   4    2.38    0.61
   3   1  -4    1.59    0.48
   3   1  -4    2.45    0.69
   3   1  -4    1.83    0.48
  -2  -1   4  571.01   39.14
  -2  -1   4  520.58   39.31
  -2  -1   4  564.97   39.12
  -2   1   4  535.98   37.00
   2   1  -4  504.24   37.27
   2   1  -4  503.55   37.27
  -2   1   4  539.47   36.99
   2   1  -4  543.44   37.51
  -1  -1   4  130.15    9.64
   1  -1  -4  140.08    9.69
  -1  -1   4  118.29    9.81
   1  -1  -4  134.30    9.51
   1  -1  -4  134.84    9.52
  -1  -1   4  128.40    9.63
  -1   1   4  112.64    8.61
  -1   1   4  112.58    8.60
   1   1  -4  112.49    8.76
   1   1  -4  124.60    8.99
  -1   1   4  137.93    8.71
   1   1  -4  108.90    8.74
   0  -1  -4  783.25   55.24
   0   1  -4  830.31   51.18
   0   1   4  664.84   50.80
   0   1  -4  703.94   50.88
   0   1   4  682.26   50.82
   1  -1   4  127.49    8.72
  -1  -1  -4  117.24    8.72
   1  -1   4  120.01    8.69
  -1  -1  -4  102.72    8.95
   1  -1   4  120.35    8.97
  -1  -1  -4  113.95    8.72
  -1   1  -4  105.97    8.07
   1   1   4   98.66    8.08
  -1   1  -4  104.69    8.06
   1   1   4  119.77    8.47
  -1   1  -4  124.15    8.39
   1   1   4   96.46    8.08
  -2  -1  -4   71.78    7.09
   2  -1   4   95.03    6.82
  -2  -1  -4   87.56    6.87
   2  -1   4  102.35    7.21
   2  -1   4   89.72    6.79
  -2  -1  -4   87.85    6.85
   2   1   4   79.20    6.44
   2   1   4   86.61    6.85
   2   1   4   74.47    6.40
  -2   1  -4   85.85    6.34
  -2   1  -4   89.70    6.63
  -2   1  -4   80.20    6.31
  -3  -1  -4    7.90    1.65
   3  -1   4    9.08    1.14
  -3  -1  -4    9.93    1.27
  -3  -1  -4    8.66    1.17
   3  -1   4    7.66    1.11
   3   1   4    8.35    1.41
  -3   1  -4    8.42    1.28
  -3   1  -4    9.45    1.11
   3   1   4    7.53    1.32
  -3   1  -4    9.40    1.13
   3   1   4    9.46    1.58
   4  -1   4  139.72   10.39
   4  -1   4  131.43    9.89
  -4  -1  -4  132.56    9.98
   4  -1   4  122.89    9.85
  -4  -1  -4  125.61    9.97
   4   1   4  104.73    8.74
   4   1   4  123.26    9.48
  -4   1  -4  102.31    8.76
   4   1   4  106.95    8.77
  -4   1  -4  117.21    8.52
  -4   1  -4  120.80    8.55
   5  -1   4   41.53    3.65
  -5  -1  -4   31.11    3.99
   5  -1   4   45.91    4.21
   5  -1   4   41.16    3.65
  -5  -1  -4   44.45    3.81
  -5  -1  -4   39.24    3.68
   5   1   4   44.14    4.27
  -5   1  -4   37.99    3.20
  -5   1  -4   40.33    3.25
   5   1   4   33.39    3.46
  -5   1  -4   28.55    3.35
   5   1   4   35.95    3.50
  -6  -1  -4   25.06    2.66
   6  -1   4   24.38    2.60
  -6  -1  -4   24.99    2.65
   6  -1   4   23.41    2.66
  -6  -1  -4   19.82    2.99
   6  -1   4   32.57    3.33
   6   1   4   20.50    2.53
   6   1   4   21.03    2.56
  -6   1  -4   18.15    2.43
  -6   1  -4   20.58    2.17
  -6   1  -4   24.91    2.29
   6   1   4   27.89    3.34
   7  -1   4   11.79    2.35
   7  -1   4    6.17    1.38
  -7  -1  -4   11.33    1.86
  -7  -1  -4    9.26    1.75
  -7  -1  -4    6.68    1.99
   7   1   4    5.82    1.48
  -7   1  -4    7.37    1.29
   7   1   4    7.03    1.64
  -7   1  -4    7.13    1.58
   7   1   4    9.35    2.31
   8  -1   4    0.61    0.97
  -8  -1  -4    2.22    1.23
  -8  -1  -4   -0.35    0.68
  -8  -1  -4   -0.15    0.48
   8  -1   4    0.72    0.55
   8  -1   4    2.86    0.93
   8   1   4   -0.57    0.64
  -8   1  -4   -0.36    0.36
   8   1   4   -0.89    0.77
  -8   1  -4   -0.36    0.53
   8   1   4    0.33    0.88
  -9  -1  -4    5.77    1.82
  -9  -1  -4    7.18    1.64
  -9  -1  -4    5.17    1.43
   9  -1   4    3.34    1.28
   9  -1   4    7.34    1.56
  -9   1  -4    6.53    1.27
  -9   1  -4    5.79    1.37
   9   1   4    2.93    1.51
   9   1   4    8.54    2.31
   9   1   4    6.57    1.76
  -9   1  -4    7.66    1.14
 -10  -1  -4   12.65    2.94
 -10  -1  -4   16.01    2.17
 -10  -1  -4   14.38    2.32
  10  -1   4   20.29    3.12
 -10   1  -4    7.39    1.61
 -10   1  -4   10.27    1.97
 -11  -2   4    9.16    1.79
  11  -2  -4    9.73    1.61
 -11  -2   4   10.82    2.20
  11   2  -4    9.77    2.75
 -10  -2   4    9.94    1.94
 -10  -2   4    8.04    1.66
 -10  -2   4    7.49    1.87
  10   2  -4    6.28    1.85
  -9  -2   4    1.30    0.79
   9  -2  -4    1.54    0.61
   9   2  -4    1.60    0.91
   9   2  -4    2.33    1.09
   8  -2  -4   26.48    2.37
  -8  -2   4   23.33    2.85
  -8  -2   4   25.68    2.86
  -8  -2   4   27.16    3.00
  -8  -2   4   24.74    2.87
   8   2  -4   23.32    3.06
   8   2  -4   20.85    2.62
   8   2  -4   20.58    3.06
   7  -2  -4   11.86    1.21
  -7  -2   4   14.00    1.89
  -7  -2   4   14.19    1.86
  -7  -2   4   14.05    1.89
  -7  -2   4   13.09    2.15
   7   2  -4   13.04    2.17
   7   2  -4   14.37    2.69
   7   2  -4   14.05    2.34
  -6  -2   4   32.07    3.18
  -6  -2   4   30.95    3.22
  -6  -2   4   33.18    3.24
  -6  -2   4   29.78    3.15
   6   2  -4   27.49    3.36
   6   2  -4   27.42    3.27
  -5  -2   4   23.77    2.90
  -5  -2   4   24.60    2.59
  -5  -2   4   24.92    2.58
  -5  -2   4   24.02    2.90
   5   2  -4   21.31    2.64
   5   2  -4   23.13    2.86
  -4  -2   4  105.02    8.87
  -4  -2   4  114.33    8.92
   4  -2  -4  127.14    8.10
   4  -2  -4  105.94    8.17
   4  -2  -4  124.09    8.16
   4  -2  -4  114.45    8.25
  -4  -2   4  109.79    8.91
  -4  -2   4  112.15    8.92
   4  -2  -4  110.69    8.15
   4   2  -4  100.59    8.57
   4   2  -4  104.89    8.40
  -3  -2   4   14.21    1.66
   3  -2  -4   14.88    1.34
  -3  -2   4   12.98    1.63
  -3  -2   4   12.74    2.18
   3  -2  -4   14.58    1.25
   3  -2  -4   12.05    1.27
  -3  -2   4   15.65    1.73
  -3  -2   4   15.36    1.75
   3  -2  -4   14.01    1.25
   3   2  -4   12.77    1.88
   3   2  -4   12.10    1.68
   2  -2  -4   81.94    6.21
  -2  -2   4   82.23    6.56
  -2  -2   4   77.42    6.85
  -2  -2   4   82.75    6.56
   2  -2  -4   88.22    6.44
   2  -2  -4   84.92    6.23
   2   2  -4   82.18    7.17
   2   2  -4   76.01    6.28
   2   2  -4   86.36    6.63
   2   2  -4   72.48    6.23
  -2   2   4   78.97    5.94
  -2   2   4   80.10    5.95
   1  -2  -4  116.68    8.49
   1  -2  -4  110.00    8.73
  -1  -2   4  113.08    8.66
  -1  -2   4  116.49    8.67
   1  -2  -4  120.06    8.51
  -1  -2   4  106.31    8.91
   1   2  -4  121.18    8.37
   1   2  -4   95.07    8.34
   1   2  -4   99.51    7.97
   1   2  -4  101.44    7.99
  -1   2   4  108.29    7.82
  -1   2   4  102.28    7.79
  -1   2   4  101.46    7.82
   0  -2   4   17.74    1.84
   0  -2  -4   17.47    1.82
   0  -2   4   18.11    2.13
   0  -2   4   17.21    1.84
   0  -2  -4   21.95    1.94
   0  -2  -4   17.16    2.08
   0   2   4   17.27    1.87
   0   2   4   15.76    1.68
   0   2  -4   15.46    1.73
   0   2   4   13.99    1.64
   0   2  -4   17.37    1.78
   0   2  -4   19.97    2.04
  -1  -2  -4   35.92    3.21
   1  -2   4   38.87    3.16
  -1  -2  -4   32.25    3.49
   1  -2   4   35.68    3.12
   1  -2   4   37.77    3.72
  -1  -2  -4   34.11    3.17
  -1   2  -4   32.98    2.99
   1   2   4   28.72    2.97
   1   2   4   30.45    3.00
  -1   2  -4   29.71    2.96
   1   2   4   41.87    3.53
  -1   2  -4   41.14    3.32
  -2  -2  -4    4.84    1.06
   2  -2   4    5.76    1.04
  -2  -2  -4    6.03    1.25
  -2  -2  -4    6.22    1.50
   2  -2   4    6.27    1.06
   2  -2   4    5.46    1.27
   2   2   4    4.99    1.34
  -2   2  -4    3.83    0.88
   2   2   4    5.26    1.11
   2   2   4    4.88    1.02
  -2   2  -4    4.02    0.89
  -2   2  -4    6.47    1.21
   3  -2   4   53.86    4.62
   3  -2   4   50.02    4.16
  -3  -2  -4   39.23    4.63
  -3  -2  -4   47.33    4.35
   3  -2   4   54.61    4.20
  -3  -2  -4   51.17    4.40
   3   2   4   37.71    3.79
  -3   2  -4   39.37    3.58
   3   2   4   39.95    3.82
   3   2   4   50.28    4.57
  -3   2  -4   46.39    3.86
  -3   2  -4   40.50    3.60
   4  -2   4   45.90    4.09
   4  -2   4   39.63    3.51
   4  -2   4   40.63    3.61
  -4  -2  -4   34.93    3.68
  -4  -2  -4   36.82    3.71
   4   2   4   29.30    3.16
  -4   2  -4   29.81    3.05
  -4   2  -4   32.60    2.91
  -4   2  -4   32.13    2.92
   4   2   4   36.72    3.93
   4   2   4   33.69    3.41
  -5  -2  -4   90.65    8.05
   5  -2   4   99.96    7.84
   5  -2   4  101.94    7.87
  -5  -2  -4   97.77    8.15
   5  -2   4  107.20    8.43
   5   2   4   74.93    6.86
  -5   2  -4   80.82    6.62
  -5   2  -4   80.71    6.44
   5   2   4   78.77    6.90
   5   2   4   93.35    7.84
   6  -2   4   25.72    2.55
  -6  -2  -4   26.49    2.86
  -6  -2  -4   18.46    3.13
   6  -2   4   22.72    2.50
  -6  -2  -4   26.50    2.89
   6  -2   4   25.78    3.03
   6   2   4   17.50    2.80
   6   2   4   26.52    3.39
   6   2   4   21.62    2.54
  -6   2  -4   15.15    2.04
  -6   2  -4   20.57    2.09
   7  -2   4    0.70    0.84
  -7  -2  -4    1.44    0.87
  -7  -2  -4    2.55    1.09
   7  -2   4    1.46    0.67
  -7  -2  -4    2.90    1.18
   7  -2   4    1.62    0.81
   7   2   4   -0.52    0.68
  -7   2  -4    0.85    0.54
  -7   2  -4    1.55    0.61
   7   2   4    0.79    0.68
   7   2   4    1.95    1.32
  -7   2  -4    1.43    0.66
  -8  -2  -4    2.74    1.47
  -8  -2  -4    0.83    0.78
   8  -2   4    0.66    0.94
   8  -2   4   -0.03    0.64
  -8  -2  -4    0.94    0.75
   8  -2   4   -0.83    0.54
  -8   2  -4    0.00    0.54
   8   2   4    0.52    1.05
   8   2   4    1.44    0.81
  -8   2  -4    0.83    0.56
   9  -2   4    1.13    0.82
  -9  -2  -4    2.72    1.05
  -9  -2  -4    3.23    1.32
  -9   2  -4    3.72    0.87
   9   2   4    5.99    2.04
 -10  -2  -4   12.42    2.57
 -10  -2  -4   13.55    2.58
  10  -2   4   10.66    2.01
  10  -2   4   10.43    2.64
 -10   2  -4    4.58    1.20
 -10   2  -4    2.03    0.80
 -11  -3   4    2.13    1.12
 -11  -3   4    4.18    1.19
  10  -3  -4    6.07    1.25
 -10  -3   4    9.16    1.93
 -10  -3   4    8.60    2.10
  10   3  -4    6.50    2.30
   9  -3  -4   39.00    3.34
  -9  -3   4   39.97    4.19
  -9  -3   4   35.12    4.10
   9   3  -4   32.72    4.45
   8  -3  -4   78.15    5.77
  -8  -3   4   79.23    6.85
  -8  -3   4   74.98    6.73
  -8  -3   4   71.41    6.76
  -8  -3   4   65.66    6.63
   8   3  -4   65.01    6.85
  -7  -3   4   84.47    7.50
   7  -3  -4   89.83    6.48
  -7  -3   4   80.48    7.36
  -7  -3   4   91.07    7.55
  -7  -3   4   79.49    7.39
   7   3  -4   69.56    6.77
   7   3  -4   71.91    7.15
  -6  -3   4   12.80    2.26
   6  -3  -4   13.40    1.50
   6  -3  -4   12.86    1.10
   6  -3  -4   14.66    1.43
   6  -3  -4   16.33    1.18
  -6  -3   4   14.99    2.41
  -6  -3   4   11.84    2.15
  -6  -3   4   14.21    2.39
   6  -3  -4   13.98    1.19
   6  -3  -4   15.39    1.10
   6   3  -4   13.24    2.30
   6   3  -4   11.13    2.57
   5  -3  -4    7.14    1.06
  -5  -3   4    8.60    1.71
   5  -3  -4    7.36    1.00
   5  -3  -4    8.33    0.81
  -5  -3   4    8.95    1.69
   5  -3  -4    8.45    0.88
  -5  -3   4    6.93    1.54
   5  -3  -4    8.31    0.85
  -5  -3   4    7.50    1.63
   5   3  -4    9.16    2.07
   5   3  -4    7.82    2.08
   4  -3  -4   57.39    4.53
   4  -3  -4   63.69    4.56
   4  -3  -4   56.89    4.82
   4  -3  -4   56.20    4.52
   4  -3  -4   51.37    4.63
  -4  -3   4   62.11    5.33
  -4  -3   4   62.10    5.32
  -4  -3   4   55.36    5.17
   4  -3  -4   59.35    4.53
  -4  -3   4   67.55    5.40
   4   3  -4   53.65    5.11
   4   3  -4   50.24    5.30
   3  -3  -4   47.62    4.38
   3  -3  -4   54.53    4.26
  -3  -3   4   60.72    5.39
  -3  -3   4   53.75    4.82
  -3  -3   4   50.91    4.72
  -3  -3   4   51.60    4.76
   3  -3  -4   54.22    4.27
   3  -3  -4   51.97    4.57
  -3  -3   4   56.01    5.23
   3   3  -4   44.98    4.82
   3   3  -4   49.25    4.69
  -2  -3   4    8.02    1.51
  -2  -3   4    9.45    1.61
   2  -3  -4    8.34    1.40
  -2  -3   4   10.51    2.64
   2  -3  -4   10.20    1.22
  -2  -3   4    8.74    1.93
   2  -3  -4    8.65    1.15
  -2   3   4   10.05    0.94
   2   3  -4    8.46    1.81
   2   3  -4    9.11    2.03
   1  -3  -4   23.49    2.79
  -1  -3   4   25.95    2.67
  -1  -3   4   24.57    2.96
   1  -3  -4   28.01    2.55
   1  -3  -4   28.30    2.55
  -1  -3   4   24.43    2.61
  -1   3   4   24.20    2.45
  -1   3   4   25.07    2.49
   1   3  -4   27.02    3.15
  -1   3   4   30.09    2.58
   1   3  -4   19.30    2.47
  -1   3   4   25.06    2.46
   1   3  -4   28.79    2.99
   0  -3  -4  237.94   17.28
   0  -3  -4  236.38   17.27
   0  -3  -4  214.44   17.74
   0  -3   4  246.51   17.36
   0  -3   4  224.82   17.70
   0  -3   4  245.21   17.35
   0   3   4  200.37   14.84
   0   3   4  194.95   14.95
   0   3  -4  195.85   15.45
   0   3   4  208.01   14.87
   0   3  -4  201.78   15.35
   0   3  -4  197.00   14.89
   1  -3   4   23.13    2.41
  -1  -3  -4   24.52    2.54
   1  -3   4   22.14    2.73
  -1  -3  -4   24.53    2.53
   1  -3   4   28.35    2.55
  -1  -3  -4   20.13    2.81
   1   3   4   17.67    2.31
   1   3   4   20.36    2.20
  -1   3  -4   18.14    2.50
   1   3   4   24.04    2.68
  -1   3  -4   21.71    2.22
  -1   3  -4   17.77    2.08
  -2  -3  -4   13.80    1.84
   2  -3   4   13.21    1.68
  -2  -3  -4   12.27    2.15
  -2  -3  -4   14.40    1.90
   2  -3   4   16.43    1.81
   2  -3   4   15.88    2.14
   2   3   4   11.98    1.67
  -2   3  -4   10.53    1.50
   2   3   4   12.60    1.71
  -2   3  -4   12.74    1.61
  -2   3  -4   10.34    1.79
  -2   3  -4   15.26    1.80
   2   3   4   14.98    2.19
  -3  -3  -4   46.09    5.66
  -3  -3  -4   61.01    5.33
   3  -3   4   63.02    5.55
   3  -3   4   62.47    5.05
  -3  -3  -4   59.81    5.32
   3  -3   4   65.35    5.08
   3   3   4   52.86    4.78
   3   3   4   58.01    5.48
   3   3   4   51.45    4.84
  -3   3  -4   47.14    4.74
  -3   3  -4   45.87    4.36
  -3   3  -4   46.77    4.40
  -3   3  -4   60.81    4.67
  -4  -3  -4  169.68   13.83
  -4  -3  -4  171.44   13.82
   4  -3   4  177.73   13.98
   4  -3   4  191.73   13.51
   4  -3   4  183.10   13.47
  -4   3  -4  129.39   10.45
  -4   3  -4  145.17   11.32
   4   3   4  137.35   10.96
  -5  -3  -4   37.59    4.06
  -5  -3  -4   38.59    4.08
  -5  -3  -4   33.82    4.53
   5  -3   4   42.43    4.30
   5  -3   4   43.52    3.77
   5  -3   4   44.30    3.78
  -5   3  -4   29.64    3.12
   5   3   4   34.31    3.54
   5   3   4   28.78    3.35
  -5   3  -4   27.29    2.91
   5   3   4   40.67    4.45
   6  -3   4    5.36    1.26
  -6  -3  -4    7.46    1.76
   6  -3   4    6.76    1.36
  -6  -3  -4    5.03    1.48
   6  -3   4    7.61    1.88
  -6  -3  -4    7.29    2.06
  -6   3  -4    3.95    1.02
  -6   3  -4    3.44    0.90
  -6   3  -4    3.16    0.97
  -6   3  -4    5.49    0.90
   6   3   4    8.22    2.38
   6   3   4    6.48    1.63
   6   3   4    6.34    1.63
   7  -3   4    2.26    1.32
   7  -3   4    3.08    0.98
   7  -3   4    1.92    0.96
  -7  -3  -4    1.62    1.21
  -7  -3  -4    2.87    1.17
   7   3   4    2.61    1.21
   7   3   4    6.03    1.51
  -7   3  -4    1.30    0.76
   7   3   4    3.60    1.69
  -7   3  -4    0.86    0.66
   8  -3   4    1.32    0.96
  -8  -3  -4    4.98    1.61
  -8  -3  -4    9.38    2.34
   8  -3   4    1.35    0.97
  -8  -3  -4    5.33    1.56
   8  -3   4    3.51    1.60
  -8   3  -4    2.88    0.93
  -8   3  -4    2.99    0.91
   8   3   4    3.02    1.61
   8   3   4    4.06    1.90
   9  -3   4    6.25    1.50
  -9  -3  -4   12.54    2.52
   9  -3   4    6.33    1.99
  -9  -3  -4   10.97    2.19
  -9   3  -4    5.47    1.33
   9   3   4   12.85    3.06
   9   3   4    8.65    2.27
  -9   3  -4    4.82    1.22
 -10  -4   4    3.52    2.42
 -10  -4   4    1.98    1.29
  10   4  -4    4.06    1.62
   9  -4  -4    3.29    1.19
  -9  -4   4    2.91    1.53
  -9  -4   4    4.23    1.68
   9   4  -4    2.81    1.49
  -8  -4   4   34.61    4.13
  -8  -4   4   41.50    4.34
   8  -4  -4   34.00    3.31
   8   4  -4   28.96    4.28
  -7  -4   4   12.19    2.51
  -7  -4   4   11.58    2.55
  -7  -4   4   11.56    2.42
   7  -4  -4   14.60    1.19
   7  -4  -4   13.56    1.11
   7  -4  -4   13.29    1.14
   7  -4  -4   13.94    1.27
  -7  -4   4   13.74    2.62
   7  -4  -4   10.84    1.63
   7   4  -4   12.05    3.00
   7   4  -4   10.17    2.70
  -6  -4   4   30.70    3.74
   6  -4  -4   35.12    3.30
   6  -4  -4   33.36    2.92
   6  -4  -4   39.53    2.89
  -6  -4   4   34.52    3.95
   6  -4  -4   33.33    2.88
   6  -4  -4   35.72    2.80
   6  -4  -4   35.02    3.48
  -6  -4   4   31.93    3.74
   6   4  -4   33.83    4.46
  -5  -4   4    9.88    2.23
   5  -4  -4   16.40    1.64
   5  -4  -4   16.28    1.69
   5  -4  -4   16.95    1.61
  -5  -4   4   15.56    2.68
  -5  -4   4   20.68    2.51
   5  -4  -4   13.32    2.00
   5  -4  -4   12.52    1.83
  -5  -4   4   15.48    2.62
   5  -4  -4   17.60    1.68
   5   4  -4   12.16    2.88
   5   4  -4   15.21    2.59
  -4  -4   4   49.16    4.90
  -4  -4   4   53.51    5.00
   4  -4  -4   49.07    4.21
   4  -4  -4   48.13    4.73
  -4  -4   4   47.29    4.86
  -4  -4   4   51.46    4.94
   4  -4  -4   49.30    4.22
   4  -4  -4   53.91    4.30
   4  -4  -4   51.65    4.26
   4   4  -4   48.20    5.50
   4   4  -4   52.75    5.30
  -3  -4   4    8.87    1.78
   3  -4  -4    5.61    1.59
  -3  -4   4    9.23    1.86
  -3  -4   4    7.79    1.72
   3  -4  -4    6.61    1.25
   3  -4  -4    8.65    1.39
   3  -4  -4    8.19    1.39
  -3  -4   4    5.60    1.55
   3  -4  -4    5.98    1.19
   3   4  -4    6.47    1.98
   3   4  -4    7.86    1.95
  -2  -4   4    8.05    1.69
  -2  -4   4    7.82    1.70
   2  -4  -4    5.43    1.15
   2  -4  -4    6.16    1.56
  -2  -4   4    6.72    1.53
   2  -4  -4    6.89    1.37
  -2  -4   4    8.83    1.70
  -2  -4   4    7.15    2.02
   2   4  -4    9.50    2.32
   2   4  -4    9.27    2.08
  -2   4   4    8.05    1.05
  -2   4   4   10.14    1.12
  -1  -4   4   89.25    7.40
   1  -4  -4   90.12    7.10
  -1  -4   4   88.83    7.38
  -1  -4   4   78.05    7.61
   1  -4  -4   89.97    7.10
  -1  -4   4   92.53    7.35
  -1  -4   4   80.00    7.17
   1  -4  -4   81.76    7.64
   1   4  -4   92.98    7.49
   1   4  -4   68.32    7.41
  -1   4   4   89.73    8.11
   0  -4   4    9.36    1.75
   0  -4  -4    8.14    1.58
   0  -4  -4    8.03    2.10
   0  -4  -4    9.28    1.62
   0  -4   4    8.74    2.07
   0  -4   4    9.39    1.68
   0   4   4    7.25    1.54
   0   4  -4    9.41    1.97
   0   4   4   10.52    1.81
   0   4   4    8.98    1.81
   0   4  -4    8.23    2.02
   0   4   4    7.84    1.56
  -1  -4  -4    5.46    1.76
   1  -4   4    7.34    1.47
  -1  -4  -4    8.55    1.69
   1  -4   4    5.65    1.65
  -1  -4  -4    7.74    1.58
   1  -4   4    9.94    1.64
   1   4   4    7.08    1.78
   1   4   4   10.15    2.23
  -1   4  -4    6.26    1.47
  -1   4  -4    7.79    1.92
   1   4   4    8.05    1.59
   1   4   4    6.93    1.56
   2  -4   4    9.01    1.68
   2  -4   4    7.13    1.45
  -2  -4  -4    8.15    2.23
  -2  -4  -4    7.71    1.67
   2  -4   4   10.12    2.20
  -2  -4  -4    8.87    1.81
   2   4   4    9.18    2.11
  -2   4  -4    6.38    1.43
  -2   4  -4   10.40    1.89
   2   4   4    8.79    1.69
  -2   4  -4    6.71    1.41
   2   4   4   10.67    2.34
   2   4   4    5.64    1.42
  -2   4  -4    5.55    1.55
  -3  -4  -4    4.50    1.58
   3  -4   4    6.16    1.38
   3  -4   4    4.72    1.24
  -3  -4  -4    5.14    1.42
  -3  -4  -4    6.68    1.56
   3  -4   4    4.71    1.52
  -3   4  -4    3.57    1.27
  -3   4  -4    3.74    1.10
   3   4   4    4.70    1.74
  -3   4  -4    4.49    1.15
   3   4   4    4.78    1.22
   3   4   4    6.35    1.78
   3   4   4    4.47    1.28
  -3   4  -4    3.73    1.04
  -4  -4  -4   19.51    2.70
  -4  -4  -4   18.55    3.25
  -4  -4  -4   21.48    2.83
   4  -4   4   22.41    3.01
   4  -4   4   23.39    2.88
   4  -4   4   26.40    2.60
  -4   4  -4   15.21    2.19
   4   4   4   26.20    3.56
   4   4   4   15.33    2.68
  -4   4  -4   19.87    2.27
   4   4   4   23.26    3.00
   4   4   4   21.72    2.71
  -4   4  -4   18.80    2.41
  -5  -4  -4   27.67    3.41
   5  -4   4   29.88    3.08
   5  -4   4   28.51    3.57
   5  -4   4   28.38    2.98
  -5  -4  -4   29.78    3.46
  -5   4  -4   19.17    2.38
   5   4   4   20.24    2.80
  -5   4  -4   19.66    2.38
   5   4   4   29.66    3.91
  -5   4  -4   23.01    2.17
   5   4   4   18.31    3.65
   6  -4   4   -0.38    0.64
   6  -4   4   -0.36    0.67
  -6  -4  -4    1.64    1.05
   6  -4   4    0.62    0.55
  -6  -4  -4   -0.18    0.47
  -6   4  -4    0.31    0.54
  -6   4  -4   -1.05    0.37
   6   4   4    0.19    0.96
   6   4   4    0.30    1.13
  -7  -4  -4   15.05    2.80
  -7  -4  -4   12.91    2.55
   7  -4   4   11.04    1.91
   7  -4   4   13.91    2.06
   7  -4   4    8.14    2.23
  -7   4  -4    6.90    1.43
   7   4   4   10.88    2.81
  -7   4  -4    7.59    1.52
   7   4   4    8.42    2.29
  -8  -4  -4    5.43    1.84
   8  -4   4    4.05    1.75
   8  -4   4    6.54    1.37
  -8  -4  -4    6.92    2.00
  -8   4  -4    3.70    1.29
   8   4   4    8.23    2.07
  -8   4  -4    3.08    0.94
  -8  -5   4   15.16    2.86
   8  -5  -4   14.17    1.27
   8  -5  -4   13.97    2.48
  -8  -5   4   16.02    3.19
   8   5  -4   15.06    3.37
   7  -5  -4    8.84    1.89
  -7  -5   4    8.33    2.22
  -7  -5   4   10.14    2.25
   7  -5  -4    8.90    1.00
   7  -5  -4    6.83    1.17
   7  -5  -4    9.30    1.10
   7  -5  -4    9.71    1.10
   7   5  -4    6.99    2.31
   6  -5  -4    5.81    1.05
   6  -5  -4    4.78    0.90
   6  -5  -4    4.25    0.99
   6  -5  -4    4.13    0.95
  -6  -5   4    4.73    1.56
  -6  -5   4    5.23    1.57
   6  -5  -4    4.63    1.51
   6   5  -4    4.92    2.08
   5  -5  -4    5.51    1.23
   5  -5  -4    2.71    0.92
   5  -5  -4    6.22    1.16
   5  -5  -4    4.72    1.52
   5  -5  -4    4.18    1.45
  -5  -5   4    4.20    1.53
   5  -5  -4    6.77    1.12
  -5  -5   4    5.34    1.59
  -5  -5   4    2.93    1.48
   5   5  -4    4.94    2.01
   4  -5  -4   12.21    1.77
   4  -5  -4   14.98    1.89
   4  -5  -4   13.08    1.81
  -4  -5   4   12.89    2.60
   4  -5  -4   16.10    2.43
  -4  -5   4   13.42    2.41
   4  -5  -4   14.97    1.85
  -4  -5   4   13.28    2.63
   4   5  -4   18.43    3.72
   4   5  -4   14.70    3.37
  -3  -5   4    0.28    0.61
   3  -5  -4    0.46    0.56
   3  -5  -4    0.35    0.67
   3  -5  -4    0.79    0.59
  -3  -5   4    0.05    0.49
   3  -5  -4    0.53    0.63
  -3  -5   4   -0.32    0.83
  -3  -5   4    0.70    0.90
   3   5  -4    1.10    1.03
   3   5  -4   -1.06    0.96
   2  -5  -4    8.93    2.23
   2  -5  -4    7.29    1.66
  -2  -5   4    8.88    2.08
  -2  -5   4    7.12    2.44
   2  -5  -4    8.98    1.78
   2  -5  -4    9.24    1.74
   2  -5  -4   12.02    1.95
  -2  -5   4   13.07    2.78
  -2  -5   4    8.23    1.86
  -2  -5   4    7.62    1.87
   2   5  -4    8.39    2.43
  -2   5   4   13.56    1.43
  -2   5   4   10.04    1.30
   2   5  -4   14.15    2.89
  -1  -5   4   67.67    5.92
   1  -5  -4   64.27    5.64
  -1  -5   4   61.98    5.88
  -1  -5   4   64.67    5.90
   1  -5  -4   55.99    6.22
  -1  -5   4   57.15    6.28
   1  -5  -4   57.43    5.56
   1  -5  -4   65.36    5.66
  -1  -5   4   61.57    5.88
   1   5  -4   56.47    6.49
   1   5  -4   76.34    6.60
   0  -5   4    4.83    1.80
   0  -5  -4    6.81    1.73
   0  -5  -4    9.49    1.82
   0  -5   4    9.12    1.85
   0  -5   4    8.86    1.83
   0  -5  -4    8.93    2.27
   0  -5   4    8.15    1.84
   0  -5   4    8.29    1.88
   0   5   4    6.44    2.48
   0   5   4    8.61    1.84
   0   5  -4    4.40    1.70
   0   5  -4   10.48    2.32
  -1  -5  -4   15.80    2.69
   1  -5   4   14.02    2.48
   1  -5   4   12.72    2.82
   1  -5   4   14.44    2.45
  -1  -5  -4   16.65    2.60
  -1  -5  -4   11.14    3.15
   1  -5   4   17.24    2.27
   1   5   4   18.57    2.74
  -1   5  -4    9.71    2.39
   1   5   4   14.84    2.88
  -1   5  -4   14.38    2.40
   2  -5   4   19.16    2.40
  -2  -5  -4   15.26    5.02
   2  -5   4   16.43    2.22
  -2  -5  -4   17.88    2.43
   2  -5   4   12.83    2.87
  -2  -5  -4   15.48    2.73
   2   5   4   20.59    2.60
  -2   5  -4   19.47    2.60
  -2   5  -4   16.73    2.58
   2   5   4   11.85    2.65
   2   5   4   20.01    3.14
  -3  -5  -4    3.99    1.37
   3  -5   4    3.16    1.17
  -3  -5  -4    4.29    1.74
   3  -5   4    5.80    2.21
  -3  -5  -4    6.26    1.67
   3  -5   4    1.64    1.21
   3   5   4    2.65    1.04
   3   5   4    5.07    1.82
   3   5   4    3.42    1.36
   3   5   4    6.73    1.81
  -3   5  -4    4.56    1.45
  -3   5  -4    3.06    0.99
   4  -5   4    3.65    1.07
   4  -5   4    5.93    1.42
   4  -5   4    3.69    1.48
  -4  -5  -4    4.33    1.52
  -4  -5  -4    2.46    1.14
  -4   5  -4    1.54    0.87
  -4   5  -4    4.36    1.05
   4   5   4    1.70    1.35
  -5  -5  -4    5.47    2.06
  -5  -5  -4    1.35    1.21
   5  -5   4    2.82    0.98
   5  -5   4    1.81    1.70
   5   5   4    7.49    2.39
  -6  -5  -4   10.56    2.30
   6  -5   4    7.87    2.25
  -6  -5  -4    9.94    2.48
   6   5   4   10.81    2.74
   6  -6  -4    0.59    0.62
   6  -6  -4   -0.28    0.55
  -6  -6   4   -0.13    0.95
   6   6  -4    1.79    1.37
  -5  -6   4    7.73    1.97
  -5  -6   4    6.07    1.89
   5  -6  -4    6.19    1.45
   5  -6  -4    6.36    1.43
   5  -6  -4    7.18    1.45
   5   6  -4    7.83    2.29
   4  -6  -4    4.04    1.26
   4  -6  -4    5.61    1.40
  -4  -6   4    5.86    1.74
  -4  -6   4    5.12    1.82
   4   6  -4    5.15    1.97
  -3  -6   4    7.16    2.06
   3  -6  -4   12.07    2.24
  -3  -6   4   12.48    2.46
   3  -6  -4   17.48    2.25
   3  -6  -4    9.61    2.15
  -3  -6   4   15.69    2.95
   3  -6  -4   15.98    2.11
   3   6  -4   12.91    2.94
   2  -6  -4    4.60    1.42
   2  -6  -4    6.26    1.58
  -2  -6   4    5.20    1.81
   2  -6  -4    6.61    1.40
  -2  -6   4    1.67    1.28
  -2  -6   4    3.55    1.33
   2  -6  -4    2.06    1.34
   2   6  -4    5.17    2.13
   2   6  -4    6.67    2.47
  -2   6   4    5.43    0.82
   1  -6  -4   10.65    2.19
   1  -6  -4    6.48    1.77
   1  -6  -4    9.31    2.16
  -1  -6   4    8.30    2.20
  -1  -6   4    9.21    2.05
   1  -6  -4   11.69    2.20
  -1  -6   4   13.90    3.29
  -1  -6   4    9.04    2.09
   1   6  -4    8.37    2.85
  -1   6   4    5.34    1.36
   1   6  -4    8.80    2.52
   0  -6   4   13.42    2.23
   0  -6  -4    8.62    1.92
   0  -6  -4    8.37    1.94
   0  -6   4    8.84    2.04
   0  -6  -4    7.25    1.61
   0  -6   4    7.42    1.96
   0  -6   4    8.22    2.46
   0  -6   4   10.06    2.15
   0  -6  -4    5.93    1.82
   0   6  -4    6.57    2.32
   0   6  -4    8.85    2.49
   0   6   4    4.09    1.78
   0   6   4    9.35    2.12
  -1  -6  -4   11.50    2.34
   1  -6   4    8.80    2.02
  -1  -6  -4    9.00    2.09
   1  -6   4    5.99    2.39
   1  -6   4   11.86    2.16
   1  -6   4    6.56    1.75
   1  -6   4    8.46    2.01
  -1  -6  -4    7.26    2.01
   1   6   4   11.89    2.57
  -1   6  -4   10.17    2.29
  -1   6  -4    5.68    1.85
   1   6   4    8.90    2.22
   2  -6   4   10.69    2.32
  -2  -6  -4   13.94    2.66
   2  -6   4   17.07    2.82
   2  -6   4    9.94    2.13
  -2  -6  -4   13.13    2.65
   2  -6   4   14.31    3.18
  -2   6  -4   12.49    2.39
   2   6   4   18.55    2.96
   2   6   4   14.69    3.22
  -2   6  -4   13.68    2.41
   3  -6   4    6.87    1.57
   3  -6   4    7.63    1.52
  -3  -6  -4    9.87    2.00
   3  -6   4    4.05    1.42
  -3  -6  -4    7.80    1.94
   3  -6   4    4.44    1.74
  -3   6  -4    4.56    1.39
   3   6   4    9.77    2.40
  -4  -6  -4   30.49    3.72
   4  -6   4   23.52    3.46
  -4  -6  -4   35.07    3.95
   4  -6   4   30.33    4.34
  -4   6  -4   22.71    2.65
  12   0  -5    7.95    1.96
 -12   0   5    3.70    0.65
 -12   0   5    5.27    0.66
  11   0  -5    0.60    0.79
 -11   0   5   -0.04    0.38
 -11   0   5    0.05    0.37
 -11   0   5    0.73    0.30
 -11   0   5   -0.83    0.31
 -10   0   5   21.19    1.99
  10   0  -5   18.64    2.73
 -10   0   5   20.47    1.90
  -9   0   5   64.83    4.77
   9   0  -5   55.27    5.69
  -9   0   5   68.00    5.02
  -9   0   5   62.67    4.90
  -9   0   5   63.59    4.82
  -8   0   5   35.02    2.81
  -8   0   5   35.47    2.86
  -8   0   5   35.21    2.93
  -8   0   5   35.59    2.99
  -7   0   5    0.03    0.26
  -7   0   5   -0.07    0.24
  -7   0   5    0.64    0.30
   7   0  -5    0.04    0.43
  -7   0   5    0.34    0.24
  -6   0   5   14.69    1.32
  -6   0   5   14.87    1.35
   6   0  -5   11.66    1.59
  -6   0   5   13.98    1.32
  -5   0   5    1.05    0.36
  -5   0   5    1.14    0.31
  -5   0   5    1.54    0.39
  -4   0   5  295.62   18.49
  -4   0   5  296.07   18.47
   4   0  -5  240.21   18.52
  -4   0   5  258.44   18.53
   4   0  -5  230.23   18.61
   4   0  -5  234.99   18.50
  -3   0   5  419.72   26.40
   3   0  -5  333.68   26.52
   3   0  -5  352.75   26.41
  -3   0   5  411.78   26.40
   3   0  -5  345.01   26.41
  -2   0   5    5.22    0.81
  -2   0   5    6.45    0.73
   2   0  -5    6.77    0.89
  -2   0   5    6.24    0.72
   2   0  -5    6.69    0.77
   2   0  -5    6.95    0.78
   1   0  -5    4.70    0.76
  -1   0   5    3.90    0.66
  -1   0   5    3.63    0.63
  -1   0   5    3.97    0.86
   1   0  -5    3.26    0.61
   1   0  -5    3.43    0.62
   0   0  -5   14.46    1.41
   0   0  -5   15.09    1.64
   0   0  -5   14.03    1.40
   0   0   5   14.32    1.42
   0   0   5   13.10    1.58
   0   0   5   14.66    1.41
  -1   0  -5   13.96    1.34
   1   0   5   13.28    1.58
  -1   0  -5   10.42    1.46
   1   0   5   10.85    1.28
  -1   0  -5   10.82    1.24
   1   0   5   11.37    1.28
  -2   0  -5    2.53    0.87
   2   0   5    4.03    0.82
   2   0   5    2.53    0.66
  -2   0  -5    3.22    0.71
  -2   0  -5    3.18    0.74
   3   0   5   47.14    4.14
  -3   0  -5   39.29    3.52
  -3   0  -5   35.47    3.81
  -3   0  -5   46.50    3.61
   3   0   5   40.14    3.62
   3   0   5   40.67    3.61
  -4   0  -5    3.82    0.90
  -4   0  -5    3.40    1.04
  -4   0  -5    3.42    1.09
   4   0   5    4.38    1.02
   4   0   5    5.43    1.45
   4   0   5    2.93    0.81
  -5   0  -5   -0.19    0.55
   5   0   5    0.48    0.76
   5   0   5    0.19    0.58
  -5   0  -5    0.23    0.33
   5   0   5   -0.37    0.44
  -5   0  -5    0.54    0.50
   6   0   5    0.68    0.75
  -6   0  -5    0.08    0.75
  -6   0  -5    0.21    0.27
   6   0   5   -0.14    0.44
   6   0   5   -0.37    0.25
  -6   0  -5    0.66    0.52
  -7   0  -5    1.85    0.77
   7   0   5    1.94    0.99
   7   0   5    1.58    0.89
  -7   0  -5    2.08    0.85
  -7   0  -5    2.59    1.06
   7   0   5    1.50    1.18
   8   0   5   -0.24    0.92
  -8   0  -5   -1.96    0.85
  -8   0  -5   -0.78    0.43
  -8   0  -5    0.12    0.57
   8   0   5    1.25    0.77
   8   0   5    0.24    0.79
  -9   0  -5    2.75    0.97
   9   0   5    2.55    1.60
  -9   0  -5    5.67    1.53
   9   0   5    4.21    1.38
  -9   0  -5    2.41    1.08
 -10   0  -5   -1.46    2.33
  10   0   5    2.78    1.33
 -10   0  -5    3.20    0.98
 -10   0  -5   -0.59    0.86
 -12  -1   5    3.30    1.29
  12  -1  -5    4.68    1.25
  12   1  -5    4.84    1.77
 -11  -1   5    7.87    1.64
 -11  -1   5   11.74    1.48
 -11  -1   5    9.38    1.47
  11  -1  -5   10.59    1.82
  11   1  -5    9.76    2.50
 -10  -1   5    3.24    0.93
 -10  -1   5    5.06    1.04
  10  -1  -5    3.82    1.14
 -10  -1   5    3.25    0.90
 -10  -1   5    3.86    0.96
  10   1  -5    3.24    1.49
  -9  -1   5   21.75    2.46
  -9  -1   5   24.35    2.58
  -9  -1   5   26.10    2.45
   9  -1  -5   18.68    2.43
  -9  -1   5   25.91    2.43
   9   1  -5   17.86    2.67
  -8  -1   5  133.41   10.43
  -8  -1   5  147.97   10.58
  -8  -1   5  142.56   10.41
   8  -1  -5  117.17   10.25
  -8  -1   5  143.92   10.37
   8   1  -5  118.90    9.98
  -7  -1   5  131.70    9.33
   7  -1  -5  101.17    8.94
  -7  -1   5  129.54    9.40
  -7  -1   5  125.92    9.32
  -7  -1   5  123.88    9.33
   7   1  -5  107.97    9.01
  -6  -1   5    0.97    0.50
  -6  -1   5    1.22    0.55
  -6  -1   5    0.99    0.52
  -6  -1   5    1.36    0.58
   6   1  -5    0.87    0.72
   6   1  -5    0.36    0.77
  -5  -1   5   48.14    4.06
  -5  -1   5   51.67    4.11
  -5  -1   5   46.22    4.08
   5   1  -5   39.92    3.90
   5   1  -5   42.42    3.82
   4  -1  -5   15.46    1.19
  -4  -1   5   17.05    1.61
   4  -1  -5   15.21    1.18
   4  -1  -5   12.32    1.13
  -4  -1   5   14.47    1.55
  -4  -1   5   13.70    1.57
  -4  -1   5   14.41    1.58
   4   1  -5   13.95    1.77
   4   1  -5   15.37    1.62
   3  -1  -5  109.46    7.49
  -3  -1   5   97.68    7.78
   3  -1  -5  102.41    7.54
  -3  -1   5   89.86    7.96
   3  -1  -5  117.20    7.51
  -3  -1   5  103.01    7.82
  -3   1   5   88.13    6.30
   3   1  -5   86.60    6.71
   3   1  -5   82.00    6.68
   3   1  -5   91.52    6.96
  -3   1   5   88.00    6.29
   2  -1  -5  530.04   36.21
   2  -1  -5  512.40   36.20
   2  -1  -5  558.89   36.38
  -2  -1   5  486.26   36.40
  -2  -1   5  474.43   36.39
   2   1  -5  413.49   30.57
   2   1  -5  455.09   30.86
  -2   1   5  423.57   30.30
   2   1  -5  415.77   30.57
  -2   1   5  433.19   30.32
  -2   1   5  431.98   30.22
  -1  -1   5   38.97    3.17
   1  -1  -5   39.16    3.06
  -1  -1   5   35.39    3.36
  -1  -1   5   35.39    3.12
   1  -1  -5   40.25    3.27
  -1   1   5   33.32    2.83
  -1   1   5   38.95    2.96
   1   1  -5   34.00    2.96
   1   1  -5   33.15    2.96
  -1   1   5   33.15    2.81
   1   1  -5   36.88    3.20
   0  -1   5    0.50    0.28
   0  -1   5    1.11    0.54
   0  -1  -5    0.37    0.31
   0  -1  -5    0.34    0.38
   0  -1  -5    0.37    0.29
   0  -1   5    0.11    0.25
   0   1  -5    0.76    0.34
   0   1  -5    0.54    0.34
   0   1   5    0.74    0.47
   0   1   5    0.29    0.28
   0   1   5    0.53    0.28
   0   1  -5    0.37    0.41
   1  -1   5   77.84    5.72
  -1  -1  -5   67.07    6.00
  -1  -1  -5   70.47    5.68
  -1  -1  -5   72.36    5.71
   1  -1   5   74.41    6.02
   1  -1   5   75.59    5.71
  -1   1  -5   63.26    5.17
   1   1   5   74.68    5.61
  -1   1  -5   64.56    5.17
   1   1   5   59.92    5.18
  -1   1  -5   74.97    5.54
   1   1   5   57.81    5.15
   2  -1   5   31.84    2.75
  -2  -1  -5   30.28    2.77
  -2  -1  -5   24.39    2.98
   2  -1   5   34.33    3.19
   2  -1   5   30.79    2.74
   2   1   5   25.76    2.60
   2   1   5   31.28    3.07
  -2   1  -5   32.66    2.91
  -2   1  -5   27.01    2.51
   2   1   5   25.07    2.57
  -2   1  -5   26.43    2.52
  -3  -1  -5  337.20   25.58
   3  -1   5  353.18   25.56
   3  -1   5  375.73   26.07
  -3  -1  -5  340.71   25.61
   3  -1   5  363.83   25.57
  -3   1  -5  315.37   22.62
  -3   1  -5  299.41   22.94
   3   1   5  358.34   23.53
   3   1   5  290.39   22.77
   3   1   5  288.27   22.77
  -3   1  -5  329.48   22.66
   4  -1   5  155.85   11.71
   4  -1   5  164.74   12.26
  -4  -1  -5  151.78   11.76
   4  -1   5  152.26   11.67
  -4  -1  -5  148.62   11.71
   4   1   5  124.96   10.27
  -4   1  -5  136.39   10.03
   4   1   5  133.87   10.33
  -4   1  -5  137.04   10.05
   4   1   5  148.25   11.06
  -4   1  -5  118.07   10.32
   5  -1   5   70.47    5.88
  -5  -1  -5   48.59    5.53
   5  -1   5   58.75    5.13
  -5  -1  -5   63.04    5.25
   5  -1   5   60.53    5.16
  -5  -1  -5   61.13    5.20
   5   1   5   57.95    5.50
   5   1   5   48.81    4.75
  -5   1  -5   46.36    4.77
  -5   1  -5   60.99    4.58
  -5   1  -5   52.18    4.45
   5   1   5   53.04    4.80
  -6  -1  -5    2.18    1.11
   6  -1   5    1.00    0.70
   6  -1   5    2.00    1.10
  -6  -1  -5    2.05    0.86
   6  -1   5    1.32    0.69
  -6  -1  -5    1.14    0.71
   6   1   5    1.72    0.75
  -6   1  -5    1.63    0.97
  -6   1  -5    0.39    0.46
   6   1   5    1.22    0.74
   6   1   5    1.10    0.96
  -7  -1  -5    7.78    1.66
   7  -1   5    8.51    1.68
   7  -1   5   12.42    2.05
   7  -1   5   11.84    2.50
  -7  -1  -5    8.30    2.13
  -7  -1  -5   12.36    2.00
  -7   1  -5    9.91    1.57
  -7   1  -5    7.72    1.69
  -7   1  -5   11.14    1.74
   7   1   5    8.21    1.69
   7   1   5   11.52    2.07
   7   1   5    9.18    2.43
   8  -1   5    4.01    1.31
  -8  -1  -5    2.72    1.24
   8  -1   5    3.96    1.29
  -8  -1  -5    4.84    1.31
   8  -1   5    6.81    1.99
  -8  -1  -5    6.17    1.70
  -8   1  -5    3.71    1.07
   8   1   5    5.79    2.04
  -8   1  -5    3.97    1.03
  -8   1  -5    1.61    1.04
   8   1   5    3.33    1.16
   8   1   5    4.13    1.23
  -9  -1  -5    6.60    1.55
  -9  -1  -5    8.81    2.09
   9  -1   5    4.79    1.90
  -9  -1  -5    5.77    1.55
   9  -1   5    5.68    1.39
   9   1   5    3.51    1.39
   9   1   5    5.38    2.09
   9   1   5    7.54    1.53
  -9   1  -5    8.38    1.56
  10  -1   5    5.74    2.19
 -10  -1  -5    2.96    0.98
 -10  -1  -5    3.97    1.44
 -10   1  -5    3.59    1.28
  10   1   5    5.45    1.69
 -11  -2   5    6.37    1.86
  11  -2  -5    6.40    1.28
 -11  -2   5    5.80    1.48
  11   2  -5    6.30    2.05
 -10  -2   5    2.82    0.91
 -10  -2   5    1.32    0.93
  10  -2  -5    0.62    0.58
 -10  -2   5    0.45    0.71
  10   2  -5    1.14    1.20
  -9  -2   5    5.16    1.22
   9  -2  -5    3.43    0.81
  -9  -2   5    3.85    1.25
   9   2  -5    5.11    1.77
  -8  -2   5   53.87    4.95
  -8  -2   5   56.60    5.00
   8  -2  -5   47.25    4.10
  -8  -2   5   54.38    4.87
  -8  -2   5   61.01    5.04
   8   2  -5   48.15    5.21
   8   2  -5   46.03    4.97
  -7  -2   5  124.88   10.12
  -7  -2   5  125.49   10.15
  -7  -2   5  132.70   10.19
  -7  -2   5  128.20   10.11
   7   2  -5  107.38    9.03
   7   2  -5  104.30    9.25
  -6  -2   5   -0.44    0.23
  -6  -2   5   -0.15    0.37
  -6  -2   5    0.54    0.40
  -6  -2   5    0.15    0.53
   6   2  -5   -0.61    0.39
  -5  -2   5   24.99    2.65
  -5  -2   5   25.32    2.67
  -5  -2   5   27.08    2.71
  -5  -2   5   22.79    2.59
   5   2  -5   22.53    2.69
   5   2  -5   21.72    2.80
   4  -2  -5   40.02    3.59
  -4  -2   5   42.86    4.21
  -4  -2   5   49.14    4.28
  -4  -2   5   46.85    4.28
  -4  -2   5   45.81    4.21
   4  -2  -5   56.80    3.61
   4  -2  -5   54.42    3.58
   4   2  -5   46.79    4.19
   4   2  -5   37.62    4.15
  -3  -2   5  117.30    9.15
  -3  -2   5  114.37    9.20
   3  -2  -5  123.14    8.65
   3  -2  -5  126.76    8.80
  -3  -2   5  115.90    9.14
  -3  -2   5  102.91    9.35
   3  -2  -5  126.45    8.66
   3   2  -5   99.76    8.69
   3   2  -5  110.86    8.61
   3   2  -5   97.75    8.27
  -3   2   5  112.98    7.71
   3   2  -5   99.85    8.23
  -3   2   5  110.18    7.72
  -2  -2   5   89.50    7.00
   2  -2  -5   94.11    6.69
   2  -2  -5   92.83    6.68
  -2  -2   5   88.85    6.99
  -2  -2   5   75.40    7.17
   2  -2  -5   91.48    6.91
   2   2  -5   81.03    6.65
  -2   2   5   78.05    6.02
  -2   2   5   76.72    6.00
   2   2  -5   75.99    6.34
   2   2  -5   73.90    6.33
   2   2  -5   73.78    6.75
  -2   2   5   91.50    5.73
   1  -2  -5   44.38    3.52
   1  -2  -5   40.75    3.75
   1  -2  -5   41.20    3.71
  -1  -2   5   39.24    3.92
  -1  -2   5   44.62    3.69
  -1  -2   5   42.84    3.67
   1   2  -5   35.42    3.38
  -1   2   5   45.94    3.34
   1   2  -5   41.29    3.71
  -1   2   5   32.04    3.15
   1   2  -5   37.43    3.42
  -1   2   5   38.01    3.23
   0  -2  -5  199.12   14.34
   0  -2   5  183.87   14.70
   0  -2  -5  199.36   14.35
   0  -2   5  206.03   14.42
   0  -2  -5  182.92   14.69
   0  -2   5  199.23   14.39
   0   2  -5  165.93   12.28
   0   2   5  168.59   12.22
   0   2   5  161.23   12.18
   0   2  -5  162.80   12.28
   1  -2   5   32.93    2.83
  -1  -2  -5   30.41    2.83
  -1  -2  -5   30.75    2.84
  -1  -2  -5   23.67    3.04
   1  -2   5   29.72    3.11
   1  -2   5   33.52    2.84
   1   2   5   24.09    2.48
  -1   2  -5   25.06    2.46
   1   2   5   30.84    2.94
   1   2   5   23.29    2.46
  -1   2  -5   26.04    2.50
  -2  -2  -5   16.62    2.02
  -2  -2  -5   14.00    2.24
   2  -2   5   18.61    2.32
   2  -2   5   20.83    2.01
   2  -2   5   22.35    2.06
  -2  -2  -5   20.01    2.11
   2   2   5   15.54    1.87
   2   2   5   21.14    2.45
  -2   2  -5   18.66    2.07
   2   2   5   14.13    1.81
  -2   2  -5   16.43    1.81
  -2   2  -5   13.75    1.72
  -3  -2  -5    8.63    2.05
   3  -2   5   10.96    1.77
   3  -2   5   10.05    1.58
  -3  -2  -5   11.24    1.53
   3  -2   5   12.46    1.45
  -3  -2  -5    9.79    1.68
  -3   2  -5   10.73    1.58
  -3   2  -5    8.99    1.28
   3   2   5    9.59    1.66
  -3   2  -5    8.38    1.22
   3   2   5   12.30    2.00
   4  -2   5  143.09   10.77
   4  -2   5  132.22   10.15
  -4  -2  -5  128.83   10.35
   4  -2   5  134.06   10.15
  -4  -2  -5  121.30   10.32
  -4   2  -5  105.55    8.23
  -4   2  -5  107.59    8.53
   4   2   5   96.87    8.52
   4   2   5  101.84    8.59
  -4   2  -5  102.97    8.23
   4   2   5  124.27    9.53
  -5  -2  -5   53.60    4.95
  -5  -2  -5   55.68    5.04
   5  -2   5   54.82    4.75
   5  -2   5   53.77    4.74
   5  -2   5   54.51    5.32
  -5   2  -5   36.96    3.85
   5   2   5   38.94    4.03
   5   2   5   42.58    4.10
  -5   2  -5   41.49    3.71
  -5   2  -5   40.87    3.67
   5   2   5   50.41    5.02
   6  -2   5   56.36    5.12
  -6  -2  -5   37.27    4.86
  -6  -2  -5   53.01    4.69
   6  -2   5   47.91    4.36
  -6  -2  -5   50.44    4.64
   6  -2   5   42.66    4.26
   6   2   5   33.39    3.79
  -6   2  -5   37.04    3.61
  -6   2  -5   35.55    3.35
   6   2   5   42.58    4.02
  -6   2  -5   33.73    3.29
   7  -2   5   18.62    3.48
  -7  -2  -5   10.48    2.50
  -7  -2  -5   15.69    2.54
   7  -2   5   12.88    2.12
  -7  -2  -5   17.65    2.71
   7  -2   5   16.38    2.66
   7   2   5   15.92    2.58
  -7   2  -5   10.30    1.66
   7   2   5   10.59    2.08
   7   2   5   16.50    3.35
  -7   2  -5   11.60    1.60
   8  -2   5    1.12    1.13
  -8  -2  -5    2.51    1.01
   8  -2   5    2.39    0.93
  -8  -2  -5    2.20    1.11
   8  -2   5    3.42    1.12
   8   2   5    2.78    1.50
   8   2   5    2.57    1.34
  -8   2  -5    1.01    0.56
  -8   2  -5    3.43    0.79
  -8   2  -5    0.56    0.68
  -9  -2  -5   -0.53    0.90
  -9  -2  -5    1.10    1.03
   9  -2   5    1.63    1.16
  -9   2  -5   -0.06    0.70
  -9   2  -5    0.91    0.75
   9   2   5    2.24    1.02
  11  -3  -5    8.78    1.41
 -11  -3   5   15.00    2.62
  10  -3  -5   -0.94    0.43
 -10  -3   5    0.97    1.13
 -10  -3   5    0.03    0.97
  10   3  -5    2.50    1.47
  -9  -3   5    8.78    1.79
  -9  -3   5    2.70    1.35
   9  -3  -5    4.21    0.79
   9   3  -5    5.22    1.97
  -8  -3   5   18.80    2.57
  -8  -3   5   15.40    2.75
  -8  -3   5   19.88    2.67
  -8  -3   5   18.90    2.97
   8  -3  -5   19.31    1.70
   8   3  -5   15.60    2.76
   7  -3  -5   62.38    4.57
  -7  -3   5   56.66    5.53
  -7  -3   5   67.33    5.80
  -7  -3   5   56.40    5.57
  -7  -3   5   56.43    5.57
   7   3  -5   49.40    5.49
   7   3  -5   48.11    5.20
  -6  -3   5    5.53    1.40
  -6  -3   5    4.51    1.28
  -6  -3   5    5.45    1.43
   6  -3  -5    4.67    0.76
  -6  -3   5    3.99    1.40
   6  -3  -5    4.81    0.68
   6   3  -5    5.71    1.83
   6   3  -5    6.75    1.82
  -5  -3   5   21.55    2.73
  -5  -3   5   24.92    2.85
   5  -3  -5   20.50    2.12
   5  -3  -5   27.11    2.01
   5  -3  -5   26.29    1.99
   5  -3  -5   24.74    1.95
  -5  -3   5   24.90    2.82
  -5  -3   5   26.99    2.90
   5  -3  -5   22.05    2.22
   5   3  -5   22.52    2.91
   5   3  -5   21.50    3.06
  -4  -3   5   20.93    2.63
   4  -3  -5   20.10    2.26
   4  -3  -5   23.66    2.06
   4  -3  -5   26.12    2.08
   4  -3  -5   21.52    2.05
  -4  -3   5   27.77    2.80
  -4  -3   5   24.85    2.76
  -4  -3   5   27.40    3.16
   4   3  -5   22.13    2.88
   4   3  -5   22.90    3.06
   3  -3  -5    2.19    0.75
  -3  -3   5    2.17    0.74
   3  -3  -5    1.59    0.52
  -3  -3   5    2.92    0.93
  -3  -3   5    2.85    1.24
  -3  -3   5    2.31    0.80
   3  -3  -5    1.44    0.49
  -3  -3   5    0.99    0.67
   3   3  -5    1.21    0.81
   3   3  -5    0.56    0.58
  -2  -3   5   67.16    6.58
   2  -3  -5   69.34    6.27
   2  -3  -5   83.23    6.00
   2  -3  -5   79.81    5.96
  -2  -3   5   76.90    6.31
  -2  -3   5   73.89    6.26
  -2   3   5   87.18    5.58
  -2   3   5   71.92    5.89
   2   3  -5   64.49    6.67
   2   3  -5   77.97    7.12
   2   3  -5   65.75    6.19
  -1  -3   5    0.87    0.48
  -1  -3   5    0.79    0.59
  -1  -3   5    0.91    0.71
   1  -3  -5    0.74    0.46
   1  -3  -5    1.40    0.57
   1  -3  -5    1.34    0.71
   1   3  -5    0.75    0.42
  -1   3   5    1.56    0.57
  -1   3   5    1.45    0.61
  -1   3   5    0.20    0.36
  -1   3   5    0.73    0.51
   1   3  -5    2.24    0.90
   1   3  -5    0.43    0.47
   1   3  -5    0.48    0.52
   0  -3  -5   10.99    1.52
   0  -3   5   10.48    2.13
   0  -3  -5   10.66    1.85
   0  -3   5   13.10    1.62
   0  -3   5   10.82    1.51
   0  -3  -5   13.54    1.65
   0   3   5   10.13    1.94
   0   3  -5    8.99    1.66
   0   3   5   13.16    1.77
   0   3  -5   12.09    1.58
   0   3  -5   14.31    1.91
   0   3   5   10.72    1.51
   0   3   5    9.60    1.60
   0   3  -5   11.80    1.91
   1  -3   5   24.32    2.54
  -1  -3  -5   20.54    2.89
   1  -3   5   26.53    2.57
  -1  -3  -5   27.80    2.70
   1  -3   5   22.43    2.86
  -1  -3  -5   25.00    2.59
   1   3   5   18.23    2.23
  -1   3  -5   24.85    2.59
  -1   3  -5   20.44    2.69
   1   3   5   19.00    2.25
   1   3   5   25.37    2.78
  -1   3  -5   19.52    2.22
  -1   3  -5   17.18    2.20
  -2  -3  -5    9.97    1.81
  -2  -3  -5    8.06    2.02
   2  -3   5   12.57    1.55
  -2  -3  -5   12.25    1.94
   2  -3   5   10.40    2.11
   2  -3   5   11.24    1.51
  -2   3  -5   10.66    1.74
   2   3   5   10.26    1.81
  -2   3  -5    8.58    1.83
   2   3   5    8.96    1.71
  -2   3  -5    9.11    1.90
  -2   3  -5   12.56    1.77
   2   3   5   13.95    2.16
   3  -3   5   94.72    7.14
  -3  -3  -5   94.78    7.46
   3  -3   5   80.63    7.51
  -3  -3  -5   81.07    7.28
   3  -3   5   87.39    7.06
   3   3   5   62.93    5.97
  -3   3  -5   63.31    6.11
  -3   3  -5   69.49    5.81
   3   3   5   84.66    7.00
  -3   3  -5   61.03    5.68
  -3   3  -5   83.02    6.12
   3   3   5   62.71    5.97
  -4  -3  -5  158.93   13.00
   4  -3   5  166.49   12.67
   4  -3   5  169.30   13.31
   4  -3   5  169.22   12.69
  -4  -3  -5  168.17   13.06
  -4   3  -5  111.34    9.82
  -4   3  -5  144.11    9.83
  -4   3  -5  117.98    9.51
   4   3   5  121.70    9.99
  -4   3  -5  117.47    9.52
   4   3   5  121.83   10.00
  -5  -3  -5   67.68    6.00
  -5  -3  -5   59.06    5.85
   5  -3   5   71.44    5.65
   5  -3   5   63.06    5.53
   5  -3   5   61.60    6.12
   5   3   5   44.08    4.48
  -5   3  -5   43.88    4.13
   5   3   5   47.34    4.62
  -5   3  -5   40.26    3.98
  -5   3  -5   43.59    4.25
  -5   3  -5   48.98    4.19
   6  -3   5    3.68    1.09
   6  -3   5    3.63    1.45
  -6  -3  -5    5.33    1.51
  -6  -3  -5    3.81    1.41
   6  -3   5    4.26    1.07
   6   3   5    2.34    1.23
   6   3   5    4.36    1.87
  -6   3  -5    2.98    0.91
   6   3   5    5.78    1.45
  -6   3  -5    3.38    0.94
  -7  -3  -5    0.30    0.75
  -7  -3  -5    0.89    0.84
   7  -3   5   -0.12    0.52
   7  -3   5    0.18    0.93
  -7   3  -5   -0.35    0.55
   7   3   5   -1.17    0.78
   7   3   5   -1.49    0.85
  -7   3  -5   -0.40    0.45
  -7   3  -5    0.49    0.47
   7   3   5    0.28    1.05
  -8  -3  -5    6.44    1.72
  -8  -3  -5    7.11    1.96
   8  -3   5    5.68    1.91
  -8   3  -5    2.16    0.93
   8   3   5    8.15    2.33
  -8   3  -5    4.11    1.20
  -9  -3  -5   13.35    2.50
   9  -3   5   10.00    2.55
  -9  -3  -5    9.86    2.30
   9   3   5   16.26    3.70
 -10  -4   5   26.38    3.39
  10  -4  -5   19.65    2.29
 -10  -4   5   21.97    3.73
  10   4  -5   27.91    4.08
  -9  -4   5   38.16    4.16
   9  -4  -5   28.35    2.87
  -9  -4   5   34.70    6.60
   9   4  -5   28.92    4.21
  -8  -4   5   30.64    3.60
   8  -4  -5   26.80    2.71
  -8  -4   5   30.04    3.68
   8   4  -5   25.98    4.04
  -7  -4   5    1.93    0.80
  -7  -4   5    0.33    0.90
  -7  -4   5    0.05    0.71
   7  -4  -5    0.86    0.65
  -7  -4   5    0.78    0.61
   7   4  -5    1.03    1.32
   7   4  -5   -0.11    0.80
   6  -4  -5   11.78    1.64
   6  -4  -5   10.68    1.07
  -6  -4   5   11.30    2.28
   6  -4  -5    8.71    1.60
  -6  -4   5    9.37    2.15
   6  -4  -5   11.28    1.13
  -6  -4   5    8.60    2.09
   6  -4  -5   10.13    1.08
  -6  -4   5   11.71    2.24
   6  -4  -5   10.62    1.02
   6   4  -5    7.77    2.30
   6   4  -5   11.22    3.06
   5  -4  -5    4.41    1.10
   5  -4  -5    4.35    0.86
  -5  -4   5    4.75    1.45
   5  -4  -5    4.30    0.77
  -5  -4   5    4.18    1.34
  -5  -4   5    1.89    0.87
   5  -4  -5    4.79    1.17
   5  -4  -5    3.69    0.78
   5  -4  -5    5.00    0.86
  -5  -4   5    2.79    1.10
   5   4  -5    5.47    1.80
   5   4  -5    4.58    1.77
  -4  -4   5   39.35    4.12
  -4  -4   5   39.24    4.15
  -4  -4   5   41.87    4.19
   4  -4  -5   41.46    3.46
   4  -4  -5   40.93    3.43
   4  -4  -5   36.10    3.84
  -4  -4   5   38.59    4.09
   4  -4  -5   35.44    3.36
   4  -4  -5   38.39    3.44
   4   4  -5   40.56    4.45
   4   4  -5   36.00    4.55
  -3  -4   5   32.90    3.53
  -3  -4   5   26.46    3.34
  -3  -4   5   31.52    3.50
   3  -4  -5   33.21    3.02
   3  -4  -5   34.92    3.03
   3  -4  -5   28.01    3.36
  -3  -4   5   33.82    3.54
  -3  -4   5   28.44    3.79
   3  -4  -5   30.60    2.98
   3   4  -5   30.74    4.03
   3   4  -5   32.96    3.78
  -2  -4   5   51.11    5.13
   2  -4  -5   56.54    4.79
  -2  -4   5   62.58    5.30
  -2  -4   5   52.70    5.57
  -2  -4   5   54.68    5.12
   2  -4  -5   55.90    4.80
  -2  -4   5   53.14    5.18
   2   4  -5   45.26    5.67
  -2   4   5   67.31    4.59
   2   4  -5   57.85    5.73
   1  -4  -5  100.42    9.47
   1  -4  -5  122.35    9.03
  -1  -4   5  101.44    9.55
  -1  -4   5  115.92    9.33
  -1  -4   5  116.37    9.20
  -1  -4   5  119.69    9.25
   1  -4  -5  114.40    8.95
   1   4  -5  126.06    9.45
  -1   4   5   97.74    8.55
  -1   4   5  114.17    8.64
   1   4  -5   95.31    9.39
  -1   4   5  111.95    8.69
   0  -4   5   13.09    2.18
   0  -4   5   15.38    1.99
   0  -4  -5   13.11    2.71
   0  -4  -5   15.28    1.98
   0  -4   5   12.68    2.65
   0  -4  -5   14.70    1.95
   0   4   5   11.27    1.93
   0   4   5   16.03    2.20
   0   4  -5   14.24    2.32
   0   4   5   13.93    1.89
   0   4  -5   17.92    2.39
   0   4   5   16.55    1.99
   0   4  -5   12.40    2.59
  -1  -4  -5    3.54    1.14
   1  -4   5    4.14    1.10
   1  -4   5    4.07    1.51
   1  -4   5    6.46    1.38
  -1  -4  -5    5.55    1.46
  -1  -4  -5    3.69    1.42
   1   4   5    3.26    1.07
   1   4   5    3.81    1.18
  -1   4  -5    4.37    1.30
  -1   4  -5    2.58    0.86
   1   4   5    3.94    1.36
  -1   4  -5    3.30    1.06
   1   4   5    6.01    1.61
  -1   4  -5    2.78    1.31
   2  -4   5    1.35    0.69
   2  -4   5    0.66    0.66
  -2  -4  -5   -0.17    0.59
  -2  -4  -5    0.37    0.76
   2  -4   5    0.51    0.83
  -2  -4  -5    1.63    0.75
  -2   4  -5   -0.10    0.67
   2   4   5   -0.14    0.86
   2   4   5    0.69    0.54
  -2   4  -5    0.82    0.59
  -2   4  -5    0.48    0.56
   2   4   5    0.90    0.99
   2   4   5    1.11    0.62
  -2   4  -5    0.88    0.91
   3  -4   5   77.01    7.21
  -3  -4  -5   80.37    6.92
  -3  -4  -5   66.99    7.41
  -3  -4  -5   74.14    6.83
   3  -4   5   82.90    6.63
   3  -4   5   83.40    6.64
  -3   4  -5   54.00    4.94
   3   4   5   53.62    5.14
   3   4   5   53.16    5.14
  -3   4  -5   51.68    4.87
  -3   4  -5   59.61    5.44
   3   4   5   53.15    5.40
  -4  -4  -5   85.04    7.64
   4  -4   5  102.73    7.42
   4  -4   5   82.02    7.89
   4  -4   5   95.65    7.36
  -4  -4  -5   68.25    8.20
  -4  -4  -5   91.23    7.78
  -4   4  -5   65.42    5.68
  -4   4  -5   66.05    5.96
  -4   4  -5   61.35    5.58
   4   4   5   64.85    6.07
   5  -4   5    2.08    1.02
  -5  -4  -5    0.67    0.73
   5  -4   5    0.62    0.75
  -5  -4  -5   -0.42    0.62
   5  -4   5    0.69    1.03
   5   4   5    1.89    1.06
  -5   4  -5    0.33    0.57
  -5   4  -5    0.25    0.46
   5   4   5    0.76    0.73
  -5   4  -5   -0.39    0.59
   5   4   5   -1.48    0.79
   6  -4   5    0.77    0.74
   6  -4   5   -1.33    0.64
   6  -4   5   -0.29    0.92
  -6  -4  -5   -1.19    0.41
  -6  -4  -5   -1.58    0.69
  -6   4  -5    1.04    0.52
  -6   4  -5    0.70    0.59
  -6   4  -5   -0.08    0.55
   6   4   5   -0.27    1.03
   7  -4   5    7.80    2.24
  -7  -4  -5   10.08    2.41
   7  -4   5   10.11    1.99
  -7  -4  -5    7.60    2.15
   7   4   5   10.75    2.70
  -7   4  -5    4.53    1.35
  -7   4  -5    4.02    1.17
   8  -4   5   -0.34    1.35
  -8  -4  -5   -0.58    1.22
  -8  -4  -5    0.23    0.72
  -8   4  -5    1.02    0.82
   8   4   5   -2.09    0.99
  -8   4  -5   -0.98    0.81
   8  -5  -5   35.72    3.86
  -8  -5   5   39.23    4.57
  -8  -5   5   45.02    5.00
   8   5  -5   37.43    5.19
   7  -5  -5   27.45    3.24
   7  -5  -5   26.60    2.23
   7  -5  -5   30.13    2.37
   7  -5  -5   28.38    2.30
  -7  -5   5   27.51    3.71
  -7  -5   5   31.16    3.74
   7  -5  -5   26.94    2.39
   7   5  -5   25.96    4.05
   6  -5  -5    6.93    1.13
  -6  -5   5    4.71    1.62
   6  -5  -5    8.73    1.16
  -6  -5   5    6.68    1.89
   6  -5  -5    8.54    1.08
   6  -5  -5    7.80    1.01
   6  -5  -5    7.43    1.70
   6  -5  -5    5.42    1.69
   6   5  -5    5.67    2.01
   5  -5  -5   27.98    2.56
   5  -5  -5   23.04    2.40
  -5  -5   5   18.04    3.40
  -5  -5   5   20.05    3.50
   5  -5  -5   27.92    2.61
  -5  -5   5   23.10    3.14
   5  -5  -5   23.55    3.18
   5  -5  -5   25.39    2.55
   5   5  -5   20.45    3.53
   4  -5  -5    4.63    1.12
   4  -5  -5    2.75    1.01
   4  -5  -5    2.98    1.00
  -4  -5   5    2.27    1.52
   4  -5  -5    3.81    1.01
  -4  -5   5    1.30    1.25
  -4  -5   5    7.67    1.78
  -4  -5   5    3.59    1.16
   4  -5  -5    2.75    1.15
   4   5  -5    5.61    2.71
   4   5  -5    3.67    1.66
   3  -5  -5    6.95    1.84
  -3  -5   5    7.41    1.86
  -3  -5   5    6.78    1.67
  -3  -5   5    4.72    1.35
   3  -5  -5    6.09    1.32
   3  -5  -5    3.80    1.23
  -3  -5   5    7.95    1.99
   3  -5  -5    5.77    1.30
   3  -5  -5    6.63    1.40
   2  -5  -5    7.52    1.61
  -2  -5   5    4.68    1.76
  -2  -5   5    6.43    1.73
  -2  -5   5    6.79    1.67
   2  -5  -5    7.91    1.72
  -2  -5   5    4.10    1.32
   2  -5  -5    4.88    1.34
  -2   5   5    7.13    0.94
   2   5  -5    8.89    2.27
  -2   5   5    4.66    1.02
   2   5  -5    8.07    2.31
   1  -5  -5   20.54    3.30
  -1  -5   5   17.78    3.05
   1  -5  -5   19.27    2.43
   1  -5  -5   13.56    3.30
  -1  -5   5   20.42    2.57
  -1  -5   5   17.13    2.92
  -1  -5   5   16.12    2.78
  -1  -5   5   21.37    2.76
  -1   5   5   18.15    2.36
  -1   5   5   24.68    2.54
   1   5  -5   13.25    3.00
   1   5  -5   19.87    3.01
   0  -5  -5    8.74    2.15
   0  -5   5    7.34    1.75
   0  -5   5    8.36    1.94
   0  -5  -5   11.34    2.05
   0  -5   5    6.05    2.00
   0  -5   5    8.19    1.88
   0   5   5    9.78    2.12
   0   5  -5    6.70    2.04
   0   5   5   12.06    1.99
   0   5  -5    6.96    1.97
  -1  -5  -5   14.16    2.46
   1  -5   5   13.09    2.52
   1  -5   5   16.46    2.59
   1  -5   5   15.85    2.64
   1  -5   5   16.38    3.29
  -1  -5  -5   15.35    2.63
  -1   5  -5   17.88    2.74
   1   5   5   14.32    2.45
   1   5   5   20.93    2.93
  -1   5  -5   17.07    2.73
   1   5   5   15.19    2.54
   1   5   5   10.96    2.42
  -2  -5  -5    1.44    0.79
   2  -5   5    2.41    1.00
   2  -5   5    1.40    0.71
   2  -5   5    1.00    1.12
  -2  -5  -5    0.23    0.85
   2   5   5    2.18    1.42
  -2   5  -5   -0.57    0.65
   2   5   5   -1.26    0.74
   2   5   5    0.22    0.76
   2   5   5    0.70    1.02
  -2   5  -5   -0.75    0.83
   3  -5   5   31.50    3.43
   3  -5   5   32.26    3.58
  -3  -5  -5   32.47    3.80
  -3   5  -5   37.62    3.61
   3   5   5   38.36    5.17
  -3   5  -5   26.16    3.58
  -3   5  -5   25.87    3.29
  -4  -5  -5    5.30    1.65
   4  -5   5    9.05    1.79
   4  -5   5    6.25    1.55
  -4  -5  -5    7.62    1.76
   4  -5   5    4.31    1.62
  -4   5  -5    3.98    1.13
   4   5   5    8.05    2.58
  -4   5  -5    3.58    1.28
   5  -5   5    5.42    1.50
   5  -5   5    4.93    1.89
  -5  -5  -5    5.65    1.77
  -5  -5  -5    7.98    2.01
  -5   5  -5    3.41    1.36
   5   5   5    7.73    2.50
  -5   5  -5    4.30    1.12
  -6  -5  -5    2.52    1.25
  -6  -5  -5    2.83    1.43
   6  -5   5    0.48    1.27
   6   5   5    3.35    1.62
  -6   5  -5    1.23    1.04
  -6  -6   5    1.49    1.49
   6  -6  -5    1.42    0.71
   6  -6  -5    2.57    0.85
  -6  -6   5    2.29    1.26
   6  -6  -5    1.15    0.80
   6  -6  -5    0.25    0.70
   6   6  -5    4.01    1.87
   5  -6  -5    6.75    1.79
  -5  -6   5    2.67    1.40
   5  -6  -5    2.39    0.98
  -5  -6   5    3.75    1.27
   5  -6  -5    4.26    1.69
   5  -6  -5    3.41    0.98
   5   6  -5    3.64    1.62
  -4  -6   5    9.68    2.36
   4  -6  -5   13.75    2.25
   4  -6  -5   16.98    2.10
   4  -6  -5   16.35    2.19
  -4  -6   5   15.90    2.82
   4   6  -5   18.64    3.27
   3  -6  -5   62.77    5.08
   3  -6  -5   45.49    4.71
   3  -6  -5   50.32    4.76
  -3  -6   5   48.11    5.26
   3  -6  -5   42.59    4.63
  -3  -6   5   46.28    5.18
  -3  -6   5   40.57    5.07
   3   6  -5   51.84    6.13
  -2  -6   5    7.89    2.11
  -2  -6   5   10.12    2.46
  -2  -6   5    8.95    2.12
   2  -6  -5    8.12    1.83
   2  -6  -5   12.66    2.22
   2  -6  -5   10.54    2.24
   2   6  -5    7.40    2.41
   1  -6  -5    4.39    1.17
   1  -6  -5    3.68    1.39
  -1  -6   5    6.85    1.77
  -1  -6   5    5.33    2.25
  -1  -6   5    1.98    1.23
  -1  -6   5    3.28    1.36
   1  -6  -5    1.25    1.07
   1  -6  -5    3.76    1.23
  -1   6   5    2.89    1.04
   1   6  -5    2.54    1.83
   1   6  -5    4.11    1.88
  -1   6   5    1.83    1.08
   0  -6  -5   12.67    2.39
   0  -6   5   14.35    2.63
   0  -6   5   14.43    3.33
   0  -6   5   10.63    2.41
   0  -6   5   19.17    3.05
   0  -6  -5   17.32    2.89
   0  -6  -5   12.15    2.43
   0   6  -5   11.48    2.69
   0   6   5   13.47    2.57
   1  -6   5    4.66    2.07
  -1  -6  -5    2.90    1.22
  -1  -6  -5    5.21    1.47
   1  -6   5    2.30    1.18
   1  -6   5    3.01    2.09
   1  -6   5    5.20    1.32
  -1  -6  -5    1.35    1.25
  -1   6  -5    0.99    1.65
   1   6   5    5.17    1.80
  -1   6  -5    1.72    1.19
   1   6   5    2.27    1.57
   2  -6   5   11.54    2.31
   2  -6   5    6.34    1.83
   2  -6   5   12.62    2.51
  -2  -6  -5   12.74    2.41
   2  -6   5    9.90    2.71
  -2  -6  -5   13.03    2.60
   2  -6   5   13.32    2.48
  -2   6  -5   11.49    2.36
   2   6   5    9.88    2.58
  -2   6  -5    9.60    2.39
   2   6   5   12.70    2.95
  -3  -6  -5    8.23    2.02
   3  -6   5    4.63    1.95
   3  -6   5    8.01    2.11
  -3  -6  -5    7.52    1.76
  -3   6  -5    5.38    1.68
   3   6   5    8.43    2.58
  -3   6  -5    4.97    1.62
   4  -6   5   21.69    3.76
   4  -6   5   25.07    3.25
  -4  -6  -5   28.27    3.56
  -4  -6  -5   29.65    3.58
  -4   6  -5   25.14    2.87
  -4   6  -5   22.42    2.66
  12   0  -6    3.90    1.62
 -11   0   6    0.44    0.24
  11   0  -6    1.26    0.93
 -11   0   6    0.66    0.28
 -10   0   6    1.10    0.32
  10   0  -6    0.83    0.86
 -10   0   6    0.22    0.27
 -10   0   6    0.26    0.35
  -9   0   6    3.63    0.67
  -9   0   6    2.41    0.51
  -9   0   6    2.47    0.73
  -9   0   6    2.83    0.48
   9   0  -6    3.43    1.16
  -8   0   6    2.32    0.49
   8   0  -6    1.15    0.80
  -8   0   6    2.56    0.58
  -8   0   6    2.65    0.51
  -8   0   6    2.66    0.48
  -7   0   6   27.69    2.26
  -7   0   6   25.68    2.20
  -7   0   6   25.49    2.23
  -7   0   6   30.35    2.26
   7   0  -6   23.20    2.70
   6   0  -6    0.34    0.43
  -6   0   6    0.13    0.18
  -6   0   6   -0.05    0.21
  -6   0   6   -0.02    0.18
  -5   0   6   22.38    1.75
  -5   0   6   19.83    1.81
  -5   0   6   21.29    1.77
   5   0  -6   17.23    1.93
  -4   0   6    0.66    0.28
   4   0  -6    0.63    0.28
   4   0  -6    0.57    0.37
   4   0  -6    0.93    0.34
  -4   0   6    0.74    0.28
  -3   0   6  171.53   13.87
  -3   0   6  211.87   13.85
  -3   0   6  213.17   13.86
   3   0  -6  186.48   14.05
   3   0  -6  184.84   13.88
   3   0  -6  186.45   13.88
  -2   0   6   35.11    2.86
  -2   0   6   30.78    2.98
   2   0  -6   37.23    2.93
   2   0  -6   35.57    3.10
   2   0  -6   34.72    2.91
  -2   0   6   39.49    2.92
  -1   0   6   62.39    5.41
  -1   0   6   72.20    5.27
   1   0  -6   73.79    5.56
  -1   0   6   67.66    5.25
   1   0  -6   66.03    5.26
   0   0   6    0.29    0.21
   0   0   6    0.94    0.37
   0   0  -6    0.97    0.41
   0   0   6    0.90    0.53
   0   0  -6    1.50    0.66
   0   0  -6    1.14    0.43
   1   0   6   17.89    1.80
  -1   0  -6   19.60    1.83
  -1   0  -6   17.01    1.78
   1   0   6   16.37    1.76
  -1   0  -6   16.54    2.02
   2   0   6  119.02    9.01
   2   0   6  112.44    8.98
   2   0   6  133.84    9.54
  -2   0  -6  116.95    8.94
  -2   0  -6  107.89    9.30
   3   0   6   26.21    2.74
   3   0   6   34.45    3.35
  -3   0  -6   32.57    2.77
  -3   0  -6   24.97    2.99
   3   0   6   24.66    2.71
  -3   0  -6   28.43    2.72
   4   0   6   28.98    3.07
  -4   0  -6   31.38    2.96
  -4   0  -6   31.19    2.98
  -4   0  -6   27.20    3.63
   4   0   6   31.50    3.08
   4   0   6   36.30    3.72
  -5   0  -6    4.59    1.06
   5   0   6    3.27    1.29
  -5   0  -6    3.20    0.92
   5   0   6    2.48    0.96
  -5   0  -6    2.91    1.18
   5   0   6    4.49    1.15
   6   0   6   11.35    2.04
  -6   0  -6   10.62    2.39
  -6   0  -6   12.34    1.67
   6   0   6   16.35    2.06
  -6   0  -6   12.77    2.00
   6   0   6   14.07    2.83
  -7   0  -6   15.29    1.96
   7   0   6   12.84    2.31
   7   0   6   15.87    2.15
  -7   0  -6   13.45    1.84
  -7   0  -6   10.05    2.25
   7   0   6   19.13    2.99
  -8   0  -6    8.31    1.96
  -8   0  -6    8.84    1.65
   8   0   6    4.58    1.41
  -8   0  -6   11.73    1.93
   8   0   6    8.54    1.95
   8   0   6   10.34    2.52
   9   0   6    5.75    1.85
  -9   0  -6    5.20    1.40
   9   0   6    6.41    2.30
  -9   0  -6    6.34    1.71
  -9   0  -6    4.46    1.25
 -12  -1   6    4.21    1.16
  12  -1  -6    5.50    1.47
  12   1  -6    5.72    2.03
 -11  -1   6   11.43    1.85
 -11  -1   6   12.30    1.53
  11  -1  -6   10.16    2.14
 -11  -1   6   14.05    1.59
  11   1  -6    7.93    2.19
 -10  -1   6   11.30    1.52
 -10  -1   6    7.87    1.39
 -10  -1   6   10.20    1.34
 -10  -1   6   11.19    1.83
  10   1  -6    9.21    2.24
  -9  -1   6   80.93    6.36
  -9  -1   6   80.38    6.31
  -9  -1   6   83.68    6.53
   9  -1  -6   66.33    6.36
  -9  -1   6   85.30    6.49
   9   1  -6   67.22    6.25
   9   1  -6   59.66    5.90
  -8  -1   6   41.73    3.72
   8  -1  -6   33.74    3.45
  -8  -1   6   45.40    3.68
  -8  -1   6   43.59    3.69
  -8  -1   6   41.74    3.66
   8   1  -6   33.70    3.60
   8   1  -6   31.16    3.67
  -7  -1   6   17.25    1.97
  -7  -1   6   15.52    1.84
  -7  -1   6   19.61    2.04
   7   1  -6   15.52    2.27
   7   1  -6   15.93    2.18
  -6  -1   6    3.63    0.89
  -6  -1   6    2.71    0.80
  -6  -1   6    3.03    0.74
  -6  -1   6    2.93    0.76
   6   1  -6    2.91    1.05
   6   1  -6    4.05    1.13
   5  -1  -6    3.10    0.48
  -5  -1   6    3.37    0.77
  -5  -1   6    3.63    0.79
   5  -1  -6    2.67    0.47
  -5  -1   6    3.20    0.78
   5  -1  -6    3.14    0.42
   5   1  -6    3.36    1.02
   5   1  -6    2.51    0.90
   4  -1  -6  423.19   30.50
   4  -1  -6  412.33   30.57
  -4  -1   6  449.77   30.91
  -4  -1   6  416.01   30.97
  -4  -1   6  456.67   30.93
   4  -1  -6  437.02   30.51
  -4   1   6  389.67   26.15
  -4   1   6  380.28   26.12
   4   1  -6  343.10   26.64
   4   1  -6  376.46   26.96
   4   1  -6  363.56   26.69
  -3  -1   6  130.60   10.16
   3  -1  -6  138.69   10.03
  -3  -1   6  137.68   10.18
   3  -1  -6  140.13   10.05
   3  -1  -6  136.39    9.89
  -3   1   6  112.11    7.94
  -3   1   6  115.01    7.96
   3   1  -6  111.76    8.56
   3   1  -6  104.84    8.37
   3   1  -6  100.33    8.53
  -2  -1   6   67.48    5.37
  -2  -1   6   57.16    5.55
   2  -1  -6   70.74    5.22
   2  -1  -6   72.60    5.23
  -2  -1   6   69.01    5.39
   2  -1  -6   74.96    5.45
  -2   1   6   59.84    4.60
   2   1  -6   63.71    5.11
   2   1  -6   56.22    4.81
  -2   1   6   62.22    4.63
  -2   1   6   59.37    4.59
   1  -1  -6   13.10    1.54
  -1  -1   6   11.57    1.35
   1  -1  -6   13.25    1.34
  -1  -1   6   13.03    1.39
   1  -1  -6   12.79    1.31
  -1  -1   6   11.56    1.59
  -1   1   6   13.27    1.38
   1   1  -6   10.61    1.49
   1   1  -6   12.61    1.36
  -1   1   6   10.49    1.19
  -1   1   6   10.32    1.19
   1   1  -6   10.91    1.29
   0  -1  -6  193.80   15.31
   0  -1   6  208.71   15.04
   0  -1   6  195.54   15.67
   0  -1  -6  205.46   14.99
   0  -1  -6  208.05   15.08
   0  -1   6  223.07   15.08
   0   1  -6  180.31   13.75
   0   1   6  205.71   14.01
   0   1  -6  185.44   13.77
   0   1   6  171.20   13.66
   0   1   6  171.12   13.67
   0   1  -6  210.75   14.16
  -1  -1  -6   19.83    2.41
   1  -1   6   19.18    2.05
   1  -1   6   22.76    2.14
  -1  -1  -6   21.65    2.12
  -1  -1  -6   22.68    2.15
   1  -1   6   21.96    2.41
  -1   1  -6   20.52    1.97
  -1   1  -6   19.63    2.20
   1   1   6   17.04    1.88
   1   1   6   16.71    1.88
   1   1   6   20.78    2.30
   2  -1   6   63.05    5.46
  -2  -1  -6   62.98    5.10
   2  -1   6   60.30    5.05
  -2  -1  -6   65.06    5.13
  -2  -1  -6   50.49    5.36
   2  -1   6   69.63    5.13
   2   1   6   68.48    5.44
  -2   1  -6   61.75    4.82
   2   1   6   55.98    4.85
  -2   1  -6   59.05    5.11
  -2   1  -6   54.30    4.72
   2   1   6   50.10    4.76
   3  -1   6   65.35    5.52
   3  -1   6   74.61    6.13
   3  -1   6   64.79    5.53
  -3  -1  -6   66.52    5.59
  -3  -1  -6   65.98    5.57
  -3   1  -6   61.71    4.81
   3   1   6   56.04    4.93
  -3   1  -6   54.54    5.49
   3   1   6   55.18    4.92
  -3   1  -6   58.31    5.16
   4  -1   6  197.30   15.08
  -4  -1  -6  198.76   15.14
   4  -1   6  194.49   15.09
  -4  -1  -6  200.85   15.12
   4  -1   6  217.23   15.77
  -4   1  -6  154.98   13.03
   4   1   6  163.81   12.91
  -4   1  -6  176.51   12.68
  -4   1  -6  180.41   12.72
  -5  -1  -6   28.70    3.03
  -5  -1  -6   29.52    3.02
   5  -1   6   36.08    3.75
   5  -1   6   29.88    3.05
   5  -1   6   28.76    3.02
  -5  -1  -6   25.06    3.40
   5   1   6   33.77    3.81
   5   1   6   29.05    3.08
  -5   1  -6   28.53    2.80
   5   1   6   23.05    2.92
  -5   1  -6   27.59    2.76
   6  -1   6   35.07    3.73
   6  -1   6   44.59    4.58
  -6  -1  -6   41.54    3.83
  -6  -1  -6   31.22    4.18
  -6  -1  -6   42.56    3.88
   6  -1   6   36.85    3.78
  -6   1  -6   35.07    3.36
   6   1   6   41.71    4.61
   6   1   6   37.25    3.75
   6   1   6   40.18    3.87
  -6   1  -6   35.33    3.37
  -6   1  -6   29.16    3.69
  -7  -1  -6    1.75    1.00
   7  -1   6    2.17    1.01
   7  -1   6    1.98    1.26
   7  -1   6   -0.21    0.56
  -7  -1  -6    1.21    0.97
  -7  -1  -6    1.21    0.90
  -7   1  -6    2.74    1.09
   7   1   6    0.50    0.74
   7   1   6    2.27    0.91
  -7   1  -6    1.37    0.74
  -7   1  -6    1.80    0.82
  -8  -1  -6    8.33    2.14
  -8  -1  -6   10.36    1.87
   8  -1   6    4.30    1.47
  -8  -1  -6    7.08    1.67
   8  -1   6    9.24    2.39
   8  -1   6    8.12    1.80
   8   1   6   11.54    2.78
  -8   1  -6    5.89    1.28
  -8   1  -6    6.76    1.99
   8   1   6    5.85    1.68
  -8   1  -6    5.57    1.28
   8   1   6    4.56    1.45
  -9  -1  -6    1.36    1.15
   9  -1   6    2.69    0.92
   9  -1   6    1.70    1.43
  -9  -1  -6    2.34    1.09
   9   1   6    3.79    1.75
  -9   1  -6    1.16    0.95
  -9   1  -6   -0.05    0.71
 -11  -2   6    7.87    1.55
  11  -2  -6    5.59    1.15
 -11  -2   6    4.47    1.31
  11   2  -6    7.36    2.23
 -10  -2   6    0.71    0.83
 -10  -2   6   -0.01    0.61
  10  -2  -6    0.52    0.45
  10   2  -6    1.73    1.11
  -9  -2   6   16.20    2.45
   9  -2  -6   12.59    1.42
  -9  -2   6   12.19    2.11
   9   2  -6   10.30    2.45
  -8  -2   6   61.85    6.00
  -8  -2   6   68.10    5.61
  -8  -2   6   67.61    5.59
  -8  -2   6   65.35    5.61
   8  -2  -6   54.49    4.58
   8   2  -6   52.34    5.59
   8   2  -6   53.83    5.39
  -7  -2   6   11.32    2.01
  -7  -2   6   11.72    1.96
  -7  -2   6   13.08    2.12
  -7  -2   6   12.89    1.78
   7   2  -6   10.47    2.09
   7   2  -6    6.51    1.89
  -6  -2   6   17.19    2.14
  -6  -2   6   19.77    2.22
  -6  -2   6   15.82    2.12
  -6  -2   6   18.54    2.18
   6   2  -6   13.89    2.26
   6   2  -6   15.68    2.20
  -5  -2   6    0.82    0.51
  -5  -2   6    1.16    0.59
   5  -2  -6    1.81    0.22
   5  -2  -6    1.54    0.40
  -5  -2   6    1.69    0.72
  -5  -2   6    2.30    0.76
   5   2  -6    1.67    0.90
  -4  -2   6   37.04    3.84
   4  -2  -6   46.04    3.25
   4  -2  -6   45.91    3.39
  -4  -2   6   37.01    3.84
  -4  -2   6   38.00    3.85
  -4  -2   6   39.19    3.81
   4  -2  -6   46.37    3.26
   4   2  -6   33.28    3.65
   4   2  -6   30.58    3.15
   4   2  -6   36.15    3.55
   3  -2  -6  247.63   17.05
  -3  -2   6  238.77   17.55
  -3  -2   6  200.63   17.74
   3  -2  -6  256.28   17.07
   3  -2  -6  250.20   17.27
  -3  -2   6  230.92   17.52
   3   2  -6  188.99   14.52
   3   2  -6  177.40   14.45
   3   2  -6  185.87   15.02
  -3   2   6  199.75   14.01
   3   2  -6  213.71   14.96
  -3   2   6  199.98   13.99
  -2  -2   6    7.28    1.29
   2  -2  -6    9.31    1.02
   2  -2  -6    7.19    1.14
  -2  -2   6    8.31    1.37
  -2  -2   6    7.34    1.58
   2  -2  -6    7.87    0.98
  -2   2   6    8.39    0.83
   2   2  -6    5.68    1.19
  -2   2   6    7.12    0.90
  -2   2   6    7.30    0.92
   2   2  -6    7.17    1.29
   2   2  -6    6.13    1.39
   1  -2  -6   14.50    1.81
  -1  -2   6   15.03    1.69
  -1  -2   6   10.72    1.75
   1  -2  -6   14.41    1.55
   1  -2  -6   15.35    1.56
  -1  -2   6   15.81    1.73
   1   2  -6   15.13    1.83
   1   2  -6   10.67    1.48
   1   2  -6   14.13    1.59
  -1   2   6   10.72    1.33
  -1   2   6   11.01    1.32
   0  -2   6  138.02    9.89
   0  -2  -6  135.51    9.83
   0  -2   6  132.95    9.86
   0  -2  -6  134.53    9.82
   0  -2  -6  114.57   10.12
   0  -2   6  121.55   10.21
   0   2   6  110.62    8.83
   0   2  -6  111.25    8.92
   0   2  -6  113.16    8.94
   0   2   6  104.65    8.79
   0   2  -6  141.79    9.44
   1  -2   6    6.73    1.21
  -1  -2  -6    4.21    1.25
   1  -2   6    6.16    1.47
  -1  -2  -6    7.15    1.30
  -1  -2  -6    4.97    1.08
   1  -2   6    5.07    1.08
  -1   2  -6    4.29    1.03
   1   2   6    6.97    1.48
  -1   2  -6    6.63    1.41
   1   2   6    5.74    1.14
  -1   2  -6    4.74    1.07
   1   2   6    4.56    1.00
   2  -2   6   80.08    5.98
  -2  -2  -6   74.44    6.04
   2  -2   6   74.23    5.91
  -2  -2  -6   76.95    6.05
  -2  -2  -6   56.93    6.33
   2  -2   6   73.20    6.39
  -2   2  -6   65.78    5.46
  -2   2  -6   67.54    5.86
   2   2   6   56.96    5.48
   2   2   6   56.83    5.86
   2   2   6   76.60    6.22
  -2   2  -6   73.05    5.84
   3  -2   6   30.35    3.04
   3  -2   6   33.73    3.60
  -3  -2  -6   33.27    3.23
   3  -2   6   31.76    3.05
  -3  -2  -6   30.37    3.19
  -3   2  -6   25.83    2.65
  -3   2  -6   27.16    2.80
   3   2   6   22.02    2.77
   3   2   6   26.78    2.88
  -3   2  -6   30.18    3.08
   3   2   6   35.11    3.62
   4  -2   6  322.64   23.72
  -4  -2  -6  304.80   23.26
   4  -2   6  323.59   23.09
   4  -2   6  310.12   23.06
  -4  -2  -6  312.84   23.26
  -4   2  -6  253.40   18.17
  -4   2  -6  236.73   17.73
   4   2   6  229.09   18.09
   4   2   6  235.36   18.12
  -4   2  -6  245.98   17.78
  -5  -2  -6   19.48    2.54
   5  -2   6   24.49    3.18
  -5  -2  -6   22.38    2.62
   5  -2   6   21.76    2.44
   5  -2   6   21.15    2.46
  -5   2  -6   14.31    2.12
  -5   2  -6   17.23    1.97
   5   2   6   21.92    3.04
   5   2   6   19.39    2.43
  -5   2  -6   14.84    1.93
   5   2   6   16.11    2.23
  -6  -2  -6   19.93    2.44
   6  -2   6   15.63    2.12
   6  -2   6   15.60    2.08
  -6  -2  -6   16.87    2.23
  -6  -2  -6   12.62    3.02
   6  -2   6   19.51    2.82
   6   2   6   13.34    2.53
   6   2   6   15.73    3.14
   6   2   6   20.42    3.08
  -6   2  -6   15.83    2.20
  -6   2  -6   14.61    1.90
  -6   2  -6   14.01    1.84
   7  -2   6    1.00    1.14
   7  -2   6    2.88    1.02
  -7  -2  -6    0.64    0.75
  -7  -2  -6   -0.27    0.46
   7   2   6    2.46    1.01
  -7   2  -6    0.08    0.63
  -7   2  -6    1.37    0.68
  -7   2  -6    2.13    0.92
   7   2   6    0.52    0.82
   7   2   6    1.92    1.32
   8  -2   6   15.82    3.20
   8  -2   6   12.93    2.33
   8  -2   6   18.98    2.52
  -8  -2  -6   20.44    2.65
  -8  -2  -6   18.82    3.04
  -8   2  -6   12.98    2.03
   8   2   6   18.10    2.89
  -8   2  -6   13.44    2.11
   8   2   6   14.18    3.24
  -9  -2  -6   11.57    2.61
   9  -2   6   13.21    3.08
  -9  -2  -6   10.62    2.28
   9  -2   6   11.15    2.02
  -9   2  -6    7.78    1.60
  -9   2  -6   10.14    1.80
 -11  -3   6   14.62    2.62
  11  -3  -6   10.53    1.40
  11   3  -6   15.63    3.62
  10  -3  -6    6.96    1.00
 -10  -3   6    9.86    1.94
 -10  -3   6    9.02    2.14
  10   3  -6    7.99    2.52
  -9  -3   6   -0.20    0.72
   9  -3  -6    1.40    0.37
  -9  -3   6    2.11    1.08
   9   3  -6    0.42    1.12
  -8  -3   6   33.53    3.74
   8  -3  -6   32.57    2.50
  -8  -3   6   30.73    3.59
  -8  -3   6   35.15    3.79
  -8  -3   6   29.28    3.55
   8   3  -6   27.21    3.85
   7  -3  -6    1.08    0.36
  -7  -3   6    0.82    0.83
  -7  -3   6    1.75    0.86
  -7  -3   6    0.73    0.68
  -7  -3   6    0.76    0.89
   7  -3  -6    0.81    0.33
   7   3  -6    3.23    1.35
   7   3  -6    0.72    0.89
  -6  -3   6    6.30    1.56
   6  -3  -6    5.14    0.81
  -6  -3   6    7.87    1.71
  -6  -3   6    6.18    1.35
   6  -3  -6    5.97    0.78
  -6  -3   6    6.46    1.62
   6   3  -6    5.06    1.67
   6   3  -6    5.47    1.82
   5  -3  -6    5.62    0.71
   5  -3  -6    5.91    0.78
   5  -3  -6    7.97    0.74
  -5  -3   6    5.90    1.51
  -5  -3   6    8.32    1.70
  -5  -3   6    5.43    1.39
   5  -3  -6    7.55    1.00
   5  -3  -6    7.67    0.76
  -5  -3   6    9.33    1.77
   5   3  -6    7.35    2.11
   5   3  -6    6.07    1.75
  -4  -3   6   62.55    6.00
  -4  -3   6   71.70    6.09
   4  -3  -6   73.33    5.31
  -4  -3   6   71.99    6.08
   4  -3  -6   64.88    5.60
   4  -3  -6   73.72    5.33
  -4  -3   6   65.94    6.07
   4   3  -6   64.74    6.06
   4   3  -6   63.85    6.28
  -3  -3   6   24.67    3.19
   3  -3  -6   30.46    2.50
  -3  -3   6   26.03    2.93
  -3  -3   6   27.23    2.89
  -3  -3   6   26.37    2.85
   3  -3  -6   23.85    2.67
   3  -3  -6   28.26    2.44
   3   3  -6   20.98    2.55
   3   3  -6   25.69    3.03
   3   3  -6   24.60    3.14
   2  -3  -6   27.27    2.55
   2  -3  -6   29.61    2.60
  -2  -3   6   22.58    3.08
   2  -3  -6   24.83    2.87
  -2  -3   6   29.97    2.93
  -2  -3   6   30.19    2.96
   2   3  -6   21.04    2.62
  -2   3   6   24.88    2.42
  -2   3   6   26.17    2.46
   2   3  -6   29.39    3.18
   2   3  -6   22.22    2.67
   2   3  -6   22.16    3.07
  -2   3   6   29.42    2.18
   1  -3  -6    0.97    0.83
   1  -3  -6    2.88    0.81
  -1  -3   6    2.06    0.77
  -1  -3   6    1.11    0.61
  -1  -3   6    0.95    0.76
   1  -3  -6    0.92    0.50
   1   3  -6    0.86    0.76
   1   3  -6    1.09    0.69
   1   3  -6    3.12    1.06
  -1   3   6    1.27    0.60
   1   3  -6    1.42    0.66
  -1   3   6    1.67    0.62
  -1   3   6    1.46    0.72
  -1   3   6    1.38    0.57
   0  -3   6   64.38    6.31
   0  -3  -6   73.48    5.91
   0  -3   6   76.63    6.00
   0  -3  -6   68.77    5.86
   0  -3   6   70.81    5.95
   0   3  -6   53.89    4.77
   0   3  -6   55.79    5.29
   0   3   6   53.69    4.63
   0   3   6   47.31    4.66
   0   3  -6   57.83    4.81
   0   3   6   55.52    4.67
   1  -3   6   62.80    5.90
   1  -3   6   69.44    5.45
  -1  -3  -6   64.93    5.45
  -1  -3  -6   48.68    5.72
   1  -3   6   69.02    5.45
  -1  -3  -6   64.96    5.46
   1   3   6   53.58    4.59
  -1   3  -6   49.48    4.98
  -1   3  -6   47.18    4.49
  -1   3  -6   52.11    4.54
   1   3   6   51.09    4.55
   2  -3   6    1.46    0.91
  -2  -3  -6    0.89    0.54
   2  -3   6    1.98    0.78
   2  -3   6    2.82    0.85
  -2  -3  -6   -0.03    0.71
  -2  -3  -6    2.35    0.81
   2   3   6    1.60    0.72
   2   3   6    1.79    1.10
  -2   3  -6    0.95    0.65
  -2   3  -6    0.81    0.77
   2   3   6    1.81    0.82
  -2   3  -6    1.96    0.74
  -3  -3  -6   40.27    3.95
  -3  -3  -6   37.99    3.87
   3  -3   6   45.43    3.83
   3  -3   6   41.64    3.75
   3  -3   6   40.26    4.29
  -3  -3  -6   29.30    4.22
   3   3   6   32.87    3.37
  -3   3  -6   41.89    4.97
   3   3   6   28.97    3.29
  -3   3  -6   29.62    3.11
  -3   3  -6   31.47    3.18
   4  -3   6   62.33    6.07
   4  -3   6   61.04    5.40
  -4  -3  -6   57.23    5.62
   4  -3   6   68.67    5.53
  -4  -3  -6   62.77    5.74
   4   3   6   46.89    4.78
  -4   3  -6   44.70    4.73
  -4   3  -6   46.90    4.41
  -4   3  -6   45.52    4.40
  -4   3  -6   59.49    4.90
   4   3   6   63.32    5.87
   4   3   6   43.04    4.65
  -5  -3  -6   22.54    2.75
   5  -3   6   20.10    2.97
   5  -3   6   19.14    2.40
  -5  -3  -6   18.80    2.60
   5  -3   6   23.22    2.55
   5   3   6   13.64    2.45
  -5   3  -6   14.78    2.16
  -5   3  -6   10.44    1.91
   5   3   6   22.75    3.29
  -5   3  -6   12.74    1.82
   5   3   6   16.95    2.76
  -6  -3  -6   26.60    3.22
  -6  -3  -6   27.11    3.22
   6  -3   6   24.18    2.76
  -6  -3  -6   15.82    4.46
   6  -3   6   24.43    2.82
   6  -3   6   28.93    3.69
  -6   3  -6   15.54    2.19
   6   3   6   17.60    3.00
  -6   3  -6   16.11    2.74
  -6   3  -6   19.39    2.31
   6   3   6   28.19    3.75
   6   3   6   19.69    2.60
  -6   3  -6   17.69    2.36
   7  -3   6    5.29    1.90
  -7  -3  -6    4.87    1.63
   7  -3   6    6.65    1.52
  -7  -3  -6    6.75    1.70
  -7   3  -6    3.73    1.11
   7   3   6   10.67    2.09
  -7   3  -6    6.58    1.30
  -7   3  -6    4.62    1.17
   7   3   6    7.24    2.17
   8  -3   6   18.67    3.24
  -8  -3  -6   19.29    3.30
  -8  -3  -6   23.30    3.08
  -8   3  -6   11.30    1.99
  -8   3  -6   11.51    1.89
 -10  -4   6   42.07    4.69
  10  -4  -6   33.86    3.01
 -10  -4   6   27.47    3.97
  10   4  -6   33.11    4.65
  -9  -4   6    6.19    1.83
  -9  -4   6    6.30    1.94
   9  -4  -6    6.76    1.21
   9   4  -6    8.02    2.43
  -8  -4   6    7.03    1.95
   8  -4  -6    7.25    1.25
  -8  -4   6    4.48    1.68
   8   4  -6    5.40    2.10
   7  -4  -6    8.95    1.40
  -7  -4   6    9.11    2.14
  -7  -4   6    7.15    2.41
  -7  -4   6    8.21    1.92
   7  -4  -6    7.61    1.33
  -7  -4   6    9.23    2.14
   7   4  -6    9.64    2.55
   7   4  -6   10.00    3.09
  -6  -4   6    4.96    1.33
  -6  -4   6    3.41    1.14
  -6  -4   6    2.23    1.15
   6  -4  -6    3.96    1.00
   6  -4  -6    3.59    0.50
  -6  -4   6    4.03    1.29
   6  -4  -6    4.12    0.51
   6  -4  -6    3.04    0.55
   6  -4  -6    3.82    0.62
   6   4  -6    4.32    1.47
   5  -4  -6   23.66    2.28
  -5  -4   6   24.89    3.13
   5  -4  -6   28.49    2.36
   5  -4  -6   21.71    2.74
   5  -4  -6   29.05    2.33
  -5  -4   6   20.12    2.98
   5  -4  -6   25.67    2.36
  -5  -4   6   26.28    3.16
  -5  -4   6   30.08    3.38
   5   4  -6   20.38    3.33
   5   4  -6   23.39    3.28
   4  -4  -6    0.20    0.36
  -4  -4   6   -0.03    0.52
  -4  -4   6   -0.27    0.49
   4  -4  -6   -0.25    0.35
  -4  -4   6   -0.22    0.54
   4  -4  -6   -0.68    0.50
  -4  -4   6   -1.02    0.45
   4  -4  -6    0.25    0.35
   4   4  -6   -0.20    0.81
   4   4  -6    0.02    0.68
  -3  -4   6   15.60    2.86
   3  -4  -6   18.20    2.52
   3  -4  -6   20.84    2.16
  -3  -4   6   21.34    2.74
  -3  -4   6   19.64    2.49
   3  -4  -6   21.98    2.17
  -3  -4   6   20.52    2.64
  -3  -4   6   17.21    2.49
   3   4  -6   14.72    2.60
   3   4  -6   17.49    2.85
  -2  -4   6   72.85    6.32
  -2  -4   6   82.19    6.46
   2  -4  -6   70.70    5.89
  -2  -4   6   69.48    6.40
   2  -4  -6   62.72    6.37
  -2  -4   6   64.84    6.70
   2  -4  -6   75.51    5.96
  -2   4   6   74.68    5.91
  -2   4   6   79.98    5.55
  -2   4   6   66.09    5.94
   2   4  -6   83.05    7.00
   2   4  -6   57.44    6.75
  -1  -4   6   67.71    5.76
   1  -4  -6   53.03    5.88
  -1  -4   6   51.47    5.92
  -1  -4   6   67.03    5.75
   1  -4  -6   68.26    5.52
   1  -4  -6   73.56    5.60
  -1   4   6   52.50    5.00
  -1   4   6   57.23    5.10
   1   4  -6   53.71    5.87
   1   4  -6   56.23    5.35
   1   4  -6   73.28    6.04
  -1   4   6   60.36    5.08
   0  -4   6    0.49    0.65
   0  -4  -6   -0.98    0.40
   0  -4   6    1.21    0.57
   0  -4  -6    1.01    0.97
   0  -4   6   -0.10    0.72
   0  -4  -6    0.03    0.51
   0   4  -6    0.81    0.88
   0   4  -6    0.82    0.57
   0   4   6   -0.31    0.79
   0   4   6    1.00    0.53
   0   4  -6    1.19    0.67
   0   4   6    1.28    0.82
   0   4   6    1.14    0.72
   0   4  -6    0.64    0.70
   1  -4   6    2.12    0.74
  -1  -4  -6    0.19    0.78
   1  -4   6    0.28    0.69
   1  -4   6    1.19    0.95
  -1  -4  -6    1.45    0.83
  -1  -4  -6   -0.06    0.57
   1   4   6    0.13    0.46
  -1   4  -6    0.64    0.71
  -1   4  -6   -0.04    0.52
   1   4   6    0.09    0.97
   1   4   6    1.68    1.00
   1   4   6    0.78    0.61
  -1   4  -6    0.46    0.93
  -1   4  -6    0.72    0.74
   2  -4   6    6.52    1.92
  -2  -4  -6    5.95    1.44
   2  -4   6    4.58    1.32
   2  -4   6    7.42    1.58
  -2  -4  -6    5.39    1.83
  -2  -4  -6    8.19    1.78
   2   4   6    4.34    1.24
   2   4   6    6.66    1.82
  -2   4  -6    4.63    1.44
  -2   4  -6    4.29    1.20
   2   4   6    4.71    1.36
  -2   4  -6    3.65    1.12
   2   4   6    7.93    2.13
  -2   4  -6    4.69    1.50
  -3  -4  -6   65.70    6.17
   3  -4   6   81.69    6.15
   3  -4   6   57.01    6.41
  -3  -4  -6   66.41    6.20
   3  -4   6   69.85    5.98
   3   4   6   56.76    5.63
   3   4   6   52.33    4.89
  -3   4  -6   43.61    4.85
  -3   4  -6   50.30    4.62
  -3   4  -6   45.50    4.49
  -4  -4  -6   17.77    2.90
  -4  -4  -6   13.94    3.26
   4  -4   6   14.42    2.62
  -4  -4  -6   15.81    2.83
   4  -4   6   20.71    2.51
   4  -4   6   21.04    2.37
   4   4   6   15.25    2.38
  -4   4  -6    7.83    1.75
  -4   4  -6    8.40    1.86
   4   4   6   19.56    4.17
  -4   4  -6   10.65    1.85
  -5  -4  -6    3.66    1.48
   5  -4   6    3.55    1.77
   5  -4   6    4.16    1.19
   5  -4   6    1.55    0.95
  -5  -4  -6    3.00    1.22
  -5   4  -6    2.74    1.11
  -5   4  -6    0.90    0.78
  -5   4  -6    3.75    1.14
   5   4   6    2.87    1.66
  -5   4  -6    1.29    0.78
   5   4   6    2.84    1.54
   6  -4   6   10.18    1.98
   6  -4   6   11.10    2.65
  -6  -4  -6   12.47    2.58
  -6  -4  -6    8.70    2.31
  -6   4  -6    5.07    1.32
  -6   4  -6    5.29    1.21
  -6   4  -6    6.92    1.52
  -6   4  -6    4.69    1.38
   6   4   6   11.56    2.87
   7  -4   6   23.78    3.74
  -7  -4  -6   29.01    3.62
  -7  -4  -6   24.15    3.88
  -7   4  -6   10.00    2.15
  -7   4  -6   13.78    2.18
  -8  -5   6   10.19    2.36
  -8  -5   6   13.79    2.90
   8   5  -6    8.09    2.62
  -7  -5   6   20.97    3.43
   7  -5  -6   22.55    1.86
  -7  -5   6   20.46    3.46
   7  -5  -6   21.48    1.69
   7  -5  -6   22.99    1.84
   7  -5  -6   21.57    2.84
   7   5  -6   21.95    3.68
  -6  -5   6   10.17    2.47
   6  -5  -6   14.67    2.21
   6  -5  -6   12.99    1.54
   6  -5  -6   15.00    1.55
   6  -5  -6   14.55    1.50
   6  -5  -6   12.56    1.43
  -6  -5   6   14.58    2.80
   6   5  -6   10.61    2.94
   5  -5  -6    3.05    0.85
  -5  -5   6    3.08    0.98
  -5  -5   6    0.87    1.02
   5  -5  -6    3.57    0.88
   5  -5  -6    2.50    0.82
   5  -5  -6    3.09    1.21
   5  -5  -6    2.33    0.85
   5   5  -6    3.14    1.38
   4  -5  -6   44.05    3.84
   4  -5  -6   45.68    3.90
   4  -5  -6   35.03    4.34
   4  -5  -6   49.89    3.95
  -4  -5   6   39.36    4.44
  -4  -5   6   37.90    4.41
  -4  -5   6   30.99    4.69
  -4  -5   6   41.61    4.64
   4  -5  -6   37.87    3.79
   4   5  -6   37.65    5.16
   4   5  -6   48.74    5.36
   3  -5  -6    1.46    0.64
  -3  -5   6    0.46    1.23
  -3  -5   6    2.07    0.96
  -3  -5   6    1.30    1.15
   3  -5  -6    1.60    0.75
   3  -5  -6    1.12    0.82
  -3  -5   6    0.07    0.85
   3   5  -6    0.60    1.60
   3   5  -6   -0.35    0.68
   2  -5  -6   12.20    2.02
  -2  -5   6   10.93    2.17
   2  -5  -6    9.25    1.75
   2  -5  -6    8.66    2.04
  -2  -5   6   10.25    2.12
  -2  -5   6    7.77    1.92
  -2  -5   6   10.34    2.67
  -2  -5   6    8.68    2.71
   2   5  -6    7.05    2.51
  -2   5   6   10.17    1.05
   1  -5  -6   21.69    2.63
  -1  -5   6   18.40    3.07
  -1  -5   6   20.92    2.74
  -1  -5   6   20.23    3.26
   1  -5  -6   24.41    3.15
  -1  -5   6   16.86    3.03
   1   5  -6   21.86    3.14
  -1   5   6   16.73    2.20
   1   5  -6   15.72    2.83
   0  -5   6    9.01    1.93
   0  -5  -6    7.79    1.79
   0  -5  -6    8.84    1.93
   0  -5   6    9.37    2.77
   0  -5   6   10.26    2.15
   0  -5   6    9.08    1.91
   0   5  -6   12.85    2.72
   0   5  -6    9.21    2.41
   0   5   6    8.53    1.92
   0   5   6    8.22    1.89
   0   5   6    8.98    1.83
   0   5   6    7.19    1.69
   1  -5   6    2.00    0.93
   1  -5   6    0.39    1.13
  -1  -5  -6    2.45    1.35
   1  -5   6    1.33    0.81
  -1  -5  -6    2.45    1.08
  -1  -5  -6    1.53    0.93
   1   5   6    2.16    0.64
  -1   5  -6    1.17    0.88
   1   5   6    0.08    1.20
   1   5   6    2.84    1.24
  -1   5  -6    2.10    1.17
  -1   5  -6    1.02    1.18
   2  -5   6    3.85    1.17
  -2  -5  -6    3.66    1.32
   2  -5   6    1.75    1.43
   2  -5   6    1.27    1.11
  -2  -5  -6    3.38    1.26
   2   5   6    4.92    1.69
  -2   5  -6    3.06    1.42
  -2   5  -6    2.52    1.11
  -2   5  -6    1.24    1.35
   2   5   6    5.54    1.66
  -3  -5  -6  106.23    8.95
   3  -5   6  101.65    8.58
   3  -5   6   87.32    9.16
   3  -5   6  112.85    8.71
  -3  -5  -6   99.95    8.85
  -3   5  -6   70.67    6.40
  -4  -5  -6   29.40    3.67
   4  -5   6   27.21    4.04
  -4  -5  -6   27.00    3.54
   4  -5   6   40.46    3.70
  -4   5  -6   18.90    2.72
  -4   5  -6   22.05    2.91
  -4   5  -6   27.70    3.16
   4   5   6   35.72    4.52
  -5  -5  -6   11.48    2.07
   5  -5   6    5.74    1.96
  -5  -5  -6    8.94    2.10
   5  -5   6   10.65    2.05
  -5   5  -6   10.94    1.64
   5   5   6   10.40    2.51
  -5   5  -6    5.44    1.67
  -6  -5  -6   11.21    2.21
   6  -5   6    6.43    2.28
  -6  -5  -6    9.37    2.28
   6   5   6    8.87    2.29
  -6   5  -6    5.52    1.56
  -5  -6   6    3.78    1.50
   5  -6  -6    4.98    1.10
  -5  -6   6    2.34    1.37
   5  -6  -6    3.83    1.13
   5  -6  -6    5.64    1.89
   5   6  -6    9.76    2.54
   4  -6  -6   10.25    1.98
  -4  -6   6   12.26    2.53
   4  -6  -6   15.38    2.00
   4  -6  -6    9.13    2.17
  -4  -6   6   12.05    2.78
   4  -6  -6   13.03    2.16
   4   6  -6   10.72    2.83
   3  -6  -6   41.15    4.03
   3  -6  -6   42.44    4.03
  -3  -6   6   37.00    4.48
  -3  -6   6   29.81    4.16
  -3  -6   6   44.87    5.66
   3  -6  -6   32.95    3.80
   3   6  -6   35.47    4.89
  -2  -6   6    5.65    1.67
   2  -6  -6    5.00    1.34
   2  -6  -6    2.36    1.16
  -2  -6   6    1.00    1.19
  -2  -6   6    5.05    2.10
  -2  -6   6    5.45    2.58
   2  -6  -6    5.89    1.47
   2   6  -6    3.74    1.57
  -1  -6   6    1.27    0.95
   1  -6  -6   -1.07    0.62
  -1  -6   6   -0.07    1.27
  -1  -6   6    0.74    1.13
   1  -6  -6    0.09    0.85
   1  -6  -6    0.87    0.76
  -1  -6   6   -0.20    0.61
  -1   6   6    0.03    0.83
   1   6  -6   -3.61    1.88
  -1   6   6   -1.88    0.83
   1   6  -6    1.34    1.19
   0  -6   6   30.45    4.41
   0  -6   6   27.64    3.87
   0  -6  -6   33.78    3.84
   0  -6  -6   39.55    4.00
   0  -6   6   26.30    3.78
   0  -6   6   37.20    4.83
   0  -6   6   33.36    3.87
   0   6   6   42.68    4.11
   0   6   6   29.68    3.87
   0   6  -6   36.28    4.54
   0   6  -6   27.43    4.20
   1  -6   6    4.43    1.38
  -1  -6  -6    3.92    1.45
   1  -6   6    4.13    1.48
   1  -6   6    6.97    2.36
  -1  -6  -6    4.64    1.57
   1   6   6    3.16    1.66
   1   6   6    7.98    2.17
  -1   6  -6    5.19    1.76
   2  -6   6   11.16    2.64
  -2  -6  -6    8.98    1.93
  -2  -6  -6    8.79    2.11
   2  -6   6    6.86    1.79
  -2   6  -6    4.92    1.79
  -2   6  -6    7.65    2.15
   2   6   6    4.34    2.05
   2   6   6    8.35    2.42
   3  -6   6    3.63    1.66
  -3  -6  -6    6.49    1.87
   3  -6   6    8.86    2.46
  -3  -6  -6    8.35    1.95
  -3   6  -6    4.14    1.50
   3   6   6    6.00    2.02
  -3   6  -6    8.72    2.04
  12   0  -7    0.70    0.97
  11   0  -7   19.25    3.27
  11   0  -7   23.45    3.06
  10   0  -7   80.49    7.76
 -10   0   7   97.00    6.76
 -10   0   7  110.35    7.06
  10   0  -7   80.73    7.97
   9   0  -7   39.08    4.38
  -9   0   7   51.23    3.49
   9   0  -7   42.01    4.32
  -9   0   7   47.84    3.54
   8   0  -7    2.48    0.89
  -8   0   7    0.98    0.35
  -8   0   7    1.71    0.42
  -8   0   7    1.56    0.38
  -8   0   7    1.39    0.58
   8   0  -7    1.30    0.84
   7   0  -7    0.71    0.53
   7   0  -7    0.56    0.55
  -7   0   7    1.13    0.38
  -7   0   7    0.58    0.28
  -7   0   7    0.26    0.28
  -7   0   7    0.79    0.30
  -6   0   7    2.46    0.62
  -6   0   7    2.68    0.61
  -6   0   7    3.19    0.57
   6   0  -7    2.06    0.73
   5   0  -7  263.69   20.69
  -5   0   7  283.74   20.54
  -5   0   7  283.90   20.52
  -5   0   7  329.54   20.42
  -5   0   7  323.93   20.44
   5   0  -7  264.26   20.52
   5   0  -7  249.80   20.48
  -4   0   7    2.65    0.52
  -4   0   7    2.38    0.51
   4   0  -7    2.19    0.59
   4   0  -7    1.44    0.46
   4   0  -7    2.18    0.65
   3   0  -7  102.83    7.89
   3   0  -7  105.93    8.10
  -3   0   7  116.23    7.85
  -3   0   7   89.37    7.89
  -3   0   7  114.44    7.86
   2   0  -7    3.16    0.84
  -2   0   7    2.54    0.59
  -2   0   7    3.15    0.63
   2   0  -7    4.37    0.97
  -2   0   7    2.86    0.77
  -1   0   7  399.55   29.17
   1   0  -7  431.38   29.32
   1   0  -7  416.93   29.21
   1   0  -7  429.37   29.55
  -1   0   7  376.86   29.38
  -1   0   7  399.36   29.15
   0   0  -7   18.99    1.84
   0   0   7   17.03    1.78
   0   0  -7   17.08    2.04
   0   0   7   14.48    1.70
   0   0   7   16.85    2.29
   0   0  -7   19.14    1.82
  -1   0  -7    1.41    0.59
  -1   0  -7    1.18    0.48
   1   0   7    2.29    0.92
   1   0   7    2.38    0.66
   1   0   7    1.62    0.60
  -1   0  -7    1.52    0.72
  -2   0  -7   29.38    2.82
  -2   0  -7   28.08    3.19
   2   0   7   27.62    2.83
   2   0   7   34.79    3.37
   2   0   7   29.54    2.89
  -2   0  -7   32.16    2.91
  -3   0  -7  116.82    8.45
  -3   0  -7  111.33    8.42
  -3   0  -7   93.73    8.79
   3   0   7  122.43    9.16
   3   0   7  101.12    8.44
   3   0   7   99.08    8.41
   4   0   7   12.14    1.76
  -4   0  -7   13.99    1.80
  -4   0  -7   14.21    1.79
  -4   0  -7   14.44    2.22
   4   0   7   18.87    2.52
   4   0   7   10.58    2.72
   5   0   7    0.23    0.45
   5   0   7    0.02    0.49
   5   0   7    0.46    0.74
  -5   0  -7   -0.18    0.43
  -5   0  -7    0.33    0.48
  -5   0  -7    0.99    0.87
   6   0   7   -0.52    0.45
   6   0   7    1.48    1.13
   6   0   7   -1.21    0.56
  -6   0  -7   -0.17    0.48
  -6   0  -7   -0.34    0.35
  -6   0  -7    0.14    0.85
  -7   0  -7    3.66    1.59
  -7   0  -7    3.72    1.12
  -7   0  -7    4.50    1.16
   7   0   7    3.89    1.76
   7   0   7    3.90    1.07
   7   0   7    1.76    1.11
  -8   0  -7    0.63    0.95
   8   0   7    0.95    1.22
  -8   0  -7    1.22    0.79
  -8   0  -7    4.17    1.55
   8   0   7    3.37    1.71
   8   0   7    2.77    1.08
   9   0   7    0.07    1.18
  -9   0  -7   -0.50    0.79
  -9   0  -7   -0.03    0.76
 -12  -1   7    4.65    0.97
 -12  -1   7    3.85    1.24
  12   1  -7    5.62    1.88
  11  -1  -7    8.82    1.90
 -11  -1   7   12.50    1.88
  11   1  -7   10.41    2.48
  10  -1  -7    4.49    1.27
 -10  -1   7    5.36    1.09
 -10  -1   7    7.59    1.30
 -10  -1   7    6.35    1.17
 -10  -1   7    5.40    1.28
  10   1  -7    5.68    1.79
  -9  -1   7   24.30    2.75
  -9  -1   7   22.25    2.40
  -9  -1   7   26.27    2.62
  -9  -1   7   25.42    2.51
   9   1  -7   23.33    2.93
   9   1  -7   19.68    2.91
  -8  -1   7    2.27    0.70
   8  -1  -7    2.51    0.72
  -8  -1   7    4.26    0.93
  -8  -1   7    2.42    0.82
  -8  -1   7    3.70    0.93
   8   1  -7    2.09    1.15
   8   1  -7    4.47    1.40
   7  -1  -7   67.65    5.93
  -7  -1   7   90.32    6.40
  -7  -1   7   83.86    6.31
  -7  -1   7   77.35    6.34
   7   1  -7   63.60    5.76
   7   1  -7   66.24    5.98
  -6  -1   7   27.64    2.63
  -6  -1   7   29.95    2.60
  -6  -1   7   24.92    2.54
  -6  -1   7   28.35    2.56
   6  -1  -7   22.92    2.21
   6   1  -7   25.46    2.93
   6   1  -7   24.31    2.76
   5  -1  -7   26.34    2.23
   5  -1  -7   25.90    2.24
  -5  -1   7   27.90    2.65
  -5  -1   7   28.46    2.72
   5  -1  -7   27.12    2.35
  -5  -1   7   32.37    2.68
  -5   1   7   25.42    1.90
  -5   1   7   26.47    1.94
   5   1  -7   25.24    2.74
   5   1  -7   23.96    2.47
   5   1  -7   25.68    2.52
   4  -1  -7  119.98    8.36
   4  -1  -7  112.71    8.34
   4  -1  -7  117.46    8.50
  -4  -1   7  117.53    8.67
  -4  -1   7  120.63    8.70
  -4  -1   7   96.95    8.77
  -4   1   7   99.63    7.10
  -4   1   7  101.38    7.09
   4   1  -7   88.36    7.52
   4   1  -7   99.05    7.84
   3  -1  -7  475.22   32.91
   3  -1  -7  469.39   32.70
  -3  -1   7  466.38   32.94
  -3  -1   7  446.09   32.92
   3  -1  -7  448.25   32.68
   3   1  -7  399.34   27.51
  -3   1   7  372.20   26.81
   3   1  -7  370.01   27.18
  -3   1   7  379.28   26.83
   3   1  -7  369.19   27.18
   2  -1  -7   12.95    1.52
  -2  -1   7   11.25    1.66
  -2  -1   7   11.74    1.43
  -2  -1   7   13.77    1.49
   2  -1  -7   14.32    1.61
   2  -1  -7   14.24    1.38
   2   1  -7   12.26    1.48
  -2   1   7   12.41    1.30
   2   1  -7   12.55    1.52
  -2   1   7   13.33    1.40
  -2   1   7   12.01    1.29
   2   1  -7   13.69    1.72
  -1  -1   7   53.90    4.41
   1  -1  -7   58.73    4.37
   1  -1  -7   54.87    4.34
  -1  -1   7   48.38    4.67
  -1  -1   7   52.36    4.40
   1  -1  -7   53.89    4.64
  -1   1   7   44.86    3.92
   1   1  -7   55.89    4.48
   1   1  -7   45.30    4.04
  -1   1   7   52.90    4.16
  -1   1   7   46.82    3.93
   1   1  -7   45.39    4.06
   0  -1   7   40.00    4.01
   0  -1   7   44.88    3.75
   0  -1   7   42.08    3.69
   0  -1  -7   41.03    4.01
   0  -1  -7   48.43    3.76
   0  -1  -7   44.83    3.72
   0   1  -7   43.44    3.84
   0   1   7   38.34    3.40
   0   1  -7   43.06    3.52
   0   1   7   34.78    3.36
   0   1  -7   39.16    3.47
  -1  -1  -7   85.56    6.53
   1  -1   7   83.71    6.95
  -1  -1  -7   81.72    6.51
  -1  -1  -7   75.79    6.89
   1  -1   7   81.31    6.52
   1  -1   7   83.98    6.52
  -1   1  -7   71.82    6.18
  -1   1  -7   85.73    6.67
   1   1   7   73.45    6.21
   1   1   7   73.07    6.22
  -1   1  -7   77.67    6.23
   1   1   7   87.19    6.70
   2  -1   7   34.42    3.60
   2  -1   7   32.49    3.13
  -2  -1  -7   35.73    3.22
  -2  -1  -7   34.40    3.20
   2  -1   7   32.68    3.16
  -2   1  -7   31.60    3.28
  -2   1  -7   32.12    2.95
   2   1   7   27.14    2.90
   2   1   7   37.09    3.55
   2   1   7   29.11    2.95
  -2   1  -7   27.78    2.83
  -3  -1  -7   68.64    7.31
   3  -1   7   84.27    6.96
  -3  -1  -7   90.41    7.02
   3  -1   7   96.04    7.63
  -3  -1  -7   89.99    7.04
   3  -1   7   88.83    6.99
  -3   1  -7   81.14    6.30
   3   1   7   68.45    6.35
   3   1   7   67.72    6.33
   3   1   7   93.13    7.23
  -3   1  -7   77.39    6.28
   4  -1   7   51.02    4.61
   4  -1   7   50.28    4.57
  -4  -1  -7   51.45    4.62
  -4  -1  -7   53.15    4.62
   4  -1   7   61.11    5.38
  -4  -1  -7   41.40    4.95
  -4   1  -7   43.16    3.97
  -4   1  -7   39.29    4.29
   4   1   7   51.88    4.96
  -4   1  -7   44.92    3.99
   4   1   7   44.04    4.24
   4   1   7   44.57    4.25
  -5  -1  -7   33.98    3.26
   5  -1   7   32.19    3.78
   5  -1   7   33.40    3.34
   5  -1   7   28.59    3.15
  -5  -1  -7   30.88    3.20
  -5  -1  -7   23.20    3.44
  -5   1  -7   23.20    3.21
   5   1   7   32.91    3.90
  -5   1  -7   31.89    2.98
  -5   1  -7   29.78    2.91
   5   1   7   29.04    3.14
   5   1   7   24.93    3.02
   6  -1   7   12.17    2.19
   6  -1   7   20.11    2.96
   6  -1   7   19.51    2.35
  -6  -1  -7   17.35    2.25
  -6  -1  -7   12.87    2.83
  -6  -1  -7   19.03    2.30
   6   1   7   14.16    2.40
   6   1   7   17.29    2.88
   6   1   7   13.72    2.40
  -6   1  -7   14.38    1.89
  -6   1  -7   14.72    1.90
  -6   1  -7   13.96    2.26
  -7  -1  -7   13.64    2.39
   7  -1   7   19.01    3.02
   7  -1   7   13.04    2.33
   7  -1   7   12.52    2.33
  -7  -1  -7   16.79    2.21
  -7  -1  -7   16.18    2.70
  -7   1  -7   12.69    2.05
   7   1   7   11.89    2.32
   7   1   7   14.43    3.11
  -7   1  -7   11.72    1.99
  -7   1  -7   14.00    2.38
   7   1   7   10.17    2.42
  -8  -1  -7    3.00    1.16
   8  -1   7    4.36    1.25
   8  -1   7    2.59    1.18
  -8  -1  -7    4.23    1.32
   8  -1   7    4.94    1.92
  -8  -1  -7    3.80    2.03
  -8   1  -7    2.08    1.08
  -8   1  -7    3.52    1.15
   8   1   7    2.64    1.67
   8   1   7    4.73    2.02
  -8   1  -7    6.45    1.55
   9  -1   7   11.84    2.62
  -9  -1  -7    7.05    1.83
  -9   1  -7    8.96    1.67
  -9   1  -7   -0.16    0.74
   9   1   7    7.53    2.84
  -9   1  -7    2.28    1.68
 -11  -2   7   18.45    2.40
 -11  -2   7   15.61    2.53
  11  -2  -7   15.32    1.83
  11   2  -7   18.46    3.21
  10  -2  -7    0.05    0.37
 -10  -2   7   -0.95    0.71
 -10  -2   7    1.32    0.79
 -10  -2   7    0.03    0.72
  10   2  -7    0.86    1.05
   9  -2  -7    3.63    0.61
  -9  -2   7    2.49    1.04
  -9  -2   7    3.00    1.09
  -9  -2   7    2.96    1.02
   9   2  -7    1.69    0.95
  -8  -2   7   18.55    2.17
  -8  -2   7   14.42    2.04
  -8  -2   7   13.45    2.36
   8   2  -7   14.78    2.49
   8   2  -7   14.65    2.37
  -7  -2   7   59.84    5.35
  -7  -2   7   58.18    5.29
  -7  -2   7   60.54    5.41
  -7  -2   7   62.35    5.39
   7   2  -7   51.65    4.99
   7   2  -7   45.36    5.05
  -6  -2   7    1.76    0.77
  -6  -2   7    2.84    0.84
  -6  -2   7    1.96    0.79
  -6  -2   7    2.06    0.87
   6   2  -7    2.94    1.26
   6   2  -7    2.82    1.15
  -5  -2   7   48.59    4.33
   5  -2  -7   47.46    3.54
  -5  -2   7   44.27    4.33
  -5  -2   7   38.09    4.23
   5  -2  -7   49.76    3.56
  -5  -2   7   45.84    4.27
   5  -2  -7   52.98    3.73
   5   2  -7   38.93    4.23
   5   2  -7   39.73    4.06
   4  -2  -7    5.61    0.67
  -4  -2   7    5.19    1.53
   4  -2  -7    5.69    0.88
  -4  -2   7    3.04    1.00
  -4  -2   7    4.99    1.26
  -4  -2   7    4.77    1.15
   4  -2  -7    4.05    0.73
  -4   2   7    3.74    0.45
  -4   2   7    3.72    0.47
   4   2  -7    3.74    1.25
   4   2  -7    3.07    0.96
   4   2  -7    2.17    0.79
  -3  -2   7  417.39   36.10
   3  -2  -7  524.93   35.72
  -3  -2   7  501.58   36.00
   3  -2  -7  526.05   35.42
   3  -2  -7  535.76   35.44
  -3  -2   7  487.38   35.86
  -3   2   7  393.01   28.62
   3   2  -7  377.77   29.12
   3   2  -7  393.41   29.18
   3   2  -7  457.34   29.69
  -3   2   7  394.41   28.64
   2  -2  -7   31.18    3.06
   2  -2  -7   34.21    2.81
  -2  -2   7   34.25    3.08
   2  -2  -7   32.12    2.78
  -2  -2   7   27.70    3.29
  -2  -2   7   31.89    3.04
  -2   2   7   25.51    2.43
  -2   2   7   32.13    2.41
   2   2  -7   29.37    3.06
   2   2  -7   26.01    2.73
  -2   2   7   24.71    2.40
   2   2  -7   25.09    2.69
  -1  -2   7    3.36    0.86
   1  -2  -7    2.50    0.71
  -1  -2   7    2.22    0.98
   1  -2  -7    2.31    0.92
  -1  -2   7    1.73    0.72
   1  -2  -7    3.38    0.81
  -1   2   7    3.31    0.86
  -1   2   7    3.00    0.74
  -1   2   7    2.37    0.62
   1   2  -7    2.30    0.75
   1   2  -7    3.32    1.01
   1   2  -7    1.84    0.70
   0  -2   7    2.52    0.77
   0  -2  -7    2.24    0.71
   0  -2  -7    1.93    0.69
   0  -2   7    2.35    0.67
   0  -2   7    1.34    0.78
   0  -2  -7    1.95    0.88
   0   2   7    1.67    0.62
   0   2  -7    1.60    0.63
   0   2  -7    1.36    0.65
   0   2  -7    2.73    0.96
   0   2   7    1.92    0.76
   0   2   7    0.69    0.49
   1  -2   7   53.74    4.25
   1  -2   7   45.83    4.59
  -1  -2  -7   49.64    4.22
   1  -2   7   48.11    4.15
  -1  -2  -7   45.90    4.15
  -1  -2  -7   39.02    4.88
   1   2   7   38.22    3.74
  -1   2  -7   36.76    3.72
   1   2   7   48.93    4.29
   1   2   7   36.72    3.70
  -1   2  -7   50.06    4.32
  -1   2  -7   42.25    3.82
  -2  -2  -7   10.14    1.70
   2  -2   7    9.81    1.36
   2  -2   7    7.97    1.50
  -2  -2  -7    9.89    1.68
  -2  -2  -7    8.76    2.06
   2  -2   7    9.76    2.06
   2   2   7    6.79    1.43
  -2   2  -7    9.18    1.50
  -2   2  -7    6.21    1.34
   2   2   7   11.55    1.84
   2   2   7    6.65    1.44
  -3  -2  -7  172.16   13.42
   3  -2   7  187.70   13.37
   3  -2   7  175.31   13.93
   3  -2   7  168.82   13.28
  -3  -2  -7  172.32   13.43
  -3   2  -7  133.41   10.51
   3   2   7  112.30   11.95
   3   2   7  133.11   10.76
  -3   2  -7  156.85   11.09
  -3   2  -7  137.19   10.55
   4  -2   7  121.69    9.44
  -4  -2  -7  115.11    9.54
   4  -2   7  118.44    9.40
   4  -2   7  126.41   10.15
  -4  -2  -7  109.83    9.45
   4   2   7   86.95    7.78
  -4   2  -7  100.78    8.00
  -4   2  -7   91.35    7.48
   4   2   7   91.29    7.87
  -4   2  -7   94.31    7.54
   5  -2   7    2.78    1.50
  -5  -2  -7    1.98    0.87
   5  -2   7    2.18    0.92
  -5  -2  -7    1.05    1.09
  -5  -2  -7    3.54    1.11
   5  -2   7    3.14    1.29
   5   2   7    2.46    1.37
  -5   2  -7    1.95    0.91
   5   2   7    3.70    1.16
  -5   2  -7    1.60    0.74
  -5   2  -7    3.58    1.21
   5   2   7    3.18    1.20
  -6  -2  -7    3.01    1.32
   6  -2   7    3.39    1.18
   6  -2   7    3.25    0.97
  -6  -2  -7    3.07    1.18
   6  -2   7    4.25    1.70
  -6   2  -7    1.74    0.86
   6   2   7    4.46    1.27
  -6   2  -7    4.63    1.45
   6   2   7    2.98    1.56
  -6   2  -7    1.86    0.90
   6   2   7    4.21    1.45
  -7  -2  -7   32.00    3.65
  -7  -2  -7   35.12    3.77
   7  -2   7   32.33    3.59
   7  -2   7   29.20    3.48
   7  -2   7   36.18    4.37
  -7   2  -7   23.94    2.83
   7   2   7   36.27    4.56
  -7   2  -7   29.15    3.03
   7   2   7   30.80    3.60
  -7   2  -7   27.24    3.29
   8  -2   7   21.11    3.66
  -8  -2  -7   22.11    3.00
  -8  -2  -7   19.49    3.18
   8  -2   7   22.98    2.84
  -8   2  -7   20.05    2.37
   8   2   7   27.70    4.00
   8   2   7   17.36    3.17
  -8   2  -7   16.19    2.94
  -8   2  -7   17.63    2.41
 -10  -3   7   -0.09    1.11
 -10  -3   7    0.95    0.97
  10   3  -7    0.88    1.13
  -9  -3   7   -0.93    0.74
  -9  -3   7    1.44    0.96
   9   3  -7    1.74    1.19
  -8  -3   7    6.14    1.58
  -8  -3   7    7.57    1.74
   8  -3  -7    6.04    0.61
  -8  -3   7    6.32    1.67
  -8  -3   7    5.17    1.53
   8   3  -7    6.66    2.12
  -7  -3   7   69.92    6.13
   7  -3  -7   62.42    4.93
  -7  -3   7   64.99    6.07
  -7  -3   7   69.25    6.08
  -7  -3   7   67.14    6.09
   7   3  -7   56.57    6.15
   7   3  -7   59.93    5.98
   6  -3  -7    7.07    0.92
  -6  -3   7    9.96    2.05
  -6  -3   7    7.76    1.70
  -6  -3   7    8.49    1.84
  -6  -3   7    9.96    1.84
   6   3  -7    5.93    1.95
   6   3  -7    9.37    2.22
   5  -3  -7   10.37    0.96
   5  -3  -7    9.38    1.22
   5  -3  -7   10.96    1.01
  -5  -3   7    9.66    1.98
  -5  -3   7    8.72    1.75
  -5  -3   7    7.89    1.78
  -5  -3   7    7.14    1.69
   5   3  -7    9.47    2.25
   5   3  -7    8.43    2.05
  -4  -3   7  147.38   11.08
   4  -3  -7  124.99   10.54
   4  -3  -7  153.47   10.28
  -4  -3   7  139.45   11.02
   4  -3  -7  153.66   10.26
  -4  -3   7  130.92   11.07
  -4  -3   7  128.15   11.39
  -4  -3   7  132.26   11.06
   4   3  -7  123.53   10.12
   4   3  -7  116.51   10.33
   3  -3  -7   76.60    7.10
  -3  -3   7   93.29    7.40
   3  -3  -7   97.83    6.85
  -3  -3   7   85.42    7.76
  -3  -3   7   77.79    7.65
   3  -3  -7   98.44    6.86
   3   3  -7   80.18    7.00
   3   3  -7   74.36    6.55
  -3   3   7   81.30    6.04
   3   3  -7   74.18    6.53
   3   3  -7   72.56    7.12
  -3   3   7   78.67    6.01
  -2  -3   7   64.54    5.23
   2  -3  -7   61.01    4.81
  -2  -3   7   57.55    5.10
  -2  -3   7   47.51    5.37
   2  -3  -7   53.56    5.15
   2  -3  -7   62.87    4.83
   2   3  -7   50.64    4.67
  -2   3   7   57.02    4.01
  -2   3   7   47.27    4.01
  -2   3   7   47.00    4.21
   2   3  -7   47.02    5.11
   2   3  -7   45.24    4.54
  -2   3   7   50.86    4.28
   2   3  -7   58.60    5.16
  -1  -3   7    4.83    1.13
   1  -3  -7    4.94    1.44
   1  -3  -7    4.31    1.01
   1  -3  -7    5.66    1.10
  -1  -3   7    5.18    1.22
  -1  -3   7    3.73    1.31
  -1   3   7    3.40    0.81
   1   3  -7    3.08    1.21
   1   3  -7    7.69    1.78
   1   3  -7    3.67    1.09
   1   3  -7    3.89    1.04
  -1   3   7    5.50    1.13
  -1   3   7    4.49    1.08
  -1   3   7    4.72    1.00
   0  -3   7    4.61    1.15
   0  -3  -7    3.61    0.99
   0  -3   7    4.37    1.41
   0  -3  -7    3.24    0.95
   0  -3  -7    3.02    1.29
   0  -3   7    4.20    1.09
   0   3   7    4.54    1.06
   0   3  -7    2.79    0.95
   0   3   7    2.61    0.79
   0   3   7    4.97    1.29
   0   3  -7    5.72    1.34
   0   3  -7    5.88    1.57
  -1  -3  -7    5.39    1.28
   1  -3   7    7.31    1.41
  -1  -3  -7    5.57    1.68
   1  -3   7    5.32    1.82
   1  -3   7    4.15    1.42
  -1  -3  -7    5.63    1.28
  -1   3  -7    3.68    1.10
   1   3   7    3.67    1.05
  -1   3  -7    4.03    1.10
  -1   3  -7    5.17    1.50
   1   3   7    5.70    1.20
   1   3   7    6.36    1.56
   2  -3   7    4.30    1.12
   2  -3   7    4.26    1.52
  -2  -3  -7    3.87    1.17
  -2  -3  -7    3.28    1.02
  -2  -3  -7    5.05    1.36
  -2   3  -7    4.53    1.35
  -2   3  -7    2.53    0.92
   2   3   7    4.61    1.50
   2   3   7    2.97    0.90
  -2   3  -7    2.00    0.78
   2   3   7    2.95    0.90
  -3  -3  -7   61.84    6.92
   3  -3   7   80.51    7.48
   3  -3   7   70.31    6.81
  -3  -3  -7   71.34    6.36
  -3  -3  -7   74.35    6.42
   3  -3   7   79.74    6.29
  -3   3  -7   54.27    5.20
   3   3   7   53.74    5.39
   3   3   7   76.34    6.51
  -3   3  -7   56.00    5.26
  -3   3  -7   68.44    5.73
   3   3   7   55.03    5.42
  -4  -3  -7   54.28    4.91
   4  -3   7   55.20    4.69
   4  -3   7   49.52    4.55
  -4  -3  -7   37.57    5.13
   4  -3   7   51.29    5.29
  -4  -3  -7   46.47    4.75
   4   3   7   39.04    4.11
   4   3   7   52.20    5.17
   4   3   7   32.32    3.94
  -4   3  -7   44.94    4.23
  -4   3  -7   35.53    3.73
  -4   3  -7   37.66    3.81
   5  -3   7   -0.24    0.46
  -5  -3  -7   -0.35    1.16
  -5  -3  -7    0.72    0.80
   5  -3   7    0.15    0.70
  -5  -3  -7    1.00    0.63
   5  -3   7    0.11    0.91
  -5   3  -7   -0.60    0.48
   5   3   7    1.04    1.16
   5   3   7   -0.51    0.78
  -5   3  -7    0.50    0.76
   5   3   7    0.73    1.16
  -6  -3  -7   18.09    2.51
   6  -3   7   18.15    2.82
   6  -3   7   17.14    2.97
  -6  -3  -7   15.97    2.83
   6  -3   7   17.46    2.42
  -6   3  -7   11.40    1.98
  -6   3  -7   12.40    2.08
  -6   3  -7   11.35    1.99
  -6   3  -7   18.78    3.11
   7  -3   7   16.95    2.52
   7  -3   7   12.14    2.94
  -7  -3  -7   13.16    2.52
  -7  -3  -7   19.47    3.11
  -7   3  -7    8.33    1.69
   7   3   7   14.11    2.36
   7   3   7   15.15    3.43
  -7   3  -7   12.72    2.06
  -8  -3  -7    1.34    1.52
  -8  -3  -7   -1.34    0.66
   8  -3   7    1.06    1.33
   8  -3   7    0.85    1.34
  -8   3  -7    0.47    0.83
   8   3   7    1.55    1.45
  -9  -4   7    1.94    1.02
  -9  -4   7   -0.04    1.24
   9   4  -7    2.50    1.29
   8  -4  -7    2.16    0.70
  -8  -4   7    1.21    0.89
  -8  -4   7    1.72    1.11
   8   4  -7   -0.12    1.18
  -7  -4   7   11.60    2.35
  -7  -4   7   11.55    2.38
   7  -4  -7   11.66    1.58
  -7  -4   7   13.28    2.59
   7   4  -7    9.64    2.74
   6  -4  -7   15.20    1.27
  -6  -4   7   13.42    2.43
   6  -4  -7   12.76    1.20
  -6  -4   7   11.83    2.39
  -6  -4   7   13.59    2.47
   6  -4  -7   14.10    1.18
   6  -4  -7   13.55    1.30
   6  -4  -7   10.72    1.70
  -6  -4   7   15.10    2.67
   6   4  -7   12.22    2.87
   6   4  -7   10.46    2.74
  -5  -4   7   46.55    4.80
   5  -4  -7   48.68    3.82
   5  -4  -7   41.64    3.79
   5  -4  -7   42.19    4.33
  -5  -4   7   51.89    4.87
  -5  -4   7   48.88    4.91
  -5  -4   7   52.74    5.61
   5  -4  -7   41.90    4.05
   5  -4  -7   51.83    3.80
   5   4  -7   37.96    4.78
  -4  -4   7    9.19    2.47
  -4  -4   7    8.80    1.98
  -4  -4   7    9.49    1.96
   4  -4  -7   10.03    1.25
   4  -4  -7    8.87    1.84
   4  -4  -7    9.95    1.27
  -4  -4   7    7.43    1.79
  -4  -4   7    8.08    1.96
   4   4  -7   10.51    2.42
   4   4  -7    8.52    2.40
   3  -4  -7   20.30    2.97
  -3  -4   7   22.12    2.65
   3  -4  -7   24.42    2.35
  -3  -4   7   19.96    2.63
  -3  -4   7   18.35    2.66
  -3  -4   7   17.02    2.97
   3  -4  -7   24.18    2.33
  -3  -4   7   19.98    3.12
   3   4  -7   23.13    3.15
   3   4  -7   16.46    2.91
   2  -4  -7   11.56    1.85
  -2  -4   7   10.96    2.14
  -2  -4   7   13.18    2.18
  -2  -4   7   10.25    2.39
   2  -4  -7   10.20    2.24
   2  -4  -7   14.08    1.72
  -2   4   7   12.57    1.68
  -2   4   7   12.14    1.23
   2   4  -7   10.86    2.44
  -2   4   7   10.33    1.72
   2   4  -7    8.13    2.21
  -2   4   7    9.64    1.64
   2   4  -7   11.15    2.10
  -1  -4   7   23.69    3.38
   1  -4  -7   27.31    2.83
   1  -4  -7   22.72    3.16
  -1  -4   7   28.52    3.02
  -1  -4   7   24.33    2.97
   1  -4  -7   27.04    2.80
   1   4  -7   19.28    2.48
  -1   4   7   19.67    2.26
   1   4  -7   19.79    2.54
  -1   4   7   21.88    2.36
   1   4  -7   25.71    3.13
  -1   4   7   18.88    2.29
   1   4  -7   14.70    3.11
   0  -4  -7   27.14    2.95
   0  -4   7   27.95    3.05
   0  -4   7   29.11    3.11
   0  -4   7   21.67    3.32
   0  -4  -7   27.58    2.98
   0  -4  -7   26.10    3.56
   0   4  -7   19.95    3.38
   0   4   7   18.75    2.60
   0   4  -7   19.87    3.04
   0   4   7   22.19    2.54
   0   4   7   24.39    2.59
   0   4  -7   29.91    3.29
   0   4  -7   21.37    2.69
   1  -4   7    0.26    0.78
  -1  -4  -7    0.15    0.58
  -1  -4  -7    1.06    0.77
   1  -4   7    2.14    0.79
   1  -4   7    2.38    0.90
  -1  -4  -7    1.70    1.04
   1   4   7    0.55    0.87
   1   4   7    0.31    0.55
  -1   4  -7   -0.02    0.89
  -1   4  -7    0.41    0.85
   1   4   7    0.44    0.52
  -1   4  -7   -0.04    0.56
   1   4   7    1.17    1.05
  -1   4  -7    0.92    0.72
   2  -4   7    1.26    1.02
   2  -4   7    2.93    1.41
  -2  -4  -7    2.45    1.01
   2  -4   7    3.26    1.01
  -2  -4  -7    4.74    1.37
  -2  -4  -7    3.33    1.54
  -2   4  -7    2.48    1.11
   2   4   7    2.00    1.03
   2   4   7    1.15    0.72
  -2   4  -7    1.30    1.07
   2   4   7    3.74    1.43
  -2   4  -7    1.74    0.86
  -2   4  -7    2.05    0.97
  -3  -4  -7   27.61    4.11
   3  -4   7   29.55    3.92
  -3  -4  -7   28.87    3.59
  -3  -4  -7   31.05    3.55
   3  -4   7   36.57    3.47
   3  -4   7   32.42    3.38
   3   4   7   23.87    2.96
  -3   4  -7   20.61    2.65
  -3   4  -7   29.27    3.12
   3   4   7   19.61    2.66
  -3   4  -7   20.98    2.69
  -3   4  -7   22.85    3.05
   4  -4   7   -0.44    0.86
  -4  -4  -7    0.50    0.65
  -4  -4  -7   -0.05    0.82
   4  -4   7    1.12    0.71
   4   4   7    2.74    1.20
  -4   4  -7    1.99    1.04
  -4   4  -7    0.59    0.79
   4   4   7    1.87    1.39
  -4   4  -7    1.28    0.76
   5  -4   7    0.58    1.03
  -5  -4  -7   -1.04    0.66
   5  -4   7    0.11    0.64
   5  -4   7   -0.60    0.58
  -5   4  -7    1.20    0.89
  -5   4  -7   -0.39    0.66
  -5   4  -7    0.84    0.67
   5   4   7    0.07    0.96
  -5   4  -7    0.12    0.71
   6  -4   7    3.27    1.59
   6  -4   7    5.08    1.43
  -6  -4  -7    5.65    1.69
  -6  -4  -7    5.70    1.79
   6   4   7    4.78    1.78
  -6   4  -7    2.23    1.18
  -6   4  -7    5.06    1.52
  -6   4  -7    7.79    1.93
   7  -4   7   15.24    3.00
  -7  -4  -7   13.73    2.77
   7  -4   7   12.25    2.70
  -7   4  -7   10.97    1.82
  -7   4  -7    8.62    1.89
   7   4   7   17.77    3.75
  -8  -5   7    4.45    1.54
  -8  -5   7   -1.20    1.29
   8   5  -7    4.14    1.56
   7  -5  -7   28.11    2.26
   7  -5  -7   31.48    2.29
  -7  -5   7   31.10    3.87
  -7  -5   7   30.17    3.91
   7  -5  -7   28.59    3.33
   7   5  -7   23.68    3.86
  -6  -5   7    6.56    1.79
   6  -5  -7    9.08    1.14
   6  -5  -7   11.08    1.18
   6  -5  -7   11.79    1.26
   6  -5  -7    8.69    1.24
  -6  -5   7    5.61    2.07
   6   5  -7    8.93    2.68
   5  -5  -7    2.28    0.72
  -5  -5   7    0.99    1.00
   5  -5  -7    0.31    0.52
  -5  -5   7    0.49    0.85
   5  -5  -7    1.70    0.57
   5   5  -7    1.02    1.17
  -4  -5   7    9.17    2.06
   4  -5  -7    9.27    1.55
   4  -5  -7   10.23    1.60
  -4  -5   7    9.81    2.02
  -4  -5   7    5.12    1.59
  -4  -5   7    6.82    1.81
   4  -5  -7    6.21    1.39
   4  -5  -7    5.14    1.18
   4   5  -7    8.15    2.35
  -3  -5   7   23.97    3.76
  -3  -5   7   26.17    3.19
   3  -5  -7   27.22    2.84
  -3  -5   7   22.65    3.16
   3  -5  -7   25.01    2.75
  -3  -5   7   25.33    3.44
  -3  -5   7   26.88    3.43
   3   5  -7   21.70    3.48
  -2  -5   7   49.67    5.05
   2  -5  -7   61.70    4.90
  -2  -5   7   42.02    5.01
  -2  -5   7   61.21    5.37
  -2  -5   7   45.55    5.07
  -2  -5   7   39.90    5.43
   2   5  -7   44.36    5.31
  -1  -5   7    2.81    1.18
  -1  -5   7    5.71    1.99
   1  -5  -7    5.14    1.39
   1  -5  -7    4.47    1.26
  -1  -5   7    6.63    1.35
  -1  -5   7    3.96    1.40
  -1   5   7    2.55    0.99
  -1   5   7    4.60    1.18
  -1   5   7    4.55    1.08
   0  -5   7    8.75    1.80
   0  -5  -7    7.55    1.74
   0  -5   7    6.78    1.73
   0  -5  -7    9.20    1.92
   0  -5   7    5.11    2.00
   0   5  -7    7.30    2.27
   0   5  -7    6.12    1.64
   0   5   7    8.50    1.66
   0   5   7    8.95    1.85
   0   5   7    5.24    1.68
   0   5  -7    7.63    2.37
  -1  -5  -7   11.19    2.23
   1  -5   7   10.36    2.17
  -1  -5  -7   11.32    2.24
   1  -5   7   10.47    2.70
  -1  -5  -7    9.92    2.59
   1   5   7   11.82    2.54
   1   5   7    7.66    2.16
  -1   5  -7    7.43    1.74
  -1   5  -7   11.38    2.61
  -1   5  -7    7.59    2.25
   2  -5   7    6.33    1.83
   2  -5   7    9.47    1.77
  -2  -5  -7    8.70    1.89
  -2  -5  -7    7.41    1.85
   2  -5   7    6.67    2.15
   2   5   7    6.87    2.10
  -2   5  -7    6.89    1.70
  -2   5  -7    7.89    1.86
  -2   5  -7    5.80    1.43
  -2   5  -7    5.00    1.71
   2   5   7    9.74    2.44
  -3  -5  -7   35.04    4.14
   3  -5   7   38.76    4.08
   3  -5   7   42.18    4.17
   3  -5   7   33.84    4.68
  -3  -5  -7   40.03    4.33
  -3   5  -7   24.55    3.11
   3   5   7   25.88    4.38
  -3   5  -7   28.14    3.15
  -3   5  -7   24.78    3.45
  -4  -5  -7   17.30    3.16
   4  -5   7   22.21    3.89
  -4  -5  -7   17.13    3.06
   4  -5   7   19.93    3.37
   4   5   7   24.90    3.78
  -4   5  -7   18.89    2.88
  -4   5  -7   22.43    2.95
  -5  -5  -7    4.39    1.64
   5  -5   7    3.72    1.66
  -5  -5  -7    4.60    1.34
   5   5   7    5.84    2.11
  -5   5  -7    3.74    1.78
  -5   5  -7    3.79    1.13
  -5   5  -7    3.81    1.24
  -5  -6   7    4.83    1.77
   5  -6  -7    1.99    0.87
   5  -6  -7    2.42    1.00
   5  -6  -7    2.49    0.88
  -5  -6   7    4.89    1.65
   5   6  -7    6.46    1.88
   4  -6  -7    6.96    1.51
   4  -6  -7    7.05    1.57
  -4  -6   7    7.01    1.81
  -4  -6   7    7.01    2.24
   4  -6  -7    7.68    1.44
   4   6  -7    5.58    2.19
  -3  -6   7    5.15    1.83
  -3  -6   7    8.03    2.01
   3  -6  -7    9.72    1.80
   3  -6  -7    8.50    1.68
   3   6  -7    4.46    1.70
  -2  -6   7    7.44    2.04
   2  -6  -7    3.72    1.32
  -2  -6   7    2.88    1.56
   2  -6  -7    6.23    1.49
  -2  -6   7    7.54    2.65
   2   6  -7    5.90    2.03
  -1  -6   7    0.65    1.28
   1  -6  -7   -0.35    0.72
   1  -6  -7    3.83    0.86
  -1  -6   7   -0.07    1.07
  -1  -6   7    0.33    0.96
   1   6  -7    0.56    0.99
  -1   6   7   -1.07    0.90
  -1   6   7   -1.18    0.72
   0  -6  -7   14.57    2.61
   0  -6   7   10.04    2.39
   0  -6   7   13.15    2.61
   0  -6   7   12.62    3.32
   0  -6   7   11.70    2.31
   0  -6  -7   18.18    2.97
   0   6  -7   24.38    5.64
   0   6  -7   15.77    2.64
   0   6   7   13.44    2.87
  -1  -6  -7   15.58    2.61
  -1  -6  -7   16.30    2.86
   1  -6   7   13.89    2.59
   1  -6   7   16.72    3.26
   1   6   7   18.29    3.67
  -1   6  -7   16.53    3.57
  -1   6  -7   10.49    2.43
   1   6   7   23.20    3.19
   2  -6   7    2.31    1.19
  -2  -6  -7    2.01    1.07
   2  -6   7    1.75    1.62
  -2  -6  -7    3.98    1.62
   2   6   7    4.63    1.98
   2   6   7    5.31    2.28
  -2   6  -7    5.35    1.83
  12   0  -8    6.41    1.67
  11   0  -8    5.00    1.94
  11   0  -8    5.47    1.70
  10   0  -8  199.79   15.79
 -10   0   8  214.09   14.51
  10   0  -8  200.05   16.04
  -9   0   8   43.86    3.26
   9   0  -8   38.57    4.18
  -9   0   8   47.26    3.16
   9   0  -8   34.60    4.00
  -8   0   8    0.90    0.34
  -8   0   8    0.73    0.30
  -8   0   8    1.15    0.33
   8   0  -8    0.88    0.64
   8   0  -8    0.82    0.95
  -7   0   8   22.78    1.72
   7   0  -8   15.38    2.08
  -7   0   8   17.86    1.74
  -7   0   8   22.07    1.75
  -7   0   8   16.51    1.74
  -6   0   8   46.01    3.18
   6   0  -8   34.25    3.30
   6   0  -8   35.88    3.51
  -6   0   8   38.55    3.27
  -6   0   8   44.58    3.20
   6   0  -8   34.02    3.29
   5   0  -8    2.37    0.64
   5   0  -8    2.03    0.64
  -5   0   8    4.55    0.72
  -5   0   8    3.76    0.79
   5   0  -8    2.54    0.82
   4   0  -8  267.83   21.09
  -4   0   8  319.45   21.06
   4   0  -8  275.11   21.11
   4   0  -8  277.64   21.33
  -4   0   8  326.51   21.05
   3   0  -8   49.66    4.09
   3   0  -8   41.48    3.75
  -3   0   8   47.69    3.73
   3   0  -8   45.34    3.79
  -3   0   8   49.68    3.75
  -3   0   8   41.01    3.84
  -2   0   8   67.20    6.27
  -2   0   8   79.08    6.12
   2   0  -8   81.88    6.19
   2   0  -8   84.57    6.51
  -2   0   8   81.43    6.12
   2   0  -8   81.61    6.19
   1   0  -8   75.73    5.91
  -1   0   8   69.11    5.47
   1   0  -8   70.00    5.51
   1   0  -8   67.15    5.49
  -1   0   8   64.97    5.76
  -1   0   8   66.42    5.45
   0   0  -8   13.38    1.57
   0   0   8   10.48    1.46
   0   0  -8   14.16    1.57
   0   0   8   12.16    1.80
   0   0   8   13.35    1.54
   0   0  -8   15.68    1.96
  -1   0  -8    0.69    0.46
   1   0   8    1.13    0.55
  -1   0  -8    1.21    0.54
   1   0   8    0.70    0.69
   1   0   8    1.88    0.61
  -1   0  -8    0.83    0.68
   2   0   8   20.07    2.46
   2   0   8   13.22    2.93
  -2   0  -8   16.50    1.86
   2   0   8   15.08    1.85
  -2   0  -8   14.46    1.81
  -2   0  -8   13.21    2.09
   3   0   8  110.87    8.71
  -3   0  -8  101.65    7.93
   3   0   8   99.14    8.03
   3   0   8   89.27    7.91
  -3   0  -8   84.29    8.29
  -3   0  -8  113.84    8.55
   4   0   8   26.83    3.08
  -4   0  -8   32.15    3.08
   4   0   8   33.41    3.24
   4   0   8   37.43    3.93
  -4   0  -8   21.25    3.23
   5   0   8    8.53    1.78
   5   0   8    5.51    1.56
  -5   0  -8   10.82    2.07
   5   0   8   10.55    2.41
  -5   0  -8    9.22    2.15
  -5   0  -8    8.23    1.65
   6   0   8    4.55    1.35
  -6   0  -8    4.18    1.69
   6   0   8    5.18    1.33
  -6   0  -8    5.37    1.32
  -6   0  -8    3.87    1.09
  -7   0  -8    0.04    0.64
  -7   0  -8    1.15    1.11
   7   0   8    0.37    1.13
   7   0   8   -0.77    1.00
   7   0   8    0.46    0.77
  -7   0  -8   -0.47    0.62
  -8   0  -8    1.22    0.88
  -8   0  -8    1.36    0.90
   8   0   8    2.09    1.75
  12  -1  -8    5.69    1.49
 -12  -1   8    4.64    0.97
  12   1  -8    4.13    1.70
  11  -1  -8    1.89    0.88
 -11  -1   8    0.18    0.89
 -11  -1   8    1.14    0.80
  11   1  -8    0.27    1.01
 -10  -1   8   13.19    1.54
 -10  -1   8   12.45    1.62
  10  -1  -8    9.59    1.67
  10  -1  -8    9.73    1.88
 -10  -1   8    9.42    1.56
  10   1  -8   11.19    2.41
  -9  -1   8   16.77    1.81
  -9  -1   8   14.43    1.69
   9  -1  -8   10.98    1.68
  -9  -1   8   16.18    1.69
   9  -1  -8   10.03    1.59
   9   1  -8   13.18    2.24
   9   1  -8   13.71    2.38
  -8  -1   8   11.48    1.60
  -8  -1   8   12.53    1.66
   8  -1  -8   12.11    1.47
  -8  -1   8   14.61    1.64
  -8  -1   8   11.92    1.60
   8   1  -8   11.05    2.24
   8   1  -8   11.86    2.21
   7  -1  -8    4.94    0.89
  -7  -1   8    8.45    1.37
  -7  -1   8    7.15    1.32
  -7  -1   8    7.47    1.26
  -7  -1   8    7.30    1.36
   7   1  -8    6.65    1.70
   6  -1  -8    0.76    0.45
  -6  -1   8    2.56    0.75
  -6  -1   8    0.84    0.40
   6  -1  -8    1.07    0.40
  -6  -1   8    2.34    0.65
   6  -1  -8    0.83    0.33
  -6  -1   8    1.92    0.76
   6   1  -8    0.84    0.61
   5  -1  -8   60.77    4.76
  -5  -1   8   64.91    5.02
   5  -1  -8   53.97    4.54
  -5  -1   8   66.56    4.95
   5  -1  -8   55.26    4.56
   5   1  -8   49.82    4.32
  -5   1   8   51.28    3.74
  -5   1   8   50.69    3.71
   5   1  -8   44.04    4.21
   5   1  -8   52.45    4.63
   4  -1  -8  175.81   12.38
   4  -1  -8  166.51   12.14
  -4  -1   8  141.64   12.55
  -4  -1   8  176.09   12.45
   4  -1  -8  174.78   12.16
  -4   1   8  145.40   10.70
   4   1  -8  146.44   11.19
   4   1  -8  157.32   11.53
  -4   1   8  151.31   10.73
   4   1  -8  139.54   11.15
   3  -1  -8   43.91    3.69
  -3  -1   8   40.24    3.57
  -3  -1   8   40.45    3.58
   3  -1  -8   42.24    3.42
   3  -1  -8   40.61    3.39
   3   1  -8   36.67    3.37
  -3   1   8   32.95    2.75
  -3   1   8   30.68    2.65
  -3   1   8   32.54    2.73
   3   1  -8   34.13    3.07
   3   1  -8   32.87    3.05
   2  -1  -8   14.26    1.51
  -2  -1   8   10.37    1.72
   2  -1  -8   15.84    1.79
  -2  -1   8   14.72    1.60
  -2  -1   8   14.10    1.58
   2  -1  -8   15.59    1.54
  -2   1   8   12.45    1.50
   2   1  -8   13.13    1.60
  -2   1   8   11.87    1.36
   2   1  -8   13.41    1.60
  -2   1   8   14.97    1.44
   2   1  -8   15.05    1.90
   1  -1  -8  121.38    9.08
  -1  -1   8  125.25    9.19
   1  -1  -8  126.31    9.10
   1  -1  -8  120.10    9.45
  -1  -1   8  103.25    9.41
  -1  -1   8  124.08    9.17
   1   1  -8  107.45    8.49
  -1   1   8   98.78    8.28
   1   1  -8  119.70    8.90
  -1   1   8  117.21    8.60
  -1   1   8  106.17    8.34
   1   1  -8  109.74    8.50
   0  -1  -8    8.58    1.19
   0  -1  -8    9.03    1.22
   0  -1   8    6.75    1.57
   0  -1  -8    8.24    1.44
   0  -1   8    8.44    1.40
   0  -1   8    9.73    1.27
   0   1   8    7.91    1.35
   0   1  -8    8.87    1.56
   0   1   8   10.15    1.53
   0   1  -8    8.52    1.48
   0   1   8    8.14    1.36
   0   1  -8   10.70    1.96
   1  -1   8   84.63    7.33
   1  -1   8   86.07    6.88
  -1  -1  -8   72.67    7.60
  -1  -1  -8   91.80    6.93
  -1  -1  -8   92.00    6.92
   1  -1   8   87.05    6.88
  -1   1  -8   80.80    6.38
  -1   1  -8   76.63    6.33
   1   1   8   74.48    6.42
   1   1   8   89.97    6.88
   1   1   8   70.35    6.27
  -2  -1  -8    3.23    0.93
   2  -1   8    2.88    0.85
  -2  -1  -8    2.98    0.92
   2  -1   8    3.87    1.02
   2  -1   8    3.67    1.31
  -2  -1  -8    4.16    1.30
   2   1   8    2.15    0.75
   2   1   8    3.99    1.25
  -2   1  -8    3.16    0.91
  -2   1  -8    3.53    0.93
   2   1   8    2.91    0.93
  -2   1  -8    3.04    1.12
   3  -1   8  151.96   11.57
  -3  -1  -8  138.56   10.84
   3  -1   8  132.73   10.81
   3  -1   8  135.83   10.81
  -3  -1  -8  137.37   10.81
   3   1   8  113.70    9.87
  -3   1  -8  127.53    9.81
  -3   1  -8  118.99   10.25
   3   1   8  116.69    9.91
  -3   1  -8  127.61    9.80
   3   1   8  151.89   10.84
   4  -1   8  113.86    9.82
   4  -1   8  134.63   10.69
   4  -1   8  127.68    9.93
  -4  -1  -8  122.19    9.86
  -4  -1  -8  123.60    9.89
  -4   1  -8  102.01    9.24
  -4   1  -8  117.25    8.84
   4   1   8  108.84    9.07
   4   1   8  114.33    9.10
  -4   1  -8  112.54    8.83
  -5  -1  -8   13.61    2.97
   5  -1   8   20.93    3.02
  -5  -1  -8   19.99    2.40
   5  -1   8   17.18    2.30
  -5  -1  -8   20.66    2.42
   5  -1   8   17.02    2.36
  -5   1  -8   15.55    2.41
   5   1   8   14.81    2.09
  -5   1  -8   16.33    2.10
  -5   1  -8   19.40    2.21
   5   1   8   17.70    2.90
  -6  -1  -8    9.27    1.90
  -6  -1  -8   10.10    1.90
   6  -1   8    8.29    1.80
  -6  -1  -8    7.46    3.18
   6  -1   8    5.50    1.64
  -6   1  -8    5.07    1.25
   6   1   8    7.25    1.74
  -6   1  -8    5.57    1.49
   6   1   8    4.34    1.25
  -6   1  -8    5.96    1.42
   6   1   8    7.62    2.20
   7  -1   8   20.05    2.82
  -7  -1  -8   24.70    2.92
  -7  -1  -8   23.89    2.82
   7  -1   8   25.85    3.75
  -7  -1  -8   23.50    3.57
   7  -1   8   19.17    2.80
  -7   1  -8   24.51    3.12
  -7   1  -8   18.14    2.46
   7   1   8   26.19    3.80
   7   1   8   17.41    3.03
  -7   1  -8   18.88    2.47
   8  -1   8   13.41    3.09
  -8  -1  -8   12.66    2.36
   8  -1   8   13.32    2.31
  -8  -1  -8   13.55    2.42
   8  -1   8   14.48    2.65
   8   1   8   18.18    3.63
  -8   1  -8    9.21    2.18
  -8   1  -8   11.53    1.99
  -8   1  -8   10.73    2.00
   8   1   8   10.65    2.57
 -11  -2   8    1.82    1.05
 -11  -2   8    2.74    1.19
  11  -2  -8    2.18    0.67
  11   2  -8    2.11    1.55
 -10  -2   8   10.45    2.02
 -10  -2   8    6.69    1.51
  10  -2  -8    8.17    1.14
  10  -2  -8    7.06    1.10
 -10  -2   8    9.77    1.85
  10   2  -8    9.27    2.51
  -9  -2   8    3.72    1.13
  -9  -2   8    4.94    1.08
  -9  -2   8    2.90    1.08
  -9  -2   8    1.78    0.85
   9  -2  -8    2.57    0.58
   9  -2  -8    2.54    0.55
   9   2  -8    0.68    0.91
   8  -2  -8   96.20    7.74
  -8  -2   8  115.32    8.88
  -8  -2   8  118.60    8.85
   8   2  -8   89.73    7.77
   8   2  -8   79.38    7.87
  -7  -2   8   28.18    2.91
  -7  -2   8   24.95    2.89
  -7  -2   8   26.27    2.93
  -7  -2   8   28.67    2.97
   7  -2  -8   25.09    2.13
   7   2  -8   22.90    3.00
   7   2  -8   22.16    3.07
  -6  -2   8    4.18    1.11
   6  -2  -8    4.40    0.65
  -6  -2   8    3.48    1.06
  -6  -2   8    4.14    1.16
  -6  -2   8    5.01    1.21
   6  -2  -8    4.19    0.45
   6  -2  -8    3.40    0.37
   6   2  -8    3.10    1.30
   6   2  -8    3.80    1.43
  -5  -2   8   19.71    2.46
   5  -2  -8   22.39    1.83
   5  -2  -8   22.69    2.04
   5  -2  -8   20.82    1.80
  -5  -2   8   21.63    2.44
  -5  -2   8   16.07    2.93
  -5  -2   8   26.56    2.59
   5   2  -8   19.12    2.53
   5   2  -8   16.52    2.14
   5   2  -8   18.91    2.62
   4  -2  -8   92.01    6.71
   4  -2  -8   96.24    7.01
   4  -2  -8   96.65    6.73
  -4  -2   8   91.60    7.29
  -4  -2   8   85.94    7.22
  -4  -2   8   72.95    7.45
   4   2  -8   64.75    5.94
   4   2  -8   77.51    6.44
  -4   2   8   72.35    5.37
   4   2  -8   70.16    6.02
   3  -2  -8    4.95    0.87
   3  -2  -8    4.25    1.02
  -3  -2   8    2.49    0.82
   3  -2  -8    4.47    0.80
  -3  -2   8    3.05    1.04
  -3  -2   8    1.93    0.91
  -3   2   8    0.71    0.39
   3   2  -8    1.52    0.67
   3   2  -8    2.37    0.97
  -3   2   8    1.93    0.50
   3   2  -8    1.80    0.74
   2  -2  -8    1.28    0.45
   2  -2  -8   -0.09    0.48
   2  -2  -8    0.15    0.37
  -2  -2   8    0.30    0.38
  -2  -2   8    0.37    0.56
  -2  -2   8    0.50    0.49
   2   2  -8    0.69    0.63
  -2   2   8    0.40    0.33
  -2   2   8    0.54    0.38
   2   2  -8    0.24    0.51
  -2   2   8    0.12    0.28
   2   2  -8   -0.60    0.22
   1  -2  -8    4.19    1.22
   1  -2  -8    4.45    0.93
  -1  -2   8    3.75    0.94
  -1  -2   8    3.05    1.21
   1  -2  -8    3.41    0.87
   1   2  -8    4.19    1.02
  -1   2   8    4.13    1.02
   1   2  -8    2.93    0.89
  -1   2   8    4.67    1.17
  -1   2   8    4.18    0.87
   1   2  -8    6.65    1.57
   0  -2   8    8.86    1.56
   0  -2   8    7.62    1.78
   0  -2   8   12.44    2.64
   0  -2  -8   10.19    1.38
   0  -2  -8   11.45    1.44
   0   2   8   10.53    1.66
   0   2  -8    7.73    1.52
   0   2   8    8.29    1.44
   0   2   8    8.21    1.41
   0   2  -8   10.27    2.00
   0   2  -8   12.22    1.84
  -1  -2  -8   18.10    2.13
   1  -2   8   21.22    2.23
  -1  -2  -8   19.12    2.18
  -1  -2  -8   15.10    2.41
   1  -2   8   19.88    2.64
  -1   2  -8   16.05    1.97
   1   2   8   15.08    1.88
  -1   2  -8   15.41    1.93
   1   2   8   12.54    1.79
   1   2   8   19.04    2.39
  -1   2  -8   19.51    2.37
   2  -2   8    8.44    1.97
  -2  -2  -8    7.87    2.01
   2  -2   8    7.73    1.51
   2  -2   8    7.75    1.49
  -2  -2  -8    8.74    1.63
  -2  -2  -8    8.71    1.66
  -2   2  -8    7.45    1.75
   2   2   8    6.71    1.46
   2   2   8    7.72    1.85
   2   2   8    3.66    1.01
  -2   2  -8    8.13    1.49
  -2   2  -8    6.65    1.39
  -3  -2  -8   85.59    6.96
  -3  -2  -8   84.22    6.94
   3  -2   8   84.45    7.50
  -3  -2  -8   64.10    7.26
   3  -2   8   83.57    6.85
   3  -2   8   88.75    6.91
  -3   2  -8   78.63    6.55
  -3   2  -8   67.64    5.97
   3   2   8   66.19    6.16
   3   2   8   69.07    6.18
  -3   2  -8   72.23    6.03
  -4  -2  -8   76.37    7.00
   4  -2   8   89.35    7.80
   4  -2   8   82.74    6.99
   4  -2   8   77.86    6.94
  -4  -2  -8   87.48    7.18
   4   2   8   57.40    5.56
   4   2   8   57.97    5.54
  -4   2  -8   65.45    5.82
  -4   2  -8   58.78    5.28
  -4   2  -8   62.10    5.33
  -5  -2  -8   16.39    2.30
   5  -2   8   14.54    2.48
   5  -2   8   15.57    3.18
  -5  -2  -8   21.74    2.56
   5  -2   8   16.54    2.23
  -5   2  -8   15.01    2.33
   5   2   8   11.92    2.26
  -5   2  -8   10.03    1.91
  -5   2  -8   13.80    2.14
   5   2   8   11.28    2.19
  -6  -2  -8   27.13    2.92
  -6  -2  -8   17.86    2.96
   6  -2   8   19.96    2.64
   6  -2   8   20.21    3.40
   6  -2   8   18.54    2.53
   6   2   8   21.80    2.77
  -6   2  -8   14.00    2.13
  -6   2  -8   17.98    2.65
   6   2   8   22.97    3.55
   6   2   8   16.96    2.91
  -6   2  -8   19.08    2.33
   7  -2   8    3.92    1.34
   7  -2   8    2.77    0.99
  -7  -2  -8   -1.91    0.74
   7  -2   8    1.28    1.39
  -7  -2  -8    1.08    0.74
  -7   2  -8   -1.27    0.64
   7   2   8    2.60    0.91
   7   2   8    1.00    1.18
  -7   2  -8    4.12    1.28
  -7   2  -8    0.44    0.81
  -8  -2  -8   25.83    3.59
   8  -2   8   35.19    4.54
  -8  -2  -8   33.87    3.91
  -8   2  -8   23.99    3.13
  -8   2  -8   30.89    3.79
   8   2   8   38.86    4.91
 -10  -3   8    7.01    1.88
 -10  -3   8    6.18    1.91
  10   3  -8    9.18    2.47
  -9  -3   8    4.34    1.53
  -9  -3   8    2.88    1.39
   9   3  -8    2.23    1.46
   8  -3  -8   16.89    1.42
  -8  -3   8   18.93    2.53
  -8  -3   8   13.65    2.50
  -8  -3   8   19.16    2.60
  -8  -3   8   17.04    2.89
  -7  -3   8   42.15    4.34
  -7  -3   8   39.42    4.26
  -7  -3   8   42.22    4.31
   7  -3  -8   41.06    3.28
   7   3  -8   34.35    4.60
   7   3  -8   43.53    4.66
   6  -3  -8    5.71    0.54
  -6  -3   8    5.77    1.53
  -6  -3   8    4.04    1.38
   6  -3  -8    5.42    0.84
  -6  -3   8    5.25    1.53
  -6  -3   8    4.49    1.23
   6   3  -8    5.43    1.77
   6   3  -8    5.79    1.89
   5  -3  -8    8.67    0.91
  -5  -3   8    5.33    1.44
   5  -3  -8    7.69    1.15
  -5  -3   8    6.97    1.72
  -5  -3   8    5.57    1.58
   5  -3  -8    8.93    0.88
  -5  -3   8    8.48    1.68
   5   3  -8    5.61    1.78
   5   3  -8    8.09    2.04
  -4  -3   8  209.96   17.84
  -4  -3   8  239.62   17.86
  -4  -3   8  243.98   17.88
   4  -3  -8  216.47   17.43
  -4  -3   8  207.50   18.17
   4  -3  -8  262.08   17.09
   4  -3  -8  266.01   17.11
   4   3  -8  225.11   16.09
   4   3  -8  187.15   16.12
   4   3  -8  192.69   15.45
   3  -3  -8   26.58    2.94
  -3  -3   8   28.01    3.01
  -3  -3   8   25.54    3.37
  -3  -3   8   28.93    3.05
   3  -3  -8   27.65    2.56
   3  -3  -8   28.44    2.57
   3   3  -8   17.30    2.40
   3   3  -8   22.18    2.60
   3   3  -8   24.43    3.01
  -3   3   8   21.84    2.10
   3   3  -8   19.42    2.95
  -3   3   8   23.47    2.17
   2  -3  -8   18.51    1.98
  -2  -3   8   19.87    2.32
   2  -3  -8   18.52    2.00
  -2  -3   8   16.45    2.60
   2  -3  -8   17.28    2.34
  -2   3   8   11.84    1.63
   2   3  -8   19.37    2.55
   2   3  -8   14.50    1.98
   2   3  -8   12.82    2.31
  -2   3   8   18.16    1.64
  -2   3   8   15.87    1.64
  -2   3   8   14.68    1.75
   2   3  -8   14.09    2.29
   1  -3  -8    6.28    1.59
  -1  -3   8    7.72    1.48
  -1  -3   8    7.62    1.99
   1  -3  -8    7.77    1.41
   1  -3  -8    7.91    1.44
  -1  -3   8    6.64    1.40
   1   3  -8    8.14    1.79
  -1   3   8    5.05    1.10
   1   3  -8    3.94    1.17
   1   3  -8    5.87    1.36
  -1   3   8    7.07    1.55
  -1   3   8    7.50    1.83
  -1   3   8    4.57    1.05
   0  -3   8    5.44    1.30
   0  -3  -8    8.69    1.50
   0  -3   8    5.53    1.67
   0  -3  -8    7.26    1.44
   0  -3   8    6.14    1.34
   0  -3  -8    6.07    1.68
   0   3   8    7.52    1.59
   0   3  -8    7.39    1.84
   0   3   8    4.52    1.09
   0   3  -8    6.11    1.41
   0   3   8    5.62    1.19
   0   3  -8    5.36    1.34
  -1  -3  -8   14.16    2.54
   1  -3   8   20.26    2.31
   1  -3   8   17.81    2.72
   1  -3   8   18.86    2.25
  -1  -3  -8   17.96    2.28
  -1  -3  -8   21.06    2.38
  -1   3  -8   14.86    2.35
   1   3   8   17.07    2.05
  -1   3  -8   16.31    2.08
   1   3   8   15.00    1.99
   2  -3   8    5.07    1.20
  -2  -3  -8    5.13    1.35
  -2  -3  -8    6.42    1.48
   2  -3   8    3.47    1.49
   2  -3   8    5.51    1.32
  -2   3  -8    5.30    1.51
   2   3   8    3.46    1.04
   2   3   8    3.92    1.39
   2   3   8    4.37    1.16
  -2   3  -8    3.22    1.06
  -2   3  -8    1.62    0.84
   3  -3   8   52.00    5.70
  -3  -3  -8   58.85    5.33
   3  -3   8   57.75    5.11
   3  -3   8   54.87    5.09
  -3  -3  -8   55.51    5.24
  -3   3  -8   37.99    4.02
  -3   3  -8   39.96    4.08
   3   3   8   43.96    4.30
   3   3   8   41.31    4.26
  -3   3  -8   50.74    4.61
   4  -3   8   38.94    3.81
  -4  -3  -8   32.62    4.58
   4  -3   8   38.80    3.87
  -4  -3  -8   39.13    4.07
   4  -3   8   35.58    4.52
  -4  -3  -8   40.50    4.10
  -4   3  -8   34.99    3.70
  -4   3  -8   26.46    3.04
   4   3   8   28.44    3.29
  -4   3  -8   25.48    2.98
   5  -3   8   33.80    3.51
   5  -3   8   27.31    3.98
  -5  -3  -8   33.60    3.73
   5  -3   8   33.92    3.56
  -5  -3  -8   35.46    3.90
  -5   3  -8   19.57    2.61
   5   3   8   24.80    3.17
  -5   3  -8   24.78    3.07
   5   3   8   27.51    3.24
  -5   3  -8   24.02    2.75
   6  -3   8    4.23    1.46
  -6  -3  -8    7.88    1.90
   6  -3   8    5.48    1.59
   6  -3   8    3.50    1.71
  -6  -3  -8    8.35    1.97
  -6   3  -8    2.97    1.03
  -6   3  -8    5.66    1.36
   6   3   8    6.80    2.29
  -6   3  -8    3.97    1.39
   6   3   8    1.10    2.19
  -7  -3  -8   38.37    4.24
  -7  -3  -8   28.86    3.89
   7  -3   8   32.34    4.44
  -7   3  -8   25.15    2.68
  -7   3  -8   15.80    2.61
  -7   3  -8   18.37    2.54
  -9  -4   8    3.67    1.74
  -9  -4   8    2.66    1.45
   9   4  -8    1.98    1.33
  -8  -4   8    3.22    1.26
   8  -4  -8    5.98    0.92
   8   4  -8    4.14    1.79
  -7  -4   8   -1.56    0.97
   7  -4  -8    0.51    0.45
  -7  -4   8   -0.46    0.68
   7   4  -8    1.00    1.10
  -6  -4   8   11.08    2.32
   6  -4  -8   14.21    1.75
  -6  -4   8   11.79    2.43
   6  -4  -8   11.42    1.17
   6  -4  -8   11.07    1.24
  -6  -4   8    9.81    2.26
   6  -4  -8   13.24    1.14
   6  -4  -8   14.17    1.22
  -6  -4   8   14.51    2.59
   6   4  -8   14.43    3.20
   6   4  -8   12.86    3.04
   5  -4  -8    7.59    0.97
   5  -4  -8    5.03    0.96
  -5  -4   8    4.53    1.45
  -5  -4   8    8.79    1.84
  -5  -4   8    4.84    1.57
  -5  -4   8    5.94    1.60
   5  -4  -8    4.62    1.18
   5  -4  -8    6.95    0.88
   5   4  -8    8.49    2.28
  -4  -4   8   37.34    4.98
  -4  -4   8   47.93    4.70
   4  -4  -8   50.55    3.97
  -4  -4   8   46.83    4.62
  -4  -4   8   43.90    4.71
  -4  -4   8   40.86    4.65
   4  -4  -8   49.59    3.97
   4   4  -8   36.57    4.58
  -3  -4   8   50.32    5.20
  -3  -4   8   49.08    5.61
   3  -4  -8   44.13    4.98
  -3  -4   8   57.62    5.21
  -3  -4   8   58.64    5.25
   3  -4  -8   55.18    4.59
   3  -4  -8   56.80    4.58
   3   4  -8   38.79    4.43
   3   4  -8   39.72    5.03
   3   4  -8   57.27    5.32
  -3   4   8   46.30    3.96
  -2  -4   8   30.61    3.38
  -2  -4   8   25.27    3.66
  -2  -4   8   29.47    3.25
   2  -4  -8   29.72    2.99
   2  -4  -8   31.11    3.01
  -2   4   8   27.26    2.23
  -2   4   8   29.11    2.61
   2   4  -8   20.86    3.29
  -2   4   8   22.42    2.54
   2   4  -8   27.34    3.50
   2   4  -8   20.41    2.83
   2   4  -8   23.03    2.97
  -2   4   8   21.95    2.54
  -1  -4   8    4.99    1.29
   1  -4  -8    4.01    1.16
   1  -4  -8    3.34    1.01
   1  -4  -8    4.22    1.43
  -1  -4   8    3.88    1.57
  -1  -4   8    3.43    1.20
  -1   4   8    2.58    0.96
   1   4  -8    2.02    1.17
   1   4  -8    6.37    1.85
   1   4  -8    4.26    1.28
  -1   4   8    2.89    1.01
   1   4  -8    1.07    0.80
  -1   4   8    3.98    1.04
  -1   4   8    3.05    0.97
   0  -4  -8    3.18    1.50
   0  -4   8    3.96    1.71
   0  -4  -8    4.00    1.25
   0  -4   8    3.51    1.05
   0  -4  -8    4.76    1.27
   0  -4   8    4.11    1.22
   0   4  -8    2.53    1.05
   0   4   8    4.21    1.07
   0   4  -8    4.76    1.73
   0   4  -8    2.94    1.01
   0   4   8    1.57    0.90
   0   4  -8    4.99    1.65
   0   4   8    4.57    1.36
   1  -4   8    1.02    0.80
   1  -4   8    0.73    0.70
  -1  -4  -8    0.62    0.68
  -1  -4  -8    0.68    0.69
   1  -4   8    0.05    0.82
  -1   4  -8    0.38    0.44
  -1   4  -8    1.24    0.94
  -1   4  -8    0.28    0.68
   1   4   8    1.33    1.03
   1   4   8    1.05    1.12
  -1   4  -8   -0.02    0.88
   2  -4   8   55.72    4.96
  -2  -4  -8   53.35    5.04
  -2  -4  -8   43.36    5.49
   2  -4   8   56.76    4.97
  -2  -4  -8   50.35    4.95
   2  -4   8   44.81    5.93
  -2   4  -8   31.90    3.60
  -2   4  -8   35.29    4.18
   2   4   8   35.27    3.77
  -2   4  -8   34.50    3.70
   3  -4   8   67.82    7.47
   3  -4   8   83.64    6.94
  -3  -4  -8   75.93    7.03
  -3  -4  -8   80.68    7.12
   3  -4   8   83.03    6.90
   3   4   8   49.88    6.15
  -3   4  -8   48.56    5.32
  -3   4  -8   54.49    5.01
  -3   4  -8   51.94    4.98
   3   4   8   56.44    5.26
   4  -4   8    9.96    2.04
  -4  -4  -8    8.53    1.99
   4  -4   8    8.86    2.42
   4  -4   8    6.78    1.64
  -4  -4  -8    7.52    1.98
  -4   4  -8    4.90    1.62
  -4   4  -8    5.38    1.46
   4   4   8    6.86    2.39
  -4   4  -8    3.68    1.30
  -4   4  -8   10.01    2.03
  -5  -4  -8    9.84    2.21
   5  -4   8    8.35    2.51
   5  -4   8   10.13    2.06
   5  -4   8   12.39    2.26
  -5  -4  -8   13.39    3.12
  -5   4  -8    6.28    1.67
   5   4   8    9.67    2.71
  -5   4  -8    8.20    1.83
  -5   4  -8    4.67    1.39
   6  -4   8    6.77    2.22
  -6  -4  -8   12.19    2.62
  -6  -4  -8    8.13    2.33
   6   4   8    9.16    2.55
  -6   4  -8    9.70    1.96
  -6   4  -8    1.63    1.14
  -6   4  -8    5.13    1.41
  -6   4  -8    5.51    1.57
  -8  -5   8    2.24    1.46
  -8  -5   8    1.39    1.37
   8   5  -8    2.88    1.51
   7  -5  -8    1.42    0.25
  -7  -5   8    3.56    1.53
  -7  -5   8   -0.20    1.03
   7   5  -8    1.88    1.20
   6  -5  -8    8.92    1.04
   6  -5  -8    6.59    1.20
  -6  -5   8    7.86    1.98
   6  -5  -8    6.80    1.10
   6  -5  -8   13.03    1.99
  -6  -5   8    4.58    1.82
   6  -5  -8    9.30    1.11
   6   5  -8    5.94    2.06
  -5  -5   8   11.29    2.59
   5  -5  -8   12.89    1.57
   5  -5  -8   11.39    2.43
   5  -5  -8   14.61    1.60
   5  -5  -8   10.43    1.48
  -5  -5   8    9.86    2.41
   5   5  -8    8.85    2.76
   4  -5  -8   15.53    1.86
   4  -5  -8   16.91    1.91
  -4  -5   8   15.24    2.97
  -4  -5   8   12.99    2.73
   4  -5  -8   11.85    1.74
   4   5  -8   11.65    2.94
  -3  -5   8   20.11    3.55
  -3  -5   8   24.87    3.28
  -3  -5   8   25.96    3.39
  -3  -5   8   27.05    4.97
   3  -5  -8   30.79    2.94
   3  -5  -8   25.05    3.06
  -3  -5   8   20.39    3.64
   3   5  -8   22.23    3.56
   2  -5  -8    5.19    1.32
   2  -5  -8    3.39    1.08
  -2  -5   8    3.54    1.27
  -2  -5   8    2.52    1.36
  -2  -5   8    3.92    1.80
  -2  -5   8    6.54    2.52
   2   5  -8    3.31    1.52
   1  -5  -8   14.43    2.36
  -1  -5   8   12.14    2.41
  -1  -5   8   11.22    2.80
  -1  -5   8   10.70    2.38
   1  -5  -8   11.71    2.12
   1   5  -8   10.06    2.76
   1   5  -8   12.27    2.48
  -1   5   8   11.35    2.04
  -1   5   8   12.66    2.25
  -1   5   8   15.70    2.00
   0  -5  -8    3.35    1.02
   0  -5   8    1.81    1.38
   0  -5   8    3.78    1.17
   0  -5  -8    2.73    1.06
   0   5   8    0.08    1.19
   0   5  -8    2.67    1.32
   0   5   8    3.38    1.32
   0   5  -8    2.15    1.08
   1  -5   8   -0.55    0.72
  -1  -5  -8   -0.94    0.62
   1  -5   8    2.36    1.71
  -1  -5  -8    0.25    0.65
   1  -5   8   -0.53    0.92
  -1   5  -8   -0.53    0.43
  -1   5  -8    0.09    1.23
  -1   5  -8    0.34    0.81
   1   5   8   -0.05    0.92
  -2  -5  -8   31.50    3.60
   2  -5   8   30.08    3.43
   2  -5   8   20.38    3.77
   2  -5   8   31.36    3.43
  -2  -5  -8   29.72    3.49
  -2   5  -8   21.30    2.85
   2   5   8   16.17    5.57
  -2   5  -8   29.37    3.50
  -2   5  -8   19.26    2.75
  -2   5  -8   20.32    3.53
  -3  -5  -8   13.10    2.50
   3  -5   8   14.09    3.32
   3  -5   8   13.90    3.04
  -3  -5  -8   12.80    2.53
  -3   5  -8    8.61    1.92
   3   5   8   13.88    3.12
  -3   5  -8   15.01    2.77
  -3   5  -8    9.39    2.33
  -3   5  -8    8.03    1.97
  -4  -5  -8   35.21    4.07
  -4  -5  -8   37.18    4.25
   4  -5   8   30.33    4.28
  -4   5  -8   14.99    2.78
  -4   5  -8   23.71    3.23
  -4   5  -8   21.28    2.80
  -4  -6   8    1.63    0.95
  -4  -6   8    3.67    1.73
   4  -6  -8   -1.16    0.81
   4  -6  -8    1.73    0.83
   4  -6  -8    2.87    0.73
   4   6  -8    4.86    1.67
   3  -6  -8   30.88    3.19
  -3  -6   8   23.54    3.29
  -3  -6   8   22.50    3.93
   3  -6  -8   31.73    3.16
   3  -6  -8   18.02    3.04
  -3  -6   8   23.21    3.32
   3   6  -8   22.23    3.50
  -2  -6   8    0.16    1.45
   2  -6  -8    2.05    1.05
  -2  -6   8   -0.03    0.88
  -2  -6   8    0.02    1.26
   2  -6  -8    0.69    0.75
   2   6  -8    4.34    1.61
   1  -6  -8    6.45    1.44
  -1  -6   8    5.38    1.85
  -1  -6   8    5.19    1.64
  -1  -6   8    3.88    1.77
   1  -6  -8    3.03    1.32
  -1   6   8    3.60    1.50
  -1   6   8    1.34    1.46
   1   6  -8    3.86    1.89
   0  -6  -8   11.69    2.36
   0  -6   8    8.88    2.47
   0  -6  -8    6.23    1.53
   0  -6   8    9.11    2.20
   0   6   8    8.01    1.90
   0   6   8    5.92    2.16
   0   6  -8    7.08    2.20
  -1  -6  -8    2.02    1.11
  -1  -6  -8    1.82    1.17
   1  -6   8    2.32    1.40
   1   6   8    5.66    2.00
  12   0  -9    9.36    2.08
  11   0  -9    0.38    0.90
  10   0  -9   -0.86    0.82
  10   0  -9   -0.46    0.67
  -9   0   9    8.86    0.99
   9   0  -9    7.30    1.73
  -9   0   9    9.70    0.95
  -9   0   9   10.56    0.85
  -8   0   9   10.70    1.08
  -8   0   9   12.89    1.35
   8   0  -9   12.35    1.77
  -8   0   9   10.28    1.34
  -8   0   9   10.61    1.16
  -7   0   9    3.67    0.62
   7   0  -9    1.85    0.88
  -7   0   9    3.67    0.74
   6   0  -9    5.47    1.08
   6   0  -9    8.02    1.51
  -6   0   9    6.90    1.16
  -6   0   9    8.53    0.94
   6   0  -9    5.66    1.06
  -6   0   9    7.15    1.16
  -6   0   9    8.68    0.96
   5   0  -9    0.36    0.40
  -5   0   9    0.75    0.35
  -5   0   9    1.45    0.44
   5   0  -9    1.65    0.72
   5   0  -9    1.08    0.47
  -4   0   9   13.51    1.39
  -4   0   9   11.40    1.44
   4   0  -9   10.95    1.39
   4   0  -9   12.26    1.68
  -4   0   9   14.53    1.41
   4   0  -9   10.65    1.40
   3   0  -9    7.66    1.31
  -2   0   9   35.39    2.97
  -2   0   9   34.28    2.96
   2   0  -9   36.77    3.38
   2   0  -9   31.58    2.99
  -2   0   9   28.59    3.15
   2   0  -9   31.81    2.98
   1   0  -9   29.44    3.01
  -1   0   9   27.26    2.58
   1   0  -9   25.40    2.57
   1   0  -9   27.66    2.63
  -1   0   9   24.23    2.80
  -1   0   9   28.05    2.67
   0   0   9    6.16    1.20
   0   0  -9    7.44    1.64
   0   0   9    8.98    1.53
   0   0  -9    6.33    1.24
   0   0   9    4.60    1.06
   0   0  -9    6.31    1.23
   1   0   9    9.18    1.89
  -1   0  -9    7.69    1.76
   1   0   9    8.29    1.54
  -1   0  -9    8.76    1.50
  -1   0  -9   10.42    1.62
   1   0   9    8.91    1.52
   2   0   9    6.59    1.39
  -2   0  -9    7.05    1.43
   2   0   9    6.57    1.41
   2   0   9    8.00    1.86
  -2   0  -9    7.49    1.41
  -2   0  -9    7.00    1.74
  -3   0  -9  142.68   12.57
   3   0   9  139.38   12.05
  -3   0  -9  156.19   12.04
   3   0   9  150.20   12.11
  -3   0  -9  163.42   12.07
   3   0   9  187.09   13.08
  -4   0  -9   12.15    2.13
   4   0   9   13.57    2.22
   4   0   9   10.92    2.05
   4   0   9   14.71    2.41
  -4   0  -9   13.40    1.81
  -4   0  -9   11.44    1.94
  -5   0  -9    0.01    0.66
   5   0   9    0.70    0.85
   5   0   9    0.74    0.79
  -5   0  -9   -0.63    0.42
  -5   0  -9    1.40    0.99
   5   0   9    1.18    1.16
   6   0   9    4.06    1.42
  -6   0  -9    5.00    1.41
  -6   0  -9    6.73    2.12
  -6   0  -9    6.81    1.69
   6   0   9    4.87    1.87
   7   0   9    4.54    1.81
  -7   0  -9    1.37    0.78
   7   0   9    2.95    1.47
  -7   0  -9    0.15    0.93
  -8   0  -9    9.51    2.54
  -8   0  -9    5.80    1.55
  -8   0  -9    4.74    1.51
  11  -1  -9   70.04    5.93
 -11  -1   9   60.02    5.21
 -11  -1   9   63.41    5.23
  11   1  -9   62.66    6.53
 -10  -1   9   63.70    4.68
 -10  -1   9   55.12    5.56
  10  -1  -9   44.89    4.60
  10  -1  -9   47.88    5.10
 -10  -1   9   58.25    4.51
  10   1  -9   48.02    5.21
  -9  -1   9    2.01    0.65
  -9  -1   9    2.12    0.63
  -9  -1   9    1.61    0.74
  -9  -1   9    1.90    0.67
   9  -1  -9    0.45    0.53
   9  -1  -9    1.84    0.68
   9   1  -9    2.45    1.15
   9   1  -9    2.09    1.14
  -8  -1   9    1.51    0.66
   8  -1  -9    1.86    0.67
  -8  -1   9    0.85    0.58
  -8  -1   9    0.52    0.56
  -8  -1   9    2.54    0.73
   8   1  -9    2.32    0.96
   8   1  -9    1.06    0.90
   7  -1  -9    1.76    0.63
  -7  -1   9    1.75    0.62
  -7  -1   9    2.66    0.77
  -7  -1   9    2.08    0.75
  -7  -1   9    1.79    0.69
   7   1  -9    1.71    1.03
   7   1  -9    0.97    0.85
  -6  -1   9   49.31    4.64
   6  -1  -9   47.90    4.19
  -6  -1   9   63.23    4.63
  -6  -1   9   62.92    4.65
   6  -1  -9   48.31    4.19
   6  -1  -9   55.04    4.46
   6   1  -9   56.54    6.14
  -6   1   9   48.88    3.58
   6   1  -9   47.34    4.31
  -6   1   9   50.47    3.70
   6   1  -9   44.57    4.29
  -6   1   9   49.34    3.63
  -5  -1   9   32.14    2.88
   5  -1  -9   31.68    2.84
   5  -1  -9   28.92    2.59
   5  -1  -9   26.79    2.56
  -5  -1   9   32.99    2.89
  -5   1   9   26.55    2.16
   5   1  -9   28.17    3.28
   5   1  -9   25.94    2.64
   5   1  -9   23.76    2.59
  -5   1   9   26.03    2.13
   4  -1  -9   36.75    3.14
   4  -1  -9   36.48    3.13
  -4  -1   9   31.64    3.57
  -4  -1   9   43.42    3.44
   4  -1  -9   40.40    3.46
  -4  -1   9   36.79    3.34
   4   1  -9   30.88    3.03
  -4   1   9   31.13    2.64
   4   1  -9   36.14    3.40
  -4   1   9   30.79    2.65
   4   1  -9   30.88    3.03
  -3  -1   9  115.18    8.69
   3  -1  -9  116.29    8.85
   3  -1  -9  104.13    8.46
  -3  -1   9  115.90    8.76
   3  -1  -9  112.58    8.50
  -3   1   9   89.17    7.16
   3   1  -9   97.00    7.53
   3   1  -9   90.08    7.48
   3   1  -9  111.07    7.98
  -3   1   9   91.28    7.15
  -3   1   9   93.12    7.17
  -2  -1   9   92.94    7.31
   2  -1  -9   92.51    7.17
   2  -1  -9   98.75    7.60
  -2  -1   9   94.40    7.30
  -2  -1   9   79.58    7.54
   2  -1  -9   97.90    7.20
   2   1  -9   77.98    6.55
  -2   1   9   83.49    6.36
   2   1  -9   92.81    7.51
   2   1  -9   75.82    6.52
  -2   1   9   74.38    6.29
  -2   1   9   85.51    6.52
   1  -1  -9    1.80    0.63
   1  -1  -9    2.76    0.75
  -1  -1   9    1.61    0.88
  -1  -1   9    2.52    0.75
   1  -1  -9    2.59    0.88
  -1  -1   9    2.31    0.71
   1   1  -9    1.23    0.57
  -1   1   9    1.94    0.60
   1   1  -9    1.90    0.73
  -1   1   9    1.06    0.63
   1   1  -9    1.05    0.65
  -1   1   9    1.70    0.74
   0  -1   9    9.79    1.71
   0  -1  -9   10.41    1.38
   0  -1  -9    9.86    1.65
   0  -1   9    8.56    1.49
   0  -1   9    9.94    1.36
   0  -1  -9    7.86    1.40
   0   1  -9   10.01    1.70
   0   1  -9   10.79    1.46
   0   1   9    9.69    1.61
   0   1  -9    9.99    1.61
   0   1   9    7.90    1.67
   0   1   9    8.77    1.49
  -1  -1  -9   18.41    2.09
   1  -1   9   17.39    2.10
  -1  -1  -9   19.59    2.15
  -1  -1  -9   16.91    2.41
   1  -1   9   18.51    2.11
   1  -1   9   18.10    2.46
   1   1   9   18.07    2.12
  -1   1  -9   16.93    2.36
   1   1   9   16.88    2.03
  -1   1  -9   15.52    1.96
   1   1   9   22.19    2.58
  -1   1  -9   17.04    2.05
   2  -1   9   14.72    1.96
  -2  -1  -9   16.05    1.98
   2  -1   9   16.97    2.02
  -2  -1  -9   17.61    2.50
  -2  -1  -9   18.33    2.11
   2  -1   9   14.47    2.40
  -2   1  -9   15.59    1.91
   2   1   9   15.88    2.40
   2   1   9   13.12    1.83
  -2   1  -9   15.23    1.92
  -2   1  -9   15.43    2.34
   2   1   9   15.39    2.01
  -3  -1  -9  119.04    8.95
  -3  -1  -9  113.53    8.86
   3  -1   9  105.87    8.86
   3  -1   9  111.37    8.89
  -3  -1  -9   91.81    9.32
   3  -1   9  118.69    9.61
   3   1   9   88.27    8.00
   3   1   9   94.15    8.09
  -3   1  -9   99.43    8.51
  -3   1  -9  103.94    8.00
  -3   1  -9  102.11    7.95
  -4  -1  -9   15.37    2.53
   4  -1   9   14.08    2.36
   4  -1   9   15.44    2.08
   4  -1   9   16.68    2.74
  -4  -1  -9   17.52    2.23
  -4  -1  -9   17.40    2.18
   4   1   9   16.87    2.73
  -4   1  -9   13.47    3.09
   4   1   9   11.05    2.07
  -4   1  -9   13.17    2.63
  -4   1  -9   14.74    1.89
   4   1   9   11.59    2.22
  -5  -1  -9    7.30    1.50
   5  -1   9    5.50    2.15
   5  -1   9    5.65    1.51
   5  -1   9    2.21    1.02
  -5  -1  -9    6.28    1.45
   5   1   9    5.28    1.52
  -5   1  -9    6.25    1.41
   5   1   9    5.67    1.48
  -5   1  -9    3.70    1.24
  -5   1  -9    4.94    1.69
   5   1   9    5.28    2.08
   6  -1   9   -0.97    0.95
   6  -1   9   -0.06    0.62
   6  -1   9    1.86    0.95
  -6  -1  -9   -0.05    0.51
  -6  -1  -9   -0.82    0.85
  -6   1  -9    0.05    0.48
  -6   1  -9    0.81    1.13
   6   1   9   -1.87    0.89
   6   1   9   -0.43    0.88
  -6   1  -9   -0.31    0.44
  -7  -1  -9   24.20    3.06
   7  -1   9   26.17    4.04
  -7   1  -9   21.43    2.68
  -7   1  -9   18.26    2.68
   7   1   9   20.86    3.47
   7   1   9   29.06    3.94
  -8  -1  -9   11.73    2.42
  -8  -1  -9   14.94    2.79
   8  -1   9   19.18    3.83
  -8   1  -9   14.88    2.43
  -8   1  -9   14.97    2.52
   8   1   9   17.56    3.00
 -11  -2   9    7.97    1.63
 -11  -2   9    7.52    1.75
  11  -2  -9    7.62    1.16
  11  -2  -9    5.73    1.12
  11   2  -9    9.43    2.53
 -10  -2   9    0.75    0.99
 -10  -2   9    1.62    1.11
  10  -2  -9    3.11    0.79
  -9  -2   9    3.34    1.02
  -9  -2   9    2.57    1.07
  -9  -2   9    2.62    0.97
   9  -2  -9    2.70    0.57
   9   2  -9    0.78    1.02
  -8  -2   9    5.59    1.38
  -8  -2   9    5.01    1.34
   8  -2  -9    4.52    0.75
  -8  -2   9    5.50    1.36
   8   2  -9    3.00    1.63
   8   2  -9    5.57    1.76
  -7  -2   9   19.49    2.51
  -7  -2   9   20.79    2.54
  -7  -2   9   22.07    2.46
   7  -2  -9   20.07    1.89
  -7  -2   9   20.90    2.50
   7   2  -9   14.75    2.48
   7   2  -9   15.65    2.48
   6  -2  -9    9.73    1.00
   6  -2  -9   12.84    1.31
  -6  -2   9   12.06    1.93
  -6  -2   9   11.69    1.86
  -6  -2   9    9.54    1.85
   6  -2  -9    8.42    0.96
   6   2  -9    8.34    2.12
   6   2  -9   11.36    2.32
  -5  -2   9  129.32    9.91
   5  -2  -9  125.12    9.20
  -5  -2   9  111.77    9.93
   5  -2  -9  131.03    9.52
  -5  -2   9  132.90    9.94
   5  -2  -9  122.61    9.19
  -5   2   9  101.51    7.33
   5   2  -9  110.76    8.76
   5   2  -9   99.11    8.26
   5   2  -9   93.68    8.17
   4  -2  -9  160.48   11.40
  -4  -2   9  161.57   11.98
  -4  -2   9  161.97   11.97
   4  -2  -9  163.10   11.42
   4  -2  -9  157.31   11.75
  -4  -2   9  128.46   12.14
  -4   2   9  120.09    9.16
   4   2  -9  124.04    9.88
   4   2  -9  141.13   10.40
  -4   2   9  118.40    9.17
   4   2  -9  124.03    9.86
   3  -2  -9   15.81    1.69
  -3  -2   9   17.76    2.01
   3  -2  -9   17.20    1.71
  -3  -2   9   17.39    2.03
   3  -2  -9   14.93    1.97
  -3  -2   9   15.58    2.38
  -3   2   9   12.15    1.41
   3   2  -9   12.18    2.01
   3   2  -9   16.06    1.90
  -3   2   9   12.99    1.48
   3   2  -9   14.50    2.12
  -2  -2   9    2.43    1.10
   2  -2  -9    2.26    0.87
   2  -2  -9    1.39    0.56
  -2  -2   9    1.84    0.66
   2  -2  -9    1.62    0.60
   2   2  -9    0.83    0.47
   2   2  -9    2.30    1.05
  -2   2   9    2.03    0.66
  -2   2   9    2.35    0.68
  -2   2   9    2.24    0.63
   2   2  -9    1.74    0.80
   1  -2  -9    9.30    1.29
  -1  -2   9   10.81    1.71
  -1  -2   9    7.53    1.85
  -1  -2   9   11.73    1.47
   1  -2  -9    8.14    2.07
   1  -2  -9   10.10    1.59
   1   2  -9   10.71    1.84
   1   2  -9   10.33    1.81
  -1   2   9    8.49    1.45
   1   2  -9    7.63    1.59
  -1   2   9    9.64    1.32
  -1   2   9    9.50    1.46
   0  -2  -9   28.38    2.87
   0  -2   9   26.02    3.31
   0  -2   9   31.33    3.00
   0  -2  -9   25.61    3.22
   0  -2   9   29.17    2.93
   0  -2  -9   31.90    2.95
   0   2   9   18.87    2.30
   0   2   9   28.31    2.85
   0   2  -9   21.45    2.48
   0   2  -9   22.67    2.53
   0   2   9   18.91    2.28
   0   2  -9   27.32    3.04
  -1  -2  -9    6.07    1.33
   1  -2   9    4.52    1.52
   1  -2   9    5.11    1.22
  -1  -2  -9    5.67    1.27
  -1  -2  -9    2.89    1.38
   1  -2   9    5.61    1.26
  -1   2  -9    3.42    1.06
  -1   2  -9    4.48    1.39
   1   2   9    7.23    1.74
  -1   2  -9    2.77    0.99
   1   2   9    3.26    0.93
   1   2   9    4.34    1.10
   2  -2   9   -0.04    0.58
  -2  -2  -9    0.01    0.37
  -2  -2  -9    1.28    0.85
  -2  -2  -9    0.45    0.53
   2  -2   9   -0.98    0.48
   2   2   9   -0.41    0.52
  -2   2  -9    0.59    0.52
  -2   2  -9   -0.01    0.43
   2   2   9    1.21    0.85
   2   2   9    0.37    0.43
  -2   2  -9   -0.04    0.68
   3  -2   9   23.27    2.84
  -3  -2  -9   23.39    3.39
   3  -2   9   28.13    2.95
  -3  -2  -9   29.39    3.10
  -3  -2  -9   24.61    2.89
   3  -2   9   29.15    3.58
   3   2   9   23.15    2.90
  -3   2  -9   24.13    2.72
   3   2   9   20.18    2.76
  -3   2  -9   28.73    3.32
   3   2   9   28.04    3.51
  -3   2  -9   24.80    2.74
  -4  -2  -9   58.82    5.59
   4  -2   9   62.35    5.60
   4  -2   9   57.76    6.18
   4  -2   9   65.04    5.63
  -4  -2  -9   62.40    5.64
   4   2   9   45.79    4.69
   4   2   9   44.24    4.58
  -4   2  -9   47.23    4.82
  -4   2  -9   51.14    4.51
  -4   2  -9   45.04    4.39
  -5  -2  -9    4.20    1.34
   5  -2   9    3.34    1.23
   5  -2   9    2.11    1.45
  -5  -2  -9    3.34    1.33
   5  -2   9    5.19    1.33
  -5   2  -9    1.36    0.92
  -5   2  -9    3.23    0.99
  -5   2  -9    3.98    1.32
   5   2   9    3.69    1.78
   5   2   9    1.46    1.16
   5   2   9    4.86    1.48
  -6  -2  -9    6.03    1.69
   6  -2   9    3.49    1.37
  -6  -2  -9    4.24    1.31
   6  -2   9    3.46    1.43
   6  -2   9    2.62    1.69
  -6   2  -9    3.99    1.16
   6   2   9    1.40    2.12
   6   2   9    2.33    2.11
  -6   2  -9    5.41    1.50
   6   2   9    2.96    1.60
  -6   2  -9    2.24    1.07
  -7  -2  -9    0.06    1.02
  -7  -2  -9    0.20    0.83
   7  -2   9   -0.87    1.31
   7  -2   9   -0.75    1.05
  -7   2  -9    1.14    0.82
  -7   2  -9    3.71    1.46
  -7   2  -9    0.40    0.84
   7   2   9    2.04    1.41
 -10  -3   9    3.95    1.94
 -10  -3   9    5.37    1.62
  10   3  -9    3.39    1.47
  -9  -3   9   18.34    2.99
   9  -3  -9   15.19    1.39
  -9  -3   9   16.65    2.83
   9   3  -9   11.03    2.94
   8  -3  -9    8.96    0.92
  -8  -3   9    7.67    1.86
  -8  -3   9    8.48    1.87
   8   3  -9    8.22    2.22
  -7  -3   9   -1.76    0.69
   7  -3  -9    0.71    0.37
  -7  -3   9   -1.09    0.69
  -7  -3   9   -0.97    0.57
  -7  -3   9   -0.53    0.71
   7   3  -9    0.01    0.74
  -6  -3   9    9.22    1.83
  -6  -3   9    8.91    1.93
   6  -3  -9    8.37    0.79
  -6  -3   9    6.14    1.72
   6  -3  -9    8.38    1.17
   6  -3  -9    8.33    0.84
   6   3  -9    9.19    2.37
  -5  -3   9    4.82    1.49
   5  -3  -9    5.89    0.78
   5  -3  -9    5.88    1.23
  -5  -3   9    6.85    1.44
  -5  -3   9    4.62    1.43
   5  -3  -9    5.82    0.75
  -5  -3   9    4.43    1.25
   5   3  -9    3.86    1.30
   5   3  -9    3.88    1.57
   5   3  -9    4.27    1.59
   4  -3  -9   48.42    4.80
  -4  -3   9   57.78    5.20
  -4  -3   9   50.60    5.52
  -4  -3   9   56.88    5.17
   4  -3  -9   59.77    4.49
   4  -3  -9   59.16    4.49
   4   3  -9   41.82    4.33
   4   3  -9   41.50    4.36
  -4   3   9   47.34    3.69
   4   3  -9   38.72    4.86
   4   3  -9   55.39    5.06
  -3  -3   9  236.27   16.71
   3  -3  -9  234.28   16.10
  -3  -3   9  227.60   16.67
   3  -3  -9  232.65   16.09
  -3  -3   9  179.92   16.91
   3  -3  -9  204.27   16.55
   3   3  -9  172.01   13.16
  -3   3   9  165.11   12.44
  -3   3   9  171.36   12.48
   3   3  -9  166.03   13.08
   3   3  -9  163.91   13.83
  -2  -3   9    3.73    1.34
   2  -3  -9    3.04    0.86
   2  -3  -9    3.30    0.88
  -2  -3   9    1.43    0.76
   2  -3  -9    0.93    0.85
  -2  -3   9    2.11    0.71
   2   3  -9    0.70    0.72
  -2   3   9    2.23    0.58
  -2   3   9    1.25    0.63
  -2   3   9    1.70    0.67
  -2   3   9    3.01    0.74
   2   3  -9    1.65    1.08
   2   3  -9    1.62    0.83
   1  -3  -9   18.18    2.15
   1  -3  -9   21.02    2.24
  -1  -3   9   21.83    2.54
  -1  -3   9   15.89    2.64
  -1  -3   9   21.54    2.43
   1  -3  -9   16.90    2.54
  -1   3   9   14.10    1.84
  -1   3   9   12.54    1.77
   1   3  -9   14.57    2.06
   1   3  -9   19.27    2.62
   1   3  -9   15.49    2.07
   0  -3   9    5.08    1.28
   0  -3   9    6.85    1.87
   0  -3  -9    4.97    1.23
   0  -3  -9    8.47    2.10
   0  -3  -9    8.31    1.52
   0  -3   9    6.76    1.39
   0   3  -9    5.60    1.43
   0   3  -9    7.82    1.96
   0   3   9    7.77    1.67
   0   3  -9    5.16    1.34
   0   3   9    6.12    1.28
   0   3   9    5.15    1.24
  -1  -3  -9   34.51    3.37
  -1  -3  -9   32.17    3.29
  -1  -3  -9   23.58    3.59
   1  -3   9   27.17    3.64
   1  -3   9   33.25    3.30
   1  -3   9   33.34    3.33
   1   3   9   24.46    2.88
   1   3   9   25.74    2.94
  -1   3  -9   24.17    2.98
  -1   3  -9   24.82    2.94
   1   3   9   34.03    3.54
  -1   3  -9   33.92    3.61
  -2  -3  -9    9.90    2.00
   2  -3   9   13.17    1.76
  -2  -3  -9    8.92    2.27
   2  -3   9   11.11    1.94
   2  -3   9    9.39    2.40
  -2  -3  -9    8.64    1.81
   2   3   9   13.87    2.33
  -2   3  -9    7.28    1.67
   2   3   9    7.69    1.60
   2   3   9    9.75    1.83
  -2   3  -9    9.96    2.31
  -2   3  -9   12.12    2.09
  -3  -3  -9   15.79    2.62
  -3  -3  -9   14.29    3.43
   3  -3   9   12.89    2.35
   3  -3   9   12.33    2.81
  -3  -3  -9   21.01    2.45
   3  -3   9   17.34    2.23
  -3   3  -9   10.87    2.04
  -3   3  -9   13.72    2.23
  -3   3  -9   17.22    2.60
   3   3   9   10.34    2.09
   3   3   9    9.97    2.00
   4  -3   9   95.40    9.05
  -4  -3  -9   98.35    8.40
   4  -3   9  101.23    8.29
  -4  -3  -9   98.05    8.43
   4  -3   9   91.54    8.15
  -4   3  -9   85.71    6.96
  -4   3  -9   64.54    6.26
  -4   3  -9   61.28    6.16
   4   3   9   77.57    6.76
   4   3   9   75.31    6.97
  -5  -3  -9   14.11    2.57
   5  -3   9   13.62    2.33
  -5  -3  -9   14.72    2.69
   5  -3   9   14.84    3.25
   5  -3   9   13.17    2.50
  -5   3  -9    8.83    1.86
  -5   3  -9   12.71    2.18
   5   3   9   13.96    2.95
  -5   3  -9    9.21    1.85
   6  -3   9    1.49    0.76
  -6  -3  -9   -0.40    1.10
  -6  -3  -9    2.27    1.26
   6  -3   9   -0.85    1.28
   6   3   9    5.21    1.99
  -6   3  -9    1.13    0.81
  -6   3  -9    0.34    1.30
  -6   3  -9    2.47    1.01
  -7  -3  -9   22.98    3.03
  -7  -3  -9   17.56    3.15
   7  -3   9   19.06    3.38
  -7   3  -9   13.08    2.31
  -9  -4   9    8.81    2.04
  -9  -4   9    2.82    1.60
   9   4  -9    8.64    2.40
  -8  -4   9    4.80    1.54
  -8  -4   9    6.04    3.09
   8  -4  -9    8.14    1.15
   8   4  -9    3.77    1.72
  -7  -4   9    1.74    1.22
   7  -4  -9    5.00    1.03
  -7  -4   9    3.19    1.30
   7   4  -9    4.78    1.90
  -6  -4   9    1.69    1.31
   6  -4  -9    3.21    0.98
   6  -4  -9    3.90    0.59
   6  -4  -9    3.39    0.69
   6  -4  -9    2.39    0.54
  -6  -4   9    2.90    1.18
  -6  -4   9    3.81    1.34
   6   4  -9    2.13    1.35
  -5  -4   9    0.71    1.18
  -5  -4   9    4.35    1.43
   5  -4  -9    4.65    0.91
   5  -4  -9    3.87    0.75
  -5  -4   9    4.35    1.36
  -5  -4   9    2.18    1.10
   5   4  -9    1.99    1.50
   5   4  -9    1.75    1.20
  -4  -4   9    5.70    1.95
   4  -4  -9    4.77    1.39
   4  -4  -9    4.47    0.92
   4  -4  -9    4.92    1.06
  -4  -4   9    3.89    1.16
  -4  -4   9    5.58    1.37
  -4  -4   9    2.01    1.26
  -4  -4   9    3.23    1.23
   4   4  -9    5.05    1.87
   3  -4  -9   35.37    4.31
  -3  -4   9   44.31    4.48
  -3  -4   9   46.55    4.48
   3  -4  -9   47.09    3.92
  -3  -4   9   39.04    4.47
   3  -4  -9   48.14    3.97
  -3  -4   9   38.77    4.86
   3   4  -9   30.67    4.30
   3   4  -9   32.84    3.77
  -3   4   9   34.79    3.23
  -3   4   9   37.09    3.25
   2  -4  -9   22.21    2.35
   2  -4  -9   13.74    2.44
  -2  -4   9   18.90    2.58
  -2  -4   9   17.48    2.92
   2  -4  -9   24.16    2.39
  -2  -4   9   21.05    2.58
  -2   4   9   16.68    2.03
   2   4  -9   13.44    2.54
  -2   4   9   19.62    1.78
  -2   4   9   17.17    1.88
   2   4  -9   16.89    2.90
   2   4  -9   16.93    2.38
  -1  -4   9    1.50    1.17
  -1  -4   9    4.65    1.23
   1  -4  -9    4.75    1.17
  -1  -4   9    7.56    1.65
   1  -4  -9    4.84    1.50
   1  -4  -9    4.58    1.27
  -1   4   9    3.38    1.09
   1   4  -9    1.74    1.22
   1   4  -9    4.08    1.41
   1   4  -9    4.42    1.62
  -1   4   9    2.44    1.01
   1   4  -9    3.39    1.25
  -1   4   9    4.78    1.13
   0  -4  -9    2.43    1.05
   0  -4   9    3.13    1.15
   0  -4   9   -0.31    0.78
   0  -4  -9    2.05    0.97
   0   4  -9    0.47    0.84
   0   4   9    2.48    1.16
   0   4  -9    0.12    0.66
   0   4   9    0.18    1.02
   0   4  -9    0.61    0.60
   0   4  -9    1.47    1.09
   0   4   9    2.42    0.84
  -1  -4  -9   10.36    2.67
  -1  -4  -9   14.08    2.70
  -1  -4  -9    8.82    1.85
   1  -4   9    7.80    1.75
   1  -4   9   11.38    2.50
   1  -4   9    7.97    2.29
  -1   4  -9   11.46    2.31
   1   4   9    6.26    1.49
  -1   4  -9    6.84    1.68
   1   4   9    9.14    1.94
  -1   4  -9   12.87    2.74
  -1   4  -9    6.45    1.67
   2  -4   9   56.21    5.11
   2  -4   9   48.01    5.74
  -2  -4  -9   51.96    5.12
   2   4   9   37.76    3.90
   2   4   9   33.66    3.99
  -2   4  -9   37.57    3.92
  -2   4  -9   38.68    3.88
  -2   4  -9   31.03    4.16
  -3  -4  -9   57.45    5.52
   3  -4   9   46.04    5.88
   3  -4   9   58.70    5.39
   3  -4   9   58.71    5.38
  -3  -4  -9   55.18    5.44
  -3   4  -9   37.93    4.48
  -3   4  -9   38.58    4.04
  -3   4  -9   37.02    3.95
  -4  -4  -9    8.88    2.17
  -4  -4  -9    8.03    1.90
   4  -4   9    6.89    2.29
   4  -4   9   11.25    2.18
   4  -4   9    9.92    2.12
  -4   4  -9    8.30    1.78
  -4   4  -9    5.49    1.71
  -4   4  -9    6.84    1.57
   4   4   9   10.78    2.82
   5  -4   9   12.86    3.15
  -5  -4  -9   14.50    2.79
   5  -4   9   19.57    2.51
  -5  -4  -9   13.33    2.56
   5   4   9   12.21    2.84
  -5   4  -9   11.29    2.23
  -5   4  -9    7.00    1.71
  -5   4  -9    6.65    1.75
  -5   4  -9    8.30    1.87
   7  -5  -9    1.00    0.19
  -7  -5   9    0.34    0.96
  -7  -5   9    2.33    1.28
   7   5  -9    2.47    1.15
   6  -5  -9   12.59    1.42
   6  -5  -9   14.60    2.34
   6  -5  -9   12.30    1.52
  -6  -5   9   13.47    2.74
   6  -5  -9   13.53    1.38
  -6  -5   9   12.47    2.70
   6  -5  -9   12.23    1.43
   6   5  -9   12.59    2.99
  -5  -5   9   12.36    2.55
  -5  -5   9    8.39    2.29
   5  -5  -9   10.43    1.37
   5  -5  -9   10.38    1.45
   5   5  -9    6.61    2.17
   4  -5  -9   47.56    4.07
  -4  -5   9   44.31    5.02
  -4  -5   9   37.66    4.78
   4  -5  -9   46.30    4.08
  -4  -5   9   41.55    5.43
   4   5  -9   31.88    4.50
  -3  -5   9    9.07    2.35
  -3  -5   9    8.58    2.16
   3  -5  -9   14.49    2.18
   3  -5  -9   14.56    1.96
  -3  -5   9   13.00    3.14
   3   5  -9   10.08    2.59
   2  -5  -9   24.20    2.63
  -2  -5   9   16.07    3.54
   2  -5  -9   19.66    2.46
  -2  -5   9   16.68    3.06
   2   5  -9   15.18    3.26
   2   5  -9   13.53    2.59
  -1  -5   9    4.75    1.69
   1  -5  -9    3.62    1.21
  -1  -5   9    4.22    1.09
   1  -5  -9    4.45    1.28
  -1  -5   9    3.36    1.67
  -1   5   9    1.89    1.02
  -1   5   9    2.92    1.10
   1   5  -9    0.74    1.16
   0  -5  -9    0.81    0.77
   0  -5   9    0.25    0.96
   0  -5   9   -0.27    1.04
   0  -5  -9    1.98    0.91
   0   5   9   -0.04    0.88
   0   5  -9   -0.18    0.60
   0   5  -9   -1.37    2.18
   0   5  -9   -0.44    0.78
   0   5  -9    2.16    1.19
   0   5   9   -0.02    1.08
  -1  -5  -9    7.07    1.74
   1  -5   9    6.97    1.83
   1  -5   9    6.75    2.26
  -1  -5  -9    7.84    1.88
  -1   5  -9    1.87    1.59
  -1   5  -9    4.08    1.85
   1   5   9    6.66    1.75
  -1   5  -9    3.05    1.19
   1   5   9    6.75    1.99
  -1   5  -9    2.12    1.14
  -2  -5  -9   34.00    3.83
   2  -5   9   32.81    5.02
   2  -5   9   25.10    4.10
  -2  -5  -9   31.95    3.78
  -2   5  -9   21.54    2.93
   2   5   9   27.91    3.62
  -2   5  -9   25.94    3.65
  -2   5  -9   16.77    3.11
  -2   5  -9   23.09    3.50
   3  -5   9   32.51    4.52
  -3  -5  -9   38.04    4.21
  -3  -5  -9   31.03    3.84
  -3   5  -9   15.91    2.81
  -3   5  -9   17.77    3.04
  -3   5  -9   20.59    3.13
  -4  -5  -9    0.20    0.95
  -4  -5  -9    1.65    1.39
   4  -5   9    0.31    1.21
  -4   5  -9    1.57    0.96
  -4   5  -9    2.89    1.63
  -4   5  -9    0.18    0.89
  -4   5  -9    3.78    3.23
   4   5   9    2.72    1.62
  -3  -6   9    2.17    1.38
   3  -6  -9    6.26    1.40
  -3  -6   9    5.42    2.14
   3  -6  -9    5.48    1.35
  -3  -6   9    6.46    2.61
   3  -6  -9    2.34    1.13
   3   6  -9    7.27    2.11
  -2  -6   9    0.81    0.90
  -2  -6   9    1.31    1.21
   2  -6  -9   -0.10    0.70
  -2  -6   9   -1.28    1.30
   2  -6  -9    1.57    0.74
   2   6  -9    2.08    1.34
  -1  -6   9    3.20    1.90
  -1  -6   9    2.55    1.29
   1  -6  -9    4.51    1.37
   1  -6  -9    4.49    1.40
  -1  -6   9    0.36    1.21
  -1   6   9   -0.59    1.04
   1   6  -9    3.11    1.47
   0  -6  -9    1.30    0.94
   0  -6   9   -0.63    0.81
   0  -6   9    5.51    2.05
   0  -6  -9    1.27    1.06
   0   6  -9    2.03    1.43
   0   6   9    1.12    1.36
   0   6   9   -3.02    1.74
  11   0 -10    1.23    0.97
  10   0 -10   18.41    2.66
  10   0 -10   19.08    2.64
   9   0 -10    2.28    0.87
  -9   0  10    1.55    0.36
   9   0 -10    2.45    1.07
  -9   0  10    1.15    0.37
  -9   0  10    1.15    0.27
  -9   0  10    1.88    0.37
   8   0 -10    7.37    2.49
  -8   0  10    9.02    1.14
  -8   0  10   10.86    1.05
  -8   0  10    8.76    1.13
  -8   0  10   11.44    1.09
   7   0 -10   17.28    1.99
  -7   0  10   19.57    1.79
  -7   0  10   16.33    1.87
  -7   0  10   22.69    1.80
   7   0 -10   17.44    2.23
  -6   0  10   16.45    1.73
  -6   0  10   15.20    1.55
   6   0 -10   13.64    1.70
   6   0 -10   15.05    2.00
   6   0 -10   13.93    1.69
  -6   0  10   16.97    1.60
  -5   0  10   48.18    3.86
   5   0 -10   44.02    3.97
  -5   0  10   49.60    3.85
   5   0 -10   48.50    4.31
   5   0 -10   42.58    3.95
   4   0 -10    7.24    1.48
   4   0 -10    7.26    1.23
  -4   0  10    5.60    1.16
  -4   0  10    6.69    1.13
  -4   0  10    7.15    1.15
   4   0 -10    7.39    1.24
  -3   0  10   33.55    2.95
   3   0 -10   33.09    3.04
   3   0 -10   30.22    2.99
  -3   0  10   31.60    2.93
   3   0 -10   34.48    3.37
   2   0 -10   71.35    5.92
  -2   0  10   71.31    5.86
   2   0 -10   69.94    5.91
  -2   0  10   74.77    5.87
  -2   0  10   69.37    6.15
   2   0 -10   83.17    7.17
   1   0 -10   14.54    1.74
  -1   0  10   13.73    1.71
  -1   0  10   15.33    1.76
   1   0 -10   15.58    2.14
  -1   0  10   12.97    1.96
   1   0 -10   14.83    1.76
   0   0 -10    4.79    1.10
   0   0 -10    2.03    0.75
   0   0  10    2.74    0.80
   0   0  10    2.98    0.87
   0   0 -10    4.79    1.38
   0   0  10    4.78    1.33
  -1   0 -10    6.82    1.40
  -1   0 -10    8.90    1.58
   1   0  10    6.41    1.34
   1   0  10    7.77    1.83
   1   0  10    5.34    1.26
  -1   0 -10    6.01    1.68
  -2   0 -10  277.04   19.67
   2   0  10  250.15   19.64
  -2   0 -10  229.85   20.08
   2   0  10  294.62   20.47
   2   0  10  255.16   19.64
  -2   0 -10  276.80   19.64
   3   0  10    2.12    1.18
  -3   0 -10    4.24    1.43
   3   0  10    3.48    0.96
  -3   0 -10    1.60    0.85
  -3   0 -10    1.43    0.78
   3   0  10    2.42    0.97
   4   0  10   65.41    6.49
  -4   0 -10   79.11    6.55
   4   0  10   90.79    7.65
  -4   0 -10   83.60    6.55
  -4   0 -10   63.23    6.88
   4   0  10   69.25    6.55
   5   0  10    2.85    1.01
  -5   0 -10    1.17    0.67
   5   0  10    1.12    1.24
  -5   0 -10    1.17    0.77
  -6   0 -10   -1.66    0.67
   6   0  10    0.39    1.08
   6   0  10   -0.96    0.98
  -6   0 -10   -0.91    0.67
   7   0  10   10.00    2.33
   7   0  10   12.68    3.20
   7   0  10   10.07    2.18
  -7   0 -10    6.48    2.13
  -7   0 -10   10.97    2.17
 -11  -1  10    2.74    0.89
 -11  -1  10    0.72    0.95
 -11  -1  10    2.23    0.86
  11  -1 -10    4.75    1.23
  11  -1 -10    3.47    1.19
  11   1 -10    3.65    1.42
 -10  -1  10   28.69    2.60
 -10  -1  10   27.94    3.08
 -10  -1  10   22.52    2.41
  10  -1 -10   21.92    2.61
  10  -1 -10   23.66    3.00
  10   1 -10   18.92    2.93
  -9  -1  10    3.05    0.78
   9  -1 -10    1.36    0.79
  -9  -1  10    2.12    0.69
  -9  -1  10    2.66    0.62
  -9  -1  10    1.82    0.71
   9   1 -10    2.04    1.15
   8  -1 -10   -0.44    0.45
  -8  -1  10   -0.12    0.41
  -8  -1  10    0.06    0.35
  -8  -1  10   -0.36    0.52
  -8  -1  10    0.45    0.54
   8   1 -10   -0.80    0.71
   8   1 -10   -0.12    0.61
  -7  -1  10   -0.29    0.37
   7  -1 -10    0.27    0.45
  -7  -1  10    0.25    0.48
   7  -1 -10    0.14    0.24
   7  -1 -10   -0.36    0.27
  -7  -1  10   -0.75    0.44
  -7  -1  10    0.15    0.51
   7   1 -10   -0.85    0.56
  -6  -1  10   16.41    1.86
   6  -1 -10   19.33    2.01
  -6  -1  10   19.79    2.01
   6  -1 -10   15.61    1.67
   6  -1 -10   13.99    1.64
  -6   1  10   16.95    1.48
  -6   1  10   15.18    1.38
  -6   1  10   14.96    1.34
   6   1 -10   16.43    2.29
   6   1 -10   14.40    1.90
   6   1 -10   16.24    1.93
   5  -1 -10    9.92    1.27
   5  -1 -10   12.60    1.61
  -5  -1  10   11.87    1.47
   5  -1 -10   10.30    1.29
  -5  -1  10   12.02    1.50
   5   1 -10   10.63    1.74
   5   1 -10    9.41    1.62
  -5   1  10    8.55    1.01
   5   1 -10    9.14    1.57
  -5   1  10   10.32    1.05
   4  -1 -10   40.31    3.72
   4  -1 -10   40.67    3.43
   4  -1 -10   35.52    3.36
  -4  -1  10   44.40    3.65
  -4  -1  10   33.94    3.79
  -4  -1  10   47.86    3.72
   4   1 -10   33.43    3.27
   4   1 -10   30.76    3.21
   4   1 -10   38.02    3.67
  -4   1  10   34.46    3.41
  -4   1  10   33.61    2.88
   3  -1 -10   99.75    7.96
   3  -1 -10  106.82    8.00
  -3  -1  10  113.20    8.20
  -3  -1  10  109.64    8.19
   3  -1 -10  107.52    8.39
  -3  -1  10   88.55    8.36
  -3   1  10   85.41    6.88
   3   1 -10   85.15    7.14
  -3   1  10   91.57    6.87
   3   1 -10   99.83    7.64
   3   1 -10   88.85    7.17
  -3   1  10   82.82    6.79
   2  -1 -10   20.39    2.10
   2  -1 -10   22.51    2.86
  -2  -1  10   19.90    2.19
  -2  -1  10   21.93    2.24
  -2  -1  10   15.29    2.36
   2  -1 -10   21.29    2.13
   2   1 -10   21.76    2.53
  -2   1  10   17.54    1.94
   2   1 -10   17.60    2.11
  -2   1  10   16.90    1.90
  -2   1  10   20.65    2.44
   2   1 -10   16.86    2.09
  -1  -1  10   12.53    1.64
   1  -1 -10   13.04    1.62
  -1  -1  10   13.48    1.67
   1  -1 -10   12.38    1.60
  -1  -1  10   11.60    1.93
   1  -1 -10   11.58    1.91
  -1   1  10   10.67    1.49
   1   1 -10   12.13    1.67
  -1   1  10   13.62    1.83
   1   1 -10   13.72    2.04
  -1   1  10   10.32    1.47
   1   1 -10   11.68    1.63
   0  -1 -10   12.21    1.61
   0  -1 -10   12.85    1.66
   0  -1  10   11.21    1.97
   0  -1  10   12.97    2.86
   0  -1 -10   10.40    1.87
   0  -1  10   11.77    1.60
   0   1 -10   12.31    1.66
   0   1  10   10.59    1.75
   0   1 -10   12.38    2.02
   0   1  10    9.94    1.68
   0   1  10   12.78    1.94
   0   1 -10   10.20    1.76
   1  -1  10   18.26    2.15
  -1  -1 -10   15.76    2.45
  -1  -1 -10   17.91    2.08
   1  -1  10   20.12    2.70
  -1  -1 -10   16.48    2.08
   1  -1  10   13.79    1.99
   1   1  10   19.47    2.52
  -1   1 -10   16.84    2.43
  -1   1 -10   13.56    1.87
   1   1  10   13.43    1.86
  -1   1 -10   16.08    1.96
   1   1  10   12.34    2.10
  -2  -1 -10    3.14    0.96
  -2  -1 -10    3.55    1.07
   2  -1  10    2.64    0.99
   2  -1  10    3.18    1.40
   2  -1  10    3.74    1.04
  -2  -1 -10    1.75    0.89
  -2   1 -10    0.93    0.98
   2   1  10    3.03    1.28
   2   1  10    2.05    0.87
   2   1  10    2.43    0.87
  -2   1 -10    1.79    0.67
  -2   1 -10    2.23    0.92
  -3  -1 -10   89.16    7.27
   3  -1  10   90.87    8.06
   3  -1  10   78.65    7.22
  -3  -1 -10   84.80    7.25
   3  -1  10   84.89    7.31
   3   1  10   83.39    7.37
   3   1  10   73.72    6.61
  -3   1 -10   71.02    6.91
   3   1  10   67.32    6.51
  -3   1 -10   83.22    6.56
  -3   1 -10   74.05    6.43
   4  -1  10   20.02    3.10
   4  -1  10   15.15    2.58
  -4  -1 -10   17.14    2.72
  -4  -1 -10   18.99    2.43
   4  -1  10   16.26    2.84
  -4  -1 -10   17.90    4.39
  -4   1 -10   16.39    2.48
   4   1  10   15.82    2.63
  -4   1 -10   16.29    2.10
   4   1  10   10.69    2.15
  -4   1 -10   16.05    2.12
  -5  -1 -10   10.87    2.08
   5  -1  10   11.55    2.68
   5  -1  10   14.44    3.37
  -5  -1 -10    9.55    2.10
   5  -1  10    9.57    2.16
  -5  -1 -10    8.43    2.39
   5   1  10   11.00    2.64
  -5   1 -10    9.62    1.82
   5   1  10   10.86    2.26
   5   1  10    8.89    1.87
  -5   1 -10    8.27    1.74
  -5   1 -10   11.56    2.57
  -6  -1 -10    4.69    1.61
  -6  -1 -10    6.08    1.60
   6  -1  10    4.40    2.02
   6  -1  10    3.89    1.33
   6   1  10    0.82    1.38
  -6   1 -10    4.12    1.38
  -6   1 -10    5.73    1.75
   6   1  10    6.86    2.27
  -6   1 -10    3.29    1.30
  -7  -1 -10   17.51    2.90
  -7  -1 -10   17.22    2.81
  -7   1 -10   14.55    2.45
  -7   1 -10   11.27    2.31
   7   1  10   16.09    3.51
 -11  -2  10    5.44    1.56
 -11  -2  10    5.91    1.50
  11  -2 -10    5.65    1.12
  11   2 -10    3.98    1.90
  10  -2 -10    6.65    1.16
 -10  -2  10    9.06    1.76
 -10  -2  10   10.71    1.96
  10   2 -10    6.58    2.06
   9  -2 -10   25.46    2.39
  -9  -2  10   26.10    3.02
  -9  -2  10   28.47    3.09
   9   2 -10   23.09    3.50
  -8  -2  10   10.33    1.78
   8  -2 -10    7.98    1.14
  -8  -2  10    8.25    1.80
  -8  -2  10   11.58    1.89
   8   2 -10    9.18    2.38
  -7  -2  10    5.72    1.38
   7  -2 -10    6.78    0.76
  -7  -2  10    9.20    1.68
  -7  -2  10    3.20    1.67
   7  -2 -10    9.19    1.16
   7   2 -10    5.69    1.80
   7   2 -10    7.79    1.97
  -6  -2  10    0.89    0.58
  -6  -2  10    0.51    0.52
   6  -2 -10    1.48    0.63
   6  -2 -10    0.68    0.31
  -6  -2  10    0.96    0.74
  -6  -2  10    1.14    0.68
   6  -2 -10    0.54    0.31
   6   2 -10   -0.06    0.79
   6   2 -10    0.73    0.80
   6   2 -10    0.31    0.58
  -5  -2  10   11.52    1.85
   5  -2 -10   11.72    1.28
   5  -2 -10   13.05    1.61
  -5  -2  10   12.19    1.96
  -5  -2  10    9.79    2.13
   5  -2 -10   11.78    1.29
   5   2 -10    8.88    1.73
   5   2 -10    6.68    1.51
  -5   2  10    8.09    0.91
  -5   2  10    8.49    0.89
   5   2 -10   10.31    2.20
   4  -2 -10  714.33   50.38
  -4  -2  10  714.01   50.47
   4  -2 -10  685.68   49.91
  -4  -2  10  704.68   50.47
   4  -2 -10  705.65   49.93
   4   2 -10  533.78   37.95
  -4   2  10  531.20   37.27
   4   2 -10  533.59   37.97
  -4   2  10  499.80   37.18
   3  -2 -10   14.79    2.07
   3  -2 -10   18.91    1.83
  -3  -2  10   12.84    2.25
  -3  -2  10   17.96    2.08
  -3  -2  10   15.59    1.99
   3  -2 -10   17.09    1.78
   3   2 -10   13.31    2.16
  -3   2  10   12.08    1.46
  -3   2  10   10.39    1.34
   3   2 -10   13.10    2.15
  -3   2  10   13.47    1.25
   3   2 -10   12.85    1.78
   2  -2 -10    7.20    1.32
   2  -2 -10    6.60    1.62
  -2  -2  10    7.87    1.91
  -2  -2  10    7.43    1.49
   2  -2 -10    7.64    1.34
  -2  -2  10    9.56    1.63
   2   2 -10    8.98    1.63
  -2   2  10    7.33    1.23
   2   2 -10    6.03    1.70
  -2   2  10    5.52    1.05
   2   2 -10    9.24    1.68
  -2   2  10    5.73    1.14
  -1  -2  10   16.43    2.53
  -1  -2  10   20.41    2.29
   1  -2 -10   19.05    2.12
  -1  -2  10   20.76    2.30
   1  -2 -10   19.38    2.13
   1  -2 -10   15.52    2.40
  -1   2  10   17.41    1.95
   1   2 -10   19.16    2.60
  -1   2  10   15.53    1.88
   1   2 -10   16.17    2.11
  -1   2  10   18.62    2.22
   1   2 -10   15.75    2.13
   0  -2  10   64.30    5.64
   0  -2  10   59.55    6.12
   0  -2 -10   69.58    5.64
   0  -2  10   73.48    6.28
   0  -2 -10   59.54    6.10
   0  -2 -10   66.47    5.58
   0   2 -10   47.97    4.77
   0   2 -10   68.50    5.61
   0   2  10   51.24    4.71
   0   2 -10   54.83    4.92
   0   2  10   47.61    4.64
  -1  -2 -10   14.73    1.89
   1  -2  10   12.48    2.56
  -1  -2 -10   14.83    1.94
  -1  -2 -10   10.46    2.31
   1  -2  10   14.57    1.95
   1  -2  10   12.69    2.09
  -1   2 -10   13.14    2.19
   1   2  10   13.94    2.28
  -1   2 -10   12.18    2.08
   1   2  10   10.18    1.85
   1   2  10   11.24    1.88
  -1   2 -10   10.33    1.98
   2  -2  10    1.21    0.76
  -2  -2 -10    0.29    0.46
   2  -2  10    1.58    1.10
   2  -2  10    1.77    0.83
  -2  -2 -10    1.88    0.88
  -2  -2 -10    1.07    0.57
   2   2  10    1.29    0.70
   2   2  10    2.61    1.24
   2   2  10    0.10    0.65
  -2   2 -10    1.54    0.71
  -2   2 -10    0.78    0.86
  -2   2 -10    1.39    0.80
   3  -2  10   10.79    2.02
   3  -2  10   15.40    2.68
  -3  -2 -10   13.78    2.35
   3  -2  10   17.06    2.17
  -3  -2 -10   15.96    2.57
  -3   2 -10   15.17    2.79
   3   2  10   10.52    2.04
  -3   2 -10   12.06    2.07
  -3   2 -10   10.18    1.93
   3   2  10    8.52    1.83
   3   2  10   15.68    2.63
  -4  -2 -10   17.15    2.40
  -4  -2 -10   29.54    5.30
   4  -2  10   16.63    3.37
   4  -2  10   18.93    2.52
   4  -2  10   13.75    2.59
  -4   2 -10   15.41    2.57
   4   2  10   13.47    2.97
  -4   2 -10   12.74    2.31
  -4   2 -10   15.92    2.10
   4   2  10   14.01    2.48
   4   2  10   13.35    2.35
   5  -2  10    9.73    2.76
   5  -2  10    8.05    1.86
  -5  -2 -10   12.23    2.23
  -5  -2 -10   10.10    2.08
   5  -2  10    6.97    1.96
   5   2  10    6.28    1.72
  -5   2 -10    5.18    1.81
   5   2  10   13.86    3.13
  -5   2 -10    7.90    1.78
  -6  -2 -10   25.73    3.31
   6  -2  10   25.37    4.07
  -6  -2 -10   28.77    3.38
  -6   2 -10   15.14    2.70
   6   2  10   27.35    3.90
  -6   2 -10   17.68    2.49
  -7  -2 -10  100.25    8.72
  -7  -2 -10   89.92    8.57
   7  -2  10  101.99    9.70
  -7   2 -10   71.44    6.56
  -7   2 -10   79.61    7.77
  -7   2 -10   68.28    6.54
 -10  -3  10    4.59    1.58
  10   3 -10    1.39    1.45
  -9  -3  10    9.55    2.19
  -9  -3  10   14.18    2.41
   9   3 -10   11.44    2.92
  -8  -3  10    4.84    1.62
   8  -3 -10    7.24    0.96
  -8  -3  10    6.30    1.76
   8   3 -10    6.43    2.06
  -7  -3  10    4.94    1.62
  -7  -3  10    5.28    1.51
  -7  -3  10    4.00    1.28
   7  -3 -10    4.71    0.97
   7   3 -10    3.20    1.60
   6  -3 -10    2.60    0.83
  -6  -3  10    2.52    1.08
   6  -3 -10    2.87    0.56
  -6  -3  10    3.74    1.04
  -6  -3  10    2.29    1.12
   6  -3 -10    2.74    0.52
   6   3 -10    2.39    1.34
   5  -3 -10   54.00    4.15
  -5  -3  10   45.45    5.35
  -5  -3  10   58.43    5.10
  -5  -3  10   48.66    4.89
   5  -3 -10   47.08    4.54
  -5  -3  10   48.98    5.12
   5  -3 -10   59.30    4.22
   5   3 -10   40.41    4.96
   5   3 -10   46.83    4.92
   5   3 -10   40.73    4.30
  -4  -3  10   54.56    6.15
  -4  -3  10   65.75    5.85
   4  -3 -10   66.75    5.20
  -4  -3  10   65.88    5.86
   4  -3 -10   59.24    5.86
   4  -3 -10   74.84    5.28
  -4   3  10   49.38    4.16
   4   3 -10   49.73    5.57
  -4   3  10   48.83    4.13
   4   3 -10   48.20    4.85
   4   3 -10   48.15    4.88
   4   3 -10   64.00    5.60
  -3  -3  10    5.27    1.72
  -3  -3  10    4.87    1.24
   3  -3 -10    5.91    1.52
   3  -3 -10    7.61    1.32
  -3  -3  10    3.76    1.20
   3  -3 -10    6.52    1.20
   3   3 -10    2.85    1.09
  -3   3  10    5.46    1.04
   3   3 -10    5.36    1.39
  -3   3  10    3.87    0.94
   3   3 -10    5.21    1.70
   2  -3 -10    7.00    1.31
  -2  -3  10    5.51    1.71
  -2  -3  10    6.51    1.54
  -2  -3  10    9.92    1.79
   2  -3 -10    6.86    1.33
   2  -3 -10    6.79    1.77
   2   3 -10    5.87    1.54
  -2   3  10    6.87    1.28
   2   3 -10    9.74    2.13
  -2   3  10    5.80    1.18
   2   3 -10    5.42    1.46
  -2   3  10    4.68    1.05
  -2   3  10    6.92    1.11
  -1  -3  10   12.99    2.19
  -1  -3  10   12.29    2.64
   1  -3 -10   14.48    1.83
  -1  -3  10   14.49    1.91
   1  -3 -10   10.94    2.31
   1  -3 -10   14.87    1.86
   1   3 -10    8.00    1.86
   1   3 -10    8.11    1.85
  -1   3  10    8.91    1.57
  -1   3  10   12.99    1.79
  -1   3  10    9.56    1.64
   1   3 -10   14.86    2.70
   0  -3 -10    9.68    1.87
   0  -3  10   12.14    2.08
   0  -3 -10   12.68    1.72
   0  -3  10   11.29    2.04
   0  -3  10    9.41    2.40
   0  -3 -10    9.90    2.36
   0   3  10    7.55    1.58
   0   3 -10   13.60    2.59
   0   3  10    7.04    1.44
   0   3 -10    8.36    1.84
   0   3 -10    8.09    1.77
   0   3  10   12.54    1.90
   1  -3  10    6.15    1.91
  -1  -3 -10    5.68    1.36
   1  -3  10    4.60    1.22
  -1  -3 -10    7.15    1.52
   1  -3  10    7.86    1.68
  -1   3 -10    4.96    1.39
   1   3  10    6.72    1.72
  -1   3 -10    5.27    1.35
   1   3  10    3.75    1.11
  -1   3 -10    4.48    1.66
   2  -3  10    7.10    1.67
   2  -3  10    8.37    2.06
  -2  -3 -10    4.36    1.76
  -2  -3 -10    4.88    1.44
  -2  -3 -10    6.01    1.80
  -2   3 -10    3.73    1.21
   2   3  10    8.54    2.18
  -2   3 -10    5.50    1.65
  -2   3 -10    4.69    1.32
   2   3  10    3.18    1.05
   2   3  10    5.50    1.51
   3  -3  10    9.36    1.95
  -3  -3 -10    7.70    1.92
  -3  -3 -10    6.74    2.17
   3  -3  10    8.62    2.41
  -3  -3 -10   10.12    2.02
   3  -3  10    7.73    1.75
  -3   3 -10    7.83    1.79
   3   3  10    7.91    1.93
  -3   3 -10    6.51    1.69
   3   3  10   10.41    2.50
  -3   3 -10    8.91    2.14
   4  -3  10    0.78    0.85
  -4  -3 -10    0.34    0.88
   4  -3  10   -0.13    1.14
   4  -3  10    0.31    1.42
  -4  -3 -10    1.92    0.98
  -4   3 -10    0.94    0.70
  -4   3 -10    3.92    1.42
  -4   3 -10    1.67    1.55
   4   3  10    2.90    1.56
   5  -3  10   12.11    3.12
  -5  -3 -10   19.32    3.08
  -5  -3 -10   20.95    2.71
  -5   3 -10   12.59    2.30
  -5   3 -10   11.03    2.19
  -6  -3 -10    2.11    0.98
   6  -3  10   -0.26    1.24
  -6  -3 -10    1.81    1.49
   6   3  10    4.35    1.64
  -6   3 -10    2.14    1.10
  -6   3 -10    1.11    0.84
  -6   3 -10    3.80    2.04
  -9  -4  10    2.88    1.69
  -9  -4  10   -0.42    1.18
   9   4 -10    5.11    1.82
  -8  -4  10    1.94    1.19
   8   4 -10    4.13    1.64
   7  -4 -10   14.75    1.94
  -7  -4  10   15.17    2.89
  -7  -4  10   15.90    2.88
   7   4 -10   15.16    3.46
  -6  -4  10    1.50    1.27
  -6  -4  10   -0.63    0.82
   6  -4 -10    1.54    0.51
   6  -4 -10    1.76    0.46
   6  -4 -10    1.63    0.39
   6   4 -10    3.17    1.57
  -5  -4  10   12.85    2.57
  -5  -4  10    5.71    1.88
   5  -4 -10    8.48    1.82
   5  -4 -10   12.50    1.35
   5  -4 -10   13.72    1.43
  -5  -4  10   18.27    4.20
   5   4 -10   11.41    2.92
  -4  -4  10   16.04    3.34
  -4  -4  10   15.50    2.83
   4  -4 -10   13.80    2.13
   4  -4 -10   14.82    1.69
  -4  -4  10   11.98    2.45
   4  -4 -10   13.85    1.72
   4   4 -10    8.88    2.44
   4   4 -10   10.35    2.24
  -3  -4  10   11.95    2.22
  -3  -4  10   12.47    2.26
  -3  -4  10   11.70    2.83
   3  -4 -10   14.04    1.75
   3  -4 -10   13.24    1.72
   3   4 -10    8.39    2.02
  -3   4  10   10.86    1.48
   3   4 -10   12.51    2.91
   3   4 -10    9.19    2.11
  -3   4  10    9.08    1.57
   2  -4 -10    4.23    1.40
  -2  -4  10    2.25    1.31
  -2  -4  10    3.04    1.44
   2  -4 -10    3.47    1.02
  -2  -4  10    2.51    0.92
   2  -4 -10    2.79    0.96
   2   4 -10    1.34    0.85
   2   4 -10    1.41    1.15
  -2   4  10    1.12    0.69
  -2   4  10    0.97    0.53
  -2   4  10   -0.47    0.61
  -2   4  10    1.54    0.59
   2   4 -10    2.06    0.93
   1  -4 -10    4.10    1.17
  -1  -4  10    4.84    1.75
  -1  -4  10    3.19    1.13
   1  -4 -10    5.86    1.40
  -1  -4  10    2.62    1.22
  -1   4  10    5.58    1.07
   1   4 -10    4.63    1.47
   1   4 -10    3.21    1.19
  -1   4  10    1.27    1.05
   1   4 -10    8.34    2.06
  -1   4  10    3.87    1.15
   1   4 -10    3.20    1.56
  -1   4  10    2.52    0.78
   0  -4 -10    0.87    0.78
   0  -4  10    0.85    0.83
   0  -4 -10    1.12    0.86
   0  -4  10    2.31    1.33
   0  -4  10    2.83    1.05
   0   4  10    1.87    0.78
   0   4 -10    0.24    0.86
   0   4 -10    1.74    0.82
   0   4 -10    1.26    1.08
   0   4  10    2.08    0.84
   0   4  10    0.84    0.87
   0   4  10    1.83    1.28
   1  -4  10    3.85    1.55
   1  -4  10    5.64    2.05
  -1  -4 -10    6.31    1.64
  -1  -4 -10   10.35    1.97
   1  -4  10   11.57    2.18
  -1   4 -10    7.05    1.78
  -1   4 -10    6.10    1.77
  -1   4 -10    6.07    2.03
   1   4  10    7.36    1.87
   2  -4  10   41.50    4.29
  -2  -4 -10   44.29    4.42
   2  -4  10   32.01    4.73
  -2  -4 -10   45.48    4.44
  -2   4 -10   23.34    3.55
  -2   4 -10   29.80    3.35
  -2   4 -10   26.89    3.18
   3  -4  10   22.77    2.93
   3  -4  10   16.67    3.64
  -3  -4 -10   15.54    2.84
   3  -4  10   17.49    3.52
  -3  -4 -10   17.21    2.99
  -3   4 -10   18.12    3.04
  -3   4 -10   11.49    2.40
  -3   4 -10   10.30    2.64
  -3   4 -10   11.89    2.24
  -4  -4 -10   28.30    3.44
   4  -4  10   20.40    3.66
  -4  -4 -10   25.28    3.28
  -4   4 -10   16.09    2.77
  -4   4 -10   13.93    2.62
  -4   4 -10   14.73    2.72
   5  -4  10    4.96    2.03
  -5  -4 -10    7.10    1.81
  -5  -4 -10    4.56    1.47
  -5   4 -10    3.25    1.41
  -5   4 -10    2.13    1.29
   5   4  10    7.75    2.31
  -5   4 -10    2.66    1.17
  -7  -5  10    3.15    1.30
  -7  -5  10    2.89    1.61
   7  -5 -10    2.34    0.35
   7  -5 -10    2.63    1.10
   7   5 -10    1.80    1.45
   6  -5 -10    5.25    0.85
   6  -5 -10    2.41    0.76
  -6  -5  10    1.85    1.42
  -6  -5  10    4.52    1.78
   6  -5 -10    4.32    0.93
   6  -5 -10    5.21    0.88
   6   5 -10    3.44    1.44
  -5  -5  10   24.76    3.24
   5  -5 -10   20.64    2.15
   5  -5 -10   20.05    2.21
  -5  -5  10   19.42    3.52
   5   5 -10   15.58    3.46
  -4  -5  10    0.86    1.53
  -4  -5  10    1.11    1.21
   4  -5 -10    0.17    0.53
   4  -5 -10   -0.22    0.57
  -4  -5  10   -0.17    0.61
   4   5 -10    0.71    0.83
  -3  -5  10   54.32    5.91
   3  -5 -10   63.36    5.20
  -3  -5  10   43.97    6.10
   3  -5 -10   64.55    5.26
   3   5 -10   40.65    5.36
   2  -5 -10    5.57    1.45
  -2  -5  10    4.69    1.61
  -2  -5  10    3.09    1.80
  -2  -5  10    7.15    1.98
   2  -5 -10    6.64    1.39
   2   5 -10    3.48    1.55
   2   5 -10    2.75    1.20
  -1  -5  10   10.79    2.43
   1  -5 -10   15.27    2.52
  -1  -5  10    9.38    2.67
   1  -5 -10   13.15    2.27
  -1   5  10   10.14    1.71
   1   5 -10    6.25    1.78
   1   5 -10    8.88    1.96
   1   5 -10    8.97    2.53
   0  -5  10   -0.74    1.23
   0  -5 -10   -0.14    0.75
   0  -5  10   -1.02    0.98
   0  -5 -10    0.32    0.70
   0   5 -10    0.22    1.02
   0   5 -10    1.37    1.03
   0   5  10   -0.54    0.91
   0   5  10   -0.08    1.31
   0   5 -10   -1.02    0.69
   1  -5  10   39.07    5.35
  -1  -5 -10   54.77    5.12
   1  -5  10   47.84    5.20
  -1  -5 -10   51.56    5.07
  -1   5 -10   30.23    3.78
   1   5  10   33.42    4.06
  -1   5 -10   34.02    3.98
  -1   5 -10   32.12    4.33
  -2  -5 -10   11.61    2.45
  -2  -5 -10   18.26    3.06
   2  -5  10   17.21    2.83
  -2   5 -10   10.80    2.21
   2   5  10   14.15    3.19
  -2   5 -10   10.43    2.66
  -2   5 -10    8.63    2.54
   2   5  10   19.97    3.22
  -3  -5 -10   23.51    3.30
  -3  -5 -10   27.64    3.44
  -3   5 -10   15.90    3.76
  -3   5 -10   22.19    3.20
  -3   5 -10   14.71    2.88
  -3   5 -10   28.05    6.03
  11   0 -11  189.49   15.29
  10   0 -11   -0.07    0.80
  -9   0  11    2.03    0.42
   9   0 -11    2.23    1.19
  -9   0  11    2.55    0.49
  -9   0  11    1.45    0.45
   9   0 -11    2.71    1.13
  -8   0  11    0.71    0.34
  -8   0  11    0.95    0.43
  -8   0  11    0.26    0.33
   8   0 -11    1.42    0.83
   7   0 -11   34.50    3.68
   7   0 -11   43.71    4.18
   7   0 -11   36.46    3.71
  -7   0  11   41.78    3.69
  -7   0  11   47.85    3.52
  -7   0  11   49.66    3.58
  -7   0  11   41.46    3.79
   6   0 -11   39.34    3.77
  -6   0  11   44.86    3.58
  -6   0  11   45.50    3.62
   6   0 -11   40.76    3.78
   5   0 -11    7.15    1.78
   5   0 -11    3.38    0.93
  -5   0  11    4.93    0.96
   5   0 -11    4.00    0.96
  -5   0  11    4.23    0.86
   4   0 -11   44.02    3.99
   4   0 -11   43.29    3.98
  -4   0  11   49.77    3.91
  -4   0  11   39.67    3.96
   4   0 -11   52.23    4.49
  -4   0  11   44.28    3.87
  -3   0  11   70.15    5.50
   3   0 -11   75.33    6.12
  -3   0  11   58.67    5.66
   3   0 -11   65.92    5.57
  -3   0  11   70.20    5.52
   3   0 -11   64.04    5.56
   2   0 -11   82.29    6.80
  -2   0  11   76.29    6.21
   2   0 -11   81.95    6.35
  -2   0  11   69.90    6.49
  -2   0  11   71.55    6.18
   2   0 -11   78.72    6.32
   1   0 -11   47.48    4.34
   1   0 -11   48.31    4.34
  -1   0  11   48.28    4.31
  -1   0  11   47.21    4.65
   1   0 -11   50.70    4.85
  -1   0  11   48.21    4.32
   0   0  11   32.12    3.51
   0   0  11   28.78    2.98
   0   0  11   26.73    2.98
   0   0 -11   29.69    3.49
   0   0 -11   31.06    3.06
   0   0 -11   28.94    3.04
   1   0  11   59.27    5.38
  -1   0 -11   60.15    5.36
  -1   0 -11   62.10    5.99
   1   0  11   60.98    5.42
   1   0  11   61.33    5.92
  -1   0 -11   63.10    5.41
   2   0  11  199.49   16.33
  -2   0 -11  226.46   16.37
  -2   0 -11  201.49   16.95
   2   0  11  238.50   17.23
   2   0  11  207.22   16.36
  -2   0 -11  217.07   16.33
  -3   0 -11   33.39    3.48
   3   0  11   28.55    3.35
   3   0  11   37.85    4.33
   3   0  11   29.43    3.42
  -3   0 -11   31.47    3.42
   4   0  11   21.68    3.31
  -4   0 -11   17.60    2.44
  -4   0 -11   18.32    2.44
   4   0  11   18.69    2.43
   4   0  11   16.58    2.84
   5   0  11    4.22    1.33
  -5   0 -11    1.25    1.05
   5   0  11    4.02    1.88
  -5   0 -11    3.22    1.07
   5   0  11    1.00    1.13
  -6   0 -11   38.60    4.21
  -6   0 -11   41.56    4.33
   6   0  11   42.20    5.34
   7   0  11   -2.16    1.15
  -7   0 -11   -0.54    0.77
  -7   0 -11    0.85    0.89
 -11  -1  11   57.42    4.21
  11  -1 -11   42.90    4.65
  11  -1 -11   46.70    4.62
  11   1 -11   44.29    5.18
 -10  -1  11    3.70    1.23
  10  -1 -11    4.71    1.23
 -10  -1  11    3.75    0.99
  10   1 -11    3.29    1.39
  -9  -1  11    5.78    1.13
  -9  -1  11    5.95    1.20
  -9  -1  11    3.82    0.96
  -9  -1  11    5.72    1.13
   9  -1 -11    4.77    1.28
   9   1 -11    4.58    1.69
  -8  -1  11    4.20    1.05
   8  -1 -11    5.18    1.17
  -8  -1  11    5.32    1.23
  -8  -1  11    3.80    1.12
  -8  -1  11    3.32    0.94
   8   1 -11    4.20    1.57
   7  -1 -11    2.97    0.93
  -7  -1  11    3.53    1.48
  -7  -1  11    5.23    1.06
   7  -1 -11    3.04    0.75
  -7  -1  11    2.45    0.80
   7  -1 -11    2.51    0.66
  -7  -1  11    2.63    1.00
  -7   1  11    3.23    0.44
  -7   1  11    3.15    0.40
   7   1 -11    2.78    0.93
   7   1 -11    2.79    1.33
  -6  -1  11    0.67    0.58
   6  -1 -11    1.02    0.64
   6  -1 -11    0.83    0.46
   6  -1 -11    0.81    0.42
  -6  -1  11    1.19    0.57
  -6  -1  11    1.45    0.60
   6   1 -11    0.87    0.50
  -6   1  11    0.83    0.32
  -6   1  11    1.36    0.40
   6   1 -11    0.90    0.61
   6   1 -11    0.63    0.85
  -5  -1  11   34.72    3.07
   5  -1 -11   28.82    2.80
   5  -1 -11   29.71    2.82
  -5  -1  11   35.88    3.13
   5  -1 -11   33.11    3.20
  -5  -1  11   27.24    3.18
  -5   1  11   28.59    2.53
  -5   1  11   29.38    2.56
   5   1 -11   33.97    3.47
   5   1 -11   28.86    3.01
   5   1 -11   26.80    2.96
   4  -1 -11   35.06    3.45
   4  -1 -11   30.93    3.00
  -4  -1  11   36.00    3.25
   4  -1 -11   31.00    3.00
  -4  -1  11   34.89    3.21
  -4   1  11   25.56    2.40
  -4   1  11   23.84    2.15
   4   1 -11   26.67    2.78
  -4   1  11   25.53    2.39
   4   1 -11   26.53    2.78
   4   1 -11   31.83    3.31
  -3  -1  11   62.29    4.96
  -3  -1  11   59.56    4.93
  -3  -1  11   48.02    5.11
   3  -1 -11   56.38    4.76
   3  -1 -11   56.18    4.75
   3  -1 -11   59.25    5.21
   3   1 -11   47.74    4.30
  -3   1  11   47.75    4.00
  -3   1  11   42.84    3.95
   3   1 -11   47.27    4.31
  -3   1  11   44.34    4.06
   3   1 -11   54.26    4.82
  -2  -1  11    3.79    0.97
   2  -1 -11    3.71    0.98
   2  -1 -11    3.54    0.89
  -2  -1  11    2.60    0.81
  -2  -1  11    1.52    0.91
   2  -1 -11    4.49    1.29
   2   1 -11    2.39    0.84
  -2   1  11    2.45    0.77
   2   1 -11    2.17    0.82
   2   1 -11    3.69    1.29
  -2   1  11    2.98    0.99
  -2   1  11    2.74    0.84
   1  -1 -11    6.17    1.27
  -1  -1  11    6.23    1.29
   1  -1 -11    4.79    1.12
   1  -1 -11    6.30    1.66
  -1  -1  11    3.95    1.39
  -1  -1  11    5.86    1.27
   1   1 -11    6.25    1.40
  -1   1  11    6.28    1.45
  -1   1  11    3.36    0.92
   1   1 -11    4.47    1.41
  -1   1  11    4.71    1.11
   1   1 -11    6.94    1.43
   0  -1 -11   26.46    3.62
   0  -1  11   36.62    3.44
   0  -1 -11   37.66    3.46
   0  -1  11   33.55    3.85
   0  -1  11   34.50    3.40
   0  -1 -11   36.43    3.40
   0   1  11   28.39    3.09
   0   1  11   39.62    3.80
   0   1  11   28.41    3.12
   0   1 -11   35.23    3.36
   0   1 -11   32.76    3.74
   0   1 -11   29.06    3.19
   1  -1  11   11.77    2.10
  -1  -1 -11   14.19    1.93
   1  -1  11   16.25    2.02
  -1  -1 -11   17.20    2.56
   1  -1  11   13.72    2.40
  -1  -1 -11   14.05    1.95
  -1   1 -11   12.71    2.12
  -1   1 -11   14.27    1.97
  -1   1 -11   13.23    2.32
   1   1  11   15.01    2.36
   1   1  11   11.63    2.03
   1   1  11   13.90    1.89
  -2  -1 -11   31.32    3.45
   2  -1  11   37.15    3.66
   2  -1  11   37.70    4.31
  -2  -1 -11   40.64    3.73
  -2  -1 -11   29.38    3.92
   2  -1  11   33.35    3.59
  -2   1 -11   31.55    3.84
   2   1  11   27.89    3.30
  -2   1 -11   31.92    3.41
   2   1  11   38.35    4.14
   2   1  11   32.80    3.50
  -2   1 -11   32.23    3.41
   3  -1  11   11.51    3.13
  -3  -1 -11   11.33    2.16
  -3  -1 -11   14.86    2.04
   3  -1  11   17.09    2.24
   3  -1  11   15.29    2.37
   3   1  11    7.46    1.92
  -3   1 -11   11.50    2.08
  -3   1 -11   12.64    2.16
   3   1  11   15.07    2.98
  -3   1 -11   16.66    2.59
   3   1  11   11.29    2.23
   4  -1  11    6.61    1.53
   4  -1  11    4.15    1.29
   4  -1  11    2.45    1.46
  -4  -1 -11    5.13    1.36
  -4  -1 -11    5.93    1.53
  -4   1 -11    4.31    1.29
   4   1  11    3.01    1.18
   4   1  11    2.12    0.90
   4   1  11    5.75    2.03
  -4   1 -11    5.41    1.42
   5  -1  11    0.60    1.34
  -5  -1 -11    2.34    1.00
  -5  -1 -11    2.18    1.11
   5  -1  11    1.93    1.05
   5   1  11    2.81    1.64
  -5   1 -11    0.96    0.97
  -5   1 -11    3.24    1.16
  -6  -1 -11   15.66    2.83
   6  -1  11   15.95    2.84
  -6  -1 -11   23.85    2.80
   6  -1  11   17.61    3.72
   6  -1  11   18.29    2.42
  -6   1 -11   16.51    2.80
   6   1  11   21.79    3.78
 -10  -2  11    5.47    1.38
  10  -2 -11    5.48    1.05
 -10  -2  11    4.94    1.59
  10   2 -11    3.99    1.62
  -9  -2  11   10.41    2.25
   9  -2 -11   10.11    1.44
  -9  -2  11   11.81    2.18
  -8  -2  11    3.94    1.10
   8  -2 -11    3.51    0.91
   8   2 -11    4.84    1.74
   7  -2 -11    2.11    0.50
  -7  -2  11    2.28    0.92
   7  -2 -11    2.59    0.82
  -7  -2  11    3.39    1.17
   7  -2 -11    1.63    0.47
   7   2 -11    1.47    1.06
  -6  -2  11   15.89    2.62
   6  -2 -11   20.29    2.21
   6  -2 -11   16.04    1.74
   6  -2 -11   19.45    1.84
  -6  -2  11   22.44    2.45
  -6  -2  11   22.56    2.49
   6   2 -11   13.21    2.26
   6   2 -11   16.64    2.15
   6   2 -11   15.76    2.56
  -6   2  11   14.12    1.10
   5  -2 -11  115.51    8.95
   5  -2 -11  126.09    9.45
  -5  -2  11  126.62    9.60
   5  -2 -11  111.43    8.93
  -5  -2  11  119.57    9.55
   5   2 -11  105.89    8.26
   5   2 -11   84.63    7.59
  -5   2  11   87.58    6.79
  -5   2  11   88.75    6.83
   5   2 -11   89.99    7.64
   4  -2 -11    1.78    0.63
  -4  -2  11    1.93    1.13
  -4  -2  11    1.99    0.85
   4  -2 -11    2.07    0.63
  -4   2  11    1.66    0.55
   4   2 -11    0.75    0.51
   4   2 -11    1.83    1.00
   4   2 -11    2.75    0.98
  -4   2  11    1.57    0.60
  -3  -2  11   73.76    6.34
   3  -2 -11   74.56    6.01
   3  -2 -11   72.86    5.99
  -3  -2  11   81.52    6.44
   3  -2 -11   71.48    6.49
  -3   2  11   52.58    4.60
   3   2 -11   68.99    5.78
  -3   2  11   55.27    4.44
   3   2 -11   53.67    5.09
   3   2 -11   54.50    5.11
  -3   2  11   54.28    4.64
  -2  -2  11    1.00    0.64
   2  -2 -11    0.38    0.49
   2  -2 -11   -0.02    0.63
   2  -2 -11    0.35    0.40
  -2  -2  11    0.75    0.79
  -2  -2  11    0.32    0.54
   2   2 -11    1.31    0.90
  -2   2  11    1.79    0.63
   2   2 -11   -0.55    0.44
  -2   2  11   -0.24    0.49
  -2   2  11    0.07    0.33
   2   2 -11    0.17    0.55
  -1  -2  11   15.84    2.03
   1  -2 -11   14.47    2.30
  -1  -2  11   14.18    1.91
   1  -2 -11   11.30    1.95
  -1  -2  11   13.16    2.27
   1  -2 -11   11.44    1.89
  -1   2  11   11.95    1.59
  -1   2  11   12.70    1.92
   1   2 -11   14.81    2.28
   1   2 -11   10.20    1.99
  -1   2  11   11.12    1.53
   1   2 -11   10.27    1.96
   0  -2  11   28.77    2.96
   0  -2  11   20.96    3.21
   0  -2 -11   23.43    3.23
   0  -2 -11   27.41    2.85
   0  -2 -11   26.51    2.83
   0  -2  11   27.64    2.98
   0   2 -11   21.98    2.63
   0   2  11   18.59    2.28
   0   2  11   18.98    2.34
   0   2 -11   24.39    3.06
   0   2 -11   19.12    2.46
   0   2  11   23.65    2.83
  -1  -2 -11   43.61    4.14
   1  -2  11   42.61    4.18
  -1  -2 -11   37.08    4.59
  -1  -2 -11   45.47    4.19
   1  -2  11   41.24    4.78
   1  -2  11   44.10    4.18
   1   2  11   30.81    3.57
  -1   2 -11   33.00    3.70
   1   2  11   31.31    3.58
  -1   2 -11   44.14    4.42
   1   2  11   45.08    4.39
  -1   2 -11   36.53    3.75
   2  -2  11    4.30    1.37
   2  -2  11    4.69    1.31
  -2  -2 -11    4.10    1.31
   2  -2  11    1.96    1.36
  -2  -2 -11    3.98    1.25
  -2   2 -11    5.59    1.39
   2   2  11    5.26    1.78
  -2   2 -11    3.76    1.24
   2   2  11    2.86    1.01
  -2   2 -11    4.92    1.63
   3  -2  11    4.44    1.44
  -3  -2 -11    8.23    2.09
   3  -2  11    6.17    2.03
   3  -2  11    5.85    1.36
  -3  -2 -11    7.47    1.69
  -3  -2 -11    4.72    1.37
  -3   2 -11    4.42    1.33
  -3   2 -11    5.72    1.47
   3   2  11    4.98    1.22
   3   2  11    5.58    1.89
   3   2  11    5.55    1.31
  -4  -2 -11   50.22    4.91
  -4  -2 -11   51.82    4.98
   4  -2  11   46.13    5.59
   4  -2  11   45.88    4.86
  -4   2 -11   40.31    4.34
  -4   2 -11   37.98    4.24
   4   2  11   54.98    5.63
   5  -2  11    2.45    1.03
  -5  -2 -11   -1.26    0.84
   5  -2  11    0.65    1.45
  -5  -2 -11    0.59    0.90
  -5   2 -11    0.00    0.79
   5   2  11    1.11    1.16
  -5   2 -11    0.39    1.01
  -6  -2 -11    0.32    1.17
  -6  -2 -11   -0.51    0.86
  -6   2 -11    0.63    1.02
  -6   2 -11    2.02    0.92
   6   2  11   -0.86    1.33
 -10  -3  11    6.43    1.86
  10   3 -11    5.98    2.13
  -9  -3  11    1.13    1.26
  -9  -3  11   -0.98    1.13
   9   3 -11    2.57    1.47
   8  -3 -11   10.29    1.28
  -8  -3  11    7.15    1.94
  -8  -3  11    8.96    2.01
   8   3 -11   10.31    2.94
  -7  -3  11    2.41    1.25
   7  -3 -11    3.35    0.44
  -7  -3  11    1.31    1.00
   7  -3 -11    2.27    0.25
   7  -3 -11    3.22    0.85
   7   3 -11    2.99    1.58
   6  -3 -11   12.66    1.27
  -6  -3  11   12.45    2.40
  -6  -3  11    9.00    2.07
  -6  -3  11   12.90    2.21
   6  -3 -11   10.29    1.57
   6  -3 -11   11.08    1.19
   6   3 -11   10.55    3.32
   6   3 -11    6.40    1.60
   5  -3 -11   65.76    4.90
  -5  -3  11   63.14    5.69
  -5  -3  11   55.17    5.73
  -5  -3  11   62.54    5.81
  -5  -3  11   53.00    6.04
   5  -3 -11   61.71    4.84
   5   3 -11   39.74    4.51
  -5   3  11   53.00    3.69
   5   3 -11   48.08    5.30
  -5   3  11   46.59    3.72
   5   3 -11   39.50    5.25
   4  -3 -11   84.63    7.83
  -4  -3  11  106.85    8.16
  -4  -3  11  108.97    9.83
   4  -3 -11   99.88    7.39
   4  -3 -11  101.09    7.39
  -4  -3  11   76.66    8.26
  -4   3  11   73.88    5.64
   4   3 -11   71.63    7.24
   4   3 -11   70.10    6.38
  -4   3  11   70.28    5.62
   4   3 -11   65.30    6.34
  -3  -3  11   20.21    2.40
  -3  -3  11   20.83    2.48
  -3  -3  11   14.55    2.68
   3  -3 -11   18.94    2.09
   3  -3 -11   17.59    2.50
   3  -3 -11   19.84    2.10
   3   3 -11   16.97    2.73
   3   3 -11   12.80    2.30
  -3   3  11   13.63    1.63
  -3   3  11   13.29    1.67
   3   3 -11   14.36    2.46
   2  -3 -11    2.33    0.79
   2  -3 -11    2.14    1.03
  -2  -3  11    1.65    0.94
   2  -3 -11    2.36    0.80
  -2  -3  11    1.53    0.72
  -2  -3  11    0.08    0.75
  -2   3  11    2.09    0.81
   2   3 -11    0.75    1.05
  -2   3  11    1.56    0.73
   2   3 -11    0.60    0.72
  -2   3  11    1.90    0.64
   2   3 -11    1.56    0.91
  -1  -3  11   38.37    3.69
   1  -3 -11   35.41    3.37
   1  -3 -11   29.20    3.80
  -1  -3  11   29.96    3.33
  -1  -3  11   27.49    3.86
   1  -3 -11   31.96    3.24
   1   3 -11   25.34    3.10
  -1   3  11   22.26    2.69
   1   3 -11   26.09    3.09
  -1   3  11   33.24    3.17
   0  -3 -11    7.14    1.51
   0  -3 -11    6.62    1.95
   0  -3  11    6.89    1.58
   0  -3 -11    7.88    1.63
   0  -3  11    4.55    1.90
   0  -3  11   10.50    1.83
   0   3  11    3.28    1.48
   0   3  11    6.31    1.56
   0   3 -11    7.03    1.74
   0   3 -11    4.93    1.38
   0   3 -11    7.08    2.04
   1  -3  11    0.33    0.99
   1  -3  11    3.00    1.09
  -1  -3 -11    1.06    0.65
  -1  -3 -11    2.70    1.02
   1  -3  11    4.44    1.34
   1   3  11    1.68    0.91
  -1   3 -11    2.07    0.87
   1   3  11    2.05    1.29
  -1   3 -11    1.70    0.87
   2  -3  11    3.41    1.27
   2  -3  11    5.26    1.98
  -2  -3 -11    4.72    1.35
  -2  -3 -11    3.72    1.54
  -2  -3 -11    3.91    1.31
   2  -3  11    4.09    1.21
  -2   3 -11    4.42    1.41
  -2   3 -11    1.26    0.74
   2   3  11    3.19    1.14
   2   3  11    4.97    1.74
   2   3  11    1.76    0.81
   3  -3  11   29.20    3.27
   3  -3  11   22.49    3.83
  -3  -3 -11   27.03    3.23
  -3   3 -11   15.42    2.66
  -3   3 -11   19.59    2.55
   4  -3  11   13.62    3.25
   4  -3  11   15.19    2.66
  -4  -3 -11   20.57    3.20
  -4  -3 -11   16.02    2.83
  -4   3 -11   15.32    2.69
  -4   3 -11   12.29    2.49
  -4   3 -11   23.39    3.05
   4   3  11   19.53    3.89
  -5  -3 -11    7.69    2.03
  -5  -3 -11    8.66    2.06
   5   3  11   12.10    2.89
  -5   3 -11    5.87    1.71
  -8  -4  11    3.59    2.38
  -8  -4  11   -0.48    1.12
   7  -4 -11    5.80    0.62
  -7  -4  11    6.53    1.87
   7  -4 -11    4.99    0.56
  -7  -4  11    4.90    1.83
   7   4 -11    6.02    2.07
  -6  -4  11    1.19    1.12
   6  -4 -11    1.84    0.49
   6  -4 -11    1.80    0.80
   6  -4 -11    0.94    0.41
  -6  -4  11    0.95    1.23
   6   4 -11    1.43    1.17
   5  -4 -11   14.24    2.15
   5  -4 -11   14.91    1.67
  -5  -4  11   18.61    3.50
  -5  -4  11   12.95    2.63
   5  -4 -11   15.53    1.68
  -5  -4  11   18.41    3.22
   5   4 -11   13.38    3.22
   4  -4 -11   10.81    1.37
   4  -4 -11    8.22    1.40
  -4  -4  11    6.67    2.26
  -4  -4  11    7.04    1.87
   4   4 -11    6.37    2.04
  -4   4  11    7.07    1.22
   4   4 -11    4.64    1.47
   3  -4 -11    2.32    0.77
  -3  -4  11    2.58    0.90
  -3  -4  11    0.75    1.05
   3   4 -11    2.52    1.04
   3   4 -11    1.89    1.34
   3   4 -11    2.32    1.12
  -3   4  11    2.79    0.87
  -3   4  11    2.11    0.79
   2  -4 -11   13.53    1.88
  -2  -4  11   13.96    2.33
   2  -4 -11   13.62    1.88
  -2  -4  11   15.71    2.65
  -2  -4  11   11.62    2.77
   2   4 -11    8.57    2.00
  -2   4  11   10.19    1.33
   2   4 -11   10.59    2.20
  -2   4  11    9.53    1.31
   2   4 -11    8.63    2.50
  -2   4  11    9.69    1.60
  -1  -4  11   10.66    2.00
   1  -4 -11   14.68    1.99
  -1  -4  11   16.63    2.82
  -1  -4  11   11.53    2.89
   1  -4 -11   13.67    2.21
  -1   4  11   11.14    1.84
   1   4 -11    7.91    2.36
  -1   4  11    6.76    1.74
  -1   4  11    9.32    1.65
   1   4 -11    5.74    1.77
   0  -4  11   10.92    2.90
   0  -4  11   14.54    2.49
   0  -4 -11   12.72    2.20
   0  -4 -11   13.17    2.30
   0   4 -11    8.76    2.07
   0   4 -11    7.72    1.92
   0   4  11    9.38    1.93
   0   4  11   11.47    2.16
   0   4 -11    6.18    2.04
   1  -4  11    7.39    2.36
  -1  -4 -11   11.32    2.21
   1  -4  11   15.13    2.51
  -1  -4 -11   11.40    2.20
  -1   4 -11    9.51    2.13
  -1   4 -11    8.06    2.31
  -1   4 -11    9.73    2.21
   1   4  11   13.46    2.70
   2  -4  11   20.39    3.33
  -2  -4 -11   26.02    3.17
  -2  -4 -11   24.28    3.15
   2  -4  11   20.12    4.10
  -2   4 -11   14.39    2.59
  -2   4 -11   13.82    2.66
  -2   4 -11   15.72    3.18
  -3  -4 -11    3.15    1.11
   3  -4  11    2.18    1.22
  -3  -4 -11    0.28    0.98
   3  -4  11    1.82    1.41
  -3   4 -11    0.85    0.77
  -3   4 -11    0.93    1.02
   3   4  11    3.12    1.76
  -3   4 -11    0.48    0.99
  -4  -4 -11   18.05    3.20
  -4  -4 -11   24.89    3.27
  -4   4 -11   14.41    2.72
  -4   4 -11   14.48    3.06
  -6  -5  11    2.72    1.66
   6  -5 -11    3.61    0.82
  -6  -5  11    7.50    2.07
   6   5 -11    5.13    1.95
   5  -5 -11    6.90    1.22
   5  -5 -11    4.25    1.06
  -5  -5  11    4.52    1.89
  -5  -5  11    3.56    1.79
   5   5 -11    5.19    1.92
  -4  -5  11   18.27    3.29
   4  -5 -11   18.68    2.20
  -4  -5  11   13.75    3.27
  -4  -5  11   18.67    4.21
   4  -5 -11   17.18    2.07
   4   5 -11   12.94    3.12
   3  -5 -11    8.97    1.73
  -3  -5  11    7.88    2.29
  -3  -5  11    5.73    2.15
   3  -5 -11    9.13    1.68
   3   5 -11    7.55    1.89
   3   5 -11    7.81    2.39
   2  -5 -11   16.99    2.16
  -2  -5  11    9.79    2.79
   2  -5 -11   12.70    2.14
   2   5 -11    6.32    2.14
   2   5 -11   10.87    2.31
  -1  -5  11    9.66    2.70
   1  -5 -11    9.22    1.91
   1  -5 -11   11.40    2.13
   1   5 -11    6.66    2.20
  -1   5  11    9.00    1.67
   1   5 -11    6.92    2.01
   1   5 -11    6.90    1.76
  -1   5  11    8.06    1.74
   0  -5 -11    7.42    1.89
   0  -5  11    2.58    1.67
   0  -5 -11    7.76    1.85
   0   5 -11    6.21    1.84
   0   5 -11    5.15    2.01
   0   5  11    5.15    1.60
   0   5  11    4.02    1.79
   0   5 -11    6.50    1.80
  -1  -5 -11   43.78    4.70
  -1  -5 -11   50.06    4.76
   1  -5  11   37.58    5.38
  -1   5 -11   21.82    3.62
  -1   5 -11   27.35    3.99
  -1   5 -11   29.60    3.54
   2  -5  11   10.58    3.06
  -2  -5 -11    9.74    2.23
  -2  -5 -11   13.78    2.47
  -2   5 -11    8.81    1.69
  -2   5 -11    6.95    1.81
  -2   5 -11    5.06    1.66
   2   5  11   13.69    3.14
  11   0 -12   15.27    2.52
  10   0 -12   -0.33    0.77
  -9   0  12    0.94    0.40
  -9   0  12    0.62    0.37
  -9   0  12    1.04    0.43
   9   0 -12    1.59    1.14
  -8   0  12    6.26    0.94
  -8   0  12    4.59    0.93
   8   0 -12    5.93    1.66
   7   0 -12   41.51    3.91
  -7   0  12   36.45    3.35
  -7   0  12   37.89    3.40
   7   0 -12   30.97    3.32
  -7   0  12   38.70    3.14
  -7   0  12   39.64    3.18
   7   0 -12   28.54    3.28
   6   0 -12    0.48    0.53
  -6   0  12    1.43    0.51
   6   0 -12    1.23    0.75
   6   0 -12    0.68    0.53
  -6   0  12    1.12    0.53
  -5   0  12   13.84    1.54
   5   0 -12   11.76    1.60
   5   0 -12   11.14    1.60
  -5   0  12   14.41    1.62
   5   0 -12   12.23    2.00
   4   0 -12   83.21    6.99
  -4   0  12   73.20    6.98
  -4   0  12   92.39    6.94
  -4   0  12   92.58    6.92
   4   0 -12   83.76    7.00
   4   0 -12   96.41    7.55
  -3   0  12   63.13    6.07
  -3   0  12   70.45    5.87
   3   0 -12   72.85    6.00
  -3   0  12   69.11    5.84
   3   0 -12   80.26    6.58
   3   0 -12   73.34    6.00
   2   0 -12    0.30    0.84
   2   0 -12    0.86    0.64
  -2   0  12    2.15    0.69
  -2   0  12    0.31    0.49
   2   0 -12    0.57    0.46
  -2   0  12    1.36    0.83
  -1   0  12    2.26    0.80
   1   0 -12    3.39    0.95
   1   0 -12    2.26    1.08
   1   0 -12    0.84    0.64
  -1   0  12    2.74    0.84
  -1   0  12    0.87    0.91
   0   0 -12    0.42    0.45
   0   0  12    1.39    0.98
   0   0  12   -0.07    0.45
   0   0 -12    0.98    0.85
   0   0  12    0.70    0.54
   0   0 -12    0.90    0.54
   1   0  12    1.95    1.13
   1   0  12    1.49    0.79
  -1   0 -12    1.18    0.74
  -1   0 -12    1.42    0.99
  -1   0 -12    1.68    0.71
   1   0  12    1.56    0.91
   2   0  12    5.42    1.46
  -2   0 -12    5.16    1.47
   2   0  12    7.92    1.60
   2   0  12    6.89    1.99
  -2   0 -12    7.74    1.64
  -3   0 -12   12.69    2.19
   3   0  12   15.57    3.10
  -3   0 -12   10.84    2.50
  -3   0 -12   10.05    2.06
   3   0  12   11.98    2.22
   3   0  12    8.19    1.90
  -4   0 -12    4.61    1.37
  -4   0 -12    2.40    1.05
   4   0  12    4.65    1.88
   5   0  12    0.50    1.05
  -5   0 -12   -0.05    0.63
   5   0  12   -0.20    1.29
  -5   0 -12    0.60    0.86
  -6   0 -12    5.10    1.67
  -6   0 -12    5.49    1.56
   6   0  12    7.50    2.48
  11  -1 -12   22.83    2.97
  11  -1 -12   24.56    3.02
 -11  -1  12   27.75    2.54
  11   1 -12   16.79    4.81
 -10  -1  12   22.93    2.20
  10  -1 -12   16.20    2.47
 -10  -1  12   21.07    2.55
  10   1 -12   19.28    2.93
  -9  -1  12   11.11    1.92
  -9  -1  12    8.49    1.66
   9  -1 -12    8.93    1.92
  -9  -1  12   12.55    1.66
   9   1 -12    6.91    1.99
  -8  -1  12    4.00    1.15
  -8  -1  12    5.20    1.10
  -8  -1  12    7.20    1.40
  -8  -1  12    7.60    1.37
  -7  -1  12   30.31    2.67
   7  -1 -12   22.58    2.33
  -7  -1  12   20.84    2.68
   7  -1 -12   23.11    2.32
  -7   1  12   22.49    1.92
   7   1 -12   24.79    3.02
  -7   1  12   26.64    2.56
   7   1 -12   26.32    2.83
   7   1 -12   24.82    2.73
  -7   1  12   22.75    1.99
  -7   1  12   23.53    2.11
  -6  -1  12    5.85    1.18
  -6  -1  12    4.93    1.11
   6  -1 -12    4.89    1.87
   6  -1 -12    4.44    1.01
   6  -1 -12    4.39    0.99
  -6   1  12    4.36    0.75
   6   1 -12    5.07    1.20
   6   1 -12    5.88    1.50
  -6   1  12    4.09    0.73
   6   1 -12    2.98    1.06
  -5  -1  12   13.46    1.71
   5  -1 -12   14.32    1.96
  -5  -1  12   10.95    1.88
  -5  -1  12   12.85    1.67
   5  -1 -12   10.50    1.43
   5  -1 -12   10.54    1.47
   5   1 -12    8.66    1.68
  -5   1  12    9.91    1.17
  -5   1  12    9.27    1.18
   5   1 -12    9.52    1.74
   5   1 -12   11.50    2.26
  -4  -1  12   20.95    2.19
   4  -1 -12   18.28    2.38
  -4  -1  12   21.20    2.22
   4  -1 -12   17.62    2.00
   4  -1 -12   16.71    1.99
  -4   1  12   13.84    1.54
  -4   1  12   13.23    1.63
   4   1 -12   19.49    2.52
   4   1 -12   15.38    2.00
   4   1 -12   13.08    2.20
  -4   1  12   14.85    1.65
   3  -1 -12    7.74    1.41
  -3  -1  12    5.46    1.63
  -3  -1  12    8.93    1.60
  -3  -1  12    8.81    1.55
   3  -1 -12    7.60    1.70
   3  -1 -12    8.60    1.46
   3   1 -12    6.64    1.37
  -3   1  12    5.05    1.37
   3   1 -12    9.32    2.00
  -3   1  12    5.47    1.09
   3   1 -12    7.97    1.53
  -3   1  12    5.73    1.14
  -2  -1  12   -0.11    0.34
   2  -1 -12    0.67    0.70
  -2  -1  12    0.11    0.32
   2  -1 -12    0.13    0.51
   2  -1 -12    0.22    0.39
  -2   1  12   -0.52    0.36
   2   1 -12    0.01    0.37
  -2   1  12    0.56    0.49
   2   1 -12    0.25    0.54
  -2   1  12   -0.35    0.51
   2   1 -12   -0.79    0.69
   1  -1 -12    5.73    1.67
   1  -1 -12    4.30    1.13
  -1  -1  12    4.25    1.49
  -1  -1  12    5.28    1.28
   1  -1 -12    6.34    1.35
  -1  -1  12    6.86    1.47
  -1   1  12    3.07    0.95
   1   1 -12    6.92    1.78
   1   1 -12    2.88    1.02
  -1   1  12    4.46    1.08
   1   1 -12    5.99    1.36
  -1   1  12    3.39    1.19
   0  -1  12   36.76    3.91
   0  -1 -12   39.40    3.91
   0  -1  12   41.64    4.03
   0  -1 -12   42.77    4.57
   0  -1 -12   42.70    3.99
   0  -1  12   40.70    4.53
   0   1 -12   36.85    3.80
   0   1  12   31.65    3.62
   0   1 -12   41.22    4.37
   0   1  12   43.10    4.34
   0   1  12   37.29    3.72
   0   1 -12   41.39    3.95
  -1  -1 -12   62.63    5.53
  -1  -1 -12   59.22    5.47
   1  -1  12   67.09    6.30
   1  -1  12   60.59    5.54
  -1  -1 -12   58.36    6.08
   1  -1  12   57.24    5.46
   1   1  12   49.83    5.02
   1   1  12   51.64    5.07
  -1   1 -12   55.96    5.15
   1   1  12   63.15    5.80
  -1   1 -12   60.08    5.82
  -1   1 -12   53.11    5.13
  -2  -1 -12   70.54    6.09
  -2  -1 -12   68.06    6.04
   2  -1  12   64.87    6.05
  -2  -1 -12   67.62    6.90
   2  -1  12   63.95    6.06
   2   1  12   60.99    5.75
   2   1  12   64.57    5.90
  -2   1 -12   55.23    5.54
   2   1  12   74.41    6.59
  -2   1 -12   54.15    5.50
   3  -1  12    6.28    1.94
  -3  -1 -12    5.91    1.53
   3  -1  12    5.26    1.49
   3  -1  12    3.23    1.50
  -3  -1 -12    7.61    1.76
  -3   1 -12    6.06    2.57
   3   1  12    6.56    2.03
   3   1  12    4.12    1.35
   3   1  12    3.17    1.08
  -3   1 -12    4.23    1.38
  -3   1 -12    6.27    1.52
   4  -1  12    1.41    1.13
  -4  -1 -12    3.48    1.13
  -4  -1 -12    2.66    1.15
   4  -1  12    2.29    1.37
   4  -1  12    3.33    1.76
   4   1  12    3.43    1.76
  -4   1 -12    3.21    1.22
  -4   1 -12    3.72    1.48
  -5  -1 -12   -0.45    0.90
   5  -1  12   -1.04    1.06
  -5  -1 -12    1.52    1.09
  -5   1 -12   -0.14    0.64
  -5   1 -12    1.05    0.94
   5   1  12    0.85    1.14
   6  -1  12   -2.05    1.22
  -6  -1 -12    2.75    1.48
  -6  -1 -12    2.45    0.90
  -6   1 -12    0.78    1.15
   6   1  12   -2.30    1.22
  -6   1 -12   -0.51    0.76
 -10  -2  12    6.49    1.43
  10  -2 -12    2.95    0.95
 -10  -2  12    4.11    1.26
  10   2 -12    2.68    1.76
   9  -2 -12   10.65    1.58
  -9  -2  12   11.84    2.21
  -9  -2  12    7.32    2.41
   9   2 -12   13.37    3.07
   8  -2 -12    4.06    1.07
  -8  -2  12    7.25    1.40
  -8  -2  12    1.89    1.02
   8   2 -12    2.01    1.72
  -7  -2  12    0.85    0.87
   7  -2 -12    1.56    0.50
  -7  -2  12    1.25    0.81
   7  -2 -12    1.12    0.75
  -7  -2  12    1.63    0.75
   7  -2 -12    0.41    0.36
   7   2 -12    1.80    0.94
   7   2 -12    0.56    0.84
   6  -2 -12    0.88    0.42
   6  -2 -12    1.13    0.52
  -6  -2  12    1.68    1.00
  -6  -2  12    2.21    0.81
  -6   2  12    1.78    0.34
  -5  -2  12   76.46    5.99
   5  -2 -12   69.32    5.82
   5  -2 -12   62.26    5.25
  -5  -2  12   69.79    5.84
  -5  -2  12   55.33    6.06
   5  -2 -12   64.38    5.28
   5   2 -12   64.98    5.69
  -5   2  12   49.25    4.20
   5   2 -12   57.63    5.12
  -5   2  12   50.69    4.23
   5   2 -12   46.27    4.88
  -4  -2  12   21.39    2.45
   4  -2 -12   18.69    2.00
   4  -2 -12   17.28    1.98
   4  -2 -12   21.02    2.54
  -4  -2  12   14.37    2.53
  -4  -2  12   19.18    2.31
  -4   2  12   14.79    1.68
   4   2 -12   15.35    2.48
  -4   2  12   15.49    1.76
   4   2 -12   16.07    2.57
   4   2 -12   19.09    2.84
   3  -2 -12   44.98    4.48
  -3  -2  12   46.36    4.27
  -3  -2  12   38.14    4.51
   3  -2 -12   43.18    3.92
   3  -2 -12   44.48    3.94
  -3  -2  12   46.65    4.27
   3   2 -12   34.76    3.52
  -3   2  12   31.21    2.96
  -3   2  12   32.52    2.88
  -3   2  12   27.67    2.90
   3   2 -12   32.86    3.45
   2  -2 -12   12.62    1.64
  -2  -2  12   10.44    1.82
  -2  -2  12   10.14    1.77
  -2  -2  12    8.18    2.10
   2  -2 -12   12.44    2.05
   2  -2 -12   11.59    1.59
   2   2 -12    9.05    1.80
  -2   2  12    6.72    1.36
   2   2 -12   13.83    2.25
  -2   2  12    9.61    1.56
   2   2 -12    9.34    1.91
  -2   2  12    9.04    1.57
  -1  -2  12   75.57    6.28
   1  -2 -12   63.57    6.57
   1  -2 -12   69.80    6.07
  -1  -2  12   61.57    6.69
  -1  -2  12   77.37    6.36
   1  -2 -12   81.66    6.21
  -1   2  12   57.32    5.41
   1   2 -12   75.91    6.46
  -1   2  12   72.26    5.88
   1   2 -12   61.04    5.73
   1   2 -12   61.07    5.73
  -1   2  12   53.92    5.36
   0  -2 -12   35.58    3.58
   0  -2  12   36.05    3.67
   0  -2  12   29.31    4.06
   0  -2 -12   35.47    3.55
   0  -2  12   38.32    3.68
   0   2 -12   34.64    4.16
   0   2 -12   31.51    3.45
   0   2  12   37.36    3.77
   0   2 -12   26.27    3.31
   0   2  12   26.07    3.13
  -1  -2 -12   11.33    2.00
   1  -2  12   11.78    2.03
  -1  -2 -12    9.37    2.35
   1  -2  12   11.27    1.93
  -1   2 -12   12.52    3.21
   1   2  12   12.00    2.42
  -1   2 -12    9.04    1.91
  -1   2 -12    8.85    1.94
   1   2  12    7.01    1.51
   2  -2  12    1.40    0.88
  -2  -2 -12    2.41    0.94
  -2  -2 -12    4.06    1.23
   2  -2  12    1.34    0.75
   2  -2  12    1.97    1.38
  -2  -2 -12    1.18    0.88
  -2   2 -12    2.25    1.23
   2   2  12    0.74    0.85
  -2   2 -12    1.80    0.91
  -2   2 -12    1.80    1.02
   3  -2  12    8.26    1.82
  -3  -2 -12    8.35    1.76
  -3  -2 -12    5.56    1.44
   3  -2  12    5.85    1.66
   3  -2  12    7.22    2.35
  -3   2 -12    4.97    1.45
   3   2  12    8.85    2.41
  -3   2 -12    6.23    1.43
   4  -2  12    7.02    2.31
  -4  -2 -12    5.25    1.57
  -4  -2 -12    4.05    1.33
   4  -2  12    9.09    1.93
   4   2  12    5.36    2.09
  -4   2 -12    3.57    1.35
   5  -2  12    1.15    1.76
   5  -2  12    2.86    1.86
  -5  -2 -12    4.87    1.42
   5   2  12    6.14    2.37
  -5   2 -12    2.22    1.27
  -5   2 -12    1.62    1.09
   5   2  12    4.28    1.88
  -9  -3  12    1.82    1.58
  -9  -3  12    2.94    1.27
   9  -3 -12    4.96    0.93
   9   3 -12    6.92    2.49
   8  -3 -12    5.94    1.17
  -8  -3  12    6.00    1.76
  -8  -3  12    5.91    1.94
   8   3 -12    5.41    2.02
   7  -3 -12    4.23    0.66
   7  -3 -12    3.86    0.66
  -7  -3  12    3.46    1.53
  -7  -3  12    4.94    1.49
   7  -3 -12    5.09    1.34
   7   3 -12    5.09    1.95
   6  -3 -12   43.26    3.51
   6  -3 -12   41.49    3.52
   6  -3 -12   41.36    4.06
  -6  -3  12   40.53    4.57
  -6  -3  12   47.37    4.71
   6   3 -12   39.05    4.93
   6   3 -12   35.10    4.04
   5  -3 -12   45.27    3.82
  -5  -3  12   53.96    4.78
  -5  -3  12   54.96    4.84
   5  -3 -12   39.57    4.30
   5  -3 -12   44.81    3.83
  -5  -3  12   39.88    5.01
   5   3 -12   29.34    4.03
   5   3 -12   34.78    3.80
  -5   3  12   33.23    2.85
   5   3 -12   33.39    4.46
  -5   3  12   34.10    2.88
   4  -3 -12   86.68    6.62
  -4  -3  12   76.06    7.73
   4  -3 -12   70.54    7.07
  -4  -3  12   83.23    7.25
   4  -3 -12   94.60    6.69
  -4   3  12   58.83    5.20
   4   3 -12   61.47    5.99
   4   3 -12   64.50    6.06
   4   3 -12   77.83    6.82
  -4   3  12   62.54    5.20
  -3  -3  12   12.58    2.29
  -3  -3  12   15.79    2.16
   3  -3 -12   15.84    1.79
  -3  -3  12    9.06    2.40
   3  -3 -12   14.22    2.47
   3  -3 -12   15.41    1.85
   3   3 -12   11.42    2.23
   3   3 -12    9.10    3.05
  -3   3  12   11.99    1.49
   2  -3 -12    1.00    0.85
   2  -3 -12   -0.19    0.41
  -2  -3  12   -0.60    0.70
  -2  -3  12   -0.60    0.75
   2  -3 -12    0.45    0.52
  -2  -3  12    0.42    0.70
   2   3 -12    1.69    1.22
   2   3 -12    0.75    0.74
   2   3 -12   -0.25    0.61
  -2   3  12    0.16    0.60
  -2   3  12    1.34    0.59
  -1  -3  12   29.15    4.04
  -1  -3  12   31.74    3.50
   1  -3 -12   32.42    3.37
  -1  -3  12   35.47    3.58
   1  -3 -12   31.32    3.35
  -1   3  12   17.01    2.32
  -1   3  12   27.31    2.91
   1   3 -12   21.96    2.82
   1   3 -12   19.85    2.71
  -1   3  12   21.45    2.51
   0  -3  12   88.46    7.10
   0  -3 -12   84.31    6.96
   0  -3 -12   66.88    7.43
   0  -3  12   71.46    7.68
   0  -3 -12   85.96    6.97
   0  -3  12   79.89    7.01
   0   3  12   51.62    5.17
   0   3 -12   63.13    5.68
   0   3 -12   60.62    5.57
   1  -3  12    4.00    1.67
  -1  -3 -12    4.57    1.33
  -1  -3 -12    5.67    1.39
   1  -3  12    3.38    1.46
  -1   3 -12    3.48    1.34
   1   3  12    5.48    1.91
  -1   3 -12    3.20    1.30
  -2  -3 -12    0.45    0.61
   2  -3  12   -1.53    1.01
  -2  -3 -12    0.06    0.63
   2  -3  12    1.22    1.29
   2  -3  12   -0.52    0.59
  -2   3 -12    0.64    0.71
   2   3  12   -0.03    1.17
  -2   3 -12   -0.06    1.03
   3  -3  12   31.75    3.85
   3  -3  12   31.26    4.52
  -3  -3 -12   32.59    3.81
  -3  -3 -12   36.43    3.89
  -3   3 -12   17.55    3.43
  -3   3 -12   20.04    3.18
   4  -3  12    6.56    2.47
  -4  -3 -12    8.70    1.91
  -4  -3 -12   14.47    2.53
   4  -3  12    9.98    2.88
  -4   3 -12    7.68    1.67
  -4   3 -12    5.44    1.85
   4   3  12   10.41    2.93
   8  -4 -12    1.70    0.97
  -8  -4  12    1.23    1.53
  -8  -4  12    0.86    2.08
   8   4 -12    1.21    1.41
   7  -4 -12    3.63    1.05
  -7  -4  12    5.43    1.63
   7  -4 -12    2.61    0.47
  -7  -4  12    2.32    1.46
   7  -4 -12    1.67    0.35
   7   4 -12    1.55    1.63
   6  -4 -12   19.61    2.78
   6  -4 -12   22.82    2.01
  -6  -4  12   13.68    3.06
  -6  -4  12   16.43    3.18
   6  -4 -12   20.59    1.92
   6   4 -12   14.01    3.13
   5  -4 -12   22.94    2.23
  -5  -4  12   22.13    4.04
   5  -4 -12   20.72    2.22
  -5  -4  12   17.20    3.24
   5   4 -12   12.47    2.55
   5   4 -12   16.91    3.57
   4  -4 -12   70.05    5.52
   4  -4 -12   69.07    5.46
  -4  -4  12   52.17    6.69
   4   4 -12   54.07    6.21
   4   4 -12   52.23    5.45
  -4   4  12   55.05    4.58
   4   4 -12   47.77    5.86
  -3  -4  12   20.24    3.45
   3  -4 -12   27.27    2.72
   3  -4 -12   26.47    2.77
   3   4 -12   13.51    2.62
  -3   4  12   17.16    1.97
   3   4 -12   15.77    3.53
   3   4 -12   13.70    2.68
   2  -4 -12    2.27    0.86
  -2  -4  12    1.02    1.16
   2  -4 -12    2.71    1.01
   2   4 -12    2.84    1.31
  -2   4  12    1.11    0.76
   2   4 -12   -0.28    0.57
   2   4 -12   -0.33    0.91
  -2   4  12    2.99    0.80
  -2   4  12    3.50    1.03
   1  -4 -12   10.93    2.02
   1  -4 -12   10.50    2.03
  -1  -4  12    7.05    2.38
   1   4 -12    7.22    2.19
   1   4 -12    6.85    1.79
   1   4 -12    6.75    1.86
   0  -4 -12    5.27    1.43
   0  -4 -12    3.75    1.23
   0  -4  12    3.64    1.28
   0  -4  12    2.28    1.60
   0   4 -12    1.75    1.12
   0   4 -12    2.43    1.04
   0   4  12    4.30    1.42
   0   4 -12    0.45    0.97
   0   4  12    1.67    1.29
  -1  -4 -12    7.78    1.86
   1  -4  12    8.93    2.49
  -1  -4 -12   12.97    2.28
   1  -4  12    6.70    1.91
  -1   4 -12    4.54    1.79
  -1   4 -12    8.82    1.99
  -1   4 -12    6.87    1.86
  -2  -4 -12    8.41    1.99
  -2  -4 -12   12.02    2.34
   2  -4  12    8.38    2.44
  -2   4 -12    5.01    1.51
  -2   4 -12    4.56    1.47
   2   4  12   12.24    2.66
  -2   4 -12    5.90    1.88
   3  -4  12    8.81    2.90
  -3  -4 -12   12.85    2.42
  -3  -4 -12   10.46    1.94
  -3   4 -12    5.19    1.73
  -3   4 -12    5.51    1.83
   3   4  12   11.22    2.97
  -3   4 -12    6.53    1.82
   5  -5 -12   12.13    1.60
   5  -5 -12   13.81    1.72
  -5  -5  12   10.21    2.75
  -5  -5  12    8.94    2.54
   5   5 -12    8.91    2.64
  -4  -5  12    7.83    2.47
   4  -5 -12   11.48    1.52
  -4  -5  12    8.80    2.25
   4  -5 -12   10.85    1.78
  -4  -5  12    9.08    2.76
   4   5 -12    8.67    2.52
   3  -5 -12    4.16    1.22
   3  -5 -12    4.32    1.11
  -3  -5  12    5.40    2.08
  -3  -5  12    3.06    1.90
   3   5 -12    2.09    1.08
   3   5 -12    5.27    1.65
  -2  -5  12    5.32    1.83
   2  -5 -12    3.61    1.20
   2  -5 -12    4.63    1.29
   2   5 -12    3.51    1.35
   2   5 -12    2.64    1.00
   2   5 -12    2.04    1.17
   1  -5 -12    6.46    1.32
   1  -5 -12    1.17    1.07
  -1  -5  12    1.67    1.48
  -1   5  12   -0.28    1.05
   1   5 -12    4.75    1.40
   1   5 -12   -1.25    0.94
  -1   5  12    6.44    1.63
   1   5 -12    1.57    1.09
   0  -5 -12    9.48    2.10
   0  -5 -12    6.97    1.87
   0  -5  12    4.49    2.10
   0   5  12    3.97    1.77
   0   5 -12    5.85    1.90
   0   5  12    9.20    2.19
   0   5 -12    5.68    1.72
   0   5 -12    3.55    1.36
  10   0 -13    0.08    0.80
  -9   0  13    5.14    0.86
  -9   0  13    6.39    1.07
  -9   0  13    5.76    0.90
  -8   0  13    4.50    0.85
   8   0 -13    4.82    1.07
  -8   0  13    3.29    0.89
   8   0 -13    3.86    0.94
   7   0 -13   13.28    1.89
  -7   0  13   17.10    1.92
  -7   0  13   16.02    1.74
  -7   0  13   17.98    1.73
   7   0 -13   14.68    2.35
   7   0 -13   12.87    1.86
  -6   0  13    1.59    0.68
   6   0 -13    1.10    0.64
   6   0 -13    1.50    1.03
   5   0 -13    1.53    0.71
  -5   0  13    0.73    0.57
   5   0 -13    0.78    0.81
   5   0 -13    2.25    0.85
  -5   0  13    1.00    0.56
  -5   0  13    0.41    0.70
   4   0 -13   15.15    2.27
  -4   0  13   15.68    1.77
   4   0 -13   12.09    1.98
  -4   0  13   11.14    1.84
   4   0 -13   12.35    1.75
  -4   0  13   13.24    1.69
  -3   0  13  110.69    8.28
   3   0 -13  117.27    9.02
   3   0 -13   97.02    8.29
  -3   0  13  103.96    8.26
  -3   0  13   90.02    8.41
   3   0 -13  102.48    8.35
  -2   0  13    2.02    0.79
   2   0 -13    4.40    1.45
   2   0 -13    0.60    0.72
   2   0 -13    1.19    0.67
  -2   0  13    1.20    0.93
  -2   0  13    2.03    0.84
   1   0 -13   37.44    4.11
   1   0 -13   34.05    3.47
   1   0 -13   37.53    3.55
  -1   0  13   30.39    3.35
  -1   0  13   30.18    3.71
  -1   0  13   32.78    3.33
   0   0  13    2.49    1.30
   0   0 -13    3.46    1.16
   0   0 -13    2.85    1.02
   0   0  13    4.10    1.04
   0   0  13    3.08    0.98
   0   0 -13    3.82    1.47
  -1   0 -13  173.86   13.38
   1   0  13  164.01   13.37
  -1   0 -13  169.14   13.37
  -1   0 -13  170.69   15.48
   1   0  13  166.73   13.96
   1   0  13  176.32   14.09
   2   0  13   26.84    3.69
  -2   0 -13   22.63    2.81
   2   0  13   21.95    2.95
   2   0  13   25.27    2.92
  -2   0 -13   22.04    2.84
  -3   0 -13    7.69    1.64
  -3   0 -13    4.30    1.53
   3   0  13    7.24    2.16
   3   0  13    6.43    2.30
   4   0  13    5.80    2.23
  -4   0 -13    6.97    1.66
  -4   0 -13    7.58    1.85
   4   0  13    6.05    1.67
  -5   0 -13   10.51    2.16
  -5   0 -13    8.94    2.03
   5   0  13   11.80    3.11
  10  -1 -13    5.26    1.32
 -10  -1  13    6.56    1.94
 -10  -1  13    6.49    1.30
  -9  -1  13    1.64    0.71
  -9  -1  13    2.22    0.85
  -9  -1  13    0.64    0.68
   9  -1 -13    0.63    0.97
   9   1 -13    0.37    1.02
   8  -1 -13    1.55    0.69
  -8  -1  13    3.13    1.05
   8  -1 -13    3.07    0.83
  -8  -1  13    5.29    1.30
   8  -1 -13    2.38    1.13
   8   1 -13    2.41    0.90
   7  -1 -13   20.58    2.42
   7  -1 -13   25.04    2.56
  -7  -1  13   34.67    3.90
   7  -1 -13   28.61    3.07
   7   1 -13   22.84    2.74
  -7   1  13   29.18    2.88
   7   1 -13   22.33    2.80
  -7   1  13   23.28    2.10
  -7   1  13   24.25    2.14
   6  -1 -13    7.29    1.37
  -6  -1  13   12.93    1.63
  -6  -1  13   11.58    1.55
   6  -1 -13    7.81    1.81
  -6   1  13    8.97    1.05
   6   1 -13    7.49    1.59
  -6   1  13    8.91    1.09
   6   1 -13    5.76    1.64
   5  -1 -13   45.73    4.14
  -5  -1  13   39.37    4.41
   5  -1 -13   49.48    4.67
  -5  -1  13   57.72    4.47
   5  -1 -13   45.48    4.12
   5   1 -13   40.29    4.08
  -5   1  13   40.35    3.63
   5   1 -13   53.27    4.83
  -5   1  13   41.70    3.62
   5   1 -13   37.33    4.01
   4  -1 -13   53.08    4.76
  -4  -1  13   57.12    4.93
  -4  -1  13   45.97    5.10
   4  -1 -13   54.97    4.79
   4  -1 -13   60.35    5.39
  -4  -1  13   62.12    5.03
  -4   1  13   46.81    3.96
  -4   1  13   46.05    3.96
   4   1 -13   45.16    4.35
   4   1 -13   52.03    4.89
   4   1 -13   44.78    4.34
  -4   1  13   39.41    3.78
   3  -1 -13   10.11    1.72
  -3  -1  13    9.83    1.68
  -3  -1  13    7.96    1.95
   3  -1 -13   10.12    2.21
  -3  -1  13    9.10    1.68
   3  -1 -13    9.27    1.66
   3   1 -13   10.59    1.86
   3   1 -13    8.96    2.05
  -3   1  13    6.55    1.29
  -3   1  13    6.22    1.37
  -3   1  13    6.76    1.26
   3   1 -13    5.53    1.40
   2  -1 -13   -0.42    0.48
  -2  -1  13   -0.74    0.57
  -2  -1  13   -0.67    0.45
   2  -1 -13    0.44    0.54
   2  -1 -13    0.54    0.69
  -2   1  13   -0.04    0.38
   2   1 -13   -0.49    0.34
  -2   1  13   -0.42    0.28
  -2   1  13   -0.59    0.59
   2   1 -13    0.45    0.75
   2   1 -13    1.18    0.65
  -1  -1  13    8.40    1.62
   1  -1 -13    8.80    1.68
  -1  -1  13    6.33    1.90
   1  -1 -13    8.95    2.12
   1  -1 -13    7.61    1.56
  -1  -1  13    7.42    1.58
   1   1 -13   10.41    2.29
   1   1 -13    5.70    1.59
   1   1 -13    7.84    1.64
  -1   1  13    5.99    1.29
  -1   1  13    6.61    1.68
  -1   1  13    4.92    1.25
   0  -1 -13   11.28    2.03
   0  -1  13   13.20    2.14
   0  -1 -13   11.80    2.02
   0  -1  13    7.56    1.96
   0  -1  13   10.69    2.49
   0   1 -13    7.59    1.66
   0   1  13    6.62    1.70
   0   1  13   10.52    2.17
   0   1 -13   11.31    2.06
   0   1  13   10.25    1.87
   1  -1  13   21.20    2.68
  -1  -1 -13   20.49    2.59
   1  -1  13   22.83    3.79
   1  -1  13   22.23    2.67
  -1  -1 -13   23.67    2.71
  -1  -1 -13   16.49    2.99
   1   1  13   23.74    2.67
  -1   1 -13   17.40    2.47
  -1   1 -13   18.29    2.49
   1   1  13   13.87    2.52
   1   1  13   19.70    2.98
  -2  -1 -13    5.56    1.44
  -2  -1 -13    8.01    1.78
   2  -1  13    5.14    1.62
   2  -1  13    8.06    2.34
   2  -1  13    5.24    1.66
  -2   1 -13    5.72    1.46
   2   1  13    6.64    2.11
  -2   1 -13    6.79    1.94
   2   1  13    6.78    1.52
  -2   1 -13    8.16    2.20
   3  -1  13   11.63    2.88
  -3  -1 -13   12.58    2.29
  -3  -1 -13   14.57    2.49
   3   1  13   13.75    3.07
  -3   1 -13   11.55    2.25
  -3   1 -13   14.50    2.41
  -4  -1 -13    5.01    1.54
   4  -1  13    3.94    1.97
  -4  -1 -13    6.13    1.78
   4  -1  13    5.09    1.25
  -4   1 -13    3.86    1.36
   4   1  13    8.86    2.35
  -4   1 -13    6.33    1.62
  -5  -1 -13    1.56    0.77
  -5  -1 -13   -1.67    0.80
   5  -1  13   -0.13    1.51
   5   1  13   -1.08    1.27
  -5   1 -13    0.75    1.10
  -5   1 -13    1.94    1.27
 -10  -2  13    9.17    1.94
  10   2 -13    9.33    2.44
  -9  -2  13    1.03    0.93
   9   2 -13    0.95    1.05
   8  -2 -13    6.99    1.43
   8  -2 -13    5.33    0.91
   8  -2 -13    6.80    0.85
  -8  -2  13    6.80    1.69
   8   2 -13    5.22    2.00
  -7  -2  13    4.64    1.39
  -7  -2  13    3.25    1.33
  -7  -2  13    3.10    1.29
   7  -2 -13    5.17    0.90
   7  -2 -13    3.94    0.86
   7  -2 -13    4.58    1.30
   7   2 -13    3.50    1.11
   7   2 -13    2.06    0.96
  -6  -2  13    6.90    1.39
   6  -2 -13    4.79    1.34
  -6  -2  13    7.85    1.59
   6  -2 -13    2.51    0.77
   6  -2 -13    3.38    0.83
   6   2 -13    2.51    1.14
   6   2 -13    1.53    0.85
  -6   2  13    4.36    0.75
  -6   2  13    3.98    0.67
  -5  -2  13   28.83    2.99
   5  -2 -13   23.54    2.44
  -5  -2  13   22.18    3.10
  -5  -2  13   25.71    2.84
   5  -2 -13   25.07    2.94
   5  -2 -13   24.11    2.45
  -5   2  13   16.86    1.87
   5   2 -13   23.21    3.58
   5   2 -13   20.02    2.54
  -4  -2  13   13.07    2.33
  -4  -2  13   13.85    2.32
   4  -2 -13   15.12    1.83
   4  -2 -13   17.17    2.34
  -4   2  13   12.38    1.54
  -4   2  13   10.46    1.45
   4   2 -13    9.11    2.34
   4   2 -13   11.34    2.10
  -3  -2  13   -0.59    0.74
   3  -2 -13    1.71    0.77
   3  -2 -13    0.78    0.56
  -3  -2  13   -0.85    0.56
  -3  -2  13    0.66    0.75
   3  -2 -13    2.22    0.95
   3   2 -13   -0.31    0.99
  -3   2  13    0.36    0.53
  -3   2  13    0.02    0.54
  -3   2  13    0.11    0.81
   3   2 -13    0.27    0.73
   3   2 -13    0.09    0.40
   2  -2 -13    1.56    0.68
  -2  -2  13    1.54    0.77
  -2  -2  13    0.46    0.65
   2  -2 -13    1.27    0.69
  -2  -2  13    2.21    1.30
   2   2 -13   -0.32    0.93
  -2   2  13    0.87    0.78
   2   2 -13    0.78    0.70
   2   2 -13    0.52    0.65
  -2   2  13    0.70    0.56
   1  -2 -13   63.56    5.24
  -1  -2  13   55.18    5.12
  -1  -2  13   46.14    5.55
   1  -2 -13   53.23    5.46
  -1   2  13   53.22    4.92
   1   2 -13   49.38    4.87
  -1   2  13   42.21    4.46
  -1   2  13   44.22    4.47
   1   2 -13   50.71    4.90
   1   2 -13   64.37    6.22
   0  -2 -13   55.13    6.60
   0  -2  13   64.32    5.87
   0  -2  13   54.35    6.35
   0  -2 -13   82.65    6.70
   0  -2 -13   67.05    5.84
   0  -2  13   68.12    5.96
   0   2 -13   55.51    6.05
   0   2  13   70.51    6.03
   0   2  13   53.13    5.27
   0   2 -13   53.33    5.40
   1  -2  13    6.53    2.26
   1  -2  13    3.76    1.60
  -1  -2 -13    6.34    1.60
   1  -2  13    8.70    1.88
   1   2  13    5.57    1.79
   1   2  13    6.66    2.03
   1   2  13    3.54    1.33
  -1   2 -13    4.21    1.69
  -1   2 -13    4.61    1.38
  -2  -2 -13    1.58    0.62
   2  -2  13    1.47    1.46
  -2   2 -13   -0.79    0.85
   2   2  13   -0.82    0.90
  -2   2 -13   -0.15    0.58
   3  -2  13   37.01    4.92
  -3  -2 -13   40.35    4.13
   3  -2  13   31.82    4.00
  -3  -2 -13   36.23    4.11
   3   2  13   37.42    4.62
  -3   2 -13   31.22    3.61
  -3   2 -13   27.45    3.56
  -4  -2 -13    0.81    0.75
  -4  -2 -13    1.34    1.06
  -4   2 -13    1.42    0.87
   4   2  13    0.72    1.29
  -4   2 -13   -1.99    0.77
  -9  -3  13    0.99    1.31
  -9  -3  13    0.75    1.30
   9   3 -13    8.45    2.45
  -8  -3  13   -0.57    0.93
  -8  -3  13   -0.35    1.13
   8  -3 -13    1.45    0.66
   8   3 -13    1.15    1.18
   7  -3 -13    3.32    0.66
  -7  -3  13    5.70    1.73
  -7  -3  13    6.64    1.82
   7  -3 -13    6.00    1.23
   7  -3 -13    3.72    0.75
   7   3 -13    4.28    1.89
   6  -3 -13   19.62    1.92
   6  -3 -13   20.17    2.47
  -6  -3  13   16.09    2.95
   6  -3 -13   16.37    1.80
   6   3 -13   13.18    3.07
   6   3 -13   15.66    2.65
   6   3 -13    9.87    2.23
   5  -3 -13   70.39    5.71
   5  -3 -13   76.72    5.80
  -5  -3  13   63.56    6.99
   5   3 -13   56.66    6.39
   5   3 -13   53.02    5.49
   5   3 -13   61.78    5.71
  -5   3  13   55.59    4.58
   4  -3 -13   18.70    2.12
  -4  -3  13   19.41    3.42
   4  -3 -13   18.37    2.38
  -4   3  13   14.67    1.69
  -4   3  13   12.69    1.72
   4   3 -13   14.06    3.95
   4   3 -13   17.11    2.87
   3  -3 -13    3.73    1.01
   3  -3 -13    4.00    0.96
  -3  -3  13    0.90    1.21
  -3  -3  13    2.21    1.08
  -3   3  13    1.55    0.79
   3   3 -13    1.89    1.05
   3   3 -13    3.38    1.25
  -2  -3  13    0.76    1.24
  -2  -3  13    3.00    0.97
   2  -3 -13    0.50    0.55
   2  -3 -13    2.32    0.87
  -2   3  13    1.93    0.63
   2   3 -13    0.49    0.93
  -2   3  13    0.17    0.69
   2   3 -13    1.19    0.99
  -1  -3  13    1.89    1.12
   1  -3 -13    3.26    1.09
  -1  -3  13    2.49    1.37
   1  -3 -13    3.70    1.05
  -1   3  13    2.89    1.00
  -1   3  13    4.54    1.47
   1   3 -13    3.76    1.30
   1   3 -13    3.86    1.24
   0  -3 -13   14.60    2.38
   0  -3 -13   13.81    2.27
   0  -3  13    9.82    2.04
   0  -3  13    6.13    2.20
   0   3 -13    5.47    1.60
   0   3  13    8.33    2.03
   0   3 -13    9.11    1.94
  -1  -3 -13    5.25    1.46
   1  -3  13    5.54    2.14
  -1  -3 -13    3.37    1.37
  -1   3 -13    2.16    1.15
  -1   3 -13    2.36    1.14
  -2  -3 -13    5.99    1.69
  -2  -3 -13    6.84    1.74
   2  -3  13    5.21    1.72
   2  -3  13    3.52    2.05
   2   3  13   11.04    2.76
  -2   3 -13    6.98    1.79
  -2   3 -13    4.35    1.35
   3  -3  13   14.32    3.54
  -3  -3 -13   17.04    2.90
  -3  -3 -13   18.40    2.99
  -3   3 -13   11.40    2.32
   3   3  13   15.81    3.27
  -3   3 -13   11.12    2.42
  -7  -4  13   15.09    3.07
   7  -4 -13   12.54    1.34
  -7  -4  13   11.71    2.87
   7  -4 -13   14.00    1.30
  -6  -4  13   28.46    3.98
  -6  -4  13   31.76    4.02
   6  -4 -13   29.45    2.79
   6  -4 -13   36.09    3.45
   6   4 -13   22.39    3.65
  -5  -4  13    0.53    1.77
  -5  -4  13    1.01    1.43
   5  -4 -13    1.38    0.50
   5  -4 -13    1.60    0.74
   5   4 -13    2.11    1.29
   5   4 -13    1.46    0.69
   4  -4 -13   18.61    2.08
   4  -4 -13   13.79    1.89
  -4  -4  13   15.25    3.41
   4   4 -13   13.60    2.70
   4   4 -13   12.43    2.90
  -4   4  13   16.52    1.86
   4   4 -13    9.79    2.28
  -3  -4  13   43.22    5.85
   3  -4 -13   66.73    5.19
   3  -4 -13   57.58    5.05
   3   4 -13   41.19    4.50
   3   4 -13   40.16    4.48
   3   4 -13   37.19    5.01
   2  -4 -13    3.00    1.05
   2  -4 -13    1.23    0.74
  -2  -4  13    1.05    1.22
   2   4 -13    0.53    0.64
   2   4 -13   -0.44    0.60
  -2   4  13    1.15    0.74
   2   4 -13    1.31    1.39
   1  -4 -13   25.02    3.00
  -1  -4  13   19.08    3.54
   1  -4 -13   31.13    3.21
  -1   4  13   22.48    3.56
   1   4 -13   16.66    3.00
   1   4 -13   14.45    2.91
   1   4 -13   11.95    2.70
   0  -4  13    1.56    1.32
   0  -4 -13    0.14    0.74
   0  -4 -13   -0.87    0.70
   0   4 -13    0.98    1.03
   0   4 -13    2.06    0.93
   0   4 -13    0.14    0.72
  -1  -4 -13   35.40    3.92
  -1  -4 -13   35.94    3.94
   1  -4  13   30.94    4.63
  -1   4 -13   23.69    3.07
  -1   4 -13   16.22    2.99
  -2  -4 -13   11.08    2.27
   2  -4  13    7.26    2.62
  -2  -4 -13   15.05    2.53
  -2   4 -13    9.84    2.39
  -2   4 -13    8.00    1.84
   2   4  13   11.93    3.02
 -10   0  14    0.18    0.33
 -10   0  14    0.41    0.25
  -9   0  14    1.04    0.56
  -9   0  14   -0.64    0.43
  -9   0  14    0.22    0.67
   8   0 -14   33.84    3.49
   8   0 -14   30.87    3.45
  -8   0  14   37.98    3.42
  -8   0  14   40.85    3.27
   7   0 -14    1.59    0.67
  -7   0  14    0.61    0.46
  -7   0  14    0.06    0.59
  -7   0  14   -0.42    0.60
   7   0 -14   -0.24    0.56
  -6   0  14    0.86    0.58
   6   0 -14    0.14    0.59
   6   0 -14   -0.01    0.42
  -6   0  14    0.95    0.60
   5   0 -14    5.54    1.24
   5   0 -14    3.13    1.44
   5   0 -14    3.79    1.00
  -5   0  14    4.52    1.01
  -5   0  14    5.18    1.10
  -4   0  14   16.78    2.12
   4   0 -14   16.37    2.13
  -4   0  14   14.93    2.16
   3   0 -14    1.79    0.92
  -3   0  14    0.71    0.87
  -3   0  14    2.09    0.88
   3   0 -14    2.27    0.97
   2   0 -14    0.29    0.58
  -2   0  14   -0.46    0.51
  -2   0  14    0.29    0.85
   1   0 -14    6.15    1.53
   1   0 -14    5.46    1.44
   1   0 -14    5.69    1.76
  -1   0  14    4.50    1.60
  -1   0  14    2.78    1.28
   0   0 -14   -0.11    0.57
   0   0  14    0.63    1.04
   0   0  14    0.02    0.73
   0   0 -14    0.42    1.00
   0   0 -14    0.38    0.67
  -1   0 -14  103.38    9.11
   1   0  14  110.33    9.90
  -1   0 -14  114.49    9.25
  -2   0 -14    0.86    0.72
  -2   0 -14    0.24    0.54
   2   0  14    0.31    1.21
  -3   0 -14    6.40    1.76
  -3   0 -14    7.23    1.85
   3   0  14    7.80    2.49
   4   0  14    0.04    1.42
  -4   0 -14    1.24    1.01
  -4   0 -14   -0.44    1.03
 -10  -1  14   12.59    2.21
  10   1 -14    8.25    2.22
  -9  -1  14    2.00    1.00
  -9  -1  14    2.08    1.23
  -8  -1  14    7.63    1.52
   8  -1 -14    5.31    1.11
   8  -1 -14    4.89    1.05
  -8  -1  14    4.29    1.20
  -8  -1  14    9.96    1.57
   8   1 -14    3.66    1.11
   7  -1 -14    0.99    0.56
   7  -1 -14   -0.26    0.41
  -7   1  14    1.53    0.49
  -7   1  14   -0.33    0.52
   7   1 -14    0.48    0.59
   7   1 -14   -0.02    0.50
  -6  -1  14   39.46    3.41
  -6  -1  14   34.63    3.39
   6  -1 -14   28.12    3.04
   6  -1 -14   27.16    3.04
   6  -1 -14   34.42    4.21
  -6   1  14   29.44    2.76
   6   1 -14   30.74    3.30
   6   1 -14   28.87    3.26
  -6   1  14   31.20    2.72
   5  -1 -14   14.22    1.95
  -5  -1  14   13.04    2.33
  -5  -1  14   21.45    2.24
  -5  -1  14   20.45    2.25
   5  -1 -14   15.31    1.97
   5   1 -14   13.58    2.27
  -5   1  14   10.46    1.74
   5   1 -14   13.56    2.24
  -5   1  14   14.16    1.62
  -4  -1  14   88.23    6.92
   4  -1 -14   83.68    7.31
  -4  -1  14   87.34    6.95
   4  -1 -14   76.70    6.68
   4  -1 -14   71.94    6.64
   4   1 -14   61.20    6.31
  -4   1  14   63.84    5.42
  -4   1  14   63.96    5.37
   4   1 -14   68.13    6.02
  -3  -1  14    4.63    1.18
  -3  -1  14    3.12    1.26
   3  -1 -14    3.93    1.19
   3   1 -14    2.75    1.14
  -3   1  14    4.37    1.69
   3   1 -14    5.06    1.43
  -3   1  14    2.31    1.03
   2  -1 -14    2.54    1.07
  -2  -1  14    1.37    0.86
   2  -1 -14    1.04    0.94
  -2  -1  14    1.00    1.23
  -2   1  14    0.72    0.69
   2   1 -14    1.47    1.18
   2   1 -14    1.97    0.96
  -2   1  14    1.32    1.02
   2   1 -14    1.10    0.68
  -2   1  14    0.92    0.58
  -1  -1  14   22.25    2.73
   1  -1 -14   28.92    3.42
   1  -1 -14   23.04    3.75
  -1  -1  14   16.82    2.96
  -1  -1  14   23.60    2.77
   1  -1 -14   22.52    2.63
  -1   1  14   17.17    2.35
  -1   1  14   20.62    3.61
   1   1 -14   20.95    2.66
   1   1 -14   19.32    2.59
   1   1 -14   19.91    3.06
  -1   1  14   21.37    2.93
   0  -1  14  132.38   10.83
   0  -1 -14  141.09   10.82
   0  -1 -14  137.56   14.39
   0  -1 -14  134.68   10.90
   0  -1  14  121.96   11.35
   0   1 -14  127.83    9.96
   0   1  14  106.68    9.60
   0   1  14  133.86   10.42
   0   1 -14  117.46    9.85
   0   1 -14  117.99   11.00
   0   1  14  109.10    9.66
   1  -1  14   -0.01    0.99
  -1  -1 -14    0.85    0.66
   1  -1  14    1.39    1.21
  -1   1 -14    1.02    0.72
  -1   1 -14    1.24    0.99
   1   1  14    1.61    1.38
   2  -1  14    3.15    1.57
  -2  -1 -14    1.43    1.10
  -2  -1 -14    4.73    1.67
   2   1  14    0.55    1.38
  -2   1 -14    2.87    1.16
  -2   1 -14    5.22    1.39
   3  -1  14    2.81    1.62
  -3  -1 -14    3.81    1.44
  -3  -1 -14    2.99    1.11
  -3   1 -14    0.92    0.78
  -3   1 -14    3.38    1.28
   3   1  14    1.95    1.73
   4  -1  14    0.12    1.29
  -4  -1 -14    2.13    1.31
  -4  -1 -14    1.20    1.03
   4   1  14    3.81    2.24
  -4   1 -14    5.05    1.53
  -9  -2  14   -1.80    0.81
   9  -2 -14   -1.10    0.71
  -9  -2  14    1.73    1.11
   9   2 -14    0.58    1.13
   8  -2 -14   40.98    3.67
   8  -2 -14   30.91    2.94
   8  -2 -14   28.75    2.86
  -8  -2  14   40.76    4.11
   8   2 -14   31.86    4.39
   7  -2 -14    0.53    0.51
   7  -2 -14    1.15    0.89
  -7  -2  14   -0.85    0.78
   7  -2 -14    0.94    0.50
  -7   2  14    0.62    0.16
   7   2 -14    0.67    0.69
   7   2 -14    0.26    0.57
   6  -2 -14   71.62    5.70
   6  -2 -14   66.86    5.64
   6   2 -14   63.01    5.86
  -6   2  14   61.76    4.90
   6   2 -14   60.84    5.78
   5  -2 -14   29.72    2.83
   5  -2 -14   29.97    2.81
  -5  -2  14   21.52    3.40
  -5   2  14   26.42    2.52
   5   2 -14   30.34    4.26
   5   2 -14   25.17    3.14
  -5   2  14   26.58    2.57
   5   2 -14   25.12    3.19
  -4  -2  14    7.91    1.74
   4  -2 -14    5.86    1.77
   4  -2 -14    5.77    1.16
  -4  -2  14    3.98    1.46
  -4   2  14    6.14    1.27
   4   2 -14    7.83    1.69
  -4   2  14    6.74    1.25
   4   2 -14    5.60    1.53
   3  -2 -14   22.21    2.41
  -3  -2  14   18.23    2.95
  -3  -2  14   16.35    2.92
  -3  -2  14   21.26    2.60
   3  -2 -14   19.64    2.32
  -3   2  14   16.08    1.92
   3   2 -14   14.61    2.55
  -3   2  14   15.22    1.92
   3   2 -14   15.83    2.66
   3   2 -14   18.77    2.98
  -2  -2  14    2.25    1.17
   2  -2 -14    4.94    1.29
   2  -2 -14    3.34    1.09
   2   2 -14    4.11    1.26
   2   2 -14    5.15    1.45
  -2   2  14    6.23    1.22
   2   2 -14    4.38    1.61
  -2   2  14    3.14    1.17
   1  -2 -14   20.62    2.38
  -1  -2  14   13.25    2.98
   1  -2 -14   17.33    2.25
   1   2 -14   14.64    2.64
   1   2 -14   14.56    2.61
  -1   2  14   12.33    2.26
  -1   2  14   17.79    2.51
   0  -2 -14   19.84    2.55
   0  -2  14   15.61    3.32
   0  -2 -14   23.71    2.70
   0   2 -14   18.61    3.05
   0   2  14   21.49    3.01
   0   2 -14   18.91    2.62
  -1  -2 -14   10.33    2.14
  -1  -2 -14   12.67    2.23
   1  -2  14    7.73    2.39
   1   2  14   10.69    2.69
  -1   2 -14    9.27    2.08
  -1   2 -14    6.68    1.84
   2  -2  14    7.77    2.13
  -2  -2 -14    4.20    1.35
   2  -2  14    4.16    1.69
  -2  -2 -14    2.69    1.15
  -2   2 -14    1.34    0.91
   2   2  14    1.74    1.56
  -2   2 -14    3.85    1.55
   3  -2  14   22.08    3.86
  -3  -2 -14   26.97    3.22
  -3  -2 -14   23.85    3.20
  -3   2 -14   16.50    2.98
  -3   2 -14   19.11    3.23
   3   2  14   23.20    3.92
  -8  -3  14    2.17    1.39
  -8  -3  14    2.04    1.26
   8  -3 -14    1.79    0.45
   8  -3 -14    2.62    0.93
   8   3 -14    4.77    1.67
  -7  -3  14    5.44    1.72
  -7  -3  14    3.89    1.35
   7  -3 -14    3.63    0.73
   7  -3 -14    3.18    0.79
   7   3 -14    3.29    1.21
   7   3 -14    4.63    1.42
   6  -3 -14   21.42    2.20
  -6  -3  14   20.56    3.45
   6  -3 -14   20.99    2.40
   6   3 -14   25.07    3.83
   6   3 -14   19.09    3.22
  -6   3  14   20.70    1.78
   6   3 -14   15.28    2.89
  -5  -3  14    6.84    2.03
   5  -3 -14    7.57    1.32
   5  -3 -14    8.73    1.42
  -5   3  14    6.51    1.10
   5   3 -14    5.99    1.76
   4  -3 -14   35.26    3.23
   4  -3 -14   32.43    3.19
  -4  -3  14   26.78    4.10
   4   3 -14   24.71    3.20
   4   3 -14   22.95    3.04
  -4   3  14   22.32    2.47
  -3  -3  14    6.63    2.15
   3  -3 -14    7.95    1.51
   3  -3 -14    8.51    1.56
   3   3 -14    6.05    1.68
  -3   3  14    4.75    1.10
   3   3 -14    3.16    1.41
  -2  -3  14    8.98    2.54
   2  -3 -14   12.15    2.11
   2  -3 -14   16.21    2.05
  -2   3  14    9.35    1.72
   2   3 -14    8.96    2.10
   2   3 -14    8.51    2.32
   1  -3 -14    9.14    1.71
   1  -3 -14   11.94    2.15
  -1  -3  14    5.90    2.16
  -1   3  14    7.69    1.80
   1   3 -14    8.71    2.07
   0  -3  14   15.27    3.49
   0  -3 -14   18.90    2.48
   0  -3 -14   14.06    2.50
   0   3 -14   14.59    2.82
   0   3  14   19.63    3.07
   0   3 -14   16.96    2.97
  -1  -3 -14    4.71    1.33
   1  -3  14    3.75    1.78
  -1  -3 -14    2.75    1.25
   1   3  14   -0.07    1.37
  -1   3 -14    0.05    1.20
  -1   3 -14    3.07    1.20
  -2  -3 -14    7.72    1.86
  -2  -3 -14    7.67    1.75
   2  -3  14    4.42    2.17
   2   3  14    5.82    2.22
  -2   3 -14    5.97    1.73
  -2   3 -14    2.15    1.32
   6  -4 -14    0.69    0.55
  -6  -4  14    1.21    1.54
  -6  -4  14    1.94    1.39
   6  -4 -14    1.05    0.58
   6   4 -14    3.04    1.04
   6   4 -14    3.41    1.27
   5  -4 -14    1.45    0.71
  -5  -4  14    0.53    1.61
  -5  -4  14    1.94    1.55
   5  -4 -14    3.83    0.72
  -5   4  14    0.73    0.90
   5   4 -14    1.28    0.84
   5   4 -14    2.44    1.33
   5   4 -14    1.61    0.96
   4  -4 -14    2.00    0.83
   4  -4 -14    2.73    0.92
  -4  -4  14    2.16    1.22
   4   4 -14    2.37    1.08
   4   4 -14    3.02    1.13
   4   4 -14    3.09    1.60
   3  -4 -14    3.00    0.97
   3  -4 -14    3.05    1.03
  -3  -4  14    5.95    1.83
   3   4 -14    1.19    0.86
   3   4 -14    1.86    1.40
   3   4 -14    2.99    1.06
   2  -4 -14    8.14    1.70
   2  -4 -14    9.80    1.79
  -2  -4  14    3.97    2.03
   2   4 -14    4.48    1.55
   2   4 -14    2.62    1.41
   2   4 -14    6.08    2.00
  -2   4  14    2.47    0.97
   1  -4 -14    4.13    1.12
   1  -4 -14    2.42    0.92
  -1  -4  14    2.55    1.44
   1   4 -14    2.45    1.22
   1   4 -14    0.33    0.74
   1   4 -14    1.65    1.16
  -1   4  14    3.69    1.68
   0  -4 -14   20.20    2.36
   0  -4 -14   14.85    2.53
   0  -4  14    9.35    2.73
   0   4  14    9.61    3.15
   0   4 -14   13.08    2.80
   0   4 -14    8.78    2.20
  -9   0  15    1.08    0.84
  -9   0  15   -0.88    0.57
   8   0 -15    2.10    0.84
   8   0 -15    2.35    0.94
  -8   0  15    4.93    1.11
  -8   0  15    4.32    0.99
  -8   0  15    5.29    1.15
   7   0 -15   12.20    2.05
   7   0 -15   11.39    1.97
  -7   0  15   12.98    1.69
   6   0 -15    2.14    0.92
   6   0 -15    2.00    0.91
  -6   0  15    3.38    0.90
   5   0 -15    1.10    0.65
  -5   0  15   -0.30    0.72
  -5   0  15    1.19    0.69
   5   0 -15    0.62    0.56
   4   0 -15   33.09    3.38
   4   0 -15   30.31    3.31
  -4   0  15   33.09    3.27
  -4   0  15   27.46    3.33
   3   0 -15    6.94    1.55
  -3   0  15    7.76    1.56
   3   0 -15    5.25    1.33
  -3   0  15    5.62    1.61
  -3   0  15    5.78    1.61
  -2   0  15   -0.16    0.82
   2   0 -15   -0.47    0.33
   2   0 -15   -0.22    0.41
  -2   0  15    1.15    0.73
  -1   0  15   18.19    2.87
  -1   0  15   18.18    2.39
   1   0 -15   20.08    2.50
   1   0 -15   14.07    2.44
   0   0 -15  203.93   16.23
   0   0  15  203.68   16.82
   0   0 -15  219.66   16.33
  -1   0 -15    3.71    1.27
  -1   0 -15    2.81    1.06
   1   0  15    1.95    1.54
  -2   0 -15   -0.92    0.49
  -2   0 -15   -1.16    0.68
   2   0  15    1.44    1.35
  -3   0 -15   -0.38    0.93
   3   0  15   -0.59    1.57
  -3   0 -15    0.89    1.01
  -9  -1  15    5.16    1.39
   8  -1 -15    2.68    0.90
   8  -1 -15    3.13    0.94
  -8  -1  15    1.66    1.06
   8   1 -15    3.48    1.13
   8   1 -15    2.71    1.03
  -8   1  15    2.77    0.57
  -8   1  15    3.30    0.71
   7  -1 -15   19.27    2.27
  -7  -1  15   24.57    4.44
   7   1 -15   19.52    2.64
  -7   1  15   24.72    2.14
   7   1 -15   17.39    2.88
   6  -1 -15   14.11    1.82
   6  -1 -15   11.81    1.68
   6   1 -15   13.93    2.36
   6   1 -15   12.14    2.17
  -6   1  15   14.59    1.94
  -5  -1  15    2.33    1.24
   5  -1 -15    1.97    0.73
   5  -1 -15    1.19    0.66
   5   1 -15    1.61    0.82
  -5   1  15    2.89    0.84
   5   1 -15    1.88    0.72
  -4  -1  15    9.47    2.09
   4  -1 -15   13.69    1.81
   4  -1 -15   10.95    1.92
   4   1 -15   15.13    2.45
  -4   1  15    7.28    1.85
  -4   1  15    9.74    1.61
   4   1 -15    8.75    1.90
   3  -1 -15    6.89    1.54
  -3  -1  15    5.40    1.87
   3  -1 -15   10.43    1.81
   3   1 -15    7.60    1.80
   3   1 -15    5.06    1.43
  -3   1  15    6.77    1.57
  -3   1  15    5.11    1.23
   2  -1 -15    1.70    0.88
  -2  -1  15    0.46    0.88
  -2  -1  15    1.80    0.99
   2  -1 -15    1.63    0.80
   2   1 -15    2.90    1.11
  -2   1  15    1.61    1.09
   2   1 -15    3.88    1.24
  -2   1  15    1.08    1.11
   1  -1 -15   30.56    3.44
  -1  -1  15   28.39    4.02
   1  -1 -15   35.11    3.58
  -1   1  15   28.02    3.63
   1   1 -15   24.00    4.16
   1   1 -15   31.08    3.44
   0  -1  15   48.52    5.86
   0  -1 -15   59.76    5.45
   0  -1 -15   61.41    5.52
   0   1 -15   49.70    5.12
   0   1  15   51.84    5.54
  -1  -1 -15   48.42    4.54
  -1  -1 -15   36.73    4.24
   1  -1  15   36.83    4.95
  -1   1 -15   30.80    3.82
  -1   1 -15   33.03    4.29
   1   1  15   39.11    4.63
  -2  -1 -15    2.59    1.24
  -2  -1 -15    2.90    1.08
   2  -1  15    2.43    1.48
   2   1  15    4.03    2.12
  -2   1 -15    5.32    1.61
  -3  -1 -15    1.42    0.88
  -3  -1 -15   -0.09    0.88
   3  -1  15    4.49    1.89
  -3   1 -15    4.85    1.37
  -3   1 -15    3.77    1.79
   3   1  15    0.34    1.47
  -8  -2  15   10.04    2.17
   8  -2 -15    5.15    1.02
   8   2 -15    9.94    2.66
   8   2 -15    7.56    1.74
   7  -2 -15   20.55    2.24
   7  -2 -15   19.64    2.13
  -7  -2  15   21.81    2.95
   7   2 -15   16.46    2.88
  -7   2  15   18.71    1.65
  -7   2  15   21.15    1.76
   7   2 -15   23.25    2.72
   6  -2 -15   24.48    2.56
   6  -2 -15   23.64    2.51
   6   2 -15   20.36    2.81
  -6   2  15   23.04    2.15
   6   2 -15   19.10    2.77
   5  -2 -15    5.20    1.34
  -5  -2  15    6.12    2.02
   5  -2 -15    9.37    1.55
  -5   2  15    7.89    1.30
   5   2 -15    7.50    1.88
   5   2 -15    6.61    1.68
   4  -2 -15    1.67    0.70
  -4  -2  15    0.66    1.12
   4  -2 -15    1.43    0.72
  -4   2  15    2.00    0.71
   4   2 -15   -0.05    0.51
   4   2 -15    0.63    0.82
   3  -2 -15    0.62    0.67
   3  -2 -15    0.77    0.53
  -3   2  15   -0.03    0.64
   3   2 -15   -0.33    0.63
   3   2 -15   -0.48    0.65
  -2  -2  15    7.63    2.27
   2  -2 -15    8.17    1.77
   2  -2 -15    9.30    1.81
   2   2 -15    4.54    1.46
  -2   2  15    5.42    1.44
   2   2 -15    5.80    1.58
   1  -2 -15   10.50    2.04
   1  -2 -15    9.19    1.84
  -1  -2  15    6.79    2.30
   1   2 -15    4.94    1.73
  -1   2  15    6.61    1.89
   1   2 -15    7.33    1.88
   0  -2  15   12.38    3.01
   0  -2 -15   12.75    2.32
   0  -2 -15   18.57    2.45
   0   2 -15   14.29    2.53
   0   2  15    9.97    2.43
  -1  -2 -15    1.35    0.87
   1  -2  15    1.31    1.22
  -1  -2 -15    0.67    0.65
   1   2  15   -0.89    1.19
  -1   2 -15   -0.67    0.98
  -1   2 -15    0.58    0.74
   2  -2  15    2.19    1.58
  -2  -2 -15    0.20    0.93
  -2  -2 -15    1.35    0.71
  -2   2 -15    0.82    1.19
   2   2  15   -0.84    1.54
  -2   2 -15    2.16    1.05
   7  -3 -15   27.45    2.51
   7  -3 -15   22.33    2.45
  -7  -3  15   25.68    3.58
  -7  -3  15   35.86    3.92
   7   3 -15   24.76    3.38
   7   3 -15   29.93    4.42
   6  -3 -15    3.27    0.96
   6  -3 -15    3.93    0.95
   6   3 -15    4.67    1.72
   6   3 -15    3.08    1.18
   6   3 -15    4.15    1.32
  -6   3  15    3.23    0.74
  -5  -3  15    5.57    1.96
   5  -3 -15    6.76    1.24
   5  -3 -15    5.77    1.19
   5   3 -15    3.75    1.23
   5   3 -15    7.63    1.95
  -5   3  15    5.76    1.00
   4  -3 -15    4.14    0.99
  -4  -3  15    3.94    1.57
   4  -3 -15    3.23    1.06
   4   3 -15    2.09    1.00
   4   3 -15    1.42    0.91
   3  -3 -15    3.49    1.10
  -3  -3  15    6.96    2.13
   3  -3 -15    4.70    1.22
   3   3 -15    2.64    1.27
   3   3 -15    4.96    1.57
   2  -3 -15    3.33    1.05
  -2  -3  15    0.29    1.14
   2  -3 -15    2.50    1.01
   2   3 -15    3.13    1.33
  -2   3  15    0.67    1.01
   2   3 -15    0.89    0.88
  -1  -3  15   43.70    5.82
   1  -3 -15   52.22    5.05
   1  -3 -15   57.88    5.14
   1   3 -15   37.32    4.41
   1   3 -15   43.06    4.60
   0  -3  15    8.99    2.38
   0  -3 -15   14.64    1.91
   0  -3 -15    9.34    1.88
   0   3 -15    6.42    1.84
   0   3 -15    7.58    1.95
   0   3  15   10.25    2.44
  -1  -3 -15   22.08    3.03
  -1  -3 -15   25.74    3.24
  -1   3 -15   11.35    2.54
  -1   3 -15   14.75    4.17
   1   3  15   16.28    3.10
   4  -4 -15   23.86    2.71
   4  -4 -15   23.46    2.62
  -4  -4  15   20.86    4.27
   4   4 -15   15.15    3.02
   4   4 -15   13.11    3.32
   4   4 -15   17.61    3.18
   3  -4 -15   11.05    2.03
  -3  -4  15   10.67    2.86
   3  -4 -15   13.28    2.13
   3   4 -15   10.92    2.93
   3   4 -15    8.97    2.05
   3   4 -15    6.81    1.92
   2  -4 -15    6.81    1.62
  -2  -4  15    5.84    2.06
   2  -4 -15    4.98    1.48
   2   4 -15    3.73    1.37
   2   4 -15    4.50    1.71
   2   4 -15    0.78    1.43
  -8   0  16    8.57    1.61
   8   0 -16    9.24    1.74
   8   0 -16    6.36    1.44
  -8   0  16    9.45    1.66
   7   0 -16    1.55    0.75
   7   0 -16    0.72    0.64
   6   0 -16    1.93    0.95
   6   0 -16    2.60    0.92
  -5   0  16   -0.30    0.88
   5   0 -16    0.87    0.71
   5   0 -16    0.78    0.76
   4   0 -16    4.28    1.39
  -4   0  16    2.93    1.19
   4   0 -16    3.28    1.15
  -3   0  16   -1.53    0.69
   3   0 -16    0.44    0.74
   3   0 -16    0.20    0.64
  -2   0  16    2.08    1.14
   2   0 -16    4.30    1.28
   2   0 -16    3.41    1.13
   1   0 -16   11.04    2.11
  -1   0  16    6.92    2.20
   1   0 -16    5.85    1.64
   0   0 -16   62.88    5.99
   0   0 -16   62.37    5.88
   0   0  16   59.69    6.46
   1   0  16   24.52    3.79
  -1   0 -16   26.89    3.21
  -1   0 -16   24.84    3.32
  -2   0 -16   -0.16    0.78
   2   0  16   -1.06    0.96
  -2   0 -16    0.15    0.71
   8  -1 -16   30.83    3.10
   8  -1 -16   29.56    3.05
   8   1 -16   31.52    3.50
  -8   1  16   33.11    2.81
   8   1 -16   29.41    3.41
   7  -1 -16   18.04    2.20
   7  -1 -16   18.53    2.26
   7   1 -16   19.06    2.55
   7   1 -16   20.09    2.63
   6  -1 -16   10.00    1.80
   6  -1 -16   10.98    1.85
  -6   1  16   13.71    1.68
   6   1 -16   10.63    2.18
   6   1 -16    9.49    2.13
   5  -1 -16   -0.35    0.51
  -5  -1  16   -1.27    1.09
   5  -1 -16    0.04    0.44
   5   1 -16   -0.15    0.57
   5   1 -16   -1.30    0.52
   4  -1 -16    2.93    1.13
   4  -1 -16    3.54    1.11
  -4  -1  16    2.72    1.26
  -4   1  16    2.41    0.99
   4   1 -16    5.91    1.53
   4   1 -16    3.99    1.31
   3  -1 -16    5.55    1.38
   3  -1 -16    6.13    1.33
  -3  -1  16    3.92    1.66
   3   1 -16    6.65    1.59
  -3   1  16    2.83    1.23
   3   1 -16    5.55    1.54
   2  -1 -16   11.00    2.10
   2  -1 -16    9.74    1.95
  -2  -1  16    7.38    2.23
   2   1 -16   10.21    2.14
   2   1 -16    9.02    1.96
  -2   1  16    5.94    1.77
   1  -1 -16   29.40    3.43
  -1  -1  16   26.72    3.97
   1  -1 -16   36.74    3.69
   1   1 -16   28.28    3.38
   1   1 -16   22.16    3.10
   0  -1 -16   18.90    2.68
   0  -1  16   22.18    3.53
   0  -1 -16   20.66    2.80
   0   1 -16   22.27    2.89
   0   1 -16   16.72    3.06
   0   1  16   20.55    3.28
   1  -1  16    0.79    1.16
  -1  -1 -16   -1.34    0.68
  -1  -1 -16   -0.13    0.83
  -1   1 -16   -0.98    0.67
  -1   1 -16    1.01    0.91
   1   1  16   -1.80    1.14
   2  -1  16    9.18    2.89
  -2  -1 -16   10.30    2.18
  -2  -1 -16   10.36    2.36
  -2   1 -16   12.35    2.24
  -2   1 -16   11.87    2.37
   2   1  16    9.06    2.71
   7  -2 -16   18.99    2.28
   7  -2 -16   22.43    2.33
   7   2 -16   22.57    3.03
   7   2 -16   22.08    2.95
  -7   2  16   25.74    2.20
   6  -2 -16   19.48    2.29
  -6  -2  16   19.11    3.08
   6  -2 -16   18.55    2.21
   6   2 -16   13.43    2.56
  -6   2  16   18.16    1.86
   6   2 -16   13.02    2.51
   5  -2 -16   14.16    1.87
   5  -2 -16   10.00    1.74
   5   2 -16    8.96    1.97
   5   2 -16    8.93    1.97
   4  -2 -16    0.63    0.65
  -4  -2  16   -0.68    1.04
   4  -2 -16    0.38    0.54
   4   2 -16    0.69    0.95
   4   2 -16   -0.87    0.88
   3  -2 -16    0.17    0.56
   3  -2 -16    2.07    0.88
  -3  -2  16   -1.54    0.73
   3   2 -16    0.29    0.78
  -3   2  16   -0.27    0.75
   3   2 -16    0.39    0.81
   2  -2 -16    4.29    1.18
   2  -2 -16    4.08    1.21
  -2  -2  16    2.70    1.47
   2   2 -16    3.99    1.36
   2   2 -16    2.14    0.99
  -2   2  16    1.63    1.17
  -1  -2  16   15.10    3.45
   1  -2 -16   24.42    2.85
   1  -2 -16   20.96    2.75
   1   2 -16   17.99    3.04
   1   2 -16   17.18    2.91
  -1   2  16   16.07    2.82
   0  -2  16    7.55    2.21
   0  -2 -16    7.49    1.68
   0  -2 -16    8.15    1.83
   0   2 -16    8.77    1.88
   0   2 -16    4.59    1.64
   0   2  16    5.32    1.80
  -1  -2 -16   -0.24    0.87
  -1  -2 -16    2.07    1.12
   1  -2  16   -0.44    1.48
   1   2  16    0.42    1.40
  -1   2 -16    2.86    1.52
  -1   2 -16    1.59    0.92
   6  -3 -16    2.57    0.90
  -6  -3  16    1.93    1.74
   6  -3 -16    2.90    0.83
   6   3 -16    2.76    1.43
   6   3 -16    2.90    1.35
   6   3 -16    3.14    1.65
  -6   3  16    3.82    0.87
   5  -3 -16    1.07    0.79
  -5  -3  16    0.73    1.45
   5  -3 -16    0.17    0.70
   5   3 -16    2.78    1.20
   4  -3 -16    2.68    1.04
  -4  -3  16    4.69    1.80
   4  -3 -16    7.54    1.50
   4   3 -16    5.69    1.76
   4   3 -16    3.52    1.33
   3  -3 -16    1.11    0.72
  -3  -3  16    0.14    1.13
   3  -3 -16    0.24    0.74
   3   3 -16    0.01    0.87
   3   3 -16    0.26    0.75
   2  -3 -16   19.94    2.48
  -2  -3  16   13.54    3.05
   2  -3 -16   13.77    2.42
  -2   3  16    9.82    2.08
   2   3 -16    9.95    2.22
   2   3 -16   11.47    2.47
  -1  -3  16   16.07    3.62
   1  -3 -16   23.62    2.93
   1  -3 -16   20.39    2.73
  -1   3  16   17.24    2.90
   1   3 -16   16.39    3.13
   1   3 -16   11.84    2.60
   7   0 -17   57.78    5.46
   7   0 -17   59.62    5.46
   6   0 -17   10.50    1.91
   6   0 -17    9.95    1.87
  -5   0  17   -0.17    1.00
   5   0 -17   -0.08    0.59
   5   0 -17    0.27    0.59
   4   0 -17    0.68    0.68
   4   0 -17   -0.09    0.56
  -4   0  17   -0.97    0.80
   3   0 -17    4.72    1.32
   3   0 -17    4.60    1.39
  -3   0  17    1.71    1.38
   2   0 -17    4.59    1.35
  -2   0  17    3.24    1.61
   2   0 -17    4.95    1.56
   1   0 -17   11.95    2.45
   1   0 -17   11.63    2.24
  -1   0  17   10.89    2.60
   0   0  17   28.41    4.05
   0   0 -17   28.91    3.43
   0   0 -17   27.90    3.53
   1   0  17   -1.45    1.12
  -1   0 -17    1.53    0.91
  -1   0 -17   -1.01    0.56
   7  -1 -17   34.71    3.55
   7  -1 -17   33.87    3.51
   7   1 -17   37.66    4.26
   7   1 -17   45.25    4.52
   6  -1 -17    3.82    1.04
   6  -1 -17    2.06    0.91
   6   1 -17    2.23    0.91
   6   1 -17    0.59    0.99
  -5  -1  17    5.65    1.68
   5  -1 -17    9.52    1.74
   5  -1 -17    8.13    1.64
   5   1 -17    8.54    1.76
   5   1 -17    4.90    1.55
   4  -1 -17    0.97    0.64
  -4  -1  17   -0.39    1.01
   4  -1 -17    0.88    0.52
   4   1 -17    0.13    0.58
  -4   1  17   -0.31    0.86
   4   1 -17    0.81    0.73
   3  -1 -17    8.28    1.81
   3  -1 -17    7.92    1.74
   3   1 -17    5.09    1.51
   3   1 -17    7.20    1.76
   2  -1 -17    6.61    1.57
  -2  -1  17    3.93    1.67
   2  -1 -17    4.47    1.28
   2   1 -17    4.22    1.40
   2   1 -17    2.49    1.28
  -2   1  17    2.22    1.52
   1  -1 -17   26.12    3.20
  -1  -1  17   19.08    3.51
   1  -1 -17   34.00    3.45
  -1   1  17   23.59    3.59
   1   1 -17   25.46    3.22
   1   1 -17   29.08    3.43
   0  -1  17   31.02    4.67
   0  -1 -17   38.03    4.07
   0  -1 -17   30.16    3.75
   0   1 -17   32.28    3.78
   0   1 -17   26.66    3.51
   0   1  17   27.30    4.04
   6  -2 -17    5.50    1.27
   6  -2 -17    5.85    1.32
  -6  -2  17    6.46    2.44
   6   2 -17    6.70    1.74
   6   2 -17    5.90    1.65
   5  -2 -17    5.38    1.25
   5  -2 -17    4.36    1.15
  -5  -2  17    0.88    1.59
   5   2 -17    3.04    1.27
   5   2 -17    5.46    1.48
   4  -2 -17    1.64    0.77
   4  -2 -17    1.42    0.71
  -4  -2  17    2.05    1.13
   4   2 -17    2.43    1.02
   4   2 -17    1.01    1.08
  -3  -2  17    1.48    1.41
   3  -2 -17    3.85    1.29
   3  -2 -17    3.74    0.94
   3   2 -17    4.10    1.36
  -3   2  17    1.78    1.08
   3   2 -17    3.64    1.18
   2  -2 -17    2.01    1.13
   2  -2 -17    2.14    0.91
  -2  -2  17    0.55    1.10
  -2   2  17   -0.47    1.11
   2   2 -17    1.80    1.20
   2   2 -17    3.14    1.38
   1  -2 -17   19.50    2.79
   1  -2 -17   22.16    3.00
  -1  -2  17   25.67    4.03
  -1   2  17   17.84    3.33
   1   2 -17   16.37    2.93
   1   2 -17   15.30    2.93
   6   0 -18    2.63    1.03
   6   0 -18    4.15    1.19
   5   0 -18   -0.03    0.79
   5   0 -18    0.42    0.59
  -5   0  18    0.82    1.24
  -4   0  18   -0.68    1.05
   4   0 -18    0.17    0.78
   4   0 -18    0.32    0.93
   3   0 -18    1.17    0.91
  -3   0  18   -1.31    1.13
   3   0 -18   -0.77    0.59
   2   0 -18    9.36    2.13
   2   0 -18   10.63    2.09
  -2   0  18    8.54    2.59
   5  -1 -18    6.81    1.58
   5  -1 -18    9.12    1.58
  -5  -1  18    4.33    2.03
   5   1 -18    6.93    1.79
   5   1 -18    6.66    1.43
  -4  -1  18   -0.43    1.26
   4  -1 -18   -1.64    0.60
   4  -1 -18   -1.46    0.56
   4   1 -18   -1.02    0.61
  -4   1  18    0.68    0.99
  -3  -1  18    1.48    1.52
   3  -1 -18    0.97    0.76
   3  -1 -18    2.75    1.18
   3   1 -18    1.49    0.94
   3   1 -18    2.44    1.17
  -3   1  18    0.51    1.23
   2  -1 -18    4.49    1.46
   2  -1 -18    8.33    1.83
  -2  -1  18    7.06    2.10
  -2   1  18    4.29    1.83
   2   1 -18    6.92    1.82
   2   1 -18    3.08    1.51
   0   0   0    0.00    0.00
;
_shelx_hkl_checksum              80576
loop_
_space_group_symop_operation_xyz
'x, y, z'
'-x, y+1/2, -z'
loop_
_atom_site_type_symbol
_atom_site_label
_atom_site_fract_x
_atom_site_fract_y
_atom_site_fract_z
_atom_site_U_iso_or_equiv
_atom_site_adp_type
_atom_site_calc_flag
_atom_site_refinement_flags_adp
_atom_site_refinement_flags_posn
_atom_site_occupancy
C C1 1.1056(3) 0.5407(5) 0.39665(18) 0.0139(5) Uani d . . 1
H H1 1.0813 0.6882 0.3487 0.017 Uiso calc U R 1
C C2 1.2713(3) 0.5630(6) 0.46386(19) 0.0171(5) Uani d . . 1
H H2A 1.2953 0.4219 0.5137 0.021 Uiso calc U R 1
H H2B 1.2854 0.7249 0.5022 0.021 Uiso calc U R 1
C C3 1.3802(3) 0.5543(6) 0.39943(19) 0.0176(5) Uani d . . 1
H H3A 1.4871 0.5623 0.4445 0.021 Uiso calc U R 1
H H3B 1.3619 0.7035 0.3536 0.021 Uiso calc U R 1
C C4 1.3572(3) 0.3110(5) 0.33603(19) 0.0166(5) Uani d . . 1
H H4A 1.3874 0.1626 0.3819 0.02 Uiso calc U R 1
H H4B 1.4235 0.3152 0.2913 0.02 Uiso calc U R 1
C C5 1.1904(3) 0.2823(6) 0.27090(19) 0.0159(5) Uani d . . 1
H H5A 1.1777 0.1178 0.2345 0.019 Uiso calc U R 1
H H5B 1.1648 0.4192 0.2192 0.019 Uiso calc U R 1
C C6 1.0789(3) 0.2940(5) 0.33448(18) 0.0135(5) Uani d . . 1
H H6 1.1001 0.1469 0.3827 0.016 Uiso calc U R 1
C C7 0.9161(3) 0.2768(6) 0.26709(18) 0.0158(5) Uani d . . 1
H H7 0.8797 0.4079 0.2184 0.019 Uiso calc U R 1
C C8 0.8191(3) 0.0920(5) 0.27049(19) 0.0154(5) Uani d . . 1
H H8 0.8561 -0.0369 0.3201 0.018 Uiso calc U R 1
C C9 0.6593(3) 0.0673(5) 0.20466(18) 0.0146(5) Uani d . . 1
C C10 0.5909(3) 0.2452(5) 0.12851(18) 0.0144(5) Uani d . . 1
H H10 0.6483 0.3874 0.1184 0.017 Uiso calc U R 1
C C11 0.4412(3) 0.2161(5) 0.0681(2) 0.0157(5) Uani d . . 1
H H11 0.3968 0.3378 0.0167 0.019 Uiso calc U R 1
C C12 0.3555(3) 0.0107(5) 0.08200(18) 0.0150(5) Uani d . . 1
C C13 0.4195(3) -0.1679(5) 0.15715(19) 0.0154(5) Uani d . . 1
H H13 0.3609 -0.3086 0.1673 0.019 Uiso calc U R 1
C C14 0.5713(3) -0.1375(5) 0.21762(19) 0.0156(5) Uani d . . 1
H H14 0.6154 -0.2598 0.2688 0.019 Uiso calc U R 1
C C15 0.1227(3) -0.2228(6) 0.0206(2) 0.0213(6) Uani d . . 1
H H15A 0.1799 -0.3725 0.0107 0.032 Uiso calc U R 1
H H15B 0.0244 -0.2157 -0.0333 0.032 Uiso calc U R 1
H H15C 0.1046 -0.2338 0.087 0.032 Uiso calc U R 1
O O1 1.0026(2) 0.5426(4) 0.45664(13) 0.0178(4) Uani d . . 1
H H1A 0.9988 0.6896 0.4795 0.027 Uiso calc U R 1
O O2 0.20819(19) -0.0002(4) 0.01708(14) 0.0178(4) Uani d . . 1
loop_
_atom_site_aniso_label
_atom_site_aniso_U_11
_atom_site_aniso_U_22
_atom_site_aniso_U_33
_atom_site_aniso_U_12
_atom_site_aniso_U_13
_atom_site_aniso_U_23
C1 0.0135(11) 0.0151(11) 0.0136(10) 0.0000(10) 0.0047(8) 0.0010(10)
C2 0.0168(11) 0.0196(13) 0.0134(11) -0.0007(10) 0.0023(9) -0.0037(10)
C3 0.0140(11) 0.0207(13) 0.0167(11) -0.0034(10) 0.0024(9) -0.0031(11)
C4 0.0136(11) 0.0179(13) 0.0177(12) -0.0008(10) 0.0037(9) -0.0012(10)
C5 0.0154(11) 0.0181(12) 0.0134(11) -0.0006(10) 0.0030(9) -0.0030(10)
C6 0.0127(10) 0.0140(12) 0.0129(11) 0.0004(10) 0.0025(8) 0.0008(10)
C7 0.0158(11) 0.0178(12) 0.0118(11) 0.0012(11) 0.0011(9) 0.0000(10)
C8 0.0138(11) 0.0181(13) 0.0130(11) 0.0015(10) 0.0020(9) 0.0001(9)
C9 0.0138(11) 0.0162(13) 0.0132(11) 0.0008(10) 0.0033(9) -0.0022(10)
C10 0.0143(11) 0.0134(12) 0.0156(11) -0.0015(10) 0.0045(9) -0.0008(9)
C11 0.0167(12) 0.0143(12) 0.0161(11) 0.0019(10) 0.0049(10) 0.0004(9)
C12 0.0108(10) 0.0181(13) 0.0148(11) 0.0018(10) 0.0018(9) -0.0012(10)
C13 0.0148(11) 0.0152(13) 0.0163(11) -0.0030(10) 0.0046(9) -0.0010(9)
C14 0.0158(11) 0.0149(12) 0.0143(11) 0.0017(10) 0.0020(9) 0.0012(10)
C15 0.0135(11) 0.0209(13) 0.0256(13) -0.0027(11) 0.0003(10) 0.0005(11)
O1 0.0180(8) 0.0195(9) 0.0177(8) -0.0010(8) 0.0083(7) -0.0039(8)
O2 0.0115(8) 0.0197(10) 0.0189(9) -0.0007(7) -0.0005(7) 0.0013(8)
loop_
_atom_type_symbol
_atom_type_description
_atom_type_scat_dispersion_real
_atom_type_scat_dispersion_imag
_atom_type_scat_source
C C 0.0033 0.0016 'International Tables Vol C Tables 4.2.6.8 and 6.1.1.4'
H H 0.0000 0.0000 'International Tables Vol C Tables 4.2.6.8 and 6.1.1.4'
O O 0.0106 0.0060 'International Tables Vol C Tables 4.2.6.8 and 6.1.1.4'
loop_
_geom_angle_atom_site_label_1
_geom_angle_atom_site_label_2
_geom_angle_atom_site_label_3
_geom_angle
O1 C1 C2 111.12(18)
O1 C1 C6 107.9(2)
C2 C1 C6 111.4(2)
C1 C2 C3 110.68(18)
C2 C3 C4 110.9(2)
C3 C4 C5 111.0(2)
C4 C5 C6 112.52(19)
C7 C6 C1 110.8(2)
C7 C6 C5 110.80(19)
C1 C6 C5 109.3(2)
C8 C7 C6 125.0(2)
C7 C8 C9 126.4(2)
C14 C9 C10 117.9(2)
C14 C9 C8 119.8(2)
C10 C9 C8 122.4(2)
C11 C10 C9 120.9(2)
C10 C11 C12 120.4(2)
O2 C12 C11 115.4(2)
O2 C12 C13 124.4(2)
C11 C12 C13 120.2(2)
C12 C13 C14 119.0(2)
C9 C14 C13 121.7(2)
C12 O2 C15 117.1(2)
loop_
_geom_bond_atom_site_label_1
_geom_bond_atom_site_label_2
_geom_bond_distance
C1 O1 1.433(3)
C1 C2 1.526(3)
C1 C6 1.534(4)
C2 C3 1.527(3)
C3 C4 1.528(4)
C4 C5 1.529(3)
C5 C6 1.538(3)
C6 C7 1.504(3)
C7 C8 1.329(4)
C8 C9 1.477(3)
C9 C14 1.391(4)
C9 C10 1.404(3)
C10 C11 1.382(3)
C11 C12 1.384(4)
C12 O2 1.378(3)
C12 C13 1.390(4)
C13 C14 1.399(3)
C15 O2 1.420(3)
