#------------------------------------------------------------------------------
#$Date: 2019-11-10 07:20:49 +0200 (Sun, 10 Nov 2019) $
#$Revision: 225832 $
#$URL: file:///home/coder/svn-repositories/cod/cif/4/51/56/4515699.cif $
#------------------------------------------------------------------------------
#
# This file is available in the Crystallography Open Database (COD),
# http://www.crystallography.net/
#
# All data on this site have been placed in the public domain by the
# contributors.
#
data_4515699
loop_
_publ_author_name
'Tamang, Sem Raj'
'Singh, Arpita'
'Unruh, Daniel K.'
'Findlater, Michael'
_publ_section_title
;
 Nickel-Catalyzed Regioselective 1,4-Hydroboration of N-Heteroarenes
;
_journal_issue                   7
_journal_name_full               'ACS Catalysis'
_journal_page_first              6186
_journal_paper_doi               10.1021/acscatal.8b01166
_journal_volume                  8
_journal_year                    2018
_chemical_formula_moiety         'C24 H32 N2 Ni O4'
_chemical_formula_sum            'C24 H32 N2 Ni O4'
_chemical_formula_weight         471.22
_space_group_crystal_system      triclinic
_space_group_IT_number           2
_space_group_name_Hall           '-P 1'
_space_group_name_H-M_alt        'P -1'
_atom_sites_solution_hydrogens   geom
_audit_creation_method           SHELXL-2013
_cell_angle_alpha                108.250(3)
_cell_angle_beta                 93.812(3)
_cell_angle_gamma                94.208(3)
_cell_formula_units_Z            1
_cell_length_a                   7.960(2)
_cell_length_b                   8.085(2)
_cell_length_c                   9.656(2)
_cell_measurement_reflns_used    5386
_cell_measurement_temperature    100(2)
_cell_measurement_theta_max      27.15
_cell_measurement_theta_min      2.23
_cell_volume                     585.9(2)
_computing_cell_refinement       'Bruker SAINT'
_computing_data_collection       'Bruker APEX2'
_computing_data_reduction        'Bruker SAINT'
_computing_molecular_graphics    'Bruker SHELXTL'
_computing_publication_material  'Bruker SHELXTL'
_computing_structure_refinement  'SHELXL-2014 (Sheldrick 2014)'
_computing_structure_solution    'SHELXS-97 (Sheldrick 2008)'
_diffrn_ambient_temperature      100(2)
_diffrn_measured_fraction_theta_full 0.999
_diffrn_measured_fraction_theta_max 0.997
_diffrn_measurement_device_type  'Bruker APEX-II CCD'
_diffrn_measurement_method       '\f and \w scans'
_diffrn_radiation_type           MoK\a
_diffrn_radiation_wavelength     0.71073
_diffrn_reflns_av_R_equivalents  0.0231
_diffrn_reflns_av_unetI/netI     0.0213
_diffrn_reflns_Laue_measured_fraction_full 0.999
_diffrn_reflns_Laue_measured_fraction_max 0.997
_diffrn_reflns_limit_h_max       10
_diffrn_reflns_limit_h_min       -10
_diffrn_reflns_limit_k_max       10
_diffrn_reflns_limit_k_min       -10
_diffrn_reflns_limit_l_max       12
_diffrn_reflns_limit_l_min       -12
_diffrn_reflns_number            10024
_diffrn_reflns_point_group_measured_fraction_full 0.999
_diffrn_reflns_point_group_measured_fraction_max 0.997
_diffrn_reflns_theta_full        25.242
_diffrn_reflns_theta_max         27.259
_diffrn_reflns_theta_min         2.231
_exptl_absorpt_coefficient_mu    0.859
_exptl_absorpt_correction_T_max  0.906
_exptl_absorpt_correction_T_min  0.870
_exptl_absorpt_correction_type   multi-scan
_exptl_absorpt_process_details   SADABS
_exptl_crystal_colour            Purple
_exptl_crystal_density_diffrn    1.336
_exptl_crystal_description       Block
_exptl_crystal_F_000             250
_exptl_crystal_size_max          0.190
_exptl_crystal_size_mid          0.135
_exptl_crystal_size_min          0.115
_refine_diff_density_max         0.459
_refine_diff_density_min         -0.384
_refine_diff_density_rms         0.060
_refine_ls_extinction_method     none
_refine_ls_goodness_of_fit_ref   1.058
_refine_ls_hydrogen_treatment    constr
_refine_ls_matrix_type           full
_refine_ls_number_parameters     146
_refine_ls_number_reflns         2623
_refine_ls_number_restraints     0
_refine_ls_restrained_S_all      1.058
_refine_ls_R_factor_all          0.0334
_refine_ls_R_factor_gt           0.0307
_refine_ls_shift/su_max          0.000
_refine_ls_shift/su_mean         0.000
_refine_ls_structure_factor_coef Fsqd
_refine_ls_weighting_details
'w=1/[\s^2^(Fo^2^)+(0.0432P)^2^+0.3631P] where P=(Fo^2^+2Fc^2^)/3'
_refine_ls_weighting_scheme      calc
_refine_ls_wR_factor_gt          0.0808
_refine_ls_wR_factor_ref         0.0826
_reflns_Friedel_coverage         0.000
_reflns_number_gt                2446
_reflns_number_total             2623
_reflns_threshold_expression     'I > 2\s(I)'
_cod_data_source_file            cs8b01166_si_001.cif
_cod_data_source_block           shelx
_cod_original_cell_volume        585.9(3)
_cod_database_code               4515699
_shelx_space_group_comment
;
The symmetry employed for this shelxl refinement is uniquely defined
by the following loop, which should always be used as a source of
symmetry information in preference to the above space-group names.
They are only intended as comments.
;
_shelx_estimated_absorpt_t_min   0.854
_shelx_estimated_absorpt_t_max   0.908
_shelxl_version_number           2013-4
_shelx_res_file
;
TITL fin18_07_a.res in P-1
CELL  0.71073   7.9596   8.0847   9.6560  108.250   93.812   94.208
ZERR     1.00   0.0020   0.0020   0.0024    0.003    0.003    0.003
LATT   1
SFAC  C    H    N    NI   O
UNIT  24 32 2 1 4
MERG   2
FMAP   2
PLAN   20
SIZE     0.115   0.135   0.190
ACTA
BOND   $H
LIST   4
L.S.  10
TEMP  -173.00
WGHT    0.043200    0.363100
FVAR       0.87609   0.45391
NI1   4    0.500000    0.500000    1.000000    10.50000    0.01781    0.01315 =
         0.02031    0.00423    0.00311    0.00537
O1    5    0.357875    0.289914    0.857959    11.00000    0.02144    0.01637 =
         0.02347    0.00476    0.00347    0.00518
O2    5    0.311950    0.656473    1.001791    11.00000    0.01954    0.01703 =
         0.02249    0.00452    0.00319    0.00626
N1    3    0.591491    0.569334    0.824041    11.00000    0.01855    0.01774 =
         0.02144    0.00589    0.00301    0.00475
C1    1    0.213428    0.296148    0.798607    11.00000    0.02252    0.01822 =
         0.01616    0.00534    0.00505    0.00252
C2    1    0.124778    0.443971    0.820069    11.00000    0.02212    0.02322 =
         0.02137    0.00538   -0.00046    0.00541
AFIX  43
H2    2    0.019390    0.429184    0.763191    11.00000   -1.20000
AFIX   0
C3    1    0.176969    0.612541    0.917969    11.00000    0.02207    0.02075 =
         0.01677    0.00816    0.00613    0.00731
C4    1    0.131025    0.123631    0.693632    11.00000    0.03062    0.02073 =
         0.02623    0.00314   -0.00030    0.00240
AFIX 137
H4A   2    0.025431    0.143061    0.645484    11.00000   -1.50000
H4B   2    0.106445    0.041985    0.747934    11.00000   -1.50000
H4C   2    0.207890    0.074243    0.619567    11.00000   -1.50000
AFIX   0
C5    1    0.062400    0.755394    0.923520    11.00000    0.02892    0.02516 =
         0.02523    0.00720    0.00175    0.01252
AFIX  33
H5A   2    0.113236    0.865353    0.995564    11.00000   -1.50000
H5B   2   -0.048077    0.722802    0.951818    11.00000   -1.50000
H5C   2    0.047857    0.770528    0.826771    11.00000   -1.50000
AFIX   0
C6    1    0.588295    0.732287    0.817517    11.00000    0.01886    0.01718 =
         0.02361    0.00458    0.00321    0.00588
AFIX  43
H6    2    0.546892    0.817863    0.896243    11.00000   -1.20000
AFIX   0
C7    1    0.642480    0.782222    0.701438    11.00000    0.01884    0.01763 =
         0.02519    0.00758    0.00128    0.00408
C8    1    0.704411    0.654705    0.588345    11.00000    0.01962    0.02053 =
         0.02152    0.00776    0.00254    0.00311
AFIX  43
H8    2    0.742248    0.683612    0.506757    11.00000   -1.20000
AFIX   0
C9    1    0.711370    0.485558    0.593745    11.00000    0.01836    0.01806 =
         0.02032    0.00321    0.00018    0.00388
C10   1    0.651835    0.449439    0.713932    11.00000    0.02074    0.01465 =
         0.02268    0.00517    0.00222    0.00409
AFIX  43
H10   2    0.653972    0.333863    0.718362    11.00000   -1.20000
AFIX   0
C11   1    0.631747    0.966282    0.698735    11.00000    0.03163    0.01807 =
         0.03217    0.00969    0.00815    0.00645
AFIX 137
H11A  2    0.586423    0.963232    0.600991    11.00000   -1.50000
H11B  2    0.744900    1.030138    0.722225    11.00000   -1.50000
H11C  2    0.556929    1.025329    0.771231    11.00000   -1.50000
AFIX   0
C12   1    0.779969    0.345631    0.473839    11.00000    0.03101    0.02001 =
         0.02274    0.00361    0.00618    0.00600
AFIX 137
H12A  2    0.743541    0.357123    0.378602    11.00000   -1.50000
H12B  2    0.737091    0.230045    0.476594    11.00000   -1.50000
H12C  2    0.903865    0.358764    0.488377    11.00000   -1.50000
AFIX   0
HKLF    4

REM  fin18_07_a.res in P-1
REM R1 =  0.0307 for    2446 Fo > 4sig(Fo)  and  0.0334 for all    2623 data
REM    146 parameters refined using      0 restraints

END

WGHT      0.0432      0.3631

REM Highest difference peak  0.459,  deepest hole -0.384,  1-sigma level  0.060
Q1    1   0.3911  0.4688  0.9337  11.00000  0.05    0.46
Q2    1   0.1248  0.8474  0.9011  11.00000  0.05    0.43
Q3    1  -0.0266  0.7218  0.8531  11.00000  0.05    0.41
Q4    1   0.5786  0.5474  0.8945  11.00000  0.05    0.40
Q5    1   0.0384  0.8033  1.0159  11.00000  0.05    0.37
Q6    1   0.1754  0.2268  0.7403  11.00000  0.05    0.34
Q7    1   0.7427  0.4178  0.5367  11.00000  0.05    0.30
Q8    1   0.1603  0.5274  0.8666  11.00000  0.05    0.28
Q9    1   0.5872  0.7453  0.7328  11.00000  0.05    0.28
Q10   1   0.6324  0.8637  0.6968  11.00000  0.05    0.28
Q11   1   0.6941  0.5587  0.5816  11.00000  0.05    0.26
Q12   1   0.7054  0.4803  0.6631  11.00000  0.05    0.26
Q13   1   0.6648  0.4636  0.6329  11.00000  0.05    0.24
Q14   1   0.6604  0.7753  0.7732  11.00000  0.05    0.24
Q15   1   0.1924  0.3824  0.8094  11.00000  0.05    0.24
Q16   1   0.3937  0.6245  0.9910  11.00000  0.05    0.24
Q17   1   0.6887  0.9837  0.6273  11.00000  0.05    0.24
Q18   1   0.6946  0.7311  0.6615  11.00000  0.05    0.23
Q19   1   0.3018  0.3018  0.8098  11.00000  0.05    0.23
Q20   1   0.6754  1.0396  0.7849  11.00000  0.05    0.23
;
_shelx_res_checksum              69055
_shelx_hkl_file
;
  -1   0   0 2042.20   28.70
  -1   0   0 2066.19   29.20
  -1   0   0 2084.49   29.20
   1   0   0 2064.49   29.20
   1   0   0 2025.30   28.80
   1   0   0 2052.69   29.20
  -2   0   0  207.68    4.40
  -2   0   0  213.38    4.40
  -2   0   0  202.98    3.60
   2   0   0  202.08    4.40
   2   0   0  204.18    3.90
   2   0   0  204.78    4.30
  -3   0   0   62.59    2.60
  -3   0   0   62.69    1.90
  -3   0   0   65.79    2.70
   3   0   0   64.39    2.60
   3   0   0   63.69    2.60
   3   0   0   62.49    2.10
  -4   0   0   66.19    3.00
  -4   0   0   62.79    2.10
  -4   0   0   59.59    3.00
   4   0   0   64.29    3.00
   4   0   0   60.49    2.90
   4   0   0   63.69    2.40
  -5   0   0  143.89    5.10
  -5   0   0  145.59    5.00
   5   0   0  142.29    4.90
   5   0   0  143.79    4.00
   5   0   0  144.59    5.10
  -6   0   0  240.08    7.40
  -6   0   0  247.18    7.30
   6   0   0  241.18    7.20
   6   0   0  246.28    7.40
  -7   0   0  146.49    6.10
  -7   0   0  154.88    6.40
   7   0   0  154.28    6.20
   7   0   0  139.99    6.00
  -8   0   0   59.99    4.80
  -8   0   0   54.89    4.60
   8   0   0   60.69    4.60
   8   0   0   50.89    4.30
  -9   0   0   39.10    5.10
   9   0   0   37.10    4.60
   9   0   0   33.40    4.40
  10   0   0   44.00    5.40
  10   0   0   56.29    5.90
  10  -1   0   70.09    5.80
  10  -1   0   67.09    6.50
   9  -1   0  119.49    6.70
   9  -1   0  102.79    6.10
  -9   1   0  114.99    6.60
   8  -1   0    9.90    2.60
   8  -1   0   12.30    2.90
  -8   1   0    7.30    2.70
  -8   1   0   11.80    3.00
   7  -1   0    4.10    1.80
   7  -1   0    4.70    1.90
  -7   1   0    1.70    1.80
  -7   1   0    4.80    1.90
   6  -1   0   97.39    4.60
   6  -1   0   98.39    4.00
   6  -1   0   97.09    4.50
  -6   1   0   95.99    4.50
  -6   1   0   99.59    4.80
   5  -1   0   69.29    3.50
   5  -1   0   67.69    3.10
   5  -1   0   71.39    3.40
  -5   1   0   72.39    3.40
  -5   1   0   62.29    3.50
   4  -1   0  670.63   12.70
   4  -1   0  664.13   12.10
   4  -1   0  671.33   12.30
  -4   1   0  670.43   12.20
  -4   1   0  667.73   12.60
   3  -1   0  718.73   12.20
   3  -1   0  715.83   12.60
   3  -1   0  711.03   12.20
  -3   1   0  726.83   12.10
  -3   1   0  705.03   12.50
   2  -1   0  595.84    9.70
   2  -1   0  597.44   10.10
   2  -1   0  587.94   10.10
  -2   1   0  586.04    9.70
  -2   1   0  599.34   10.10
   1  -1   0 2435.66   35.30
   1  -1   0 2544.55   36.20
   1  -1   0 2497.45   35.90
  -1   1   0 2518.95   36.10
  -1   1   0 2595.04   35.70
   0  -1   0 5537.75   78.29
   0  -1   0 5554.84   78.99
   0   1   0 5679.03   80.59
   0   1   0 5736.53   79.39
   0   1   0 5447.16   78.29
  -1  -1   0  216.78    4.20
  -1  -1   0  207.48    3.80
   1   1   0  209.18    3.70
   1   1   0  211.28    4.20
   1   1   0  212.78    4.00
  -2  -1   0  713.03   10.60
  -2  -1   0  685.43   11.50
   2   1   0  694.33   11.50
   2   1   0  685.93   11.00
   2   1   0  692.33   11.70
  -3  -1   0   33.80    2.20
  -3  -1   0   31.80    1.30
   3   1   0   32.80    2.10
   3   1   0   29.80    2.10
   3   1   0   28.70    1.80
  -4  -1   0   56.39    3.10
  -4  -1   0   60.29    3.10
   4   1   0   57.69    2.70
   4   1   0   60.29    3.10
  -5  -1   0  545.15   11.80
  -5  -1   0  512.65   11.50
   5   1   0  532.45   11.50
   5   1   0  532.25   10.90
  -6  -1   0  240.98    7.60
  -6  -1   0  249.78    7.70
   6   1   0  236.68    7.50
   6   1   0  241.48    7.10
  -7  -1   0  167.28    6.70
  -7  -1   0  150.28    6.50
   7   1   0  150.48    6.40
   7   1   0  159.28    6.20
  -8  -1   0   17.10    3.50
  -8  -1   0   14.20    3.20
   8   1   0   19.50    3.20
   8   1   0   15.30    3.20
  -9  -1   0    6.60    3.10
  -9  -1   0    6.10    2.90
   9   1   0    9.70    2.90
   9   1   0   11.20    3.20
  10   1   0  109.49    7.20
  10  -2   0   33.50    4.70
  10  -2   0   37.30    5.50
   9  -2   0   46.50    5.30
   9  -2   0   34.90    4.40
  -9   2   0   49.90    5.40
   8  -2   0   69.19    4.90
   8  -2   0   66.39    4.60
  -8   2   0   72.59    5.20
   7  -2   0   18.30    3.20
   7  -2   0   19.20    2.70
   7  -2   0   19.30    3.00
  -7   2   0   20.20    3.30
  -7   2   0   19.10    3.00
   6  -2   0  160.98    5.60
   6  -2   0  155.38    6.00
   6  -2   0  157.78    5.60
  -6   2   0  154.88    5.50
  -6   2   0  164.08    6.20
   5  -2   0  709.23   13.70
   5  -2   0  686.13   13.20
   5  -2   0  684.83   14.00
  -5   2   0  690.93   14.00
  -5   2   0  685.83   13.20
   4  -2   0  270.67    6.80
   4  -2   0  276.87    6.40
   4  -2   0  268.77    7.00
  -4   2   0  282.77    7.10
  -4   2   0  264.67    6.30
   3  -2   0 1177.58   18.50
   3  -2   0 1173.58   19.50
   3  -2   0 1177.58   19.40
  -3   2   0 1163.08   18.60
  -3   2   0 1215.98   19.60
   2  -2   0  767.42   13.10
   2  -2   0  804.92   13.60
   2  -2   0  785.32   12.20
  -2   2   0  791.72   13.50
  -2   2   0  779.72   12.70
   1  -2   0   40.50    1.70
   1  -2   0   36.70    2.00
  -1   2   0   39.40    1.70
  -1   2   0   37.20    1.90
   0  -2   0   35.30    1.40
   0  -2   0   37.40    1.80
   0  -2   0   38.60    1.80
   0   2   0   37.80    1.70
   0   2   0   36.60    1.80
   0   2   0   37.70    1.30
  -1  -2   0 1448.56   21.40
  -1  -2   0 1421.26   22.00
  -1  -2   0 1469.55   22.50
   1   2   0 1432.26   22.40
   1   2   0 1509.95   21.20
   1   2   0 1493.25   21.70
  -2  -2   0  195.48    4.40
  -2  -2   0  215.08    5.20
   2   2   0  204.78    4.80
   2   2   0  206.68    4.20
   2   2   0  197.08    5.10
  -3  -2   0  276.47    5.60
  -3  -2   0  282.07    6.80
   3   2   0  285.47    6.90
   3   2   0  280.87    6.60
   3   2   0  286.77    5.80
  -4  -2   0   99.69    2.90
  -4  -2   0  101.89    4.10
   4   2   0   98.59    4.10
   4   2   0  103.09    3.50
   4   2   0   97.69    4.00
  -5  -2   0   84.89    4.20
   5   2   0   93.09    4.40
   5   2   0   82.39    4.10
   5   2   0   85.19    3.60
  -6  -2   0  102.09    5.10
  -6  -2   0  115.79    5.50
   6   2   0  106.59    5.10
   6   2   0  113.39    4.60
  -7  -2   0   42.70    4.70
  -7  -2   0   41.10    4.60
   7   2   0   48.10    3.70
   7   2   0   52.19    4.10
  -8  -2   0  188.08    8.00
  -8  -2   0  168.08    7.60
   8   2   0  164.08    7.40
   8   2   0  160.68    8.50
  -9  -2   0   67.19    9.30
  -9  -2   0   79.39    6.30
   9   2   0   70.09    5.60
   9  -3   0   53.79    5.80
   9  -3   0   60.29    4.80
  -9   3   0   59.09    6.20
   8  -3   0   65.19    4.40
   8  -3   0   56.79    4.70
  -8   3   0   49.00    5.20
   7  -3   0    2.90    2.00
   7  -3   0   -0.40    1.70
   7  -3   0    0.70    1.70
  -7   3   0    3.10    2.10
   6  -3   0  255.17    8.20
   6  -3   0  277.37    8.20
   6  -3   0  262.57    7.20
  -6   3   0  250.47    8.20
  -6   3   0  269.57    7.30
   5  -3   0  625.14   13.50
   5  -3   0  641.94   12.20
   5  -3   0  649.04   13.60
  -5   3   0  609.44   13.40
  -5   3   0  640.64   12.40
   4  -3   0   63.39    3.40
   4  -3   0   64.59    2.80
   4  -3   0   69.09    3.60
  -4   3   0   74.59    3.70
  -4   3   0   66.09    3.00
   3  -3   0 1333.17   21.90
   3  -3   0 1293.67   22.30
   3  -3   0 1297.47   20.20
  -3   3   0 1317.07   21.10
  -3   3   0 1375.46   22.50
   2  -3   0  345.27    6.10
   2  -3   0  356.66    8.00
   2  -3   0  346.67    7.30
  -2   3   0  355.76    7.10
  -2   3   0  354.36    7.90
   1  -3   0   14.70    1.90
   1  -3   0   14.00    1.50
  -1   3   0   19.30    1.90
  -1   3   0   13.20    1.90
   0  -3   0   18.80    1.90
   0  -3   0   19.50    1.60
   0  -3   0   19.00    1.30
   0   3   0   20.50    1.70
   0   3   0   19.30    1.10
   0   3   0   21.10    2.20
  -1  -3   0  384.26    7.90
  -1  -3   0  390.06    7.40
  -1  -3   0  396.16    8.40
   1   3   0  380.66    6.70
   1   3   0  384.96    8.10
   1   3   0  385.66    8.20
   1   3   0  390.56    7.10
  -2  -3   0 2452.85   37.40
  -2  -3   0 2573.14   38.60
   2   3   0 2487.15   38.40
   2   3   0 2527.75   37.40
   2   3   0 2555.14   36.50
  -3  -3   0  120.59    4.60
  -3  -3   0  120.09    3.70
   3   3   0  118.29    4.10
   3   3   0  119.29    4.50
   3   3   0  119.99    3.40
  -4  -3   0  106.89    3.50
  -4  -3   0  100.39    4.50
   4   3   0  107.09    4.30
   4   3   0  103.69    3.60
   4   3   0  111.19    4.80
  -5  -3   0   89.59    4.60
   5   3   0   94.79    4.50
   5   3   0   86.89    4.60
   5   3   0   87.39    3.70
  -6  -3   0    1.60    1.90
   6   3   0    1.00    1.80
   6   3   0    2.60    2.10
   6   3   0    1.80    1.90
  -7  -3   0   67.79    5.30
  -7  -3   0   59.09    5.00
   7   3   0   52.79    5.00
  -8  -3   0  209.68    9.10
  -8  -3   0  218.98    9.00
   8   3   0  235.28    9.00
  -9  -3   0   35.30    5.50
   9   3   0   42.10    5.30
   9  -4   0   50.59    5.70
  -9   4   0   51.19    6.00
   8  -4   0   65.49    5.10
   8  -4   0   61.29    5.00
  -8   4   0   70.79    5.50
   7  -4   0  168.88    7.20
   7  -4   0  160.38    7.00
  -7   4   0  164.68    7.30
   6  -4   0  154.38    6.60
   6  -4   0  155.88    6.50
   6  -4   0  163.38    5.40
  -6   4   0  148.49    6.60
   5  -4   0  127.29    5.40
   5  -4   0  139.89    4.50
   5  -4   0  133.49    5.80
  -5   4   0  136.69    5.80
  -5   4   0  134.49    4.90
   4  -4   0  136.19    5.40
   4  -4   0  123.39    4.90
   4  -4   0  143.49    4.00
  -4   4   0  123.99    4.40
  -4   4   0  129.29    5.30
   3  -4   0   39.70    2.70
   3  -4   0   34.40    1.80
   3  -4   0   32.90    2.80
  -3   4   0   32.40    2.30
  -3   4   0   38.10    2.90
   2  -4   0  380.76    8.20
   2  -4   0  382.46    9.20
  -2   4   0  390.46    8.20
  -2   4   0  400.66    9.30
   1  -4   0  450.55    9.70
   1  -4   0  432.16    9.50
   1  -4   0  419.06    8.40
  -1   4   0  429.46    9.60
  -1   4   0  435.46    9.00
   0  -4   0  497.45   10.20
   0  -4   0  488.75    8.90
   0  -4   0  504.85   10.50
   0   4   0  506.45   10.20
   0   4   0  518.75   10.70
  -1  -4   0  952.30   16.40
  -1  -4   0  992.70   17.20
  -1  -4   0  947.91   15.20
   1   4   0  991.90   15.60
   1   4   0  963.20   17.30
   1   4   0  993.90   17.60
  -2  -4   0  748.53   14.50
  -2  -4   0  708.73   13.40
  -2  -4   0  721.23   12.40
   2   4   0  723.83   11.90
   2   4   0  735.33   14.20
   2   4   0  720.73   12.80
  -3  -4   0    3.40    1.50
  -3  -4   0    2.60    1.20
   3   4   0    5.10    1.10
   3   4   0    4.50    1.40
   3   4   0    3.50    1.60
  -4  -4   0   26.90    2.30
  -4  -4   0   21.50    3.00
   4   4   0   22.60    2.80
   4   4   0   26.40    3.40
  -5  -4   0   20.00    3.10
   5   4   0   17.60    3.10
   5   4   0   22.20    3.10
  -6  -4   0   -1.90    1.90
   6   4   0    0.50    2.00
   6   4   0    0.70    1.80
  -7  -4   0  199.48    8.70
  -7  -4   0  207.18    8.50
   7   4   0  196.48    7.90
  -8  -4   0   93.09    6.50
  -8  -4   0  103.79    6.70
   8   4   0   96.89    6.10
   9  -5   0    4.40    2.80
  -9   5   0    7.20    3.20
   8  -5   0   70.49    5.60
   8  -5   0   72.89    5.70
  -8   5   0   66.19    5.60
   7  -5   0   14.00    3.30
   7  -5   0    8.00    2.70
  -7   5   0    6.50    2.70
   6  -5   0   22.00    3.50
   6  -5   0   20.80    3.70
  -6   5   0   21.40    3.60
   5  -5   0  104.59    5.20
   5  -5   0  105.09    5.60
  -5   5   0  105.49    5.50
  -5   5   0  125.39    5.20
   4  -5   0  541.95   13.10
   4  -5   0  567.14   12.60
  -4   5   0  573.34   13.40
  -4   5   0  592.04   11.90
   3  -5   0  221.58    6.70
   3  -5   0  236.18    7.50
  -3   5   0  233.98    6.40
  -3   5   0  226.68    7.40
   2  -5   0  237.38    7.30
   2  -5   0  231.98    6.20
   2  -5   0  240.38    7.30
  -2   5   0  233.68    7.40
  -2   5   0  242.98    6.50
   1  -5   0  683.13   14.20
   1  -5   0  681.83   12.40
   1  -5   0  678.93   14.00
  -1   5   0  706.53   13.60
   0  -5   0  419.06    8.20
   0  -5   0  427.06   10.10
   0  -5   0  409.56    9.60
   0   5   0  415.86    7.60
   0   5   0  432.06    9.80
   0   5   0  418.26   10.20
  -1  -5   0   15.50    1.60
  -1  -5   0   12.00    2.20
  -1  -5   0   15.00    2.10
   1   5   0   13.90    2.40
   1   5   0   12.30    2.10
   1   5   0   16.30    1.80
  -2  -5   0    3.10    1.40
  -2  -5   0    1.80    1.40
  -2  -5   0    1.70    1.10
   2   5   0    2.50    1.50
   2   5   0   -0.60    1.10
  -3  -5   0   17.50    2.50
  -3  -5   0   18.10    3.00
   3   5   0   18.10    2.90
   3   5   0   21.50    2.40
  -4  -5   0   26.00    4.30
  -4  -5   0   25.90    3.70
   4   5   0   36.70    3.60
   4   5   0   25.20    3.50
  -5  -5   0  214.18    8.10
   5   5   0  207.18    7.20
   5   5   0  205.18    8.10
  -6  -5   0  108.89    6.30
   6   5   0  111.99    6.30
   6   5   0  103.49    5.70
  -7  -5   0   69.79    5.80
   7   5   0   70.49    5.30
   7   5   0   65.69    5.70
  -8  -5   0   29.30    5.00
  -8  -5   0   21.70    5.00
   8   5   0   29.60    4.70
   8  -6   0   13.80    3.80
   8  -6   0   18.70    4.00
  -8   6   0   12.40    3.80
   7  -6   0   14.90    3.50
   7  -6   0   24.30    3.90
   7  -6   0   17.00    3.70
  -7   6   0   18.70    3.80
   6  -6   0  166.18    7.80
   6  -6   0  176.68    7.30
   6  -6   0  155.98    7.10
  -6   6   0  158.28    7.60
   5  -6   0  345.57   10.20
   5  -6   0  388.56   11.00
   5  -6   0  366.96   11.30
  -5   6   0  371.76   11.20
   4  -6   0  759.72   17.30
   4  -6   0  787.22   17.10
   4  -6   0  770.12   16.10
  -4   6   0  775.12   15.40
  -4   6   0  782.02   17.50
   3  -6   0  103.29    5.40
   3  -6   0  103.49    4.70
   3  -6   0   95.39    5.20
  -3   6   0  108.39    4.60
  -3   6   0  108.69    5.60
   2  -6   0   90.89    4.90
   2  -6   0   90.59    4.00
   2  -6   0   83.49    4.70
  -2   6   0   86.09    4.90
  -2   6   0   88.99    4.30
   1  -6   0  500.45   10.20
   1  -6   0  510.25   12.40
   1  -6   0  480.15   11.90
  -1   6   0  522.65   11.60
  -1   6   0  526.15   12.70
   0  -6   0  159.08    5.90
   0  -6   0  157.18    6.30
   0   6   0  162.58    6.00
   0   6   0  150.98    6.20
  -1  -6   0   31.60    2.80
  -1  -6   0   28.10    3.60
  -1  -6   0   27.20    3.50
   1   6   0   29.30    3.40
  -2  -6   0   68.19    4.60
  -2  -6   0   58.79    3.80
   2   6   0   67.49    4.30
  -3  -6   0   22.30    3.70
  -3  -6   0   16.10    2.70
   3   6   0   12.90    3.30
   3   6   0   14.00    3.00
  -4  -6   0   78.89    5.30
   4   6   0   80.29    4.50
   4   6   0   78.09    5.10
  -5  -6   0  175.68    7.90
   5   6   0  167.18    7.70
   5   6   0  172.88    6.80
  -6  -6   0   82.59    6.30
   6   6   0   71.59    5.10
   6   6   0   85.29    6.20
  -7  -6   0   34.90    5.40
   7   6   0   28.60    5.10
   7   6   0   22.80    4.10
   7  -7   0   45.40    5.30
   7  -7   0   41.00    5.30
   7  -7   0   46.50    5.60
  -7   7   0   47.40    5.80
   6  -7   0   43.00    5.60
   6  -7   0   44.90    5.20
   6  -7   0   46.90    6.00
  -6   7   0   53.39    6.00
   5  -7   0  292.87    9.50
   5  -7   0  282.27    9.90
   5  -7   0  271.37   10.30
  -5   7   0  269.47   10.20
   4  -7   0  409.96   10.70
   4  -7   0  385.96   12.00
   4  -7   0  390.86   11.70
  -4   7   0  382.36   12.00
   3  -7   0   66.19    4.20
   3  -7   0   71.29    5.00
   3  -7   0   63.59    4.90
  -3   7   0   67.79    5.00
  -3   7   0   64.79    4.30
   2  -7   0    0.40    1.60
   2  -7   0    1.50    1.90
  -2   7   0    0.40    1.90
  -2   7   0    3.10    1.90
   1  -7   0   72.99    4.70
   1  -7   0   77.59    5.00
  -1   7   0   77.29    4.50
  -1   7   0   86.49    5.40
   0  -7   0   49.30    4.10
   0  -7   0   55.79    4.00
   0   7   0   51.39    4.40
   0   7   0   55.39    4.10
  -1  -7   0   77.59    5.10
  -1  -7   0   68.59    4.70
  -1  -7   0   69.79    5.10
   1   7   0   63.89    4.50
  -2  -7   0   52.09    4.20
  -2  -7   0   56.49    4.80
   2   7   0   52.69    4.50
  -3  -7   0   12.20    3.40
  -3  -7   0   19.50    3.20
   3   7   0   14.20    3.30
  -4  -7   0  146.39    7.60
   4   7   0  165.98    7.70
  -5  -7   0  120.09    7.30
   5   7   0  124.09    7.20
  -6  -7   0  111.39    7.50
   6   7   0   99.49    7.00
   6  -8   0  120.89    7.60
   6  -8   0  119.89    6.90
   6  -8   0  118.79    7.50
  -6   8   0  117.09    7.60
   5  -8   0   99.09    6.60
  -5   8   0   83.89    6.40
   4  -8   0  145.69    7.70
   4  -8   0  153.48    7.90
  -4   8   0  137.49    7.70
   3  -8   0  113.79    6.70
   3  -8   0  104.79    6.50
  -3   8   0  100.89    6.50
   2  -8   0    3.30    2.40
   2  -8   0   -0.40    2.00
  -2   8   0    4.70    2.70
  -2   8   0    3.00    2.10
   1  -8   0   18.80    3.70
   1  -8   0   17.50    3.40
  -1   8   0   17.30    3.40
  -1   8   0   20.00    3.80
   0  -8   0   62.49    4.90
   0  -8   0   70.39    5.00
   0   8   0   60.59    4.60
   0   8   0   69.19    5.40
  -1  -8   0  132.49    7.20
  -1  -8   0  129.39    6.70
   1   8   0  139.69    6.70
  -2  -8   0  188.78    8.00
  -2  -8   0  178.98    8.50
   2   8   0  192.78    8.10
  -3  -8   0   83.09    6.30
   3   8   0   81.59    5.80
  -4  -8   0   58.89    6.60
   4   8   0   72.99    7.20
  -5  -8   0   51.09    6.50
   5   8   0   40.30    5.60
   5  -9   0    1.90    3.10
   5  -9   0   -0.40    2.70
  -5   9   0    0.40    3.20
   4  -9   0  126.09    7.90
   4  -9   0  138.19    8.10
   3  -9   0  154.98    8.30
   3  -9   0  154.68    8.20
  -3   9   0  135.99    8.10
   2  -9   0   66.19    5.70
   2  -9   0   54.69    5.90
  -2   9   0   61.89    6.60
   1  -9   0    6.80    2.90
   1  -9   0    5.90    2.90
  -1   9   0    5.60    2.90
  -1   9   0    5.60    2.60
   0  -9   0    5.30    2.60
   0  -9   0    1.20    2.40
   0   9   0    4.80    2.90
  -1  -9   0  132.69    7.50
  -1  -9   0  123.59    7.60
   1   9   0  143.89    7.60
  -2  -9   0   71.29    5.70
  -2  -9   0   57.79    6.70
   2   9   0   65.99    6.60
  -3  -9   0   38.80    5.90
   3   9   0   43.80    5.80
   0 -10   1   78.39    6.50
   0 -10   1   88.49    6.70
  -1  10  -1   80.89    6.70
   1 -10   1   66.99    7.10
  -2  10  -1    0.60    3.10
   2 -10   1    0.80    2.70
   2 -10   1    2.80    3.00
   3   9  -1   81.89    6.20
  -3  -9   1   85.79    6.80
   2   9  -1  152.78    7.80
  -2  -9   1  154.88    7.60
  -2  -9   1  135.79    7.90
   1   9  -1  135.99    7.00
  -1  -9   1  126.99    7.10
  -1  -9   1  118.79    7.40
   0   9  -1   68.59    6.80
   0   9  -1   49.90    5.30
   0  -9   1   48.70    5.70
  -1   9  -1    4.00    2.80
   1  -9   1    3.90    2.60
   1  -9   1    1.90    2.50
  -2   9  -1    1.30    2.60
   2  -9   1    2.00    2.30
   2  -9   1   -1.00    2.30
  -3   9  -1   93.69    6.80
   3  -9   1   85.89    6.40
   3  -9   1   98.79    6.80
  -4   9  -1  106.49    7.40
   4  -9   1  108.69    7.20
   4  -9   1  101.49    7.00
  -5   9  -1   73.79    6.50
   5  -9   1   77.89    6.50
   5  -9   1   83.99    6.70
   5   8  -1    5.20    3.20
  -5  -8   1    1.00    2.60
   4   8  -1    3.80    2.60
  -4  -8   1    0.60    2.50
   3   8  -1  148.99    7.40
  -3  -8   1  148.89    7.80
   2   8  -1  295.27    9.90
  -2  -8   1  284.27   10.40
  -2  -8   1  294.87    9.70
   1   8  -1  106.39    5.80
  -1  -8   1  103.49    5.80
  -1  -8   1  105.09    6.30
   0   8  -1   55.39    4.80
   0   8  -1   58.89    4.40
   0  -8   1   61.89    4.60
   0  -8   1   65.59    5.00
  -1   8  -1   33.60    4.70
  -1   8  -1   30.10    3.70
   1  -8   1   25.10    3.80
   1  -8   1   32.60    4.20
  -2   8  -1   45.10    5.10
   2  -8   1   53.89    5.60
   2  -8   1   50.89    5.20
  -3   8  -1   34.80    5.00
   3  -8   1   30.60    4.20
   3  -8   1   31.00    4.40
  -4   8  -1  152.18    7.90
   4  -8   1  144.49    7.40
   4  -8   1  145.29    6.70
   4  -8   1  138.39    7.40
  -5   8  -1   66.89    5.80
   5  -8   1   64.99    5.60
   5  -8   1   64.59    5.10
   5  -8   1   64.29    6.60
  -6   8  -1   30.30    5.10
   6  -8   1   32.60    5.10
   6  -8   1   35.70    5.20
   6  -8   1   39.40    5.10
  -7   8  -1   -0.30    2.60
   7  -8   1    8.50    3.30
   7  -8   1    6.90    3.20
   7  -8   1    6.00    3.30
   6   7  -1   59.39    6.40
  -6  -7   1   70.29    6.10
   5   7  -1  114.79    6.80
  -5  -7   1  119.49    7.00
   4   7  -1   83.49    5.50
  -4  -7   1   86.49    5.80
   3   7  -1  120.69    6.10
  -3  -7   1  118.59    5.60
  -3  -7   1  105.09    6.10
   2   7  -1  345.77   10.10
  -2  -7   1  332.47    9.80
  -2  -7   1  343.17   10.70
   1   7  -1    1.60    1.80
   1   7  -1   -0.90    1.70
  -1  -7   1   -0.80    1.60
  -1  -7   1    3.00    1.90
   0   7  -1   78.49    4.90
   0   7  -1   65.59    4.20
   0  -7   1   78.99    4.60
   0  -7   1   70.59    4.60
  -1   7  -1  275.17    8.10
  -1   7  -1  271.37    9.20
   1  -7   1  288.97    8.30
   1  -7   1  262.07    8.70
   1  -7   1  280.17    9.10
  -2   7  -1   13.90    2.50
  -2   7  -1   17.30    3.20
   2  -7   1   12.70    2.80
   2  -7   1   13.00    2.40
   2  -7   1   16.90    3.00
  -3   7  -1   73.99    5.20
   3  -7   1   77.89    4.50
   3  -7   1   68.59    5.00
  -4   7  -1   52.39    5.50
   4  -7   1   40.70    4.80
   4  -7   1   51.99    4.90
  -5   7  -1   55.89    4.90
   5  -7   1   43.50    5.00
   5  -7   1   60.79    5.60
  -6   7  -1   80.19    6.00
   6  -7   1   87.09    5.80
   6  -7   1   89.99    6.30
  -7   7  -1   79.89    6.30
   7  -7   1   85.99    6.60
   7  -7   1   74.39    5.70
  -8   7  -1   33.80    5.20
   8  -7   1   34.90    5.30
   8  -7   1   32.70    5.30
   7   6  -1   72.99    5.50
  -7  -6   1   71.09    6.20
   6   6  -1  186.78    7.60
   6   6  -1  167.78    8.20
  -6  -6   1  185.78    8.20
   5   6  -1  205.28    7.40
   5   6  -1  197.58    8.30
  -5  -6   1  207.68    8.30
   4   6  -1   58.59    3.90
   4   6  -1   48.80    4.20
  -4  -6   1   50.09    4.20
   3   6  -1   48.60    4.00
   3   6  -1   42.70    3.30
  -3  -6   1   44.30    3.90
  -3  -6   1   49.00    3.40
   2   6  -1   16.30    2.30
   2   6  -1   11.10    2.50
  -2  -6   1   13.00    2.30
  -2  -6   1   11.50    2.60
  -2  -6   1   16.70    2.30
   1   6  -1   13.90    2.40
   1   6  -1   21.80    3.10
   1   6  -1   17.20    2.20
  -1  -6   1   13.00    2.10
  -1  -6   1   17.20    2.70
  -1  -6   1   17.80    2.50
   0   6  -1  505.05   12.10
   0   6  -1  493.85   11.20
   0  -6   1  511.05   11.70
   0  -6   1  518.45   10.30
   0  -6   1  495.65   11.90
  -1   6  -1  646.74   14.70
  -1   6  -1  701.93   13.60
   1  -6   1  670.13   13.00
   1  -6   1  672.13   14.70
  -2   6  -1   37.10    2.80
  -2   6  -1   40.50    4.20
   2  -6   1   37.30    3.00
   2  -6   1   35.90    3.90
  -3   6  -1   16.00    2.90
  -3   6  -1   16.90    2.40
   3  -6   1   20.40    2.90
   3  -6   1   16.10    2.80
  -4   6  -1   61.69    4.50
   4  -6   1   59.59    4.10
   4  -6   1   55.19    4.40
  -5   6  -1   96.89    5.70
   5  -6   1   89.29    5.10
   5  -6   1   85.59    5.40
  -6   6  -1  525.75   14.50
   6  -6   1  548.75   14.50
   6  -6   1  531.65   13.90
  -7   6  -1  356.06   12.00
   7  -6   1  350.26   11.50
   7  -6   1  390.46   12.30
  -8   6  -1  125.79    7.60
   8  -6   1  124.09    7.30
   8  -6   1  132.79    7.60
   8   5  -1  213.38    8.80
  -8  -5   1  198.88    9.60
   7   5  -1   58.39    4.80
  -7  -5   1   41.20    5.60
  -7  -5   1   54.79    5.80
   6   5  -1   -0.50    1.90
   6   5  -1    1.10    2.00
  -6  -5   1    3.80    2.50
   5   5  -1  159.08    6.90
   5   5  -1  159.48    6.20
  -5  -5   1  156.48    6.60
   4   5  -1  261.97    7.60
   4   5  -1  259.77    8.50
  -4  -5   1  263.97    8.40
   3   5  -1  142.29    5.80
   3   5  -1  145.69    4.80
   3   5  -1  153.48    5.10
  -3  -5   1  149.99    5.00
  -3  -5   1  144.89    5.80
   2   5  -1   33.90    2.90
   2   5  -1   28.10    2.10
   2   5  -1   30.50    3.30
  -2  -5   1   28.70    2.50
  -2  -5   1   27.90    2.30
  -2  -5   1   26.70    3.20
   1   5  -1  148.29    5.40
   1   5  -1  144.09    5.10
   1   5  -1  145.19    4.30
  -1  -5   1  147.09    5.10
  -1  -5   1  144.39    4.90
   0   5  -1  116.49    4.80
   0   5  -1  115.29    3.50
   0   5  -1  117.19    4.30
   0  -5   1  109.59    4.40
   0  -5   1  109.89    3.80
  -1   5  -1  236.08    7.20
  -1   5  -1  246.08    6.40
   1  -5   1  245.68    5.40
   1  -5   1  243.68    6.20
   1  -5   1  254.67    7.30
  -2   5  -1   97.69    3.70
  -2   5  -1   89.99    4.40
   2  -5   1   88.49    3.80
   2  -5   1   92.09    2.90
   2  -5   1   94.49    4.50
  -3   5  -1   15.00    2.00
  -3   5  -1   12.50    2.50
   3  -5   1   15.90    2.80
   3  -5   1   16.50    1.80
   3  -5   1   14.50    2.20
  -4   5  -1   66.49    4.20
  -4   5  -1   65.39    3.20
   4  -5   1   72.59    3.30
   4  -5   1   58.19    3.80
   4  -5   1   58.39    4.10
  -5   5  -1  275.17    9.00
   5  -5   1  278.57    9.00
   5  -5   1  277.47    8.60
  -6   5  -1  920.31   20.30
   6  -5   1  950.50   19.80
   6  -5   1  980.20   20.10
  -7   5  -1  295.97   10.60
   7  -5   1  312.97   10.30
   7  -5   1  333.47   10.70
  -8   5  -1    0.20    2.20
   8  -5   1   -0.90    2.10
   8  -5   1   -1.50    2.20
  -9   5  -1   41.60    5.80
   9  -5   1   50.79    6.10
   9   4  -1   21.00    4.20
  -9  -4   1   25.90    5.10
   8   4  -1  199.38    8.40
  -8  -4   1  163.78    8.50
   7   4  -1   49.60    5.00
  -7  -4   1   62.89    5.30
  -7  -4   1   58.59    4.90
   6   4  -1    1.30    1.90
  -6  -4   1    1.70    2.20
  -6  -4   1    5.70    2.60
   5   4  -1  342.57    9.90
   5   4  -1  344.57    8.20
   5   4  -1  346.77    9.30
  -5  -4   1  347.27    9.40
   4   4  -1  210.98    5.80
   4   4  -1  213.28    6.50
   4   4  -1  200.08    6.90
  -4  -4   1  213.58    6.80
  -4  -4   1  217.78    6.60
   3   4  -1  108.59    4.60
   3   4  -1  111.49    3.70
   3   4  -1  107.49    4.10
  -3  -4   1  110.69    3.70
  -3  -4   1  104.29    4.40
   2   4  -1  174.58    4.80
   2   4  -1  171.98    4.50
   2   4  -1  172.88    5.50
  -2  -4   1  163.18    5.40
  -2  -4   1  162.08    4.80
   1   4  -1   67.59    2.70
   1   4  -1   69.09    3.30
   1   4  -1   71.49    3.20
   1   4  -1   68.09    2.60
  -1  -4   1   69.79    3.10
  -1  -4   1   68.39    2.90
   0   4  -1  229.88    6.20
   0   4  -1  220.38    5.60
   0   4  -1  230.08    4.90
   0  -4   1  222.38    5.30
   0  -4   1  221.08    5.90
  -1   4  -1  372.96    8.60
  -1   4  -1  366.06    7.60
   1  -4   1  360.96    7.70
   1  -4   1  382.36    8.60
   1  -4   1  361.96    6.90
  -2   4  -1 1281.27   19.80
  -2   4  -1 1249.28   21.50
   2  -4   1 1243.88   21.60
   2  -4   1 1236.88   20.60
   2  -4   1 1220.28   19.20
  -3   4  -1  389.36    9.40
  -3   4  -1  371.16    7.60
   3  -4   1  396.26    9.50
   3  -4   1  372.96    7.50
   3  -4   1  365.36    8.60
  -4   4  -1  128.29    4.00
  -4   4  -1  125.99    5.30
   4  -4   1  113.59    5.00
   4  -4   1  125.69    4.10
   4  -4   1  128.19    5.10
  -5   4  -1  147.29    6.10
   5  -4   1  146.99    6.00
   5  -4   1  145.79    4.90
   5  -4   1  146.59    5.80
  -6   4  -1  244.48    8.40
   6  -4   1  252.97    7.30
   6  -4   1  248.58    8.10
   6  -4   1  244.58    8.30
  -7   4  -1   70.99    5.10
   7  -4   1   80.49    5.10
   7  -4   1   78.69    4.50
   7  -4   1   87.99    5.30
  -8   4  -1   24.10    4.20
   8  -4   1   24.00    3.90
   8  -4   1   26.70    3.60
   8  -4   1   18.50    3.50
  -9   4  -1    8.40    3.20
   9  -4   1   13.80    3.80
   9   3  -1   10.30    3.30
  -9  -3   1    9.00    3.50
   8   3  -1   40.40    4.90
  -8  -3   1   45.30    5.40
   7   3  -1   51.29    4.20
   7   3  -1   48.40    3.80
  -7  -3   1   52.49    4.30
  -7  -3   1   38.50    4.80
   6   3  -1  124.39    5.00
   6   3  -1  118.09    5.50
  -6  -3   1  121.29    5.60
  -6  -3   1  123.79    6.10
   5   3  -1  124.99    4.50
   5   3  -1  121.49    5.30
   5   3  -1  112.69    4.90
  -5  -3   1  122.79    5.00
  -5  -3   1  113.99    5.30
   4   3  -1  270.87    6.50
   4   3  -1  264.67    7.10
   4   3  -1  266.37    7.60
  -4  -3   1  267.27    7.10
  -4  -3   1  267.97    5.50
   3   3  -1  611.94   10.90
   3   3  -1  615.54   11.60
   3   3  -1  609.84   12.30
  -3  -3   1  603.34   11.90
  -3  -3   1  589.64   10.40
   2   3  -1  551.74    9.70
   2   3  -1  528.25    9.90
   2   3  -1  547.45    9.30
   2   3  -1  533.25   10.50
  -2  -3   1  523.45    9.50
  -2  -3   1  536.55   10.40
   1   3  -1    9.60    1.30
   1   3  -1    7.40    1.30
   1   3  -1    9.10    1.30
   1   3  -1   10.00    1.30
   1   3  -1    8.40    1.40
   0   3  -1  463.55    8.00
   0   3  -1  453.35    9.00
   0   3  -1  469.05    8.50
   0   3  -1  469.65    8.90
  -1   3  -1   21.40    1.40
  -1   3  -1   19.60    2.00
   1  -3   1   20.80    2.00
   1  -3   1   19.20    1.40
   1  -3   1   18.40    1.50
  -2   3  -1 1173.48   17.80
  -2   3  -1 1191.28   19.60
   2  -3   1 1145.79   18.90
   2  -3   1 1132.79   17.80
   2  -3   1 1139.29   19.40
  -3   3  -1  587.54   10.00
  -3   3  -1  584.94   11.70
   3  -3   1  579.04   11.30
   3  -3   1  578.74   10.40
   3  -3   1  567.14   11.70
  -4   3  -1  121.69    3.70
  -4   3  -1  130.79    5.00
   4  -3   1  123.99    4.70
   4  -3   1  117.59    4.10
   4  -3   1  130.49    4.90
  -5   3  -1  458.15   11.00
  -5   3  -1  455.25    9.20
   5  -3   1  454.95   10.80
   5  -3   1  461.25   10.00
   5  -3   1  472.25   10.80
  -6   3  -1    4.00    2.00
   6  -3   1    1.30    1.60
   6  -3   1    0.60    1.40
   6  -3   1    2.10    1.60
  -7   3  -1   76.09    5.00
   7  -3   1   70.59    4.30
   7  -3   1   82.79    5.00
   7  -3   1   92.29    4.90
  -8   3  -1  279.47   10.00
   8  -3   1  293.87    9.30
   8  -3   1  302.77   10.10
  -9   3  -1   17.60    4.10
   9  -3   1   21.80    3.80
   9  -3   1   14.20    3.30
   9   2  -1    5.30    3.00
   9   2  -1    3.40    2.60
  -9  -2   1    5.10    3.00
   8   2  -1   39.30    4.40
   8   2  -1   35.00    4.80
  -8  -2   1   36.40    5.80
  -8  -2   1   41.40    4.90
   7   2  -1  433.96   10.90
   7   2  -1  429.36   11.50
  -7  -2   1  437.26   11.90
  -7  -2   1  422.46   11.20
   6   2  -1  760.22   15.80
   6   2  -1  758.82   15.10
  -6  -2   1  758.62   15.70
  -6  -2   1  781.42   16.50
   5   2  -1   83.59    4.10
   5   2  -1   86.89    3.80
  -5  -2   1   93.69    4.10
  -5  -2   1   92.19    4.50
   4   2  -1   95.59    3.60
   4   2  -1   98.19    4.00
  -4  -2   1   99.59    4.30
  -4  -2   1   97.39    3.80
   3   2  -1  152.98    4.50
   3   2  -1  158.38    4.80
   3   2  -1  154.48    4.20
  -3  -2   1  149.99    4.30
   2   2  -1   65.99    2.00
   2   2  -1   70.99    2.80
   2   2  -1   63.19    2.50
   2   2  -1   64.39    2.30
  -2  -2   1   61.99    2.40
  -2  -2   1   60.79    1.90
   1   2  -1   41.00    1.70
   1   2  -1   35.60    1.70
   1   2  -1   38.60    1.60
   1   2  -1   42.00    1.90
   1   2  -1   35.80    1.70
   0   2  -1    1.70    0.70
   0   2  -1    2.20    0.90
   0   2  -1    1.40    0.70
   0   2  -1    0.60    0.60
   0   2  -1    2.50    0.80
  -1   2  -1 1760.32   24.80
  -1   2  -1 1740.93   25.90
  -1   2  -1 1718.93   26.10
  -1   2  -1 1709.93   26.00
   1  -2   1 1742.33   25.20
   1  -2   1 1690.23   25.60
  -2   2  -1  644.04   10.00
  -2   2  -1  642.74   11.40
  -2   2  -1  647.44   11.20
   2  -2   1  641.74   11.40
   2  -2   1  636.74   11.20
   2  -2   1  638.14   10.60
  -3   2  -1  888.61   14.80
  -3   2  -1  863.81   13.80
  -3   2  -1  878.41   15.50
   3  -2   1  866.51   15.20
   3  -2   1  872.91   14.60
   3  -2   1  889.71   15.20
  -4   2  -1  323.97    7.40
  -4   2  -1  341.37    7.00
  -4   2  -1  343.27    8.30
   4  -2   1  340.87    7.60
   4  -2   1  343.47    7.90
   4  -2   1  332.97    8.00
  -5   2  -1  155.48    4.80
  -5   2  -1  150.18    5.60
  -5   2  -1  150.68    4.60
   5  -2   1  155.28    5.20
   5  -2   1  155.48    5.10
   5  -2   1  152.78    5.50
  -6   2  -1   -1.30    1.30
  -6   2  -1    3.00    1.70
   6  -2   1    4.60    1.60
   6  -2   1    2.00    1.60
   6  -2   1    4.60    1.80
  -7   2  -1   83.59    5.10
   7  -2   1   74.09    4.40
   7  -2   1   80.79    4.80
  -8   2  -1  421.16   12.40
   8  -2   1  441.26   12.20
   8  -2   1  416.16   11.60
  -9   2  -1   50.09    5.90
   9  -2   1   44.00    5.00
   9  -2   1   49.30    5.20
 -10   2  -1   10.90    3.80
  10  -2   1    8.00    3.10
  10  -2   1   10.80    3.20
  10   1  -1   52.19    5.70
  10   1  -1   34.50    4.90
 -10  -1   1   42.10    5.70
   9   1  -1    5.90    3.00
   9   1  -1    9.80    3.10
  -9  -1   1    1.90    2.80
   8   1  -1  132.79    6.30
   8   1  -1  134.19    6.60
  -8  -1   1  139.99    6.50
  -8  -1   1  127.59    6.60
   7   1  -1  369.56   10.10
   7   1  -1  382.46   10.50
  -7  -1   1  385.16   10.80
  -7  -1   1  384.36   10.20
   6   1  -1  501.95   11.70
   6   1  -1  513.95   11.40
  -6  -1   1  490.75   11.80
  -6  -1   1  493.25   11.30
   5   1  -1   65.39    3.40
   5   1  -1   63.89    3.50
   5   1  -1   62.89    2.50
  -5  -1   1   70.59    3.80
  -5  -1   1   57.89    3.20
   4   1  -1   38.90    1.80
   4   1  -1   35.10    2.30
   4   1  -1   36.50    2.50
  -4  -1   1   40.30    2.50
  -4  -1   1   36.50    2.60
   3   1  -1  584.44   10.70
   3   1  -1  595.14    9.60
   3   1  -1  583.64   10.50
  -3  -1   1  582.24   10.20
   2   1  -1    6.10    0.90
   2   1  -1    6.10    1.10
   2   1  -1    4.80    1.00
  -2  -1   1    6.20    0.90
  -2  -1   1    7.20    1.20
   1   1  -1  215.48    3.60
   1   1  -1  222.08    4.20
   1   1  -1  215.08    4.20
   1   1  -1  222.98    4.00
  -1  -1   1  214.88    3.80
  -1  -1   1  221.38    4.40
   0   1  -1  944.41   13.70
   0   1  -1  932.31   13.90
   0   1  -1  945.71   14.10
   0   1  -1  931.21   14.20
   0   1  -1  969.90   14.10
   0   1  -1  969.30   14.00
  -1   1  -1   57.49    1.90
  -1   1  -1   56.49    1.90
  -1   1  -1   60.89    2.00
   1  -1   1   55.69    1.80
   1  -1   1   60.99    1.90
  -2   1  -1 1100.29   16.90
  -2   1  -1 1093.79   17.30
  -2   1  -1 1105.39   16.20
   2  -1   1 1093.29   17.00
   2  -1   1 1064.69   17.00
   2  -1   1 1095.99   16.90
  -3   1  -1  971.90   15.10
  -3   1  -1  951.70   15.40
  -3   1  -1  950.10   16.20
   3  -1   1  949.01   15.50
   3  -1   1  990.00   16.00
   3  -1   1  935.31   15.90
  -4   1  -1  226.98    5.40
  -4   1  -1  227.98    6.30
  -4   1  -1  224.78    5.30
   4  -1   1  221.78    6.00
   4  -1   1  227.58    5.50
   4  -1   1  232.58    6.00
  -5   1  -1  254.77    6.50
  -5   1  -1  258.47    7.30
  -5   1  -1  246.28    5.90
   5  -1   1  254.57    7.00
   5  -1   1  260.07    7.00
   5  -1   1  251.57    6.10
  -6   1  -1  308.87    7.90
  -6   1  -1  286.97    8.60
  -6   1  -1  297.27    7.90
   6  -1   1  299.97    8.40
   6  -1   1  299.37    8.30
   6  -1   1  307.97    7.40
  -7   1  -1   48.10    3.70
  -7   1  -1   42.40    4.60
   7  -1   1   47.40    4.50
   7  -1   1   47.00    4.50
  -8   1  -1  131.59    6.80
   8  -1   1  142.09    6.50
   8  -1   1  140.99    6.60
  -9   1  -1    5.40    3.00
   9  -1   1    5.20    2.60
   9  -1   1    5.60    2.70
 -10   1  -1    3.70    3.10
  10  -1   1    1.40    2.40
  10  -1   1   -1.10    2.80
  10   0  -1   10.20    3.30
  10   0  -1    8.50    3.60
   9   0  -1  102.39    6.10
   9   0  -1   94.89    6.10
  -9   0   1  107.39    6.50
   8   0  -1   69.09    4.90
   8   0  -1   62.29    4.70
  -8   0   1   66.69    5.00
  -8   0   1   82.59    5.10
   7   0  -1  162.38    6.50
   7   0  -1  183.88    6.80
  -7   0   1  193.88    7.20
  -7   0   1  179.48    6.70
   6   0  -1  262.67    6.60
   6   0  -1  269.77    7.70
   6   0  -1  274.17    7.90
  -6   0   1  274.97    7.70
  -6   0   1  270.77    8.10
   5   0  -1   89.99    3.40
   5   0  -1   96.19    4.10
   5   0  -1   97.59    4.00
  -5   0   1   94.69    3.90
  -5   0   1   92.99    4.20
   4   0  -1   67.09    3.00
   4   0  -1   66.59    3.10
   4   0  -1   60.59    2.60
  -4   0   1   66.59    3.20
  -4   0   1   60.79    2.80
   3   0  -1   80.69    3.00
   3   0  -1   82.09    2.70
   3   0  -1   81.29    2.90
  -3   0   1   83.39    3.10
  -3   0   1   75.49    2.70
   2   0  -1  521.85    8.90
   2   0  -1  528.05    9.20
   2   0  -1  527.45    8.90
  -2   0   1  533.65    8.60
  -2   0   1  547.25    9.40
   1   0  -1  274.77    4.80
   1   0  -1  274.47    4.80
   1   0  -1  271.77    4.60
   1   0  -1  261.37    4.30
  -1   0   1  261.97    4.20
  -1   0   1  268.67    4.90
   0   0  -1 1533.55   21.70
   0   0  -1 1549.45   22.00
   0   0  -1 1519.95   21.70
   0   0  -1 1511.05   21.90
   0   0   1 1552.44   21.80
   0   0   1 1539.35   21.90
  -1   0  -1  618.94    9.30
  -1   0  -1  637.94    9.70
  -1   0  -1  623.84    9.90
   1   0   1  617.04    9.50
   1   0   1  601.34    9.40
   1   0   1  627.24    9.80
  -2   0  -1 9999.00  138.59
  -2   0  -1 9642.34  140.49
   2   0   1 9532.35  137.19
   2   0   1 9804.82  136.99
   2   0   1 9808.52  137.99
  -3   0  -1  613.14   10.40
  -3   0  -1  631.64   11.60
   3   0   1  614.74   10.70
   3   0   1  610.04   10.80
   3   0   1  612.04   11.20
  -4   0  -1    2.40    1.00
  -4   0  -1    1.70    1.20
  -4   0  -1    3.80    1.30
   4   0   1    1.40    1.10
   4   0   1    1.30    1.10
  -5   0  -1  143.49    5.40
  -5   0  -1  136.39    4.00
  -5   0  -1  139.59    4.90
   5   0   1  140.39    5.10
   5   0   1  140.99    4.80
  -6   0  -1  144.99    6.00
  -6   0  -1  152.48    5.50
   6   0   1  154.38    5.80
   6   0   1  151.58    5.50
  -7   0  -1   81.49    4.70
  -7   0  -1   94.69    5.30
   7   0   1   92.99    4.80
   7   0   1   96.89    5.20
  -8   0  -1    1.30    2.30
  -8   0  -1    2.70    2.00
   8   0   1    3.20    2.10
   8   0   1   -0.20    1.60
  -9   0  -1   16.30    3.60
   9   0   1   10.90    3.00
   9   0   1   21.00    3.70
 -10   0  -1   48.00    6.10
  10   0   1   49.50    5.70
  10   0   1   41.20    5.40
  10  -1  -1   48.20    5.70
  10  -1  -1   33.20    4.90
   9  -1  -1  302.47   10.40
   9  -1  -1  286.37    9.90
  -9   1   1  276.37   12.90
   8  -1  -1  144.89    6.40
   8  -1  -1  134.79    6.50
  -8   1   1  140.09    6.50
  -8   1   1  133.09    6.40
   7  -1  -1   -1.10    1.30
   7  -1  -1    1.00    1.50
  -7   1   1    0.80    1.80
  -7   1   1    1.50    1.80
   6  -1  -1    2.00    1.30
   6  -1  -1    1.10    1.30
   6  -1  -1    0.70    1.30
  -6   1   1    1.60    1.50
  -6   1   1    0.10    1.40
   5  -1  -1   27.50    2.80
   5  -1  -1   28.30    3.00
   5  -1  -1   24.90    2.60
  -5   1   1   29.00    2.50
  -5   1   1   27.60    2.80
   4  -1  -1  531.55   10.90
   4  -1  -1  542.85   10.40
   4  -1  -1  538.95   10.60
  -4   1   1  539.25   10.50
  -4   1   1  560.04   10.80
   3  -1  -1  269.17    6.10
   3  -1  -1  272.77    6.30
   3  -1  -1  268.97    5.70
  -3   1   1  264.77    6.10
  -3   1   1  268.27    5.90
   2  -1  -1 1148.99   17.30
   2  -1  -1 1144.79   18.00
   2  -1  -1 1137.69   17.00
   2  -1  -1 1125.39   17.80
  -2   1   1 1128.59   17.80
  -2   1   1 1153.98   17.60
   1  -1  -1  820.22   13.20
   1  -1  -1  828.22   13.00
   1  -1  -1  841.52   12.80
  -1   1   1  844.32   13.20
  -1   1   1  835.92   12.90
   0  -1  -1 1485.65   21.80
   0  -1  -1 1491.75   22.10
   0   1   1 1495.65   21.10
   0   1   1 1492.15   22.10
   0   1   1 1490.35   22.00
  -1  -1  -1 1917.71   28.30
  -1  -1  -1 1866.51   27.80
   1   1   1 1894.11   28.10
   1   1   1 1938.01   27.60
  -2  -1  -1 1409.86   22.00
  -2  -1  -1 1408.16   21.10
   2   1   1 1391.86   21.70
   2   1   1 1401.56   21.50
   2   1   1 1400.56   20.60
  -3  -1  -1  205.58    5.60
   3   1   1  202.28    5.30
   3   1   1  209.88    4.70
   3   1   1  207.28    5.30
  -4  -1  -1  120.69    3.60
  -4  -1  -1  130.59    4.80
   4   1   1  123.39    3.90
   4   1   1  120.39    4.40
   4   1   1  122.19    4.30
  -5  -1  -1   61.79    3.80
  -5  -1  -1   66.19    2.80
   5   1   1   64.49    3.50
   5   1   1   64.09    3.20
   5   1   1   59.99    3.50
  -6  -1  -1  331.47    9.80
  -6  -1  -1  367.06    9.60
   6   1   1  352.26    9.50
   6   1   1  350.86    8.80
  -7  -1  -1  145.39    6.40
  -7  -1  -1  155.08    6.80
   7   1   1  148.89    5.90
   7   1   1  147.69    6.40
  -8  -1  -1    0.80    2.10
  -8  -1  -1    3.50    2.50
   8   1   1   -0.60    1.80
   8   1   1    1.20    1.80
  -9  -1  -1   25.60    4.40
   9   1   1   23.20    4.00
  10  -2  -1   30.40    4.70
  10  -2  -1   24.90    4.20
   9  -2  -1  152.68    7.70
   9  -2  -1  171.68    7.40
   8  -2  -1   69.49    5.00
   8  -2  -1   66.39    4.60
  -8   2   1   77.09    5.00
  -8   2   1   66.09    4.80
   7  -2  -1   93.39    5.10
   7  -2  -1  106.59    4.90
   7  -2  -1   93.79    4.90
  -7   2   1   89.69    5.00
  -7   2   1  103.99    5.10
   6  -2  -1   45.50    3.40
   6  -2  -1   44.80    3.00
   6  -2  -1   44.30    3.40
  -6   2   1   39.70    3.30
  -6   2   1   45.40    3.30
   5  -2  -1  152.58    5.40
   5  -2  -1  146.79    4.80
   5  -2  -1  154.68    5.60
  -5   2   1  151.88    5.20
  -5   2   1  144.09    5.20
   4  -2  -1 1059.49   18.60
   4  -2  -1 1057.29   17.40
   4  -2  -1 1090.19   18.80
  -4   2   1 1047.80   18.10
  -4   2   1 1058.59   18.30
   3  -2  -1 3024.20   45.70
   3  -2  -1 3083.59   45.40
   3  -2  -1 3028.10   44.00
  -3   2   1 3040.90   45.10
  -3   2   1 3080.19   45.50
   2  -2  -1    4.40    0.70
   2  -2  -1    5.70    1.30
   2  -2  -1    5.70    1.20
   2  -2  -1    3.30    1.00
  -2   2   1    6.10    1.30
  -2   2   1    5.50    1.20
   1  -2  -1   11.30    1.20
   1  -2  -1   11.20    1.50
   1  -2  -1    6.40    1.20
  -1   2   1   10.10    1.40
  -1   2   1   13.50    1.60
   0  -2  -1    5.60    1.10
   0  -2  -1    5.80    1.10
   0   2   1    5.40    1.10
   0   2   1    5.50    1.10
  -1  -2  -1  627.14   10.30
  -1  -2  -1  648.14   11.60
  -1  -2  -1  649.74   11.20
   1   2   1  651.23   10.40
   1   2   1  639.84   11.50
  -2  -2  -1 1301.27   20.50
  -2  -2  -1 1339.07   21.60
   2   2   1 1280.27   20.30
   2   2   1 1310.87   21.20
  -3  -2  -1  612.34   12.10
  -3  -2  -1  608.04   11.00
   3   2   1  626.14   11.50
   3   2   1  614.54   11.90
   3   2   1  592.34   10.20
  -4  -2  -1   51.09    3.30
  -4  -2  -1   49.80    2.50
   4   2   1   52.59    3.20
   4   2   1   48.00    2.40
   4   2   1   50.89    3.10
  -5  -2  -1   50.89    2.70
  -5  -2  -1   46.40    3.60
   5   2   1   45.00    3.30
   5   2   1   46.10    3.30
   5   2   1   47.20    2.80
  -6  -2  -1   41.90    4.40
   6   2   1   34.60    3.30
   6   2   1   29.70    3.80
   6   2   1   34.70    3.70
  -7  -2  -1   51.99    4.50
  -7  -2  -1   53.19    5.40
   7   2   1   45.40    4.60
  -8  -2  -1   39.50    5.00
  -8  -2  -1   33.30    4.60
   8   2   1   41.10    4.80
  -9  -2  -1    7.80    3.50
  -9  -2  -1   10.30    3.60
   9   2   1   14.30    3.50
   9  -3  -1   69.29    5.60
   8  -3  -1   25.20    3.70
   8  -3  -1   30.30    3.70
   8  -3  -1   26.30    3.90
  -8   3   1   32.30    4.30
   7  -3  -1   77.29    4.90
   7  -3  -1   77.59    4.90
   7  -3  -1   79.79    4.20
  -7   3   1   73.49    4.60
  -7   3   1   78.19    5.00
   6  -3  -1  125.09    4.70
   6  -3  -1  116.39    5.40
   6  -3  -1  113.59    5.40
  -6   3   1  107.99    4.90
  -6   3   1  116.29    5.30
   5  -3  -1   60.79    3.00
   5  -3  -1   57.59    3.60
   5  -3  -1   60.99    3.90
  -5   3   1   60.89    3.80
  -5   3   1   60.59    3.50
   4  -3  -1  337.07    8.70
   4  -3  -1  339.37    8.40
   4  -3  -1  338.67    7.00
  -4   3   1  338.37    8.50
  -4   3   1  340.17    8.10
   3  -3  -1 1473.55   23.90
   3  -3  -1 1471.15   23.80
   3  -3  -1 1446.16   21.70
   3  -3  -1 1442.56   24.60
  -3   3   1 1465.05   23.80
  -3   3   1 1452.45   24.10
   2  -3  -1   43.90    2.30
   2  -3  -1   39.10    2.40
   2  -3  -1   35.90    2.50
  -2   3   1   37.10    2.30
  -2   3   1   36.80    2.50
   1  -3  -1  137.39    4.30
   1  -3  -1  121.89    4.10
   1  -3  -1  126.49    3.40
  -1   3   1  124.79    4.20
  -1   3   1  126.49    4.10
   0  -3  -1   12.90    1.80
   0  -3  -1    9.80    1.50
   0   3   1   10.70    1.70
   0   3   1    9.90    1.60
  -1  -3  -1 1011.00   16.30
  -1  -3  -1 1036.80   17.40
  -1  -3  -1 1032.60   17.90
   1   3   1 1009.30   15.80
   1   3   1 1014.20   17.60
  -2  -3  -1  662.13   12.10
  -2  -3  -1  649.43   12.90
   2   3   1  642.54   11.40
   2   3   1  636.74   12.60
  -3  -3  -1  207.98    5.70
  -3  -3  -1  225.08    6.80
   3   3   1  222.08    5.80
   3   3   1  220.68    6.50
  -4  -3  -1  553.24   10.80
  -4  -3  -1  556.94   12.40
   4   3   1  535.15   11.40
   4   3   1  552.24   12.20
   4   3   1  525.95    9.80
  -5  -3  -1   11.60    2.50
   5   3   1   14.90    2.50
   5   3   1   13.50    2.60
  -6  -3  -1    4.40    2.30
   6   3   1    7.00    2.20
   6   3   1    9.80    2.80
  -7  -3  -1  197.28    8.30
  -7  -3  -1  206.48    8.40
   7   3   1  195.68    7.80
  -8  -3  -1   79.69    5.80
  -8  -3  -1   93.19    6.40
   8   3   1   82.29    5.70
  -9  -3  -1   28.40    4.80
  -9  -3  -1   27.10    5.00
   9   3   1   29.20    5.00
   9  -4  -1    6.90    2.90
   8  -4  -1   34.10    4.50
   8  -4  -1   44.30    5.00
  -8   4   1   39.40    4.90
   7  -4  -1  373.56   11.10
   7  -4  -1  357.96   11.00
  -7   4   1  370.36   11.10
   6  -4  -1  120.99    5.20
   6  -4  -1  120.69    6.00
   6  -4  -1  122.89    5.80
  -6   4   1  112.29    5.70
  -6   4   1  118.59    5.30
   5  -4  -1   37.90    3.40
   5  -4  -1   38.50    3.10
   5  -4  -1   41.50    3.40
  -5   4   1   43.50    4.30
  -5   4   1   35.40    3.00
   4  -4  -1   23.10    3.00
   4  -4  -1   26.30    3.00
   4  -4  -1   31.20    3.30
  -4   4   1   31.90    3.20
  -4   4   1   27.50    3.30
   3  -4  -1  184.28    6.30
   3  -4  -1  181.68    5.90
   3  -4  -1  175.98    5.40
  -3   4   1  180.58    6.10
  -3   4   1  190.38    5.70
   2  -4  -1  586.44   12.30
   2  -4  -1  561.04   10.90
   2  -4  -1  579.94   12.10
  -2   4   1  574.64   11.60
  -2   4   1  589.54   12.30
   1  -4  -1  122.09    3.60
   1  -4  -1  130.09    4.70
   1  -4  -1  129.59    4.80
  -1   4   1  120.99    4.40
  -1   4   1  140.09    5.00
   0  -4  -1  407.26    9.40
   0  -4  -1  396.76    8.80
   0   4   1  421.06    9.40
   0   4   1  409.16    9.40
  -1  -4  -1  316.07    7.90
  -1  -4  -1  309.57    7.10
  -1  -4  -1  327.67    8.50
   1   4   1  319.77    8.10
   1   4   1  321.27    6.30
  -2  -4  -1  264.17    7.60
  -2  -4  -1  259.77    5.80
  -2  -4  -1  242.48    6.90
   2   4   1  276.87    7.50
   2   4   1  252.17    6.00
  -3  -4  -1  356.66    8.50
  -3  -4  -1  355.06    9.70
   3   4   1  358.26    9.40
   3   4   1  363.16    8.20
  -4  -4  -1  330.97    9.70
  -4  -4  -1  351.76    8.50
   4   4   1  357.26    8.80
   4   4   1  339.47    9.60
  -5  -4  -1    6.10    2.40
   5   4   1    3.10    1.90
   5   4   1    3.00    1.80
  -6  -4  -1    5.60    2.70
   6   4   1   10.70    3.00
   6   4   1    8.20    2.60
  -7  -4  -1  100.49    6.50
   7   4   1  113.99    6.20
   7   4   1   93.29    6.10
  -8  -4  -1   43.90    5.80
  -8  -4  -1   45.20    5.60
   8   4   1   69.99    6.50
   9  -5  -1   46.40    5.70
   9  -5  -1   46.80    6.00
  -9   5   1   39.70    6.70
   8  -5  -1   93.09    6.20
   8  -5  -1  102.49    6.70
  -8   5   1   96.99    6.40
   7  -5  -1  156.78    7.50
   7  -5  -1  143.79    7.00
  -7   5   1  153.88    7.40
   6  -5  -1   56.29    4.40
   6  -5  -1   63.99    4.40
   6  -5  -1   70.19    5.10
  -6   5   1   55.09    4.50
   5  -5  -1   57.19    4.30
   5  -5  -1   56.39    4.10
   5  -5  -1   52.39    3.90
  -5   5   1   50.79    4.10
  -5   5   1   60.39    3.80
   4  -5  -1   -0.20    1.50
   4  -5  -1    3.30    1.60
   4  -5  -1    0.50    1.70
  -4   5   1    1.10    1.60
  -4   5   1    1.80    1.70
   3  -5  -1   87.99    4.60
   3  -5  -1   84.49    4.70
   3  -5  -1   89.79    4.10
  -3   5   1   86.59    4.70
  -3   5   1   88.99    4.20
   2  -5  -1 1322.37   24.10
   2  -5  -1 1362.96   22.30
   2  -5  -1 1334.67   24.20
  -2   5   1 1385.86   24.40
  -2   5   1 1348.37   23.40
   1  -5  -1 1510.45   26.30
   1  -5  -1 1521.65   26.70
   1  -5  -1 1570.34   24.20
  -1   5   1 1548.84   26.90
  -1   5   1 1555.34   26.20
   0  -5  -1  179.68    5.90
   0  -5  -1  195.48    6.50
   0   5   1  187.58    6.30
   0   5   1  190.98    6.50
  -1  -5  -1   27.10    2.40
  -1  -5  -1   26.30    3.00
  -1  -5  -1   28.80    3.40
   1   5   1   24.50    3.10
  -2  -5  -1   57.89    3.60
  -2  -5  -1   68.39    4.30
   2   5   1   59.69    2.90
   2   5   1   53.39    3.70
  -3  -5  -1   17.70    3.10
  -3  -5  -1   18.00    2.90
   3   5   1   15.60    2.80
   3   5   1   12.30    2.20
  -4  -5  -1   49.20    4.30
  -4  -5  -1   53.69    3.70
   4   5   1   52.89    3.50
   4   5   1   46.70    4.10
  -5  -5  -1   85.29    5.70
   5   5   1   87.59    5.60
   5   5   1   88.09    4.80
  -6  -5  -1    2.10    2.40
   6   5   1    6.90    2.60
   6   5   1    6.80    2.80
  -7  -5  -1   81.79    6.40
   7   5   1   67.99    5.20
   7   5   1   74.29    6.10
   8  -6  -1    3.50    2.80
   8  -6  -1    4.50    3.10
  -8   6   1    3.30    2.90
   7  -6  -1   -1.60    2.80
   7  -6  -1    1.10    2.10
   7  -6  -1   -1.60    1.90
  -7   6   1   -1.10    2.30
   6  -6  -1    1.50    2.40
   6  -6  -1    1.50    1.90
   6  -6  -1    1.30    2.30
  -6   6   1    4.10    2.40
   5  -6  -1   55.59    4.30
   5  -6  -1   47.50    4.90
   5  -6  -1   51.29    5.20
  -5   6   1   62.59    4.40
  -5   6   1   54.79    5.70
   4  -6  -1  419.36   10.50
   4  -6  -1  391.96   11.30
   4  -6  -1  399.66   11.70
  -4   6   1  409.56   11.80
  -4   6   1  402.96   10.40
   3  -6  -1  353.46   10.60
   3  -6  -1  365.26   10.60
   3  -6  -1  382.76    9.30
  -3   6   1  367.06   10.70
  -3   6   1  361.96    9.70
   2  -6  -1 1001.00   20.40
   2  -6  -1 1086.99   18.80
   2  -6  -1 1002.60   20.50
  -2   6   1 1017.40   20.70
  -2   6   1  989.00   19.40
   1  -6  -1  481.45   11.90
   1  -6  -1  474.35   12.10
  -1   6   1  491.95   11.80
  -1   6   1  473.55   12.20
   0  -6  -1  170.28    6.70
   0  -6  -1  184.08    6.40
   0   6   1  171.08    6.80
   0   6   1  169.78    6.50
  -1  -6  -1   23.60    3.50
  -1  -6  -1   20.20    2.80
  -1  -6  -1   20.40    3.40
   1   6   1   21.70    3.30
  -2  -6  -1   40.50    4.60
  -2  -6  -1   43.90    3.70
   2   6   1   51.79    4.10
  -3  -6  -1   46.50    5.10
  -3  -6  -1   49.10    4.60
   3   6   1   54.59    4.30
  -4  -6  -1  115.29    6.70
   4   6   1  121.79    6.40
  -5  -6  -1  105.49    6.60
   5   6   1  111.99    6.60
  -6  -6  -1   63.19    6.80
   6   6   1   38.90    5.20
  -7  -6  -1    0.50    3.20
   7   6   1    4.10    4.30
   7   6   1   -2.90    2.60
   7  -7  -1   36.40    5.10
   7  -7  -1   38.80    5.30
   7  -7  -1   33.90    4.90
  -7   7   1   29.80    5.20
   6  -7  -1   51.39    5.70
   6  -7  -1   43.20    5.00
   6  -7  -1   40.80    5.30
  -6   7   1   43.60    5.60
   5  -7  -1  303.77    9.60
   5  -7  -1  288.47   10.40
  -5   7   1  281.87   10.50
   4  -7  -1  261.57    9.60
   4  -7  -1  262.27    9.70
  -4   7   1  249.78    8.50
  -4   7   1  236.98    9.30
   3  -7  -1  200.98    8.30
   3  -7  -1  224.78    8.70
  -3   7   1  219.38    7.80
  -3   7   1  206.48    8.50
   2  -7  -1   95.99    5.70
   2  -7  -1  103.19    5.80
  -2   7   1  102.29    5.90
  -2   7   1  100.49    5.40
   1  -7  -1   19.40    3.30
   1  -7  -1   26.00    3.80
  -1   7   1   29.10    4.00
  -1   7   1   22.00    3.60
   0  -7  -1    2.50    1.90
   0  -7  -1    4.20    2.20
   0   7   1    2.10    2.00
   0   7   1   -0.90    1.80
  -1  -7  -1   80.89    5.40
  -1  -7  -1   75.89    5.10
   1   7   1   77.39    4.90
  -2  -7  -1  211.08    8.10
  -2  -7  -1  212.28    8.80
   2   7   1  203.58    8.20
  -3  -7  -1   33.20    4.70
  -3  -7  -1   42.60    4.70
   3   7   1   30.60    4.30
  -4  -7  -1    1.80    2.40
   4   7   1    2.00    2.50
  -5  -7  -1   23.20    4.60
   5   7   1   24.40    4.50
  -6  -7  -1   94.69    7.30
   6   7   1   82.19    6.80
   6  -8  -1   28.80    5.20
   6  -8  -1   27.90    4.80
  -6   8   1   30.40    5.20
   5  -8  -1   43.30    5.60
   5  -8  -1   45.30    5.70
  -5   8   1   48.60    6.10
   4  -8  -1  224.08    9.60
   4  -8  -1  247.98   10.10
  -4   8   1  238.78   10.00
   3  -8  -1   66.79    5.40
   3  -8  -1   68.49    5.50
  -3   8   1   80.49    5.30
  -3   8   1   68.99    5.80
   2  -8  -1    5.60    2.80
   2  -8  -1   11.30    3.20
  -2   8   1   10.50    2.90
  -2   8   1    8.10    3.00
   1  -8  -1    7.30    2.60
   1  -8  -1   16.50    3.30
  -1   8   1   13.80    3.20
  -1   8   1   10.60    3.20
   0  -8  -1   39.30    5.10
   0  -8  -1   47.00    5.40
   0   8   1   44.60    5.10
  -1  -8  -1   39.70    5.40
  -1  -8  -1   56.99    5.80
   1   8   1   48.70    5.40
  -2  -8  -1  109.29    7.00
  -2  -8  -1   98.19    6.30
   2   8   1   98.99    6.30
  -3  -8  -1   26.50    4.90
  -3  -8  -1   23.10    4.10
   3   8   1   22.60    4.10
  -4  -8  -1   18.50    4.50
   4   8   1   16.60    4.10
   4  -9  -1   47.50    5.90
   4  -9  -1   78.79    6.60
  -4   9   1   47.40    6.30
   3  -9  -1   19.40    4.20
   3  -9  -1   20.80    4.40
  -3   9   1   18.90    4.40
   2  -9  -1   65.39    6.70
   2  -9  -1   81.99    6.30
  -2   9   1   77.39    6.40
  -2   9   1   77.99    5.80
   1  -9  -1   95.29    9.90
   1  -9  -1   74.59    6.00
  -1   9   1   73.69    6.20
  -1   9   1   68.89    5.70
   0  -9  -1  125.09    7.70
   0  -9  -1  117.39    7.30
   0   9   1  134.39    7.20
  -1  -9  -1   34.10    5.00
  -1  -9  -1   47.50    6.30
   1   9   1   39.70    5.40
  -2  -9  -1   -3.60    2.40
  -2  -9  -1   -0.20    2.80
   2   9   1    3.70    3.00
  -1 -10   2   32.30    5.40
  -1 -10   2   29.00    4.70
   0  10  -2    3.20    2.90
   0 -10   2    4.90    2.90
  -1  10  -2   47.40    6.10
   1 -10   2   49.50    6.10
   1 -10   2   54.99    6.10
  -2  10  -2  121.89    7.90
   2 -10   2  108.49    7.40
   2 -10   2  108.29    7.20
  -3  10  -2  123.89    8.10
   3 -10   2  132.49    8.10
   3 -10   2  127.79    7.90
   4   9  -2    7.70    3.20
  -4  -9   2    7.50    3.20
   3   9  -2   37.70    5.10
  -3  -9   2   45.70    5.90
   2   9  -2   67.49    5.40
  -2  -9   2   66.19    5.30
  -2  -9   2   77.59    6.10
   1   9  -2  151.48    7.20
  -1  -9   2  151.18    7.40
  -1  -9   2  142.89    7.60
   0   9  -2   28.90    4.50
   0  -9   2   26.00    4.10
   0  -9   2   26.90    4.10
  -1   9  -2   20.40    4.00
   1  -9   2   16.30    3.80
   1  -9   2   20.50    4.10
  -2   9  -2  120.59    7.20
   2  -9   2  107.29    6.80
   2  -9   2  120.99    7.00
  -3   9  -2   92.19    6.70
   3  -9   2   89.99    6.50
   3  -9   2   94.89    6.50
  -4   9  -2    5.10    3.10
   4  -9   2    1.80    2.60
   4  -9   2    0.10    2.40
  -5   9  -2   42.70    6.00
   5  -9   2   37.70    5.30
   5  -9   2   46.10    5.70
   5  -9   2   45.10    5.50
   5   8  -2   61.59    6.60
  -5  -8   2   37.10    5.20
   4   8  -2   15.50    3.70
  -4  -8   2   18.30    3.80
   3   8  -2   20.60    3.80
  -3  -8   2   21.90    4.10
   2   8  -2   38.50    4.70
  -2  -8   2   34.30    4.60
  -2  -8   2   32.50    4.10
   1   8  -2   66.29    5.10
   1   8  -2   68.29    4.80
  -1  -8   2   77.29    5.10
  -1  -8   2   70.29    4.90
   0   8  -2  220.68    7.70
   0   8  -2  212.88    8.50
   0  -8   2  216.38    8.40
   0  -8   2  226.38    8.50
  -1   8  -2   71.99    5.30
   1  -8   2   61.79    4.90
   1  -8   2   70.49    5.10
  -2   8  -2   84.29    5.70
   2  -8   2   85.99    5.70
   2  -8   2   95.99    5.10
  -3   8  -2  212.68    8.90
   3  -8   2  216.98    9.00
   3  -8   2  218.78    7.80
  -4   8  -2  149.69    7.70
   4  -8   2  155.28    7.90
   4  -8   2  164.08    7.20
  -5   8  -2    1.80    2.60
   5  -8   2    2.80    3.60
   5  -8   2    1.40    2.40
  -6   8  -2   22.20    4.40
   6  -8   2   10.60    3.20
   6  -8   2   15.50    3.90
  -7   8  -2    0.60    2.90
   7  -8   2    2.50    2.90
   7  -8   2   -2.60    2.50
   6   7  -2   67.89    7.00
   6   7  -2   66.49    5.40
   5   7  -2   65.99    5.60
   5   7  -2   57.59    4.80
  -5  -7   2   67.69    5.30
   4   7  -2   13.30    2.90
   4   7  -2   17.40    3.50
  -4  -7   2   15.40    3.10
   3   7  -2   74.09    5.00
   3   7  -2   84.19    4.80
  -3  -7   2   79.79    5.20
   2   7  -2   62.49    4.30
  -2  -7   2   56.79    4.40
  -2  -7   2   73.99    4.50
   1   7  -2  104.69    5.10
   1   7  -2  110.89    5.60
  -1  -7   2  109.79    5.20
  -1  -7   2  110.99    5.40
   0   7  -2 1170.38   22.70
   0   7  -2 1169.78   21.30
   0  -7   2 1125.39   22.30
   0  -7   2 1177.48   20.50
   0  -7   2 1147.29   22.20
  -1   7  -2   58.39    4.30
  -1   7  -2   60.49    3.70
   1  -7   2   56.49    3.70
   1  -7   2   66.09    4.50
  -2   7  -2    2.50    1.90
   2  -7   2    4.60    2.20
   2  -7   2    5.00    2.00
  -3   7  -2  184.58    7.70
   3  -7   2  196.18    7.00
   3  -7   2  173.98    7.70
  -4   7  -2   47.00    5.30
   4  -7   2   34.70    4.40
   4  -7   2   54.79    5.10
  -5   7  -2    7.50    2.80
   5  -7   2   10.80    3.20
   5  -7   2    9.80    3.00
  -6   7  -2    4.80    2.70
   6  -7   2    5.20    2.60
   6  -7   2    4.80    2.70
  -7   7  -2   48.10    6.10
   7  -7   2   53.09    6.00
   7  -7   2   47.70    5.70
  -8   7  -2   45.30    5.90
   8  -7   2   57.99    6.50
   8  -7   2   59.19    6.50
   7   6  -2    4.80    2.60
  -7  -6   2    7.00    3.30
   6   6  -2  237.08    8.50
  -6  -6   2  235.78    9.60
   5   6  -2  165.78    6.80
   5   6  -2  174.58    7.60
  -5  -6   2  162.68    7.10
   4   6  -2  174.48    7.10
   4   6  -2  173.98    6.40
  -4  -6   2  159.68    6.70
   3   6  -2  104.39    4.70
   3   6  -2   98.89    5.20
  -3  -6   2  103.39    5.30
  -3  -6   2  104.29    4.50
   2   6  -2   44.00    3.40
   2   6  -2   46.70    3.00
   2   6  -2   47.30    3.00
  -2  -6   2   42.90    3.20
  -2  -6   2   43.50    3.10
  -2  -6   2   46.40    3.70
   1   6  -2  214.38    6.00
   1   6  -2  221.48    7.10
   1   6  -2  218.48    6.80
  -1  -6   2  204.28    6.70
  -1  -6   2  218.38    6.70
   0   6  -2  509.65   11.00
   0   6  -2  502.65   12.10
   0  -6   2  509.05   11.80
   0  -6   2  510.55   10.20
   0  -6   2  517.25   10.90
  -1   6  -2  157.58    5.10
  -1   6  -2  158.98    6.20
   1  -6   2  147.29    5.30
   1  -6   2  159.88    6.10
   1  -6   2  158.88    4.80
  -2   6  -2   10.40    2.30
  -2   6  -2   11.20    1.90
   2  -6   2   11.40    2.40
   2  -6   2   13.60    2.60
   2  -6   2   11.00    2.30
  -3   6  -2  132.19    6.00
   3  -6   2  136.19    6.10
   3  -6   2  138.49    5.60
  -4   6  -2   24.70    3.70
   4  -6   2   31.70    4.10
   4  -6   2   32.00    3.80
  -5   6  -2   15.70    3.20
   5  -6   2   22.10    3.50
   5  -6   2   16.90    3.20
  -6   6  -2   11.20    3.30
   6  -6   2    6.80    2.60
   6  -6   2    8.80    2.70
  -7   6  -2  185.68    8.70
   7  -6   2  188.08    8.30
   7  -6   2  190.68    8.40
  -8   6  -2  171.98    8.90
   8  -6   2  197.08    8.90
   8  -6   2  174.88    8.50
   8   5  -2   55.79    5.80
  -8  -5   2   59.19    6.70
   7   5  -2   18.40    3.40
  -7  -5   2   13.90    3.50
   6   5  -2  120.99    6.00
  -6  -5   2  119.09    6.70
  -6  -5   2  122.39    6.10
   5   5  -2  243.98    7.90
   5   5  -2  223.58    8.40
  -5  -5   2  240.88    7.80
   4   5  -2   16.20    2.60
   4   5  -2   12.00    2.20
   4   5  -2   12.20    2.60
  -4  -5   2   12.50    2.50
   3   5  -2  251.57    6.60
   3   5  -2  240.98    6.80
   3   5  -2  259.47    7.00
   3   5  -2  237.38    7.60
  -3  -5   2  234.98    7.20
  -3  -5   2  246.88    6.50
   2   5  -2  615.74   11.90
   2   5  -2  598.94   11.70
   2   5  -2  620.94   12.00
   2   5  -2  617.84   12.90
  -2  -5   2  606.24   13.00
  -2  -5   2  603.64   12.10
   1   5  -2  259.97    6.50
   1   5  -2  274.07    6.60
   1   5  -2  265.27    7.00
   1   5  -2  270.27    7.00
   1   5  -2  267.37    7.40
   0   5  -2   89.49    4.20
   0   5  -2   88.39    3.50
   0   5  -2   88.49    3.30
   0  -5   2   88.69    3.60
  -1   5  -2  222.18    5.60
  -1   5  -2  225.88    6.80
   1  -5   2  226.58    6.80
   1  -5   2  224.08    5.60
   1  -5   2  220.98    6.10
  -2   5  -2   16.80    1.90
  -2   5  -2   15.80    2.50
   2  -5   2   16.60    2.40
   2  -5   2   13.70    2.40
   2  -5   2   16.00    1.90
  -3   5  -2   23.70    3.10
  -3   5  -2   24.90    2.20
   3  -5   2   26.10    3.00
   3  -5   2   22.70    3.00
   3  -5   2   24.90    2.40
  -4   5  -2   42.80    3.60
   4  -5   2   46.90    3.50
   4  -5   2   42.70    2.80
   4  -5   2   49.90    3.80
  -5   5  -2   98.99    5.40
   5  -5   2   97.59    4.20
   5  -5   2   87.79    4.90
   5  -5   2   96.19    5.30
  -6   5  -2  301.27   10.10
   6  -5   2  317.07   10.10
   6  -5   2  321.07    8.70
   6  -5   2  320.17    9.90
  -7   5  -2  233.08    9.30
   7  -5   2  261.77    9.40
   7  -5   2  263.47    9.20
  -8   5  -2  277.27   10.80
   8  -5   2  303.07   10.70
   8  -5   2  314.27   10.60
  -9   5  -2    8.50    3.40
   9  -5   2   14.30    3.80
   9   4  -2   99.49    6.60
  -9  -4   2   76.39    6.50
   8   4  -2   56.19    5.90
  -8  -4   2   47.60    5.70
   7   4  -2   -0.60    1.90
  -7  -4   2    1.90    2.30
   6   4  -2   52.49    3.80
   6   4  -2   55.89    4.20
  -6  -4   2   48.90    4.30
  -6  -4   2   60.09    4.20
   5   4  -2  312.27    8.60
   5   4  -2  294.47    7.80
  -5  -4   2  296.97    8.30
  -5  -4   2  288.17    9.20
   4   4  -2   98.79    4.80
   4   4  -2   97.79    4.40
   4   4  -2   99.79    4.00
  -4  -4   2  100.99    4.40
   3   4  -2 1207.18   20.30
   3   4  -2 1225.18   21.40
   3   4  -2 1222.18   20.70
   3   4  -2 1204.68   19.30
  -3  -4   2 1207.58   19.50
  -3  -4   2 1185.98   20.60
   2   4  -2  828.32   14.40
   2   4  -2  818.62   14.10
   2   4  -2  803.62   14.20
   2   4  -2  802.82   15.10
  -2  -4   2  785.12   14.80
   1   4  -2   13.90    1.80
   1   4  -2   17.70    2.20
   1   4  -2   15.30    1.80
   1   4  -2   16.70    2.10
   1   4  -2   19.30    2.10
   0   4  -2  425.16    8.30
   0   4  -2  425.86    8.30
   0   4  -2  420.66    9.10
   0   4  -2  434.86    9.20
   0   4  -2  426.26    8.70
  -1   4  -2   67.89    3.40
  -1   4  -2   68.99    3.40
  -1   4  -2   75.09    2.60
   1  -4   2   67.79    2.80
   1  -4   2   73.79    3.20
  -2   4  -2 1341.07   22.80
  -2   4  -2 1344.17   20.30
   2  -4   2 1351.76   22.30
   2  -4   2 1303.77   22.80
   2  -4   2 1331.47   21.10
  -3   4  -2  368.36    6.70
  -3   4  -2  360.86    9.10
   3  -4   2  347.97    7.60
   3  -4   2  361.86    9.10
   3  -4   2  367.86    8.80
  -4   4  -2  560.74   12.60
   4  -4   2  559.04   12.60
   4  -4   2  553.24   12.10
   4  -4   2  552.94   11.10
  -5   4  -2  360.56   10.00
   5  -4   2  372.26    9.80
   5  -4   2  372.76    8.80
   5  -4   2  321.97    9.60
  -6   4  -2   29.90    4.00
   6  -4   2   20.80    3.20
   6  -4   2   25.80    3.20
   6  -4   2   23.70    3.40
  -7   4  -2   51.89    4.60
   7  -4   2   56.59    4.50
   7  -4   2   54.19    4.00
   7  -4   2   56.99    4.30
  -8   4  -2  135.69    7.30
   8  -4   2  146.39    7.30
   8  -4   2  140.69    6.40
  -9   4  -2    7.70    3.40
   9  -4   2    5.30    2.70
   9  -4   2    8.20    2.90
   9   3  -2   45.20    5.50
  -9  -3   2   55.39    6.50
   8   3  -2   15.20    3.40
   8   3  -2   10.70    2.80
  -8  -3   2   18.80    3.90
   7   3  -2   20.10    3.20
   7   3  -2   27.10    3.70
  -7  -3   2   23.90    3.80
   6   3  -2   76.09    4.20
   6   3  -2   75.89    4.50
  -6  -3   2   71.99    4.80
  -6  -3   2   81.09    4.40
   5   3  -2  179.88    5.80
   5   3  -2  182.88    6.30
  -5  -3   2  190.08    5.90
  -5  -3   2  185.18    6.80
   4   3  -2  489.85   10.10
   4   3  -2  476.65   10.40
  -4  -3   2  466.85    9.80
  -4  -3   2  490.35   11.30
   3   3  -2  392.76    8.20
   3   3  -2  378.16    8.50
   3   3  -2  377.66    7.40
   3   3  -2  377.56    8.80
  -3  -3   2  375.46    8.10
   2   3  -2  512.25    9.20
   2   3  -2  498.05    9.60
   2   3  -2  498.85    9.90
   2   3  -2  495.25    9.50
  -2  -3   2  484.05    9.30
   1   3  -2   12.60    1.60
   1   3  -2   10.50    1.40
   1   3  -2   13.10    1.60
   1   3  -2   12.30    1.60
   1   3  -2   13.80    1.60
   0   3  -2   97.59    3.40
   0   3  -2   95.49    3.20
   0   3  -2   93.09    2.80
   0   3  -2   95.99    3.20
   0   3  -2  100.39    3.10
  -1   3  -2  306.67    6.80
  -1   3  -2  302.27    6.80
  -1   3  -2  303.67    6.90
  -1   3  -2  303.47    5.40
   1  -3   2  307.17    6.30
   1  -3   2  299.47    6.60
  -2   3  -2 3059.49   45.70
  -2   3  -2 3047.20   45.50
  -2   3  -2 3101.19   43.10
  -2   3  -2 3053.19   45.80
   2  -3   2 3039.30   45.40
   2  -3   2 3008.90   44.60
  -3   3  -2  595.44   11.90
  -3   3  -2  591.44    9.40
  -3   3  -2  591.44   11.50
   3  -3   2  577.84   11.70
   3  -3   2  579.54   10.90
   3  -3   2  594.54   11.90
  -4   3  -2  357.26    6.80
  -4   3  -2  388.26    9.30
  -4   3  -2  360.86    8.50
   4  -3   2  374.56    8.90
   4  -3   2  375.86    8.40
   4  -3   2  359.16    8.90
  -5   3  -2   83.99    4.00
  -5   3  -2   91.79    4.70
   5  -3   2   84.69    4.10
   5  -3   2   90.29    4.30
   5  -3   2   92.49    4.50
  -6   3  -2   61.89    3.70
  -6   3  -2   64.59    4.50
   6  -3   2   71.09    4.00
   6  -3   2   66.19    4.20
   6  -3   2   64.69    4.00
  -7   3  -2  127.89    6.50
   7  -3   2  141.09    5.80
   7  -3   2  133.39    6.30
   7  -3   2  136.39    6.00
  -8   3  -2  165.98    7.90
   8  -3   2  163.68    7.00
   8  -3   2  164.38    7.40
  -9   3  -2   99.79    6.80
   9  -3   2  102.19    6.40
   9  -3   2  108.39    6.30
   9   2  -2    3.90    2.80
   9   2  -2    3.70    2.70
  -9  -2   2    5.00    2.80
   8   2  -2   28.60    4.00
   8   2  -2   32.80    4.10
  -8  -2   2   30.30    4.40
   7   2  -2   75.49    4.80
   7   2  -2   84.79    4.80
  -7  -2   2   73.69    5.10
   6   2  -2  287.57    8.10
   6   2  -2  298.57    8.60
  -6  -2   2  289.07    7.90
  -6  -2   2  293.37    8.90
   5   2  -2  407.66    8.20
   5   2  -2  408.36    9.80
   5   2  -2  424.06    9.60
  -5  -2   2  411.16    9.20
  -5  -2   2  409.36   10.20
   4   2  -2  784.82   14.40
   4   2  -2  748.23   12.80
   4   2  -2  781.72   14.10
  -4  -2   2  770.72   15.00
  -4  -2   2  736.03   13.30
   3   2  -2  122.09    3.90
   3   2  -2  117.09    3.30
   3   2  -2  113.29    3.90
  -3  -2   2  113.89    3.30
  -3  -2   2  117.79    4.30
   2   2  -2   51.79    2.30
   2   2  -2   47.80    2.30
   2   2  -2   51.59    2.20
  -2  -2   2   49.50    1.90
  -2  -2   2   52.49    2.60
   1   2  -2  749.82   12.30
   1   2  -2  747.13   11.70
   1   2  -2  732.73   11.70
   1   2  -2  740.93   12.30
   1   2  -2  741.13   12.40
  -1  -2   2  741.53   12.30
   0   2  -2  209.68    4.60
   0   2  -2  221.08    4.50
   0   2  -2  210.58    4.70
   0   2  -2  216.28    4.70
   0   2  -2  215.88    4.10
   0   2  -2  215.58    4.90
  -1   2  -2    9.50    1.40
  -1   2  -2    9.50    1.30
  -1   2  -2   10.00    1.30
   1  -2   2   11.10    1.40
   1  -2   2    9.60    1.30
  -2   2  -2  189.48    5.00
  -2   2  -2  191.08    4.90
  -2   2  -2  196.38    4.90
   2  -2   2  193.78    4.70
   2  -2   2  189.48    4.90
  -3   2  -2 1133.39   18.70
  -3   2  -2 1129.09   16.80
  -3   2  -2 1137.09   19.30
   3  -2   2 1103.69   18.80
   3  -2   2 1124.49   18.50
  -4   2  -2  145.29    5.30
  -4   2  -2  149.99    4.70
  -4   2  -2  157.28    3.90
   4  -2   2  150.78    4.80
   4  -2   2  151.68    4.90
   4  -2   2  152.68    5.00
  -5   2  -2  114.49    4.30
  -5   2  -2  113.19    3.80
  -5   2  -2  120.29    5.20
   5  -2   2  108.19    4.30
   5  -2   2  113.69    4.60
   5  -2   2  121.09    4.80
  -6   2  -2   21.60    2.70
  -6   2  -2   19.00    3.20
   6  -2   2   20.00    2.80
   6  -2   2   17.10    2.40
   6  -2   2   16.80    2.80
  -7   2  -2   71.49    5.00
   7  -2   2   82.69    4.90
   7  -2   2   63.59    4.20
  -8   2  -2  215.88    8.90
   8  -2   2  204.88    8.00
   8  -2   2  220.48    8.30
  -9   2  -2  104.99    6.80
   9  -2   2   92.29    6.10
   9  -2   2  100.29    6.20
  10   1  -2   16.10    4.10
  10   1  -2   19.80    4.20
 -10  -1   2   16.70    4.20
   9   1  -2   17.10    3.80
   9   1  -2   12.20    3.30
  -9  -1   2   10.90    3.40
   8   1  -2  120.49    6.10
   8   1  -2  114.99    6.00
  -8  -1   2  127.79    6.80
   7   1  -2  313.77    9.20
   7   1  -2  303.17    9.00
  -7  -1   2  316.97    9.70
  -7  -1   2  276.67    9.40
   6   1  -2  469.95   11.20
   6   1  -2  479.05   11.20
  -6  -1   2  465.55   11.70
  -6  -1   2  486.25   10.50
   5   1  -2  162.18    4.60
   5   1  -2  170.38    5.60
   5   1  -2  162.38    5.50
  -5  -1   2  167.48    5.90
  -5  -1   2  158.78    4.90
   4   1  -2  207.68    5.70
   4   1  -2  207.88    5.70
   4   1  -2  215.78    5.10
  -4  -1   2  213.28    6.20
  -4  -1   2  193.38    5.00
   3   1  -2    4.50    1.20
   3   1  -2    5.10    1.20
   3   1  -2    3.80    1.00
  -3  -1   2    3.60    0.90
  -3  -1   2    2.70    1.30
   2   1  -2  670.43   11.00
   2   1  -2  648.24   11.10
   2   1  -2  661.63   11.30
  -2  -1   2  637.54    9.90
  -2  -1   2  663.23   11.50
   1   1  -2 8462.05  120.99
   1   1  -2 8664.03  121.09
   1   1  -2 8485.95  119.69
   1   1  -2 8575.04  119.79
  -1  -1   2 8648.93  122.19
   0   1  -2 1568.04   23.00
   0   1  -2 1558.24   22.40
   0   1  -2 1540.65   23.00
   0   1  -2 1571.94   23.20
   0  -1   2 1528.85   22.40
   0  -1   2 1551.14   23.00
  -1   1  -2  536.55    9.20
  -1   1  -2  526.55    9.10
  -1   1  -2  529.35    9.10
   1  -1   2  534.95    9.10
   1  -1   2  525.85    7.90
   1  -1   2  530.15    9.00
  -2   1  -2    2.50    1.00
  -2   1  -2    5.20    1.00
  -2   1  -2    4.60    1.10
   2  -1   2    4.10    1.00
   2  -1   2    5.00    1.20
   2  -1   2    2.40    0.60
  -3   1  -2   42.40    2.10
  -3   1  -2   44.00    2.40
  -3   1  -2   43.70    2.60
  -3   1  -2   40.60    1.80
   3  -1   2   40.30    2.30
   3  -1   2   37.30    2.30
  -4   1  -2  570.44   10.40
  -4   1  -2  550.64   10.70
  -4   1  -2  571.64   11.90
   4  -1   2  568.64   11.20
   4  -1   2  565.04   11.40
   4  -1   2  560.54   10.40
  -5   1  -2  736.23   13.70
  -5   1  -2  752.42   13.90
  -5   1  -2  765.32   15.60
   5  -1   2  767.42   14.80
   5  -1   2  796.32   13.70
   5  -1   2  754.12   14.90
  -6   1  -2  281.97    7.20
  -6   1  -2  270.57    7.30
  -6   1  -2  276.27    8.70
   6  -1   2  268.27    8.10
   6  -1   2  274.27    7.90
  -7   1  -2  101.19    5.80
   7  -1   2  103.09    5.20
   7  -1   2  101.09    5.20
  -8   1  -2   71.29    5.40
   8  -1   2   81.59    5.10
   8  -1   2   74.69    5.00
  -9   1  -2   22.60    4.20
   9  -1   2   33.50    4.30
   9  -1   2   30.80    4.70
  10   0  -2  205.68    9.20
  10   0  -2  209.68    9.10
 -10   0   2  194.58    9.50
   9   0  -2  166.78    7.50
   9   0  -2  164.68    7.70
  -9   0   2  158.08    7.80
   8   0  -2    9.60    2.80
   8   0  -2   10.20    2.60
  -8   0   2    8.40    2.90
   7   0  -2  144.89    6.20
   7   0  -2  142.89    6.10
  -7   0   2  146.39    6.40
  -7   0   2  137.69    5.70
   6   0  -2   92.29    4.00
   6   0  -2   90.19    4.40
   6   0  -2   88.39    4.50
  -6   0   2   93.69    4.80
  -6   0   2   93.79    4.20
   5   0  -2  219.18    6.30
   5   0  -2  222.18    6.60
   5   0  -2  215.78    5.90
  -5   0   2  224.38    5.90
  -5   0   2  222.88    6.80
   4   0  -2  456.55    9.60
   4   0  -2  458.95    9.20
   4   0  -2  453.35    9.30
  -4   0   2  454.35    9.90
  -4   0   2  447.16    8.70
   3   0  -2  174.38    4.50
   3   0  -2  184.18    4.90
   3   0  -2  190.38    4.80
  -3   0   2  185.98    5.10
  -3   0   2  183.38    4.10
   2   0  -2  147.69    3.10
   2   0  -2  150.18    3.60
   2   0  -2  153.38    4.00
   2   0  -2  146.39    3.90
  -2   0   2  154.68    4.20
  -2   0   2  154.08    3.00
   1   0  -2 1702.53   25.40
   1   0  -2 1747.93   24.90
   1   0  -2 1713.53   25.00
   1   0  -2 1717.63   24.80
  -1   0   2 1662.73   25.30
  -1   0   2 1670.53   24.10
   0   0  -2   16.00    1.30
   0   0  -2   14.60    1.00
   0   0  -2   15.30    1.30
   0   0  -2   15.20    1.10
   0   0   2   16.90    1.20
   0   0   2   15.00    1.20
  -1   0  -2  869.21   13.80
  -1   0  -2  829.72   13.70
  -1   0  -2  880.41   13.30
   1   0   2  863.71   13.60
   1   0   2  869.11   13.30
   1   0   2  856.31   13.10
  -2   0  -2    2.00    0.70
  -2   0  -2    1.10    0.80
  -2   0  -2    2.90    1.10
   2   0   2    2.30    0.80
   2   0   2    0.70    0.70
   2   0   2    2.10    1.00
  -3   0  -2  497.35   10.20
  -3   0  -2  486.95    9.40
   3   0   2  489.25    9.70
   3   0   2  501.35    9.20
   3   0   2  491.85    9.10
  -4   0  -2 2739.33   42.60
  -4   0  -2 2651.14   40.80
   4   0   2 2747.33   41.80
   4   0   2 2681.33   40.80
   4   0   2 2835.82   41.10
  -5   0  -2 1222.58   22.30
  -5   0  -2 1238.18   20.30
  -5   0  -2 1192.48   20.80
   5   0   2 1202.98   20.70
   5   0   2 1204.78   21.50
  -6   0  -2  177.58    6.20
  -6   0  -2  172.08    6.90
   6   0   2  181.98    6.10
   6   0   2  181.98    6.50
  -7   0  -2   -2.60    1.50
  -7   0  -2    3.20    2.10
   7   0   2    2.20    1.70
   7   0   2    2.10    1.80
  -8   0  -2   27.80    4.20
   8   0   2   21.60    3.40
   8   0   2   27.60    3.90
  -9   0  -2   36.20    5.30
   9   0   2   38.40    4.90
  10  -1  -2  142.89    8.00
  10  -1  -2  130.89    7.40
   9  -1  -2  212.98    8.80
   9  -1  -2  199.18    8.40
  -9   1   2  198.28    8.70
   8  -1  -2   -0.10    2.10
   8  -1  -2    2.50    2.30
  -8   1   2   -0.20    2.10
   7  -1  -2   46.40    3.90
   7  -1  -2   50.39    3.80
   7  -1  -2   48.10    3.70
  -7   1   2   49.90    4.10
  -7   1   2   41.10    3.50
   6  -1  -2  399.46    9.70
   6  -1  -2  422.76   10.60
   6  -1  -2  419.56   10.00
  -6   1   2  422.86   10.60
  -6   1   2  402.86    9.60
   5  -1  -2  181.88    5.40
   5  -1  -2  178.48    5.70
   5  -1  -2  177.78    6.00
   5  -1  -2  181.18    4.40
  -5   1   2  176.58    5.30
  -5   1   2  173.08    5.90
   4  -1  -2  150.78    3.90
   4  -1  -2  151.48    4.90
   4  -1  -2  153.48    4.50
   4  -1  -2  150.68    5.00
  -4   1   2  148.69    5.10
  -4   1   2  155.48    4.40
   3  -1  -2  211.88    5.40
   3  -1  -2  204.68    5.50
   3  -1  -2  204.08    4.70
   3  -1  -2  208.38    4.70
  -3   1   2  208.68    4.90
  -3   1   2  207.78    5.50
   2  -1  -2  130.29    3.60
   2  -1  -2  128.69    3.40
   2  -1  -2  125.09    3.90
   2  -1  -2  130.99    3.00
  -2   1   2  125.29    3.30
  -2   1   2  123.69    3.80
   1  -1  -2  108.09    3.20
   1  -1  -2  111.09    3.40
   1  -1  -2  106.89    2.80
   1  -1  -2  107.29    2.40
  -1   1   2  107.79    3.30
  -1   1   2  108.49    2.90
   0  -1  -2  872.31   13.90
   0  -1  -2  855.91   14.10
   0  -1  -2  878.31   14.00
   0   1   2  873.21   14.20
   0   1   2  885.01   13.10
  -1  -1  -2  599.14   10.60
  -1  -1  -2  608.04    9.80
  -1  -1  -2  595.34   10.80
   1   1   2  605.14   10.60
   1   1   2  607.64   10.00
  -2  -1  -2 1231.38   19.60
  -2  -1  -2 1215.28   20.10
   2   1   2 1238.38   19.50
   2   1   2 1245.58   19.80
   2   1   2 1238.38   18.20
  -3  -1  -2 1327.07   21.50
  -3  -1  -2 1347.07   22.50
   3   1   2 1345.97   20.70
   3   1   2 1403.56   22.10
   3   1   2 1351.86   21.90
  -4  -1  -2  599.14   11.50
  -4  -1  -2  609.24   12.80
   4   1   2  611.54   11.10
   4   1   2  618.24   12.10
   4   1   2  624.24   12.40
  -5  -1  -2  258.77    8.00
  -5  -1  -2  253.87    6.60
   5   1   2  258.07    7.40
   5   1   2  245.38    7.10
   5   1   2  256.27    6.50
  -6  -1  -2   12.00    2.90
   6   1   2   11.70    2.30
   6   1   2    7.00    2.10
   6   1   2    9.40    2.30
  -7  -1  -2    2.30    1.60
  -7  -1  -2    2.90    2.20
   7   1   2   -1.80    1.60
   7   1   2    2.10    1.80
  -8  -1  -2   22.00    4.10
  -8  -1  -2   14.00    3.40
   8   1   2   23.80    3.80
  -9  -1  -2   74.29    6.10
   9   1   2   66.79    5.40
  10  -2  -2   78.49    6.30
   9  -2  -2  209.28    8.90
   9  -2  -2  223.38    8.30
  -9   2   2  203.98   10.70
   8  -2  -2    4.50    2.30
   8  -2  -2    3.40    2.20
  -8   2   2   10.40    3.00
   7  -2  -2   46.80    3.60
   7  -2  -2   40.70    4.10
   7  -2  -2   50.29    4.10
  -7   2   2   42.10    4.30
  -7   2   2   46.80    3.80
   6  -2  -2  372.36   10.10
   6  -2  -2  380.36   10.00
   6  -2  -2  377.26    9.00
  -6   2   2  377.96    9.50
  -6   2   2  377.56    9.90
   5  -2  -2    9.40    1.70
   5  -2  -2   11.90    1.80
   5  -2  -2    9.70    2.00
   5  -2  -2   10.30    2.10
  -5   2   2    9.70    1.90
  -5   2   2    8.50    2.10
   4  -2  -2  158.48    4.40
   4  -2  -2  157.38    5.30
   4  -2  -2  167.38    4.80
   4  -2  -2  171.98    5.70
  -4   2   2  162.48    5.10
  -4   2   2  171.08    5.50
   3  -2  -2  549.25   11.20
   3  -2  -2  524.15    9.10
   3  -2  -2  544.65   10.40
   3  -2  -2  538.05   10.60
  -3   2   2  526.65   10.40
  -3   2   2  561.54   11.00
   2  -2  -2  412.26    8.90
   2  -2  -2  419.96    8.50
   2  -2  -2  424.86    8.10
  -2   2   2  419.66    8.40
  -2   2   2  418.86    8.80
   1  -2  -2  372.26    7.70
   1  -2  -2  368.06    7.90
   1  -2  -2  377.16    6.70
  -1   2   2  369.26    7.50
  -1   2   2  366.36    7.80
   0  -2  -2    3.60    1.00
   0  -2  -2    2.50    1.00
   0  -2  -2    1.70    1.00
   0   2   2    2.20    0.60
   0   2   2    1.80    1.00
  -1  -2  -2 1750.12   26.20
  -1  -2  -2 1757.02   27.60
  -1  -2  -2 1756.42   27.30
   1   2   2 1775.72   26.10
   1   2   2 1745.43   27.60
  -2  -2  -2  514.55   10.10
  -2  -2  -2  513.95   10.80
   2   2   2  521.65    9.70
   2   2   2  522.15   10.50
  -3  -2  -2  239.38    6.10
  -3  -2  -2  245.88    7.00
   3   2   2  249.28    6.70
   3   2   2  244.28    6.20
  -4  -2  -2  253.17    7.40
  -4  -2  -2  241.28    6.30
   4   2   2  239.48    6.80
   4   2   2  236.28    5.40
   4   2   2  239.68    7.00
  -5  -2  -2   11.60    1.90
  -5  -2  -2   13.90    2.90
   5   2   2   12.10    2.30
   5   2   2   11.90    2.40
  -6  -2  -2   -0.30    1.80
   6   2   2   -1.10    1.40
   6   2   2    1.30    1.70
  -7  -2  -2  125.59    6.30
  -7  -2  -2  125.59    6.80
   7   2   2  117.19    6.00
  -8  -2  -2   57.09    4.90
  -8  -2  -2   50.89    6.00
   8   2   2   48.80    5.10
  -9  -2  -2   17.40    4.40
   9   2   2   21.40    4.10
   9  -3  -2   79.19    6.00
   8  -3  -2  191.28    8.20
   8  -3  -2  199.68    8.20
  -8   3   2  202.38    8.00
   7  -3  -2  181.08    7.40
   7  -3  -2  191.38    7.60
  -7   3   2  196.78    7.40
  -7   3   2  192.38    7.30
   6  -3  -2   85.49    5.30
   6  -3  -2   89.19    5.10
   6  -3  -2   80.59    4.70
   6  -3  -2   99.69    4.40
  -6   3   2   93.49    4.80
  -6   3   2   90.09    4.80
   5  -3  -2   54.69    2.90
   5  -3  -2   52.69    3.20
   5  -3  -2   49.50    3.80
   5  -3  -2   49.99    3.50
  -5   3   2   45.10    3.30
  -5   3   2   46.80    3.50
   4  -3  -2   25.50    2.70
   4  -3  -2   27.30    3.10
   4  -3  -2   32.20    3.20
   4  -3  -2   28.60    1.80
  -4   3   2   33.30    3.20
  -4   3   2   28.80    3.10
   3  -3  -2  185.48    5.40
   3  -3  -2  185.38    6.00
   3  -3  -2  191.68    5.70
  -3   3   2  192.98    5.80
  -3   3   2  177.08    5.60
   2  -3  -2  468.15    9.10
   2  -3  -2  468.55   10.30
   2  -3  -2  482.05   10.10
  -2   3   2  462.85    9.90
  -2   3   2  467.15    9.90
   1  -3  -2  427.26    9.20
   1  -3  -2  417.86    7.60
   1  -3  -2  421.56    9.20
  -1   3   2  421.86    9.20
  -1   3   2  434.46    9.20
   0  -3  -2  153.58    5.00
   0  -3  -2  158.58    4.70
   0  -3  -2  158.88    5.20
   0   3   2  156.18    5.00
  -1  -3  -2  865.81   14.80
  -1  -3  -2  875.81   15.90
  -1  -3  -2  890.21   16.40
   1   3   2  874.41   14.00
   1   3   2  887.41   16.30
  -2  -3  -2   92.39    4.20
  -2  -3  -2   94.49    3.90
   2   3   2   93.09    4.10
   2   3   2   89.39    3.20
  -3  -3  -2  287.77    8.30
  -3  -3  -2  290.57    7.40
   3   3   2  275.97    7.80
   3   3   2  279.37    7.00
  -4  -3  -2  204.28    6.20
  -4  -3  -2  209.98    7.20
   4   3   2  204.98    6.80
   4   3   2  202.58    6.30
  -5  -3  -2    6.70    2.40
  -5  -3  -2    6.80    2.20
   5   3   2   10.30    2.20
   5   3   2    5.60    2.10
  -6  -3  -2  132.19    6.80
   6   3   2  134.89    6.30
   6   3   2  142.49    6.20
  -7  -3  -2  106.59    6.50
   7   3   2  103.69    6.10
   7   3   2   98.39    5.70
  -8  -3  -2   29.30    5.00
  -8  -3  -2   24.50    4.70
   8   3   2   31.70    4.40
   9  -4  -2  170.08    8.60
   9  -4  -2  177.48    8.80
   8  -4  -2  239.68    9.40
   8  -4  -2  254.67    9.70
   7  -4  -2   97.09    5.90
   7  -4  -2   88.29    5.50
  -7   4   2   91.09    5.50
  -7   4   2   86.69    5.20
   6  -4  -2    2.80    1.90
   6  -4  -2    0.70    1.80
   6  -4  -2    2.90    1.90
  -6   4   2    2.40    1.90
  -6   4   2   -0.70    1.70
   5  -4  -2   73.59    4.30
   5  -4  -2   73.09    4.30
   5  -4  -2   78.09    4.80
  -5   4   2   69.99    4.30
  -5   4   2   75.09    4.30
   4  -4  -2   22.70    3.30
   4  -4  -2   25.90    3.00
   4  -4  -2   25.20    3.00
  -4   4   2   14.60    2.60
  -4   4   2   26.30    3.20
   3  -4  -2   87.59    4.50
   3  -4  -2   90.69    4.30
   3  -4  -2   84.99    3.70
  -3   4   2   90.29    4.20
  -3   4   2   80.59    4.20
   2  -4  -2  585.24   12.80
   2  -4  -2  587.94   11.00
   2  -4  -2  579.94   12.50
  -2   4   2  598.94   12.70
  -2   4   2  580.74   12.30
   1  -4  -2  890.61   16.70
   1  -4  -2  895.91   14.40
   1  -4  -2  868.71   16.80
  -1   4   2  889.41   16.60
  -1   4   2  876.31   16.70
   0  -4  -2  242.78    7.00
   0  -4  -2  232.48    6.40
   0   4   2  231.38    6.90
   0   4   2  240.48    7.00
  -1  -4  -2    0.80    1.10
  -1  -4  -2    1.20    1.30
  -1  -4  -2    1.30    1.30
   1   4   2    0.00    1.10
   1   4   2    2.70    0.90
  -2  -4  -2   93.69    3.40
  -2  -4  -2   87.29    4.20
  -2  -4  -2  100.29    4.80
   2   4   2   93.89    3.40
   2   4   2   95.19    4.60
  -3  -4  -2  120.69    5.60
  -3  -4  -2  123.99    5.00
   3   4   2  125.69    5.50
   3   4   2  121.39    4.40
  -4  -4  -2  299.47    9.30
  -4  -4  -2  278.07    8.00
   4   4   2  287.27    8.90
   4   4   2  287.97    7.80
  -5  -4  -2  128.19    6.60
   5   4   2  138.69    5.70
   5   4   2  132.49    6.30
  -6  -4  -2  114.49    6.60
   6   4   2  105.99    5.60
   6   4   2  101.99    6.10
  -7  -4  -2   25.70    4.60
   7   4   2   19.30    4.00
   7   4   2   31.80    4.40
  -8  -4  -2   -1.70    2.90
   8   4   2   -1.80    2.40
   8   4   2   -4.00    2.20
   8  -5  -2   55.19    6.00
   8  -5  -2   55.49    6.30
  -8   5   2   57.79    7.90
   7  -5  -2   83.39    5.50
   7  -5  -2   99.99    6.50
  -7   5   2   96.99    6.00
   6  -5  -2   43.50    4.60
   6  -5  -2   33.60    4.70
   6  -5  -2   33.90    4.00
  -6   5   2   35.60    4.50
  -6   5   2   43.20    4.60
   5  -5  -2  140.89    6.00
   5  -5  -2  148.09    6.40
   5  -5  -2  143.89    6.80
  -5   5   2  138.19    6.40
  -5   5   2  156.28    6.20
   4  -5  -2  108.39    4.80
   4  -5  -2  103.99    5.60
   4  -5  -2  115.39    5.50
  -4   5   2  117.39    5.30
  -4   5   2  104.89    5.50
   3  -5  -2  114.29    5.30
   3  -5  -2  108.59    5.50
   3  -5  -2  105.19    4.40
  -3   5   2   98.79    5.10
  -3   5   2  109.39    5.00
   2  -5  -2  339.87    7.70
   2  -5  -2  324.17    9.40
   2  -5  -2  335.07    9.40
  -2   5   2  340.97    9.60
  -2   5   2  361.56    9.30
   1  -5  -2  630.54   13.90
   1  -5  -2  628.74   13.70
  -1   5   2  633.64   13.70
  -1   5   2  631.14   13.90
   0  -5  -2  268.17    8.50
   0  -5  -2  279.87    7.70
   0  -5  -2  273.67    8.30
   0   5   2  276.17    8.30
  -1  -5  -2  203.98    7.40
  -1  -5  -2  208.58    6.20
  -1  -5  -2  206.48    7.00
   1   5   2  203.48    7.10
  -2  -5  -2   43.90    4.40
  -2  -5  -2   47.20    4.00
   2   5   2   49.70    3.80
  -3  -5  -2   82.39    4.60
  -3  -5  -2   86.59    5.20
   3   5   2   88.29    5.00
  -4  -5  -2  261.97    8.20
  -4  -5  -2  238.28    9.10
   4   5   2  245.58    8.70
   4   5   2  260.17    7.50
  -5  -5  -2   91.29    6.10
   5   5   2  104.99    5.20
   5   5   2   91.69    5.90
  -6  -5  -2    6.00    2.90
   6   5   2    9.00    2.90
   6   5   2    5.80    2.70
  -7  -5  -2    0.60    2.90
   7   5   2   -3.50    2.20
   7   5   2   -2.20    2.60
   8  -6  -2   14.80    3.80
   8  -6  -2   18.60    3.90
  -8   6   2   14.80    5.10
   7  -6  -2    8.60    2.90
   7  -6  -2    6.40    3.10
  -7   6   2    7.40    3.00
   6  -6  -2   20.20    3.80
   6  -6  -2   20.60    3.70
   6  -6  -2   25.60    3.90
  -6   6   2   24.30    4.20
   5  -6  -2   76.29    5.50
   5  -6  -2   79.99    5.30
   5  -6  -2   82.29    4.90
  -5   6   2   79.19    5.50
  -5   6   2   84.09    5.10
   4  -6  -2   25.90    4.00
   4  -6  -2   25.40    3.30
   4  -6  -2   23.80    3.80
  -4   6   2   25.10    3.90
  -4   6   2   27.40    3.80
   3  -6  -2    0.60    1.80
   3  -6  -2    0.50    1.90
  -3   6   2   -3.30    1.50
  -3   6   2   -0.90    1.60
   2  -6  -2  393.76   11.20
   2  -6  -2  406.06   11.40
  -2   6   2  391.56   10.70
  -2   6   2  407.76   11.30
   1  -6  -2  545.05   13.50
   1  -6  -2  556.74   13.20
  -1   6   2  534.25   13.40
  -1   6   2  547.35   13.30
   0  -6  -2  476.75   13.10
   0  -6  -2  503.85   11.90
   0  -6  -2  504.95   12.80
   0   6   2  479.35   12.40
  -1  -6  -2  185.58    7.60
  -1  -6  -2  203.58    7.50
   1   6   2  170.78    7.10
  -2  -6  -2   36.00    4.60
  -2  -6  -2   29.90    3.90
   2   6   2   30.10    3.90
  -3  -6  -2   15.00    3.50
  -3  -6  -2   11.70    2.80
   3   6   2    8.00    2.60
  -4  -6  -2   72.89    5.60
  -4  -6  -2   82.69    5.40
   4   6   2   61.39    5.00
  -5  -6  -2  103.69    6.90
   5   6   2   94.89    6.40
  -6  -6  -2   23.20    4.70
   6   6   2   20.80    4.30
   7  -7  -2   19.20    4.40
   7  -7  -2   24.80    4.20
  -7   7   2   21.20    4.50
   6  -7  -2   91.49    6.80
   6  -7  -2   93.89    6.30
   6  -7  -2  104.99    8.40
  -6   7   2  104.39    6.90
   5  -7  -2  169.08    8.30
   5  -7  -2  164.88    7.90
  -5   7   2  161.08   11.10
  -5   7   2  164.98    8.20
   4  -7  -2  135.79    7.30
   4  -7  -2  142.29    7.20
  -4   7   2  120.99    6.30
  -4   7   2  134.59    7.20
   3  -7  -2  112.39    6.40
   3  -7  -2  116.69    6.60
  -3   7   2  109.29    5.80
  -3   7   2  108.19    6.40
   2  -7  -2   32.50    4.20
   2  -7  -2   26.50    3.80
  -2   7   2   32.40    4.20
  -2   7   2   24.20    3.90
   1  -7  -2  181.28    7.70
   1  -7  -2  176.18    7.30
  -1   7   2  169.78    7.60
  -1   7   2  163.18    7.20
   0  -7  -2  187.48    7.30
   0  -7  -2  196.38    8.10
   0  -7  -2  183.38    8.20
   0   7   2  177.08    7.60
  -1  -7  -2  106.79    6.10
  -1  -7  -2  116.79    6.70
   1   7   2  112.19    6.20
  -2  -7  -2    5.30    2.70
  -2  -7  -2    1.20    2.40
   2   7   2    7.90    2.80
  -3  -7  -2    0.50    2.20
  -3  -7  -2    1.50    2.50
   3   7   2    1.40    2.30
  -4  -7  -2   63.79    7.00
   4   7   2   67.79    6.80
  -5  -7  -2   24.10    5.00
   5   7   2   27.30    4.80
   5  -8  -2  101.79    7.00
   5  -8  -2   90.79    6.90
  -5   8   2   94.49    7.10
   4  -8  -2   63.29    6.50
   4  -8  -2   63.59    6.70
  -4   8   2   75.79    6.30
  -4   8   2   65.69    7.50
   3  -8  -2   25.60    4.30
   3  -8  -2   23.30    4.20
  -3   8   2   24.40    4.40
  -3   8   2   30.40    4.70
   2  -8  -2   56.09    6.30
   2  -8  -2   55.79    6.10
  -2   8   2   53.59    6.10
  -2   8   2   55.09    6.00
   1  -8  -2   51.69    5.40
   1  -8  -2   38.80    5.00
   1  -8  -2   40.00    5.30
  -1   8   2   55.89    5.90
  -1   8   2   36.30    4.70
   0  -8  -2  162.18    8.00
   0  -8  -2  148.69    7.90
   0   8   2  158.28    7.70
  -1  -8  -2   83.39    6.20
  -1  -8  -2   77.89    6.20
   1   8   2   77.39    5.60
  -2  -8  -2   11.60    3.70
  -2  -8  -2    5.80    3.30
   2   8   2    4.90    2.70
  -3  -8  -2    1.90    2.80
  -3  -8  -2    5.90    3.10
   3   8   2    3.00    2.90
   3  -9  -2   18.90    4.30
   3  -9  -2   22.30    4.40
  -3   9   2   21.60    4.70
   2  -9  -2   50.99    6.00
   2  -9  -2   55.29    6.20
  -2   9   2   61.19    6.50
  -2   9   2   44.90    5.70
   1  -9  -2   19.80    4.70
   1  -9  -2   18.30    4.30
  -1   9   2   16.50    4.00
   0  -9  -2   97.89    7.30
   0  -9  -2   95.99    7.00
   0   9   2   96.59    6.60
  -1  -9  -2   10.40    3.80
  -1  -9  -2   14.00    4.40
   1   9   2   13.20    3.90
  -1 -10   3   25.40    4.60
  -1 -10   3   29.00    4.70
   0  10  -3   19.20    4.40
   0 -10   3   19.90    4.30
  -1  10  -3    1.10    2.90
   1 -10   3   -0.70    2.30
   1 -10   3    2.70    3.10
  -2  10  -3   48.50    6.20
   2 -10   3   49.90    6.30
   2 -10   3   50.19    6.10
  -3  10  -3   86.89    6.80
   3 -10   3   83.69    6.90
   3 -10   3   90.69    6.90
   4   9  -3   76.19    6.40
   3   9  -3  115.99    7.00
  -3  -9   3  132.09    7.70
   2   9  -3   34.00    4.50
  -2  -9   3   30.50    4.70
   1   9  -3    1.70    2.50
  -1  -9   3    8.60    3.00
   0   9  -3    0.00    2.30
   0  -9   3    2.30    2.30
   0  -9   3   -1.40    1.90
  -1   9  -3   89.69    6.20
   1  -9   3   72.29    5.70
   1  -9   3   78.99    5.70
  -2   9  -3  113.19    6.70
   2  -9   3  103.29    6.80
  -3   9  -3  217.38    9.40
   3  -9   3  204.48    9.40
   3  -9   3  210.08    8.30
  -4   9  -3  141.89    8.10
   4  -9   3  147.99    7.40
   4  -9   3  132.49    8.00
  -5   9  -3   23.40    4.40
   5  -9   3   29.30    4.80
   5  -9   3   23.20    4.90
   5   8  -3   36.20    5.30
   4   8  -3   16.80    3.90
  -4  -8   3   20.90    4.10
   3   8  -3  165.88    7.50
  -3  -8   3  168.58    7.70
   2   8  -3    8.30    2.70
  -2  -8   3    5.60    2.40
  -2  -8   3    5.60    2.70
   1   8  -3    7.10    2.60
   1   8  -3    7.20    2.80
  -1  -8   3    6.10    2.30
  -1  -8   3    5.10    2.40
   0   8  -3  173.28    7.50
   0  -8   3  173.78    7.50
   0  -8   3  160.58    9.40
  -1   8  -3   65.19    4.90
   1  -8   3   55.89    4.70
   1  -8   3   57.99    4.30
  -2   8  -3  207.58    8.30
   2  -8   3  196.88    7.40
   2  -8   3  182.58    8.10
  -3   8  -3  218.18    9.10
   3  -8   3  233.18    9.40
   3  -8   3  244.58    8.60
  -4   8  -3  100.39    6.50
   4  -8   3  106.49    6.00
   4  -8   3  105.59    6.80
  -5   8  -3   37.60    5.40
   5  -8   3   35.60    4.70
   5  -8   3   39.20    5.60
  -6   8  -3   16.10    4.20
   6  -8   3   15.70    3.70
   6  -8   3   10.30    3.40
  -7   8  -3    2.80    3.00
   7  -8   3   -0.30    2.40
   7  -8   3    1.40    3.00
   7   7  -3   35.40    4.80
  -7  -7   3   25.60    5.10
   6   7  -3   30.00    4.50
  -6  -7   3   39.50    5.70
   5   7  -3    8.80    3.00
   5   7  -3    7.40    3.00
   4   7  -3   14.50    3.20
   4   7  -3   15.70    3.40
  -4  -7   3   14.80    3.20
   3   7  -3   15.90    2.80
   3   7  -3   14.70    3.10
  -3  -7   3   17.00    3.10
   2   7  -3   -0.20    1.60
   2   7  -3    0.20    2.30
   2   7  -3   -2.00    1.50
  -2  -7   3    2.00    1.60
  -2  -7   3    0.90    1.60
  -2  -7   3    3.00    2.10
   1   7  -3  256.47    7.30
   1   7  -3  242.58    7.80
   1   7  -3  260.17    8.40
  -1  -7   3  260.97    8.20
  -1  -7   3  268.77    7.80
   0   7  -3  673.63   13.90
   0   7  -3  664.13   15.20
   0  -7   3  679.33   14.10
   0  -7   3  666.83   14.10
   0  -7   3  656.03   14.90
  -1   7  -3  135.29    6.10
   1  -7   3  126.09    6.10
   1  -7   3  133.69    5.60
  -2   7  -3  384.56   11.00
   2  -7   3  365.86   10.90
   2  -7   3  362.96   10.00
  -3   7  -3   37.40    4.70
   3  -7   3   40.20    4.20
   3  -7   3   27.70    3.90
  -4   7  -3    2.10    2.00
   4  -7   3    2.90    2.20
   4  -7   3    2.40    2.20
  -5   7  -3   94.49    6.00
   5  -7   3   91.69    5.80
   5  -7   3  104.09    6.50
  -6   7  -3   48.30    5.50
   6  -7   3   52.69    6.00
   6  -7   3   65.99    6.50
  -7   7  -3   25.40    4.80
   7  -7   3   27.40    4.70
   7  -7   3   35.40    5.10
  -8   7  -3    1.50    2.80
   7   6  -3   29.40    4.40
  -7  -6   3   29.70    4.70
   6   6  -3   17.00    3.50
  -6  -6   3   11.70    3.40
   5   6  -3   30.90    4.00
  -5  -6   3   28.60    4.40
   4   6  -3  205.08    7.10
   4   6  -3  196.98    7.60
   4   6  -3  199.38    6.80
  -4  -6   3  197.38    7.00
   3   6  -3  147.99    5.80
   3   6  -3  159.98    6.40
   3   6  -3  149.39    5.60
  -3  -6   3  147.29    5.90
  -3  -6   3  151.48    5.60
   2   6  -3  350.16    9.00
   2   6  -3  345.97    9.40
   2   6  -3  354.66    8.80
   2   6  -3  370.86    9.40
   2   6  -3  368.26    9.00
   1   6  -3  515.85   11.20
   1   6  -3  507.85   11.00
   1   6  -3  505.65   11.60
   1   6  -3  485.45   10.60
   1   6  -3  493.75   11.40
   0   6  -3  494.05   11.50
   0   6  -3  487.65   10.30
   0   6  -3  496.65   11.60
   0  -6   3  471.95   10.80
   0  -6   3  481.15   10.30
  -1   6  -3  178.28    5.10
  -1   6  -3  155.18    6.10
   1  -6   3  164.28    5.80
   1  -6   3  179.88    5.50
   1  -6   3  171.38    6.50
  -2   6  -3   16.40    2.70
   2  -6   3   15.00    2.80
   2  -6   3   15.90    2.60
   2  -6   3   17.20    2.40
  -3   6  -3    7.40    2.30
   3  -6   3   11.30    2.40
   3  -6   3    9.30    2.40
   3  -6   3    8.10    1.80
  -4   6  -3    9.00    2.50
   4  -6   3   12.20    3.00
   4  -6   3    8.70    2.30
   4  -6   3   10.70    2.20
  -5   6  -3  309.87   10.30
   5  -6   3  320.27   10.40
   5  -6   3  317.37    9.90
  -6   6  -3  222.38    9.20
   6  -6   3  218.88    8.90
   6  -6   3  230.48    8.80
  -7   6  -3   14.70    3.60
   7  -6   3   15.90    3.60
   7  -6   3   10.30    3.30
  -8   6  -3   35.60    5.60
   8  -6   3   50.59    6.10
   8  -6   3   28.70    4.50
   8   5  -3   21.20    4.00
  -8  -5   3   14.30    4.10
   7   5  -3   80.89    5.50
  -7  -5   3   69.19    5.60
   6   5  -3   31.10    3.70
   6   5  -3   28.70    3.80
  -6  -5   3   30.90    4.30
   5   5  -3  229.08    7.40
   5   5  -3  240.78    7.90
  -5  -5   3  226.88    8.50
   4   5  -3  376.96    9.70
   4   5  -3  366.06    9.20
  -4  -5   3  358.46    9.30
  -4  -5   3  376.46   10.50
   3   5  -3  703.53   13.40
   3   5  -3  700.93   13.90
   3   5  -3  707.63   14.80
   3   5  -3  724.63   14.20
  -3  -5   3  693.93   14.10
  -3  -5   3  717.03   13.20
   2   5  -3   52.09    3.10
   2   5  -3   57.39    3.20
   2   5  -3   50.99    3.20
   2   5  -3   45.80    3.10
   2   5  -3   57.89    3.40
   1   5  -3  111.09    4.20
   1   5  -3  115.19    4.60
   1   5  -3  108.89    4.40
   1   5  -3  111.49    4.30
   1   5  -3  110.79    4.20
   0   5  -3  202.08    6.00
   0   5  -3  207.58    6.30
   0   5  -3  203.58    6.30
   0   5  -3  204.58    5.40
   0  -5   3  196.48    5.60
  -1   5  -3  370.16    7.40
  -1   5  -3  370.36    9.30
  -1   5  -3  367.36    9.00
   1  -5   3  358.46    8.20
   1  -5   3  368.16    8.80
  -2   5  -3  119.59    5.10
  -2   5  -3  127.69    5.20
  -2   5  -3  124.59    3.40
   2  -5   3  124.99    4.90
   2  -5   3  120.49    4.30
  -3   5  -3   47.20    3.60
   3  -5   3   45.10    3.50
   3  -5   3   42.90    2.80
   3  -5   3   43.20    3.30
  -4   5  -3   39.80    4.20
   4  -5   3   40.70    3.00
   4  -5   3   43.00    3.70
   4  -5   3   47.60    3.60
  -5   5  -3  162.78    7.00
   5  -5   3  173.68    6.00
   5  -5   3  166.48    6.70
   5  -5   3  171.88    7.00
  -6   5  -3   91.79    5.70
   6  -5   3   92.29    5.50
   6  -5   3   88.29    4.70
   6  -5   3   93.69    5.70
  -7   5  -3   18.70    3.70
   7  -5   3   23.90    3.80
   7  -5   3   19.60    3.30
   7  -5   3   21.10    3.70
  -8   5  -3   33.80    5.30
   8  -5   3   34.80    4.80
   8  -5   3   33.20    4.30
  -9   5  -3   41.20    6.10
   9  -5   3   32.50    5.00
   9   4  -3   78.99    6.20
  -9  -4   3   88.09    7.00
   8   4  -3   22.30    3.90
   8   4  -3   17.90    3.70
  -8  -4   3   20.10    4.20
   7   4  -3   19.80    3.60
   7   4  -3   21.80    3.40
  -7  -4   3   15.80    3.60
   6   4  -3   27.20    3.60
   6   4  -3   37.90    3.90
  -6  -4   3   31.50    4.10
   5   4  -3   72.69    4.30
   5   4  -3   79.89    4.30
  -5  -4   3   72.39    4.70
  -5  -4   3   89.59    4.20
   4   4  -3  383.06    8.20
   4   4  -3  374.86    9.10
   4   4  -3  379.76    9.50
  -4  -4   3  378.66    8.70
  -4  -4   3  389.96   10.20
   3   4  -3  922.61   16.80
   3   4  -3  910.61   16.70
   3   4  -3  935.41   16.10
  -3  -4   3  924.01   17.60
  -3  -4   3  906.61   16.00
   2   4  -3  143.99    4.70
   2   4  -3  135.29    4.30
   2   4  -3  148.09    4.80
   2   4  -3  138.89    4.80
   2   4  -3  141.49    4.60
   1   4  -3  175.08    5.00
   1   4  -3  180.18    5.10
   1   4  -3  178.78    5.00
   1   4  -3  180.08    5.30
   1   4  -3  178.58    5.30
   0   4  -3   69.39    3.20
   0   4  -3   68.29    3.40
   0   4  -3   68.49    2.70
   0   4  -3   68.09    3.10
   0   4  -3   63.19    3.10
   0  -4   3   62.49    3.00
  -1   4  -3  303.27    7.40
  -1   4  -3  299.67    5.80
  -1   4  -3  299.27    7.70
  -1   4  -3  298.77    7.50
   1  -4   3  301.17    7.00
   1  -4   3  302.27    7.40
  -2   4  -3  101.99    4.30
  -2   4  -3   99.09    2.40
  -2   4  -3  106.19    4.20
  -2   4  -3   98.39    4.30
   2  -4   3  102.59    4.10
   2  -4   3  103.59    3.80
  -3   4  -3    3.50    1.60
  -3   4  -3    1.90    1.40
  -3   4  -3    4.40    1.70
   3  -4   3    2.60    1.50
   3  -4   3    5.20    1.50
  -4   4  -3  642.74   13.50
  -4   4  -3  639.34   14.00
   4  -4   3  646.54   13.80
   4  -4   3  638.54   12.90
   4  -4   3  667.43   14.00
  -5   4  -3   93.39    5.00
  -5   4  -3   92.69    4.70
   5  -4   3   89.39    4.80
   5  -4   3   99.59    5.00
   5  -4   3   89.29    4.30
  -6   4  -3   33.80    3.80
  -6   4  -3   40.00    4.80
   6  -4   3   33.90    4.00
   6  -4   3   34.20    4.10
   6  -4   3   39.80    4.10
  -7   4  -3  290.07   10.10
   7  -4   3  285.77    9.10
   7  -4   3  277.37    9.50
   7  -4   3  299.77    9.50
  -8   4  -3   68.19    6.90
   8  -4   3   60.19    5.10
   8  -4   3   62.39    4.80
  -9   4  -3   19.40    4.50
   9  -4   3   31.00    4.70
   9  -4   3   17.50    3.90
   9   3  -3   13.70    3.50
   9   3  -3   13.40    3.30
  -9  -3   3   17.00    4.30
   8   3  -3   67.59    4.90
   8   3  -3   73.59    5.30
  -8  -3   3   69.19    5.50
   7   3  -3  237.28    8.40
   7   3  -3  234.28    8.00
  -7  -3   3  220.18    8.70
   6   3  -3   34.80    4.00
   6   3  -3   34.50    3.70
  -6  -3   3   36.60    4.30
   5   3  -3   29.70    3.20
   5   3  -3   29.80    3.20
  -5  -3   3   33.30    3.80
  -5  -3   3   33.40    2.70
   4   3  -3  201.38    6.00
   4   3  -3  186.78    6.00
   4   3  -3  198.28    5.30
  -4  -3   3  195.48    5.10
  -4  -3   3  202.78    6.60
   3   3  -3  402.76    9.00
   3   3  -3  411.96    8.40
   3   3  -3  401.66    8.90
  -3  -3   3  401.86    9.50
  -3  -3   3  394.96    7.90
   2   3  -3  507.95    9.70
   2   3  -3  512.35   10.10
   2   3  -3  492.65    9.90
  -2  -3   3  479.45   10.10
  -2  -3   3  485.35    9.00
   1   3  -3    6.00    1.20
   1   3  -3    7.80    1.40
   1   3  -3    6.10    1.30
   1   3  -3    7.60    1.30
   1   3  -3    6.40    1.40
  -1  -3   3    8.80    1.50
   0   3  -3  229.28    5.40
   0   3  -3  235.08    5.70
   0   3  -3  236.58    5.80
   0   3  -3  243.38    6.00
   0  -3   3  239.48    5.70
   0  -3   3  226.88    4.90
  -1   3  -3  248.88    6.00
  -1   3  -3  246.08    6.30
  -1   3  -3  248.68    6.20
   1  -3   3  232.98    4.40
   1  -3   3  247.38    6.20
   1  -3   3  253.57    5.90
  -2   3  -3  289.27    7.10
  -2   3  -3  287.17    7.00
  -2   3  -3  294.27    7.20
   2  -3   3  274.87    6.90
   2  -3   3  291.07    6.70
  -3   3  -3  343.07    8.20
  -3   3  -3  334.57    8.10
  -3   3  -3  329.57    8.30
   3  -3   3  332.07    7.70
   3  -3   3  337.97    8.10
  -4   3  -3  741.43   14.50
  -4   3  -3  762.22   15.20
   4  -3   3  713.83   14.40
   4  -3   3  746.43   14.60
   4  -3   3  725.33   14.20
  -5   3  -3   47.10    3.30
  -5   3  -3   55.69    3.90
   5  -3   3   54.79    3.60
   5  -3   3   50.79    3.40
   5  -3   3   51.49    3.50
  -6   3  -3    0.40    1.70
  -6   3  -3    0.40    1.60
   6  -3   3    3.60    1.80
   6  -3   3    0.00    1.40
   6  -3   3    0.90    1.60
  -7   3  -3  218.28    8.60
  -7   3  -3  215.28    7.20
   7  -3   3  209.28    7.90
   7  -3   3  196.18    7.50
  -8   3  -3   65.49    5.70
   8  -3   3   51.29    5.50
   8  -3   3   52.79    5.40
  -9   3  -3   47.30    6.20
   9  -3   3   54.09    5.90
   9  -3   3   54.99    5.70
   9   2  -3   27.60    4.20
   9   2  -3   29.60    4.30
  -9  -2   3   25.90    4.60
   8   2  -3  144.49    6.70
   8   2  -3  136.79    6.70
  -8  -2   3  133.69    7.30
   7   2  -3  166.08    6.70
   7   2  -3  150.28    6.40
  -7  -2   3  140.69    6.90
   6   2  -3   50.19    3.70
   6   2  -3   50.99    3.70
  -6  -2   3   50.69    3.90
   5   2  -3   16.20    2.50
   5   2  -3   19.60    2.20
   5   2  -3   15.50    2.40
  -5  -2   3   13.20    2.50
  -5  -2   3   14.40    1.90
   4   2  -3  220.08    5.60
   4   2  -3  209.28    6.20
   4   2  -3  215.78    6.20
  -4  -2   3  210.98    5.00
  -4  -2   3  231.88    6.80
   3   2  -3  385.46    8.40
   3   2  -3  395.56    8.10
   3   2  -3  391.16    8.40
  -3  -2   3  368.56    6.70
  -3  -2   3  398.86    8.80
   2   2  -3 1502.25   23.60
   2   2  -3 1533.95   22.30
   2   2  -3 1522.75   23.50
  -2  -2   3 1499.25   23.80
  -2  -2   3 1444.46   21.70
   1   2  -3 2635.54   39.40
   1   2  -3 2725.23   38.00
   1   2  -3 2686.33   38.80
   1   2  -3 2665.13   39.60
   1   2  -3 2659.33   39.60
  -1  -2   3 2631.84   39.10
   0   2  -3  200.18    4.50
   0   2  -3  216.48    5.20
   0   2  -3  212.18    5.30
   0   2  -3  217.38    5.00
   0  -2   3  210.98    4.30
   0  -2   3  215.08    5.10
  -1   2  -3   63.79    2.80
  -1   2  -3   66.59    2.60
  -1   2  -3   64.59    2.70
  -1   2  -3   64.59    2.80
   1  -2   3   63.09    2.70
  -2   2  -3   80.89    3.20
  -2   2  -3   78.39    3.30
  -2   2  -3   74.99    3.10
   2  -2   3   75.49    3.10
   2  -2   3   75.19    3.10
  -3   2  -3   59.89    2.90
  -3   2  -3   61.59    3.20
  -3   2  -3   56.69    3.00
   3  -2   3   60.59    3.00
   3  -2   3   54.49    2.90
  -4   2  -3   84.59    3.60
  -4   2  -3   83.39    4.10
  -4   2  -3   90.29    3.90
  -4   2  -3   89.19    2.60
   4  -2   3   84.39    3.90
   4  -2   3   96.29    4.00
  -5   2  -3  373.16    9.10
  -5   2  -3  376.26   10.10
   5  -2   3  375.76    9.50
   5  -2   3  380.96    9.50
   5  -2   3  392.86    8.90
  -6   2  -3   34.20    3.50
  -6   2  -3   34.60    4.10
   6  -2   3   38.70    4.00
   6  -2   3   34.30    3.70
   6  -2   3   32.40    3.50
  -7   2  -3  146.59    7.10
   7  -2   3  139.79    6.30
   7  -2   3  143.59    6.30
  -8   2  -3   90.09    6.30
   8  -2   3  105.69    5.90
   8  -2   3   90.49    5.60
  -9   2  -3   15.50    4.00
   9  -2   3   28.00    4.50
   9  -2   3   25.90    4.30
  10   1  -3   -2.50    2.50
  10   1  -3   -1.50    2.60
 -10  -1   3   -0.80    2.70
   9   1  -3   10.00    3.20
   9   1  -3   10.40    3.30
  -9  -1   3   15.00    3.80
   8   1  -3   68.89    5.00
   8   1  -3   63.09    4.80
  -8  -1   3   71.29    5.40
   7   1  -3  136.69    6.20
   7   1  -3  155.88    6.50
  -7  -1   3  155.08    6.90
   6   1  -3  135.09    4.90
   6   1  -3  142.79    5.70
   6   1  -3  138.79    5.50
  -6  -1   3  135.39    6.00
   5   1  -3  144.59    4.80
   5   1  -3  154.58    5.30
   5   1  -3  153.78    5.50
  -5  -1   3  146.59    5.80
  -5  -1   3  154.68    4.40
   4   1  -3  610.84   11.50
   4   1  -3  590.34   11.90
   4   1  -3  601.54   11.80
  -4  -1   3  584.04   12.50
  -4  -1   3  590.54   10.10
   3   1  -3  125.79    4.00
   3   1  -3  119.99    4.10
   3   1  -3  122.29    4.00
  -3  -1   3  127.19    4.40
   2   1  -3 1134.19   17.10
   2   1  -3 1139.69   18.50
   2   1  -3 1152.18   18.50
   2   1  -3 1122.09   18.20
  -2  -1   3 1132.89   18.60
   1   1  -3 2777.72   40.80
   1   1  -3 2804.82   40.60
   1   1  -3 2766.62   40.40
   1   1  -3 2775.32   40.00
  -1  -1   3 2715.33   40.40
   0   1  -3  640.84   10.20
   0   1  -3  654.93   11.00
   0   1  -3  629.94   11.20
   0   1  -3  643.24   11.00
   0  -1   3  630.34   10.40
   0  -1   3  646.44   11.00
  -1   1  -3  610.74   10.60
  -1   1  -3  614.14   10.80
  -1   1  -3  622.74   11.10
  -1   1  -3  598.24   10.50
   1  -1   3  602.44    9.60
   1  -1   3  609.14   10.80
  -2   1  -3   62.19    2.80
  -2   1  -3   63.29    2.90
  -2   1  -3   59.69    2.50
   2  -1   3   60.29    1.90
   2  -1   3   61.69    2.60
   2  -1   3   60.89    2.70
  -3   1  -3  139.99    4.80
  -3   1  -3  133.79    4.00
  -3   1  -3  147.69    4.60
   3  -1   3  148.99    4.40
   3  -1   3  139.09    3.50
   3  -1   3  133.09    4.40
  -4   1  -3  154.98    5.60
  -4   1  -3  146.79    4.90
  -4   1  -3  151.98    4.40
   4  -1   3  153.98    5.20
   4  -1   3  156.18    4.20
   4  -1   3  152.18    4.90
  -5   1  -3  516.55   12.20
  -5   1  -3  501.65   10.20
  -5   1  -3  504.25   10.80
   5  -1   3  502.85   10.00
   5  -1   3  503.65   11.50
   5  -1   3  513.85   11.10
  -6   1  -3  413.36   11.60
  -6   1  -3  450.55   10.30
   6  -1   3  442.16   10.70
   6  -1   3  437.86   11.10
  -7   1  -3   53.29    4.70
   7  -1   3   55.29    4.30
   7  -1   3   62.59    4.30
  -8   1  -3   27.10    4.50
   8  -1   3   25.60    3.80
   8  -1   3   26.40    3.90
  -9   1  -3   69.29    7.10
   9  -1   3   74.09    5.70
   9  -1   3   71.59    5.40
  10   0  -3   34.40    5.00
  10   0  -3   24.20    4.50
 -10   0   3   19.00    4.50
   9   0  -3  124.19    7.00
   9   0  -3  130.89    6.90
  -9   0   3  120.49    7.20
   8   0  -3  123.09    6.40
   8   0  -3  127.79    6.30
  -8   0   3  120.79    6.60
   7   0  -3  110.09    5.30
   7   0  -3  120.39    5.80
  -7   0   3  122.19    6.00
   6   0  -3   65.59    3.90
   6   0  -3   75.09    4.30
   6   0  -3   58.09    3.60
  -6   0   3   67.79    4.30
   5   0  -3  442.06   10.40
   5   0  -3  439.76    9.80
   5   0  -3  442.76    9.90
  -5   0   3  447.06    8.90
  -5   0   3  449.36   10.70
   4   0  -3  337.87    7.80
   4   0  -3  333.07    7.90
   4   0  -3  311.67    5.90
   4   0  -3  312.37    7.40
  -4   0   3  320.17    6.40
  -4   0   3  323.37    8.20
   3   0  -3  255.77    6.30
   3   0  -3  251.67    5.80
   3   0  -3  257.97    6.30
   3   0  -3  248.78    5.10
  -3   0   3  258.17    6.70
  -3   0   3  252.07    4.90
   2   0  -3  457.15    8.70
   2   0  -3  461.95    8.40
   2   0  -3  454.95    8.10
  -2   0   3  451.75    9.10
   1   0  -3  743.43   12.00
   1   0  -3  683.13   12.30
   1   0  -3  718.33   10.90
   1   0  -3  700.43   11.60
   1   0  -3  712.23   11.80
  -1   0   3  705.33   12.20
   0   0  -3  147.79    3.90
   0   0  -3  147.49    3.50
   0   0  -3  143.69    3.90
   0   0  -3  146.49    3.50
   0   0   3  143.19    3.80
   0   0   3  144.69    3.70
  -1   0  -3   83.39    2.90
  -1   0  -3   76.49    2.40
  -1   0  -3   76.89    2.70
  -1   0  -3   75.69    2.90
   1   0   3   70.59    2.50
   1   0   3   73.99    2.70
  -2   0  -3   21.00    1.60
  -2   0  -3   24.30    2.10
  -2   0  -3   22.50    1.90
   2   0   3   21.90    1.50
   2   0   3   18.50    1.50
   2   0   3   22.80    2.10
  -3   0  -3  142.79    4.50
  -3   0  -3  153.18    5.10
  -3   0  -3  138.79    3.70
   3   0   3  141.39    4.10
   3   0   3  139.79    4.50
   3   0   3  135.89    3.90
  -4   0  -3  125.69    4.50
  -4   0  -3  131.39    5.30
   4   0   3  127.89    4.20
   4   0   3  125.89    4.20
   4   0   3  126.89    4.80
  -5   0  -3 1002.10   18.20
  -5   0  -3 1010.10   20.00
   5   0   3  991.10   18.90
   5   0   3 1022.60   18.00
   5   0   3 1025.80   17.90
  -6   0  -3 1166.78   20.30
  -6   0  -3 1112.49   22.40
  -6   0  -3 1132.69   20.60
   6   0   3 1111.39   20.30
   6   0   3 1088.19   21.30
  -7   0  -3   60.09    4.90
   7   0   3   61.49    4.40
   7   0   3   55.59    4.10
  -8   0  -3    2.00    2.60
   8   0   3    1.10    2.00
  -9   0  -3    8.50    3.60
   9   0   3   13.90    3.50
  10  -1  -3   66.69    6.30
  10  -1  -3   51.49    6.00
 -10   1   3   62.99    7.00
   9  -1  -3  180.78    7.80
   9  -1  -3  177.38    8.20
  -9   1   3  187.38    8.50
   8  -1  -3    2.40    2.20
   8  -1  -3    4.90    2.40
  -8   1   3    5.30    2.60
   7  -1  -3   96.79    5.30
   7  -1  -3   96.79    4.90
   7  -1  -3   89.79    5.00
  -7   1   3  102.49    5.60
   6  -1  -3  131.39    5.10
   6  -1  -3  124.39    5.40
   6  -1  -3  135.29    5.70
  -6   1   3  135.79    5.90
  -6   1   3  137.69    5.00
   5  -1  -3  409.76   10.00
   5  -1  -3  394.06    8.10
   5  -1  -3  395.36    8.90
   5  -1  -3  411.16    9.90
  -5   1   3  430.66    9.00
  -5   1   3  418.06   10.30
   4  -1  -3 1703.33   25.80
   4  -1  -3 1682.83   27.60
   4  -1  -3 1670.33   27.30
   4  -1  -3 1647.24   26.20
  -4   1   3 1660.73   27.60
  -4   1   3 1659.13   25.90
   3  -1  -3  267.87    6.00
   3  -1  -3  258.87    5.70
   3  -1  -3  272.67    7.00
   3  -1  -3  283.07    6.70
  -3   1   3  270.37    6.90
  -3   1   3  261.57    5.70
   2  -1  -3  250.87    5.70
   2  -1  -3  242.18    5.70
   2  -1  -3  254.97    6.40
   2  -1  -3  245.48    5.10
  -2   1   3  252.47    6.30
  -2   1   3  245.38    5.30
   1  -1  -3  106.59    3.50
   1  -1  -3  116.19    3.80
   1  -1  -3  111.49    3.30
   1  -1  -3  111.09    3.10
  -1   1   3  107.19    3.70
  -1   1   3  107.79    2.80
   0  -1  -3  219.78    5.40
   0  -1  -3  220.28    5.30
   0  -1  -3  216.18    4.30
   0  -1  -3  221.58    5.20
   0   1   3  215.48    4.50
   0   1   3  213.78    5.40
  -1  -1  -3  458.55    9.20
  -1  -1  -3  457.55    8.50
  -1  -1  -3  447.66    9.20
   1   1   3  452.25    8.30
   1   1   3  460.05    9.00
  -2  -1  -3  737.83   13.80
  -2  -1  -3  747.93   13.60
  -2  -1  -3  742.43   12.20
   2   1   3  741.23   13.00
   2   1   3  743.83   13.40
  -3  -1  -3  159.88    5.00
  -3  -1  -3  169.08    5.60
   3   1   3  161.08    4.00
   3   1   3  165.98    5.00
   3   1   3  171.28    5.10
  -4  -1  -3  330.87    8.10
  -4  -1  -3  345.77    9.10
   4   1   3  331.07    8.30
   4   1   3  327.67    7.00
   4   1   3  327.27    8.10
  -5  -1  -3  518.65   12.70
  -5  -1  -3  535.95   11.40
   5   1   3  537.55   12.10
   5   1   3  509.45   11.60
   5   1   3  515.05   10.50
  -6  -1  -3  264.57    9.20
   6   1   3  264.07    8.30
   6   1   3  266.07    8.00
  -7  -1  -3   64.59    4.70
  -7  -1  -3   56.09    5.00
   7   1   3   58.79    4.50
  -8  -1  -3   19.10    4.10
   8   1   3   28.80    4.40
  -9  -1  -3    6.20    3.40
   9   1   3    2.30    2.40
   9  -2  -3   40.80    5.10
  -9   2   3   34.10    5.00
   8  -2  -3   92.29    5.80
   8  -2  -3   78.49    6.00
   8  -2  -3   81.19    5.50
  -8   2   3   85.99    5.70
   7  -2  -3  331.67   10.20
   7  -2  -3  338.67    9.00
   7  -2  -3  326.27    9.90
  -7   2   3  321.87   10.10
   6  -2  -3  140.79    5.10
   6  -2  -3  135.89    6.00
   6  -2  -3  142.79    6.00
  -6   2   3  128.69    5.90
  -6   2   3  141.29    5.40
   5  -2  -3   99.59    3.80
   5  -2  -3   96.89    3.90
   5  -2  -3   97.69    4.80
   5  -2  -3  100.29    4.70
  -5   2   3   99.49    4.80
  -5   2   3  100.09    4.20
   4  -2  -3  800.22   15.70
   4  -2  -3  767.22   14.20
   4  -2  -3  769.92   13.30
   4  -2  -3  777.72   15.00
  -4   2   3  786.12   14.30
  -4   2   3  786.22   15.40
   3  -2  -3    8.80    1.60
   3  -2  -3    9.90    1.90
   3  -2  -3   11.50    1.80
   3  -2  -3   13.20    1.50
  -3   2   3   12.10    1.80
  -3   2   3    7.80    1.80
   2  -2  -3  147.79    4.70
   2  -2  -3  138.09    4.00
   2  -2  -3  142.29    4.90
  -2   2   3  140.19    4.30
  -2   2   3  142.29    4.90
   1  -2  -3   12.00    1.90
   1  -2  -3   10.50    1.70
   1  -2  -3   15.80    1.50
  -1   2   3   10.00    1.80
  -1   2   3   12.70    1.80
   0  -2  -3 1562.44   25.30
   0  -2  -3 1589.04   25.30
   0  -2  -3 1570.24   24.90
   0   2   3 1570.34   25.50
   0   2   3 1577.54   23.20
  -1  -2  -3 2124.49   31.80
  -1  -2  -3 2114.69   33.00
  -1  -2  -3 2099.69   33.10
   1   2   3 2074.69   31.20
   1   2   3 2113.99   33.00
  -2  -2  -3  121.39    4.50
  -2  -2  -3  139.29    5.00
  -2  -2  -3  127.19    3.60
   2   2   3  134.89    4.70
   2   2   3  134.39    4.10
  -3  -2  -3  457.45   10.30
  -3  -2  -3  485.85   11.10
   3   2   3  482.35   10.10
   3   2   3  478.95   10.60
  -4  -2  -3   27.00    3.00
  -4  -2  -3   29.20    3.50
   4   2   3   21.40    2.70
   4   2   3   19.90    2.90
  -5  -2  -3    9.30    2.70
  -5  -2  -3    7.50    1.90
   5   2   3    9.50    2.20
   5   2   3   13.00    2.60
  -6  -2  -3  215.08    8.40
   6   2   3  200.48    7.50
   6   2   3  204.38    7.30
  -7  -2  -3  139.39    7.50
   7   2   3  147.69    6.80
   7   2   3  153.38    6.90
  -8  -2  -3    3.30    2.80
   8   2   3    7.10    2.70
  -9  -2  -3   27.10    5.30
   9  -3  -3    7.40    3.40
   8  -3  -3  226.58    9.00
   8  -3  -3  224.98    9.00
  -8   3   3  231.08    9.00
   7  -3  -3  199.08    8.00
   7  -3  -3  220.58    8.50
  -7   3   3  219.88    8.30
   6  -3  -3  131.89    6.30
   6  -3  -3  131.79    6.10
  -6   3   3  135.89    5.60
  -6   3   3  134.69    6.20
   5  -3  -3   34.90    3.30
   5  -3  -3   26.10    3.40
   5  -3  -3   33.00    3.50
  -5   3   3   32.60    3.80
  -5   3   3   34.00    3.50
   4  -3  -3   28.10    3.30
   4  -3  -3   31.30    2.60
   4  -3  -3   37.00    3.40
  -4   3   3   33.20    3.60
  -4   3   3   32.30    2.80
   3  -3  -3  269.27    8.00
   3  -3  -3  277.47    7.40
   3  -3  -3  271.17    6.90
  -3   3   3  275.07    7.70
  -3   3   3  274.47    7.20
   2  -3  -3   76.29    3.00
   2  -3  -3   73.19    3.70
   2  -3  -3   80.39    4.00
  -2   3   3   74.09    3.80
  -2   3   3   71.09    3.50
   1  -3  -3  201.18    6.20
   1  -3  -3  202.08    6.10
   1  -3  -3  203.88    4.50
  -1   3   3  204.28    5.90
  -1   3   3  194.78    6.10
   0  -3  -3  756.92   14.10
   0  -3  -3  770.62   14.80
   0  -3  -3  738.73   14.60
   0   3   3  763.52   14.80
  -1  -3  -3  309.57    7.20
  -1  -3  -3  323.47    8.20
  -1  -3  -3  319.77    8.30
   1   3   3  323.67    8.40
   1   3   3  316.17    6.40
  -2  -3  -3   57.49    3.40
  -2  -3  -3   47.00    3.30
  -2  -3  -3   54.59    2.50
   2   3   3   54.79    3.40
   2   3   3   51.19    2.60
  -3  -3  -3  284.37    8.50
  -3  -3  -3  278.47    7.80
   3   3   3  284.67    7.20
   3   3   3  264.87    7.90
  -4  -3  -3   21.80    2.90
  -4  -3  -3   27.00    3.60
   4   3   3   28.30    3.60
   4   3   3   29.20    3.10
  -5  -3  -3   -0.20    1.90
  -5  -3  -3    1.40    1.80
   5   3   3    1.70    1.80
   5   3   3    1.40    1.60
  -6  -3  -3  203.18    8.60
   6   3   3  199.88    8.00
   6   3   3  221.68    7.90
  -7  -3  -3  101.89    6.80
   7   3   3   95.79    5.90
   7   3   3   92.59    5.70
  -8  -3  -3   41.30    5.70
   8   3   3   50.19    6.00
   8   3   3   49.99    5.40
   9  -4  -3   62.79    6.50
   9  -4  -3   60.49    6.80
   8  -4  -3  188.68    8.70
   8  -4  -3  178.38    8.20
  -8   4   3  177.88    8.10
   7  -4  -3  316.17   10.40
   7  -4  -3  325.17   11.00
  -7   4   3  319.97   10.40
   6  -4  -3   83.09    4.70
   6  -4  -3   83.79    5.00
   6  -4  -3   75.99    5.30
  -6   4   3   85.09    5.00
  -6   4   3   86.59    5.10
   5  -4  -3   23.70    3.10
   5  -4  -3   25.10    3.70
   5  -4  -3   32.00    3.60
  -5   4   3   27.30    3.60
  -5   4   3   27.50    3.50
   4  -4  -3    8.30    2.00
   4  -4  -3    2.00    1.70
   4  -4  -3    7.10    2.10
  -4   4   3    7.30    2.10
  -4   4   3   12.20    2.50
   3  -4  -3  205.28    6.00
   3  -4  -3  183.68    7.00
   3  -4  -3  214.38    6.90
  -3   4   3  206.18    6.90
  -3   4   3  192.68    6.60
   2  -4  -3  793.92   16.10
   2  -4  -3  750.72   15.60
   2  -4  -3  767.12   13.60
  -2   4   3  749.53   15.30
  -2   4   3  767.32   15.60
   1  -4  -3  247.88    7.50
   1  -4  -3  261.17    7.70
  -1   4   3  258.17    7.50
  -1   4   3  246.08    7.50
   0  -4  -3   45.10    3.30
   0  -4  -3   41.20    3.30
   0  -4  -3   44.30    3.00
   0   4   3   38.90    3.10
  -1  -4  -3  136.49    5.70
  -1  -4  -3  132.49    5.40
  -1  -4  -3  126.89    4.60
   1   4   3  125.69    5.40
  -2  -4  -3   58.49    3.80
  -2  -4  -3   52.79    3.90
   2   4   3   49.40    3.60
   2   4   3   54.59    2.80
  -3  -4  -3   44.60    3.60
  -3  -4  -3   45.80    4.00
   3   4   3   57.69    4.00
   3   4   3   56.29    3.20
  -4  -4  -3  222.98    8.50
  -4  -4  -3  223.08    7.50
   4   4   3  228.08    7.00
   4   4   3  229.38    8.10
  -5  -4  -3   54.69    5.70
   5   4   3   58.19    4.70
   5   4   3   50.59    3.80
  -6  -4  -3  112.69    6.90
   6   4   3  115.09    5.90
   6   4   3  101.79    6.20
  -7  -4  -3   70.39    7.30
   7   4   3   87.69    6.20
   7   4   3   68.89    5.30
   8  -5  -3   39.00    5.40
   8  -5  -3   56.69    6.10
   7  -5  -3   49.10    5.60
   7  -5  -3   58.99    5.00
  -7   5   3   60.69    5.10
   6  -5  -3   50.39    5.00
   6  -5  -3   46.70    5.30
   6  -5  -3   62.99    4.70
  -6   5   3   49.40    5.20
  -6   5   3   59.59    4.70
   5  -5  -3  217.88    7.60
   5  -5  -3  221.38    8.00
   5  -5  -3  217.58    8.70
  -5   5   3  222.48    8.10
  -5   5   3  218.48    8.00
   4  -5  -3   20.90    3.60
   4  -5  -3   20.30    2.90
   4  -5  -3   22.50    3.40
  -4   5   3   20.50    3.10
  -4   5   3   17.20    3.10
   3  -5  -3  142.99    5.00
   3  -5  -3  131.09    6.30
   3  -5  -3  128.29    5.90
  -3   5   3  128.59    5.90
  -3   5   3  135.29    6.00
   2  -5  -3  693.13   15.40
   2  -5  -3  683.93   15.40
  -2   5   3  676.83   15.00
  -2   5   3  675.53   15.00
   1  -5  -3   61.39    4.10
   1  -5  -3   58.69    4.20
  -1   5   3   66.09    4.20
  -1   5   3   68.79    4.40
   0  -5  -3    4.10    2.00
   0  -5  -3    7.60    2.10
   0  -5  -3    3.30    1.90
   0   5   3    6.20    2.10
  -1  -5  -3  184.58    6.10
  -1  -5  -3  165.08    7.00
  -1  -5  -3  186.08    7.00
   1   5   3  186.08    7.10
  -2  -5  -3  160.38    6.60
  -2  -5  -3  155.28    6.90
   2   5   3  161.58    6.80
  -3  -5  -3  227.48    8.80
  -3  -5  -3  229.58    8.10
   3   5   3  236.88    8.50
  -4  -5  -3  185.68    8.20
  -4  -5  -3  200.08    7.60
   4   5   3  193.28    8.10
  -5  -5  -3  116.69    7.00
   5   5   3  110.89    6.50
  -6  -5  -3   21.20    4.50
   6   5   3   14.90    4.00
  -7  -5  -3   -2.90    2.80
   7   5   3    2.20    2.80
   7  -6  -3   31.50    4.60
   7  -6  -3   26.30    4.60
   6  -6  -3  176.08    7.50
   6  -6  -3  173.48    8.70
   6  -6  -3  176.28    7.90
  -6   6   3  188.58    8.30
  -6   6   3  165.78    7.70
   5  -6  -3  155.18    7.20
   5  -6  -3  118.89    7.00
  -5   6   3  138.99    6.80
  -5   6   3  129.89    6.80
   4  -6  -3   32.00    4.70
   4  -6  -3   25.50    4.00
  -4   6   3   26.30    4.00
  -4   6   3   30.40    4.20
   3  -6  -3   -1.30    1.80
   3  -6  -3    0.10    1.80
  -3   6   3    0.20    1.90
  -3   6   3    3.10    2.00
   2  -6  -3    3.70    2.30
   2  -6  -3    3.30    2.10
  -2   6   3    4.10    2.20
  -2   6   3    4.50    2.20
   1  -6  -3    1.90    1.70
   1  -6  -3    1.30    1.90
   1  -6  -3    3.30    1.90
  -1   6   3    0.20    1.80
  -1   6   3    0.90    1.70
   0  -6  -3  223.08    8.60
   0  -6  -3  233.28    7.90
   0  -6  -3  225.68    8.50
   0   6   3  233.28    8.50
  -1  -6  -3  708.63   16.60
  -1  -6  -3  741.43   17.50
   1   6   3  703.53   16.70
  -2  -6  -3  371.66   11.10
  -2  -6  -3  359.76   11.70
   2   6   3  377.16   11.40
  -3  -6  -3   43.60    5.30
  -3  -6  -3   49.00    5.10
   3   6   3   50.29    5.40
  -4  -6  -3    2.10    2.30
  -4  -6  -3    2.00    2.50
   4   6   3   -0.20    2.40
  -5  -6  -3   27.00    5.00
   5   6   3   23.50    4.40
  -6  -6  -3   -0.40    2.80
   6   6   3    1.10    3.00
   6  -7  -3   -0.50    2.50
   6  -7  -3    0.60    2.50
  -6   7   3    0.20    2.40
   5  -7  -3   86.29    6.20
   5  -7  -3   83.09    6.40
  -5   7   3  101.19    6.80
  -5   7   3   88.09    6.00
   4  -7  -3  120.89    7.20
   4  -7  -3  125.19    7.00
  -4   7   3  128.39    6.80
  -4   7   3  138.49    7.40
   3  -7  -3   10.60    3.20
   3  -7  -3   15.50    3.80
  -3   7   3    9.70    3.20
  -3   7   3    9.60    3.00
   2  -7  -3   11.20    3.40
   2  -7  -3    3.00    2.10
  -2   7   3    9.80    3.00
  -2   7   3    5.20    2.50
   1  -7  -3  169.88    7.60
   1  -7  -3  175.88    8.20
   1  -7  -3  165.98    7.80
  -1   7   3  164.38    7.60
   0  -7  -3  213.78    9.00
   0  -7  -3  232.08    9.40
   0   7   3  213.98    8.70
  -1  -7  -3  370.86   11.80
  -1  -7  -3  364.96   12.30
   1   7   3  378.26   12.00
  -2  -7  -3   69.69    5.80
  -2  -7  -3   71.19    5.60
   2   7   3   84.49    5.70
  -3  -7  -3   -0.60    2.40
  -3  -7  -3    3.10    2.50
   3   7   3   -0.20    2.00
  -4  -7  -3    6.10    3.10
   4   7   3    5.90    3.30
   5  -8  -3  130.39    8.10
   5  -8  -3  116.29    7.90
  -5   8   3  139.99    8.30
   4  -8  -3  113.89    7.50
   4  -8  -3  120.79    7.70
  -4   8   3  106.89    7.40
  -4   8   3  109.89    6.80
   3  -8  -3   62.89    6.40
   3  -8  -3   70.39    6.00
  -3   8   3   76.99    5.90
  -3   8   3   69.79    6.00
   2  -8  -3    8.10    3.20
   2  -8  -3    7.30    2.90
  -2   8   3   10.90    3.30
  -2   8   3   13.10    3.50
   1  -8  -3   59.09    6.50
   1  -8  -3   63.59    6.40
  -1   8   3   58.09    5.90
   0  -8  -3  164.28    8.50
   0  -8  -3  170.78    8.80
   0   8   3  164.38    8.10
  -1  -8  -3   13.80    3.70
  -1  -8  -3   23.40    4.90
   1   8   3   23.40    4.40
  -2  -8  -3   72.39    7.70
  -2  -8  -3   78.39    6.40
   2   8   3   81.69    6.40
  -2 -10   4   75.89    6.70
   1  10  -4   25.60    4.90
  -1 -10   4   18.70    4.10
   0  10  -4    3.00    3.20
   0 -10   4    3.80    2.90
   0 -10   4    4.10    2.80
  -1  10  -4   58.09    6.60
   1 -10   4   51.99    6.00
   1 -10   4   59.29    6.60
  -2  10  -4  173.88    8.90
   2 -10   4  167.28    9.00
  -3  10  -4   26.20    5.10
   3 -10   4   19.10    4.20
   4   9  -4   80.59    6.40
   3   9  -4   90.79    6.30
   2   9  -4   55.59    7.90
  -2  -9   4   44.80    5.50
   1   9  -4   61.69    5.30
  -1  -9   4   58.59    5.00
  -1  -9   4   61.49    6.10
   0   9  -4    5.90    3.10
   0  -9   4   11.80    3.20
  -1   9  -4    1.90    2.30
   1  -9   4    5.70    2.80
   1  -9   4    5.50    2.60
  -2   9  -4   73.29    5.80
   2  -9   4   78.69    6.00
   2  -9   4   70.59    5.20
  -3   9  -4  265.67   10.50
   3  -9   4  239.98    9.40
   3  -9   4  242.58   10.30
  -4   9  -4   61.49    6.60
   4  -9   4   66.79    5.70
   4  -9   4   76.89    6.50
  -5   9  -4   57.89    6.80
   5  -9   4   76.19    7.20
   5  -9   4   63.39    7.40
   5   8  -4    6.50    2.80
  -5  -8   4    8.00    3.40
   4   8  -4   24.10    3.80
  -4  -8   4   22.90    4.20
   3   8  -4   50.79    5.60
   3   8  -4   38.10    4.40
   2   8  -4    2.30    2.20
  -2  -8   4    2.60    2.00
  -2  -8   4   -2.00    1.60
   1   8  -4  425.36   11.80
   1   8  -4  405.36   11.80
  -1  -8   4  412.16   11.70
  -1  -8   4  406.36   10.90
   0   8  -4  123.29    6.40
   0  -8   4  117.19    5.80
   0  -8   4  113.99    6.10
  -1   8  -4    4.90    2.50
   1  -8   4    3.50    2.40
   1  -8   4    3.50    2.10
  -2   8  -4  113.39    6.40
   2  -8   4  129.89    6.20
   2  -8   4  127.89    6.90
  -3   8  -4  142.09    7.30
   3  -8   4  142.29    6.80
   3  -8   4  149.88    7.70
  -4   8  -4  100.59    6.40
   4  -8   4   99.39    6.60
   4  -8   4   99.39    6.10
  -5   8  -4   50.29    5.70
   5  -8   4   65.59    5.80
   5  -8   4   64.99    5.40
  -6   8  -4   48.00    5.90
   6  -8   4   47.10    5.70
   6  -8   4   53.79    6.30
   7   7  -4  189.18    8.70
  -7  -7   4  180.68    9.50
   6   7  -4  113.09    6.60
  -6  -7   4   93.49    6.70
   5   7  -4   15.80    3.50
  -5  -7   4   12.10    3.50
   4   7  -4    3.20    2.20
  -4  -7   4    2.40    2.30
   3   7  -4    1.80    2.20
   3   7  -4    2.90    2.20
   3   7  -4    0.50    1.60
  -3  -7   4    0.40    1.70
   2   7  -4   31.30    3.80
   2   7  -4   32.50    4.00
   2   7  -4   33.40    3.70
   2   7  -4   42.90    4.30
   2   7  -4   42.10    4.10
   1   7  -4  319.97    9.00
   1   7  -4  307.47    9.20
   1   7  -4  322.87    8.80
   1   7  -4  318.27    8.70
   1   7  -4  313.27    9.40
   0   7  -4  212.88    7.60
   0   7  -4  201.88    7.30
   0  -7   4  207.18    6.80
   0  -7   4  201.58    7.10
  -1   7  -4   25.60    3.60
  -1   7  -4   20.20    3.20
   1  -7   4   16.20    2.70
   1  -7   4   22.30    3.30
  -2   7  -4  139.99    6.40
   2  -7   4  140.79    6.70
   2  -7   4  133.59    5.40
   2  -7   4  128.09    6.00
  -3   7  -4  105.69    5.80
   3  -7   4  106.69    5.60
   3  -7   4  109.29    6.10
  -4   7  -4  242.38    9.10
   4  -7   4  236.68    8.70
   4  -7   4  240.98    9.30
  -5   7  -4   87.09    5.90
   5  -7   4   86.19    5.70
   5  -7   4   82.49    5.90
  -6   7  -4   75.99    6.00
   6  -7   4   75.89    5.80
   6  -7   4   87.19    6.40
  -7   7  -4   45.40    5.90
   7  -7   4   45.00    5.60
   7  -7   4   41.60    5.50
   7   6  -4   85.99    6.00
  -7  -6   4   81.59    6.40
   6   6  -4   96.39    5.90
  -6  -6   4   92.19    6.30
   5   6  -4   34.40    4.00
   5   6  -4   36.70    4.00
  -5  -6   4   26.90    4.20
   4   6  -4   40.90    4.50
   4   6  -4   39.80    4.10
  -4  -6   4   42.20    4.80
   3   6  -4   75.49    4.20
   3   6  -4   68.29    4.20
   3   6  -4   68.89    4.30
  -3  -6   4   70.39    4.10
  -3  -6   4   71.59    4.50
   2   6  -4  313.57    8.50
   2   6  -4  315.77    8.70
   2   6  -4  313.57    8.70
   2   6  -4  307.87    8.60
   2   6  -4  325.67    8.50
   1   6  -4  298.47    8.60
   1   6  -4  295.07    8.20
   1   6  -4  294.27    8.20
   1   6  -4  289.57    7.80
   1   6  -4  295.07    8.00
   0   6  -4  570.54   11.20
   0   6  -4  570.34   12.90
   0   6  -4  555.04   12.40
   0  -6   4  532.55   12.30
   0  -6   4  536.95   11.80
  -1   6  -4  301.57    8.60
  -1   6  -4  300.27    8.90
   1  -6   4  286.37    8.40
   1  -6   4  285.87    7.80
  -2   6  -4   93.29    4.90
  -2   6  -4   91.49    5.00
   2  -6   4   97.09    4.40
   2  -6   4   95.89    4.80
  -3   6  -4   62.19    4.30
   3  -6   4   70.89    3.90
   3  -6   4   68.79    4.40
   3  -6   4   61.39    4.50
  -4   6  -4   41.70    4.50
   4  -6   4   47.60    4.10
   4  -6   4   55.89    3.70
   4  -6   4   49.99    4.30
  -5   6  -4  168.68    7.70
   5  -6   4  177.38    7.40
   5  -6   4  194.08    6.90
   5  -6   4  182.48    7.80
  -6   6  -4   59.59    5.00
   6  -6   4   78.49    4.80
   6  -6   4   76.69    5.60
   6  -6   4   66.99    5.10
  -7   6  -4   83.59    6.40
   7  -6   4   82.19    6.00
   7  -6   4   86.39    6.00
  -8   6  -4    5.20    3.00
   8  -6   4    1.10    2.80
   8  -6   4    1.60    2.70
   8   5  -4    3.10    2.60
  -8  -5   4   -2.80    2.20
   7   5  -4    1.20    2.10
   7   5  -4    0.80    2.40
  -7  -5   4    5.80    2.60
   6   5  -4   58.19    4.40
   6   5  -4   56.79    4.70
  -6  -5   4   60.49    5.00
   5   5  -4   12.10    2.70
   5   5  -4   10.40    2.70
  -5  -5   4    9.70    2.70
   4   5  -4  175.48    6.30
   4   5  -4  166.88    6.30
  -4  -5   4  158.78    6.60
   3   5  -4  779.32   15.00
   3   5  -4  770.62   15.50
  -3  -5   4  780.62   14.70
  -3  -5   4  785.62   16.10
   2   5  -4  402.36    9.60
   2   5  -4  408.16    9.80
   2   5  -4  414.26    9.60
   2   5  -4  404.26    9.00
  -2  -5   4  389.36    9.70
   1   5  -4  109.79    4.20
   1   5  -4  108.99    4.60
   1   5  -4  114.09    4.50
   1   5  -4  118.29    4.70
   0   5  -4   -1.30    1.10
   0   5  -4    2.10    1.40
   0   5  -4    1.70    1.20
   0   5  -4    1.80    1.30
   0  -5   4    0.10    1.20
  -1   5  -4  647.84   11.00
  -1   5  -4  619.64   13.30
  -1   5  -4  625.54   13.70
  -1   5  -4  650.03   13.20
   1  -5   4  631.44   12.80
   1  -5   4  654.23   13.40
  -2   5  -4  249.48    7.50
  -2   5  -4  244.68    7.50
  -2   5  -4  239.48    7.60
   2  -5   4  248.88    7.30
   2  -5   4  236.58    6.80
  -3   5  -4  153.78    6.10
  -3   5  -4  171.28    6.50
  -3   5  -4  156.18    6.10
   3  -5   4  155.78    5.60
   3  -5   4  168.28    6.20
  -4   5  -4  181.78    6.80
  -4   5  -4  188.28    7.10
   4  -5   4  171.88    6.90
   4  -5   4  187.88    6.90
   4  -5   4  180.88    6.20
  -5   5  -4   33.50    4.00
  -5   5  -4   37.40    4.60
   5  -5   4   30.50    3.90
   5  -5   4   36.80    4.10
   5  -5   4   41.80    4.20
  -6   5  -4   15.50    3.10
  -6   5  -4   13.70    3.20
   6  -5   4   14.80    3.20
   6  -5   4   17.00    2.90
   6  -5   4   16.70    3.40
  -7   5  -4   87.49    6.20
   7  -5   4   96.99    6.00
   7  -5   4   87.89    5.40
   7  -5   4   89.99    6.00
  -8   5  -4    8.60    3.20
   8  -5   4    8.60    2.90
   8  -5   4    9.80    3.20
   9   4  -4   10.90    3.50
   9   4  -4    5.50    3.30
  -9  -4   4    9.70    3.60
   8   4  -4   31.50    4.30
   8   4  -4   23.10    4.00
  -8  -4   4   24.20    4.30
   7   4  -4   71.69    4.90
   7   4  -4   73.99    5.20
  -7  -4   4   74.79    5.70
   6   4  -4   73.19    4.60
   6   4  -4   79.09    5.00
  -6  -4   4   65.49    4.90
   5   4  -4  137.69    5.70
   5   4  -4  141.49    6.00
  -5  -4   4  139.09    6.30
   4   4  -4  159.28    5.90
   4   4  -4  159.48    5.80
   4   4  -4  160.38    5.20
  -4  -4   4  160.48    6.20
   3   4  -4  290.87    7.90
   3   4  -4  302.77    7.50
   3   4  -4  302.27    8.00
  -3  -4   4  310.87    8.30
  -3  -4   4  294.97    6.70
   2   4  -4  159.28    5.20
   2   4  -4  158.48    4.40
   2   4  -4  162.08    5.40
   2   4  -4  159.18    5.30
  -2  -4   4  154.68    5.30
   1   4  -4   10.30    1.90
   1   4  -4   10.80    1.90
   1   4  -4   11.60    1.90
   1   4  -4    9.60    1.50
   1   4  -4   10.90    1.70
  -1  -4   4   10.50    1.70
   0   4  -4   85.09    3.80
   0   4  -4   81.09    3.40
   0   4  -4   83.19    3.60
   0   4  -4   83.39    3.90
   0  -4   4   79.09    2.90
   0  -4   4   83.29    3.70
  -1   4  -4 1547.25   26.20
  -1   4  -4 1598.64   25.80
  -1   4  -4 1582.84   25.90
   1  -4   4 1514.55   23.20
   1  -4   4 1597.04   26.20
   1  -4   4 1591.84   25.70
  -2   4  -4  628.04   12.90
  -2   4  -4  619.24   13.20
  -2   4  -4  633.44   12.80
   2  -4   4  621.44   12.50
   2  -4   4  631.64   12.90
  -3   4  -4  121.99    5.00
  -3   4  -4  117.49    5.00
  -3   4  -4  124.49    5.00
   3  -4   4  122.29    4.70
   3  -4   4  118.39    5.00
  -4   4  -4   38.00    3.90
  -4   4  -4   42.20    4.20
  -4   4  -4   34.80    3.50
   4  -4   4   33.40    3.60
   4  -4   4   33.80    3.50
  -5   4  -4  161.08    6.30
  -5   4  -4  164.68    6.80
   5  -4   4  171.08    6.60
   5  -4   4  168.28    6.30
   5  -4   4  182.38    6.70
  -6   4  -4   88.99    5.00
  -6   4  -4   97.79    5.70
   6  -4   4   94.59    5.40
   6  -4   4   94.79    5.30
   6  -4   4   92.99    5.00
  -7   4  -4  288.87    9.20
  -7   4  -4  262.07   10.00
   7  -4   4  274.27    9.20
   7  -4   4  271.07    9.50
  -8   4  -4   98.29    6.70
   8  -4   4   97.49    6.10
   8  -4   4  103.79    6.50
  -9   4  -4   82.59    6.90
   9  -4   4   67.89    6.70
   9  -4   4   74.89    6.20
   9   3  -4   12.00    3.60
   9   3  -4   25.40    4.40
  -9  -3   4   16.80    3.90
   8   3  -4  141.29    7.10
   8   3  -4  144.69    7.00
  -8  -3   4  122.99    7.30
   7   3  -4  174.48    7.30
   7   3  -4  153.18    6.80
  -7  -3   4  159.48    7.50
   6   3  -4   59.89    4.20
   6   3  -4   58.99    4.20
  -6  -3   4   50.29    4.20
   5   3  -4  154.18    5.90
   5   3  -4  157.28    5.20
   5   3  -4  157.38    5.90
  -5  -3   4  150.08    6.30
   4   3  -4   33.50    3.30
   4   3  -4   29.20    2.40
   4   3  -4   29.30    3.10
  -4  -3   4   36.70    3.80
   3   3  -4   13.30    2.10
   3   3  -4   12.00    1.90
   3   3  -4   13.00    2.00
   3   3  -4   11.10    1.40
  -3  -3   4   11.90    1.30
  -3  -3   4   13.20    2.20
   2   3  -4  414.66    8.00
   2   3  -4  407.46    9.10
   2   3  -4  412.16    9.20
   2   3  -4  422.86    9.10
  -2  -3   4  396.56    8.90
   1   3  -4  749.62   12.20
   1   3  -4  739.73   13.90
   1   3  -4  754.12   13.80
   1   3  -4  719.63   13.50
   1   3  -4  737.93   13.00
  -1  -3   4  733.63   13.00
   0   3  -4  393.06    7.90
   0   3  -4  395.36    8.80
   0   3  -4  393.96    8.60
   0   3  -4  404.16    8.50
   0  -3   4  386.66    7.40
   0  -3   4  392.56    8.60
  -1   3  -4  165.98    4.80
  -1   3  -4  165.38    5.30
  -1   3  -4  160.08    5.10
  -1   3  -4  165.08    5.10
   1  -3   4  167.18    5.00
  -2   3  -4  577.24   11.50
  -2   3  -4  558.94   11.60
  -2   3  -4  579.54   11.70
   2  -3   4  555.64   11.50
   2  -3   4  561.04   11.30
  -3   3  -4   74.19    3.80
  -3   3  -4   72.69    3.80
  -3   3  -4   71.99    3.70
   3  -3   4   76.79    3.70
   3  -3   4   71.49    3.70
  -4   3  -4   19.50    2.90
  -4   3  -4   15.70    2.50
  -4   3  -4   15.60    2.40
   4  -3   4   17.70    2.50
   4  -3   4   18.80    2.60
  -5   3  -4   10.90    2.60
  -5   3  -4   13.80    2.50
   5  -3   4    9.20    2.10
   5  -3   4    8.40    2.20
   5  -3   4   11.80    2.40
  -6   3  -4  184.88    6.80
  -6   3  -4  172.28    7.40
   6  -3   4  184.68    6.70
   6  -3   4  168.08    6.70
   6  -3   4  174.58    6.90
  -7   3  -4  339.47   11.40
  -7   3  -4  354.06   10.00
   7  -3   4  358.46   10.60
   7  -3   4  338.77   10.40
  -8   3  -4   58.99    6.40
   8  -3   4   57.79    5.90
   8  -3   4   57.69    5.80
  -9   3  -4   43.20    6.10
   9  -3   4   50.19    5.60
   9  -3   4   40.40    5.20
   9   2  -4   31.20    4.60
   9   2  -4   27.50    4.60
  -9  -2   4   29.40    4.90
   8   2  -4  137.39    6.80
   8   2  -4  133.09    6.80
  -8  -2   4  126.79    7.10
   7   2  -4  241.08    8.40
   7   2  -4  249.78    8.50
  -7  -2   4  258.07    9.40
   6   2  -4   48.00    3.70
   6   2  -4   46.60    3.70
  -6  -2   4   36.90    4.20
   5   2  -4   21.60    2.80
   5   2  -4   19.40    2.90
   5   2  -4   19.50    2.40
  -5  -2   4   16.00    2.80
   4   2  -4   11.20    2.00
   4   2  -4    7.60    1.90
   4   2  -4    8.20    1.60
  -4  -2   4    5.30    2.00
   3   2  -4  211.78    4.50
   3   2  -4  220.88    5.90
   3   2  -4  212.08    5.90
   3   2  -4  204.88    6.00
  -3  -2   4  219.18    6.40
   2   2  -4 1911.91   28.50
   2   2  -4 1890.01   29.80
   2   2  -4 1919.31   30.00
   2   2  -4 1898.31   29.90
  -2  -2   4 1882.71   29.80
   1   2  -4 3476.75   49.80
   1   2  -4 3350.56   50.19
   1   2  -4 3431.16   50.69
   1   2  -4 3396.06   48.20
   1   2  -4 3438.06   50.49
  -1  -2   4 3367.76   49.70
   0   2  -4  427.06    8.50
   0   2  -4  412.86    8.80
   0   2  -4  410.96    8.60
   0   2  -4  397.46    7.50
   0  -2   4  396.36    7.50
   0  -2   4  417.06    8.60
  -1   2  -4  299.97    6.70
  -1   2  -4  304.47    7.20
  -1   2  -4  309.57    7.20
  -1   2  -4  316.87    7.10
   1  -2   4  308.17    5.50
   1  -2   4  311.77    7.10
  -2   2  -4   50.59    2.80
  -2   2  -4   50.09    2.90
  -2   2  -4   51.39    2.90
   2  -2   4   45.50    2.70
   2  -2   4   50.89    2.80
  -3   2  -4   31.30    2.70
  -3   2  -4   29.10    2.40
  -3   2  -4   32.40    2.70
   3  -2   4   33.30    2.50
   3  -2   4   30.60    2.90
  -4   2  -4  162.58    5.60
  -4   2  -4  158.08    5.20
  -4   2  -4  147.39    5.70
   4  -2   4  161.08    5.50
   4  -2   4  161.68    5.60
  -5   2  -4  137.89    5.50
  -5   2  -4  146.19    6.20
   5  -2   4  147.09    5.50
   5  -2   4  140.59    5.60
  -6   2  -4   65.79    4.20
  -6   2  -4   70.39    4.90
   6  -2   4   69.29    4.40
   6  -2   4   75.39    4.50
  -7   2  -4  154.18    7.40
  -7   2  -4  151.68    7.60
   7  -2   4  146.29    6.50
   7  -2   4  145.59    6.70
  -8   2  -4   23.60    4.50
   8  -2   4   22.00    3.80
   8  -2   4   24.60    4.20
  -9   2  -4   54.89    6.80
   9  -2   4   54.69    5.80
   9  -2   4   51.69    5.50
   9   1  -4    3.50    2.60
   9   1  -4    1.70    2.50
  -9  -1   4   -0.40    2.70
   8   1  -4    1.30    2.30
   8   1  -4    1.10    2.30
  -8  -1   4    1.90    2.50
   7   1  -4   25.60    3.70
   7   1  -4   28.60    3.80
  -7  -1   4   19.60    3.60
   6   1  -4   45.50    3.50
   6   1  -4   42.30    3.30
   6   1  -4   43.30    3.70
  -6  -1   4   44.20    4.50
   5   1  -4  154.68    5.40
   5   1  -4  151.98    5.50
   5   1  -4  155.68    5.70
  -5  -1   4  158.28    6.10
   4   1  -4  155.78    5.30
   4   1  -4  163.48    5.50
   4   1  -4  163.18    5.20
  -4  -1   4  155.88    5.60
   3   1  -4  144.49    4.60
   3   1  -4  149.09    4.80
   3   1  -4  152.38    4.90
   3   1  -4  145.09    3.70
  -3  -1   4  149.19    5.10
   2   1  -4 2477.65   37.80
   2   1  -4 2538.85   38.30
   2   1  -4 2439.66   36.80
   2   1  -4 2506.45   37.70
  -2  -1   4 2562.54   38.30
   1   1  -4 1816.42   28.60
   1   1  -4 1922.61   28.90
   1   1  -4 1856.11   29.20
   1   1  -4 1921.01   28.60
  -1  -1   4 1845.92   28.60
   0   1  -4  105.49    3.50
   0   1  -4  109.69    3.60
   0   1  -4  108.39    3.80
   0   1  -4  105.79    3.00
   0  -1   4  107.89    3.70
   0  -1   4  107.69    3.30
  -1   1  -4   41.50    2.30
  -1   1  -4   43.50    2.40
  -1   1  -4   39.50    2.50
  -1   1  -4   41.30    2.40
   1  -1   4   40.80    1.90
   1  -1   4   40.80    2.40
  -2   1  -4  160.98    5.00
  -2   1  -4  169.98    5.20
  -2   1  -4  158.58    4.70
   2  -1   4  161.88    4.90
   2  -1   4  157.08    3.90
   2  -1   4  165.38    4.60
  -3   1  -4  208.88    5.60
  -3   1  -4  207.38    6.40
  -3   1  -4  221.08    6.30
   3  -1   4  219.48    5.70
   3  -1   4  220.28    6.20
   3  -1   4  212.18    4.80
  -4   1  -4  483.85    9.80
  -4   1  -4  474.85   10.80
  -4   1  -4  498.75   11.70
   4  -1   4  487.95   11.00
   4  -1   4  481.65   10.20
   4  -1   4  490.85    9.30
  -5   1  -4  147.59    6.20
  -5   1  -4  129.39    5.30
   5  -1   4  129.39    5.10
   5  -1   4  129.19    5.40
  -6   1  -4   56.89    4.50
  -6   1  -4   54.79    3.80
   6  -1   4   52.19    3.70
   6  -1   4   54.89    4.00
  -7   1  -4    0.70    2.10
   7  -1   4   -0.50    1.70
   7  -1   4   -0.50    1.70
  -8   1  -4  103.59    6.90
   8  -1   4  105.99    6.20
   8  -1   4  109.19    6.00
  -9   1  -4   40.30    5.70
   9  -1   4   51.69    5.80
   9   0  -4   57.89    6.10
   9   0  -4   61.19    6.00
  -9   0   4   47.60    5.70
   8   0  -4   51.89    5.30
   8   0  -4   49.10    4.90
  -8   0   4   40.10    5.20
   7   0  -4  183.38    6.80
   7   0  -4  169.78    6.60
   7   0  -4  185.38    7.30
  -7   0   4  172.58    7.50
   6   0  -4  482.65   11.50
   6   0  -4  485.85   11.20
   6   0  -4  465.85   11.80
  -6   0   4  493.35   12.50
   5   0  -4  524.35   11.30
   5   0  -4  528.55   11.80
   5   0  -4  542.35   12.00
  -5   0   4  520.75   12.50
   4   0  -4  401.46    9.50
   4   0  -4  407.96    9.40
   4   0  -4  392.26    8.70
   4   0  -4  401.86    7.70
  -4   0   4  391.26    9.80
  -4   0   4  416.36    7.30
   3   0  -4  444.36    8.50
   3   0  -4  442.96    9.80
   3   0  -4  442.26    9.40
   3   0  -4  450.25    9.00
  -3   0   4  441.36    9.90
   2   0  -4   26.20    2.70
   2   0  -4   22.90    1.20
   2   0  -4   25.40    2.00
   2   0  -4   24.30    2.20
   2   0  -4   23.30    1.80
  -2   0   4   29.10    2.70
   1   0  -4  173.18    4.50
   1   0  -4  167.98    3.80
   1   0  -4  173.98    4.80
   1   0  -4  176.98    5.10
  -1   0   4  176.48    4.50
  -1   0   4  172.48    5.00
   0   0  -4  325.27    7.30
   0   0  -4  329.17    7.30
   0   0  -4  320.97    6.60
   0   0  -4  334.87    6.60
   0   0   4  318.17    7.10
   0   0   4  329.97    6.80
  -1   0  -4  316.37    6.40
  -1   0  -4  327.17    7.20
  -1   0  -4  322.47    7.50
  -1   0  -4  323.67    7.10
   1   0   4  321.37    6.90
   1   0   4  318.47    7.00
  -2   0  -4  222.48    5.50
  -2   0  -4  221.28    6.10
  -2   0  -4  226.38    6.20
   2   0   4  226.18    5.60
   2   0   4  223.58    5.10
   2   0   4  227.18    5.90
  -3   0  -4   52.99    3.20
  -3   0  -4   64.19    2.80
  -3   0  -4   62.79    3.60
   3   0   4   63.29    2.70
   3   0   4   62.49    2.80
   3   0   4   60.39    3.30
  -4   0  -4  150.88    4.30
  -4   0  -4  147.59    5.40
  -4   0  -4  146.99    5.90
   4   0   4  151.88    4.80
   4   0   4  149.69    5.40
   4   0   4  152.78    4.70
  -5   0  -4    3.60    1.90
  -5   0  -4    6.50    1.90
   5   0   4    7.80    2.10
   5   0   4   10.00    2.00
   5   0   4    5.80    1.70
  -6   0  -4   10.20    2.40
  -6   0  -4    8.90    2.90
   6   0   4   10.40    2.70
   6   0   4   11.10    2.30
  -7   0  -4   99.19    6.30
   7   0   4   89.29    5.40
  -8   0  -4  326.47   11.80
   8   0   4  324.37   10.80
  -9   0  -4   79.69    6.90
   9   0   4   78.49    6.00
   9  -1  -4    0.50    2.50
   9  -1  -4    1.20    2.60
  -9   1   4    1.60    2.90
   8  -1  -4    1.30    2.30
   8  -1  -4   -2.20    1.70
  -8   1   4   -3.00    2.10
   7  -1  -4  450.35   12.00
   7  -1  -4  458.95   12.40
   7  -1  -4  472.45   11.40
  -7   1   4  467.65   12.60
   6  -1  -4  183.88    6.90
   6  -1  -4  190.58    6.20
   6  -1  -4  193.08    7.10
  -6   1   4  179.48    7.10
   5  -1  -4  319.07    8.80
   5  -1  -4  303.37    7.60
   5  -1  -4  310.27    8.60
  -5   1   4  304.17    8.90
   4  -1  -4  516.95   11.70
   4  -1  -4  514.85   10.10
   4  -1  -4  527.05   10.10
   4  -1  -4  508.65   11.20
  -4   1   4  538.55    9.90
  -4   1   4  518.45   11.70
   3  -1  -4  187.48    5.20
   3  -1  -4  192.18    6.00
   3  -1  -4  186.78    4.90
   3  -1  -4  186.28    5.40
  -3   1   4  182.78    4.60
  -3   1   4  183.98    6.00
   2  -1  -4  211.78    5.30
   2  -1  -4  204.88    5.50
   2  -1  -4  203.48    6.00
   2  -1  -4  193.58    4.70
  -2   1   4  195.08    4.70
  -2   1   4  195.68    6.00
   1  -1  -4    3.40    1.00
   1  -1  -4    3.60    1.30
   1  -1  -4    5.40    1.20
   1  -1  -4    4.30    1.30
  -1   1   4    4.50    1.40
  -1   1   4    4.70    1.10
   0  -1  -4  307.77    7.20
   0  -1  -4  317.47    7.10
   0  -1  -4  301.67    6.00
   0  -1  -4  321.87    7.50
   0   1   4  306.47    6.40
   0   1   4  311.87    7.40
  -1  -1  -4  346.47    8.00
  -1  -1  -4  348.87    7.50
  -1  -1  -4  345.37    6.40
  -1  -1  -4  356.96    8.30
   1   1   4  340.77    7.90
   1   1   4  356.66    7.30
  -2  -1  -4  151.38    4.40
  -2  -1  -4  156.28    5.20
  -2  -1  -4  151.18    5.20
   2   1   4  155.48    5.00
   2   1   4  157.98    4.70
   2   1   4  149.99    3.60
  -3  -1  -4  113.49    4.90
  -3  -1  -4  116.69    3.60
  -3  -1  -4  117.29    4.70
   3   1   4  116.59    3.40
   3   1   4  117.39    4.40
   3   1   4  114.29    4.40
  -4  -1  -4   37.80    3.00
  -4  -1  -4   41.00    4.20
   4   1   4   37.30    3.00
   4   1   4   34.60    2.90
  -5  -1  -4   10.20    2.80
  -5  -1  -4    7.60    2.10
   5   1   4   12.40    2.50
   5   1   4    7.90    2.10
  -6  -1  -4  257.27    8.20
  -6  -1  -4  258.87    9.50
   6   1   4  270.47    8.20
   6   1   4  254.87    8.60
  -7  -1  -4  324.97   11.40
   7   1   4  327.47   10.30
  -8  -1  -4  113.79    7.50
   8   1   4  132.69    7.00
   9  -2  -4   32.70    4.90
  -9   2   4   29.20    4.80
   8  -2  -4  104.79    6.30
   8  -2  -4   94.19    6.00
  -8   2   4  100.29    6.40
   7  -2  -4  138.59    6.70
   7  -2  -4  132.19    6.60
  -7   2   4  136.19    6.70
   6  -2  -4  166.28    7.00
   6  -2  -4  149.69    6.50
  -6   2   4  161.38    6.80
   5  -2  -4  264.77    7.10
   5  -2  -4  268.47    6.80
   5  -2  -4  277.27    8.70
   5  -2  -4  267.07    8.10
  -5   2   4  276.67    8.50
  -5   2   4  282.47    7.30
   4  -2  -4  301.57    6.70
   4  -2  -4  315.17    7.70
   4  -2  -4  307.87    8.80
   4  -2  -4  307.87    8.10
  -4   2   4  302.87    7.30
  -4   2   4  284.47    8.50
   3  -2  -4  163.48    5.10
   3  -2  -4  164.08    5.90
   3  -2  -4  158.18    4.10
   3  -2  -4  165.78    5.30
  -3   2   4  152.28    4.80
  -3   2   4  165.68    5.90
   2  -2  -4  178.88    5.50
   2  -2  -4  177.58    4.80
   2  -2  -4  171.28    5.90
  -2   2   4  177.78    5.00
  -2   2   4  172.18    4.00
  -2   2   4  173.88    5.80
   1  -2  -4   50.29    3.00
   1  -2  -4   47.20    2.90
   1  -2  -4   41.60    2.10
   1  -2  -4   39.70    2.50
  -1   2   4   39.60    1.80
  -1   2   4   43.90    2.90
   0  -2  -4  175.58    5.40
   0  -2  -4  160.38    5.10
   0  -2  -4  163.98    5.50
   0   2   4  161.98    5.40
   0   2   4  164.48    4.00
  -1  -2  -4  145.49    5.20
  -1  -2  -4  141.69    4.50
  -1  -2  -4  149.88    5.30
   1   2   4  138.99    5.10
   1   2   4  146.69    4.20
  -2  -2  -4  556.94   12.00
  -2  -2  -4  537.55   11.70
  -2  -2  -4  532.65   10.20
   2   2   4  531.65   10.60
   2   2   4  541.95   11.80
  -3  -2  -4  676.03   14.60
  -3  -2  -4  667.23   14.00
   3   2   4  679.93   14.10
   3   2   4  682.03   13.30
  -4  -2  -4   19.60    3.00
  -4  -2  -4   19.50    3.10
   4   2   4   20.30    2.90
   4   2   4   18.20    2.70
  -5  -2  -4   43.50    3.60
  -5  -2  -4   41.20    4.70
   5   2   4   42.50    3.70
   5   2   4   43.10    4.20
  -6  -2  -4  199.08    8.50
   6   2   4  198.28    7.50
   6   2   4  204.28    7.70
  -7  -2  -4   66.59    5.80
   7   2   4   71.29    5.10
   7   2   4   65.79    5.10
  -8  -2  -4   65.39    7.40
   8   2   4   62.19    6.20
   9  -3  -4  101.09    7.00
   9  -3  -4  108.89    7.10
  -9   3   4  117.39    7.50
   8  -3  -4  104.39    6.90
   8  -3  -4  106.49    6.50
  -8   3   4  125.29    7.10
   7  -3  -4    4.30    2.60
   7  -3  -4    6.20    2.90
  -7   3   4    2.90    2.50
   6  -3  -4   76.99    5.20
   6  -3  -4   80.99    4.90
  -6   3   4   74.19    5.00
   5  -3  -4   54.29    3.90
   5  -3  -4   64.29    3.90
   5  -3  -4   57.49    4.50
  -5   3   4   61.69    3.90
  -5   3   4   61.89    4.40
   4  -3  -4  115.69    4.90
   4  -3  -4  107.59    5.50
   4  -3  -4  117.89    4.90
  -4   3   4  125.59    5.00
  -4   3   4  118.29    5.60
   3  -3  -4  287.97    8.00
   3  -3  -4  269.57    7.10
   3  -3  -4  276.77    8.50
  -3   3   4  285.57    8.40
  -3   3   4  277.07    7.50
   2  -3  -4  322.37    8.80
   2  -3  -4  316.57    8.50
   2  -3  -4  322.07    7.00
  -2   3   4  312.87    7.90
  -2   3   4  299.37    8.50
   1  -3  -4  234.38    5.20
   1  -3  -4  248.68    7.00
   1  -3  -4  239.38    7.20
   1  -3  -4  232.18    7.00
  -1   3   4  242.28    7.30
   0  -3  -4    1.20    1.30
   0  -3  -4    1.70    1.50
   0  -3  -4    2.40    1.50
   0   3   4    1.70    1.40
   0   3   4    2.80    0.90
  -1  -3  -4   88.89    4.40
  -1  -3  -4   90.19    3.90
  -1  -3  -4   92.89    4.50
   1   3   4   82.29    4.30
   1   3   4   82.69    3.10
  -2  -3  -4  287.37    8.70
  -2  -3  -4  297.47    8.50
  -2  -3  -4  295.27    7.00
   2   3   4  297.47    7.10
   2   3   4  294.97    8.50
  -3  -3  -4  283.37    8.90
  -3  -3  -4  287.87    8.40
   3   3   4  278.77    8.50
   3   3   4  274.27    7.40
  -4  -3  -4   19.40    3.10
  -4  -3  -4   14.70    3.10
   4   3   4   18.80    2.70
   4   3   4   15.60    3.10
  -5  -3  -4   43.40    4.30
  -5  -3  -4   50.09    5.40
   5   3   4   42.70    4.30
   5   3   4   53.99    5.40
  -6  -3  -4  108.99    6.70
   6   3   4  113.49    6.30
   6   3   4  101.19    5.60
  -7  -3  -4   21.40    4.40
   7   3   4   20.80    3.90
   7   3   4   21.30    3.80
  -8  -3  -4   46.40    6.70
   8   3   4   41.80    5.50
   8  -4  -4   38.60    5.30
   8  -4  -4   27.40    4.50
  -8   4   4   24.70    4.50
   7  -4  -4   18.90    3.90
   7  -4  -4   23.70    4.00
  -7   4   4   25.30    4.30
   6  -4  -4  116.89    6.70
   6  -4  -4  114.69    5.90
  -6   4   4  114.39    6.30
   5  -4  -4  406.26   10.70
   5  -4  -4  413.96   11.00
   5  -4  -4  394.16   11.90
  -5   4   4  432.56   11.00
  -5   4   4  408.26   11.60
   4  -4  -4   38.70    3.30
   4  -4  -4   44.40    4.80
   4  -4  -4   39.70    4.00
  -4   4   4   40.70    4.40
  -4   4   4   40.00    4.10
   3  -4  -4  267.47    7.20
   3  -4  -4  284.27    9.00
   3  -4  -4  273.17    8.50
  -3   4   4  272.77    8.60
  -3   4   4  283.37    8.20
   2  -4  -4  318.37    9.30
   2  -4  -4  324.17    9.40
  -2   4   4  299.67    8.60
  -2   4   4  328.17    9.30
   1  -4  -4   39.00    3.30
   1  -4  -4   43.80    4.20
   1  -4  -4   43.50    4.20
  -1   4   4   42.20    3.50
   0  -4  -4   39.10    4.10
   0  -4  -4   31.10    3.50
   0  -4  -4   25.90    3.10
   0   4   4   25.50    3.30
  -1  -4  -4   20.80    3.00
  -1  -4  -4   22.50    2.80
  -1  -4  -4   23.60    3.20
   1   4   4   22.60    3.30
  -2  -4  -4   53.89    4.10
  -2  -4  -4   62.39    4.40
   2   4   4   62.69    4.30
  -3  -4  -4  297.87    9.80
  -3  -4  -4  292.07    9.20
   3   4   4  302.07    9.50
  -4  -4  -4  178.68    7.20
  -4  -4  -4  186.88    7.90
   4   4   4  172.18    6.60
   4   4   4  176.28    7.50
  -5  -4  -4   16.20    3.30
  -5  -4  -4   12.30    3.30
   5   4   4   15.40    3.50
   5   4   4   16.40    3.00
  -6  -4  -4   43.40    5.70
   6   4   4   38.60    4.50
   6   4   4   50.09    5.90
  -7  -4  -4   -1.10    3.10
   7   4   4    3.40    2.80
   7   4   4    4.70    2.50
   8  -5  -4   17.20    4.00
   8  -5  -4   21.90    4.60
  -8   5   4   27.80    5.40
   7  -5  -4   76.39    5.70
   7  -5  -4   72.39    6.20
  -7   5   4   88.49    6.30
   6  -5  -4  221.48    8.30
   6  -5  -4  211.48    8.30
   6  -5  -4  213.08    9.30
  -6   5   4  215.18    8.70
   5  -5  -4  211.98    7.50
   5  -5  -4  213.18    8.90
   5  -5  -4  206.48    8.20
  -5   5   4  215.08    8.50
  -5   5   4  222.88    8.30
   4  -5  -4    5.80    2.50
   4  -5  -4    7.10    2.70
  -4   5   4    6.00    2.50
  -4   5   4    3.50    2.30
   3  -5  -4  182.58    7.60
   3  -5  -4  185.08    7.40
  -3   5   4  178.68    7.30
  -3   5   4  178.98    7.10
   2  -5  -4  112.29    5.90
   2  -5  -4  107.69    5.70
  -2   5   4  107.99    5.60
  -2   5   4  102.39    5.40
   1  -5  -4   38.10    4.30
   1  -5  -4   39.60    4.30
   1  -5  -4   30.20    3.80
  -1   5   4   32.00    4.00
   0  -5  -4  203.68    7.10
   0  -5  -4  193.98    7.60
   0  -5  -4  197.98    7.60
   0   5   4  185.28    7.40
  -1  -5  -4   20.10    3.50
  -1  -5  -4   13.80    3.00
   1   5   4   17.90    3.20
  -2  -5  -4   12.90    2.80
  -2  -5  -4   13.10    3.20
   2   5   4   11.60    2.80
  -3  -5  -4  195.88    8.50
  -3  -5  -4  188.88    7.80
   3   5   4  205.88    8.20
  -4  -5  -4  245.88    9.80
  -4  -5  -4  257.47    9.20
   4   5   4  249.68    9.40
  -5  -5  -4  104.79    7.10
   5   5   4   91.49    6.30
  -6  -5  -4    2.50    3.10
   6   5   4    1.10    2.80
   7  -6  -4   81.29    6.90
  -7   6   4   90.89    6.60
   6  -6  -4  220.48   10.00
   6  -6  -4  240.08    9.60
  -6   6   4  252.87    9.80
   5  -6  -4  137.19    7.60
   5  -6  -4  131.19    7.30
  -5   6   4  136.79    7.20
  -5   6   4  142.29    7.20
   4  -6  -4   93.09    6.20
   4  -6  -4   90.19    5.90
  -4   6   4   93.19    6.00
  -4   6   4   98.79    6.00
   3  -6  -4    6.30    2.60
   3  -6  -4    4.30    2.30
  -3   6   4    8.30    2.80
  -3   6   4    6.50    2.50
   2  -6  -4    3.80    2.40
   2  -6  -4    2.70    2.20
  -2   6   4    3.50    2.10
  -2   6   4    6.40    2.40
   1  -6  -4    8.30    2.80
   1  -6  -4   10.40    3.10
   1  -6  -4   10.00    3.10
  -1   6   4    2.30    2.20
   0  -6  -4   57.49    4.50
   0  -6  -4   58.79    4.90
   0  -6  -4   66.79    5.20
   0   6   4   54.79    4.70
  -1  -6  -4   42.20    4.90
  -1  -6  -4   46.50    5.60
   1   6   4   44.40    5.10
  -2  -6  -4   59.89    6.00
  -2  -6  -4   55.29    6.10
   2   6   4   57.69    5.90
  -3  -6  -4  274.27   10.80
  -3  -6  -4  273.97   10.40
   3   6   4  274.87   10.20
  -4  -6  -4  250.27    9.70
  -4  -6  -4  247.68   10.50
   4   6   4  258.57   10.30
  -5  -6  -4   20.50    4.50
   5   6   4   33.30    5.70
   5  -7  -4   44.10    5.60
   5  -7  -4   32.20    5.10
  -5   7   4   48.50    5.70
  -5   7   4   45.40    5.70
   4  -7  -4    2.90    2.70
   4  -7  -4    0.50    2.60
  -4   7   4    0.30    2.50
  -4   7   4   -1.10    2.50
   3  -7  -4    2.20    2.70
   3  -7  -4   -0.90    2.10
  -3   7   4    1.70    2.30
  -3   7   4    2.20    2.40
   2  -7  -4   22.70    4.30
   2  -7  -4   19.30    4.00
   2  -7  -4   25.00    4.40
  -2   7   4   23.20    4.30
   1  -7  -4  113.29    6.50
   1  -7  -4  102.49    6.60
   1  -7  -4   90.79    6.30
  -1   7   4  100.49    6.30
   0  -7  -4  124.49    7.20
   0  -7  -4  131.79    7.50
   0   7   4  132.59    7.20
  -1  -7  -4  119.79    7.30
  -1  -7  -4  121.09    7.20
   1   7   4  133.89    7.30
  -2  -7  -4   76.79    6.30
  -2  -7  -4   74.89    6.00
   2   7   4   73.19    5.60
  -3  -7  -4   80.39    6.70
  -3  -7  -4   83.99    6.30
   3   7   4   74.69    6.20
   3  -8  -4  136.19    8.10
   3  -8  -4  122.89    8.00
  -3   8   4  123.89    7.60
  -3   8   4  130.39    7.70
   2  -8  -4   95.99    7.20
   2  -8  -4   94.49    6.90
   2  -8  -4   85.59    6.70
  -2   8   4   98.89    6.80
   1  -8  -4  109.69    7.50
   1  -8  -4  111.19    7.40
  -1   8   4  104.39    7.00
   0  -8  -4    6.70    3.20
   0  -8  -4    5.60    3.40
   0   8   4    5.60    2.90
  -1  -8  -4   14.40    4.00
  -1  -8  -4    6.80    3.50
   1   8   4    7.10    3.40
  -1 -10   5    0.70    2.50
   0  10  -5   13.50    3.80
   0 -10   5   21.20    4.30
  -1  10  -5   49.90    6.20
   1 -10   5   39.70    5.40
  -2  10  -5   73.69    6.40
   2 -10   5   67.29    7.20
   2 -10   5   77.89    6.10
  -3  10  -5  103.69    7.30
   3 -10   5  107.89    7.70
   3 -10   5  112.49    7.20
  -4  -9   5   37.00    5.80
  -3  -9   5   14.30    3.90
   1   9  -5  181.68    8.10
  -1  -9   5  166.58    7.90
   0   9  -5   65.19    5.50
   0  -9   5   68.69    5.20
   0  -9   5   57.39    6.80
   1  -9   5   48.70    5.20
   1  -9   5   51.29    5.70
  -2   9  -5   67.29    5.70
   2  -9   5   61.99    5.20
   2  -9   5   67.79    5.90
  -3   9  -5   35.60    5.20
   3  -9   5   34.90    4.90
   3  -9   5   28.40    4.80
  -4   9  -5   17.40    4.20
   4  -9   5    9.00    3.30
   4  -9   5   12.70    3.30
  -5   9  -5   50.69    6.10
   5  -9   5   60.19    6.40
   5  -9   5   43.40    6.00
   5   8  -5   36.50    4.90
  -5  -8   5   27.90    4.60
   4   8  -5   38.60    4.80
  -4  -8   5   37.40    4.80
   3   8  -5   -0.90    2.00
  -3  -8   5   -1.90    2.10
   2   8  -5   47.40    4.90
   2   8  -5   50.29    5.10
   2   8  -5   51.49    4.70
  -2  -8   5   47.00    5.00
   1   8  -5  385.36   11.50
   1   8  -5  392.26   11.20
  -1  -8   5  384.96   11.10
  -1  -8   5  380.76   10.60
   0   8  -5   16.50    3.20
   0   8  -5   17.80    3.50
   0  -8   5   16.90    3.50
   0  -8   5   18.20    3.10
  -1   8  -5  102.39    5.90
   1  -8   5  102.49    5.70
  -2   8  -5   59.79    4.90
   2  -8   5   60.69    4.80
   2  -8   5   61.29    5.20
  -3   8  -5    0.20    2.10
   3  -8   5    0.80    2.10
   3  -8   5    3.90    2.70
  -4   8  -5   54.69    6.10
   4  -8   5   52.19    5.50
   4  -8   5   49.90    5.80
  -5   8  -5  100.69    6.70
   5  -8   5  101.79    6.60
   5  -8   5   93.49    6.90
  -6   8  -5  142.79    8.10
   6  -8   5  128.29    8.10
   6  -8   5  136.49    7.90
   6   7  -5   60.39    5.90
  -6  -7   5   47.50    5.90
  -5  -7   5  168.58    8.00
   4   7  -5   57.39    4.70
   4   7  -5   48.50    4.90
  -4  -7   5   41.80    5.10
   3   7  -5   10.50    2.80
   3   7  -5   13.80    2.90
  -3  -7   5   12.00    2.70
   2   7  -5   61.19    4.30
   2   7  -5   52.89    4.20
   2   7  -5   57.69    4.50
  -2  -7   5   65.59    4.40
   1   7  -5  159.38    6.40
   1   7  -5  157.28    6.70
   1   7  -5  164.68    6.60
  -1  -7   5  156.58    6.30
  -1  -7   5  163.88    6.20
   0   7  -5  105.49    5.70
   0   7  -5  104.59    5.30
   0  -7   5  111.29    5.20
   0  -7   5  102.89    5.40
  -1   7  -5   20.70    3.30
  -1   7  -5   15.50    3.10
   1  -7   5   20.40    3.00
   1  -7   5   15.90    3.00
  -2   7  -5   22.40    3.60
  -2   7  -5   25.70    3.80
   2  -7   5   20.90    3.50
   2  -7   5   25.70    3.30
  -3   7  -5    3.20    2.00
   3  -7   5    1.20    1.90
   3  -7   5    2.60    2.10
   3  -7   5    4.00    2.00
  -4   7  -5  177.38    7.90
   4  -7   5  177.58    8.10
   4  -7   5  186.48    7.00
   4  -7   5  180.48    7.80
  -5   7  -5  370.96   12.10
   5  -7   5  384.96   12.00
   5  -7   5  379.16   12.40
  -6   7  -5  263.97   10.70
   6  -7   5  273.67   10.80
   6  -7   5  295.97   10.70
  -7   7  -5    0.60    2.40
   7  -7   5    0.70    3.30
   7  -7   5    1.80    2.70
   7   6  -5   26.90    4.40
  -7  -6   5   36.50    5.60
   6   6  -5  223.58    8.70
   6   6  -5  213.08    8.30
  -6  -6   5  215.58    9.10
   5   6  -5  196.38    7.80
   5   6  -5  196.18    7.70
  -5  -6   5  199.08    8.30
   4   6  -5  212.08    7.80
   4   6  -5  217.78    7.70
  -4  -6   5  197.28    7.80
   3   6  -5    9.70    2.30
   3   6  -5    7.80    2.30
   3   6  -5    8.70    2.40
  -3  -6   5    7.00    2.30
   2   6  -5   68.09    4.30
   2   6  -5   68.29    4.00
   2   6  -5   78.49    4.50
   2   6  -5   72.29    4.40
  -2  -6   5   72.59    4.10
   1   6  -5   12.20    2.10
   1   6  -5   14.50    2.80
   1   6  -5   18.10    2.90
  -1  -6   5   18.20    2.50
   0   6  -5  293.07    8.80
   0   6  -5  276.37    8.00
   0   6  -5  283.67    8.50
   0  -6   5  284.67    8.20
  -1   6  -5  275.77    8.80
  -1   6  -5  266.17    8.10
   1  -6   5  282.27    8.50
   1  -6   5  260.87    7.80
  -2   6  -5  241.98    7.90
  -2   6  -5  241.28    8.40
  -2   6  -5  247.98    8.10
   2  -6   5  246.08    7.50
   2  -6   5  231.58    7.90
  -3   6  -5  171.28    7.00
  -3   6  -5  179.58    7.40
  -3   6  -5  183.38    7.20
   3  -6   5  183.18    7.20
   3  -6   5  173.88    6.50
  -4   6  -5  198.98    8.00
  -4   6  -5  212.28    8.00
   4  -6   5  200.98    8.20
   4  -6   5  210.08    7.90
   4  -6   5  219.38    7.40
  -5   6  -5  186.48    8.10
  -5   6  -5  193.68    7.90
   5  -6   5  184.18    8.10
   5  -6   5  197.28    7.30
   5  -6   5  184.38    7.80
  -6   6  -5   27.30    4.00
  -6   6  -5   29.90    4.40
   6  -6   5   38.20    4.60
   6  -6   5   41.70    4.60
   6  -6   5   30.30    4.50
  -7   6  -5   13.20    3.40
   7  -6   5   19.20    4.10
   7  -6   5   19.60    4.00
   7  -6   5   17.10    3.70
  -8   6  -5   -2.30    2.60
   8  -6   5    0.90    2.60
   8  -6   5    2.30    2.90
   8   5  -5    7.70    3.00
   8   5  -5   10.20    3.30
  -8  -5   5   10.60    3.60
   7   5  -5   45.10    5.10
   7   5  -5   47.00    5.00
  -7  -5   5   48.90    5.80
   6   5  -5   54.79    4.60
   6   5  -5   56.99    5.60
  -6  -5   5   42.30    5.10
   5   5  -5   44.60    4.50
   5   5  -5   44.50    4.70
  -5  -5   5   49.30    4.30
   4   5  -5  188.88    6.90
   4   5  -5  194.38    6.50
   4   5  -5  191.78    7.00
  -4  -5   5  184.88    7.20
   3   5  -5    2.10    1.70
   3   5  -5    0.50    1.60
   3   5  -5    1.90    1.50
  -3  -5   5   -0.40    1.40
   2   5  -5   -1.10    1.20
   2   5  -5    3.60    1.70
   2   5  -5   -1.50    1.30
   2   5  -5    2.00    1.50
  -2  -5   5    2.80    1.40
   1   5  -5  114.09    4.80
   1   5  -5  103.19    4.40
   1   5  -5  114.79    5.00
   1   5  -5  110.99    4.80
   1   5  -5  110.69    4.20
  -1  -5   5   98.79    4.00
   0   5  -5  763.02   14.40
   0   5  -5  745.63   14.90
   0   5  -5  755.32   15.30
   0   5  -5  769.12   15.60
   0  -5   5  723.93   14.90
   0  -5   5  767.62   13.40
  -1   5  -5  870.31   16.70
  -1   5  -5  849.12   17.20
  -1   5  -5  874.31   16.40
   1  -5   5  833.62   16.90
   1  -5   5  832.12   16.40
  -2   5  -5   26.00    3.10
  -2   5  -5   30.80    3.40
  -2   5  -5   30.90    3.60
   2  -5   5   32.70    3.80
   2  -5   5   28.80    3.20
  -3   5  -5  404.16   10.60
  -3   5  -5  405.36   10.50
  -3   5  -5  402.16   10.80
   3  -5   5  395.26   10.60
   3  -5   5  386.56    9.90
  -4   5  -5  118.69    5.90
  -4   5  -5  131.59    5.90
  -4   5  -5  133.79    6.20
   4  -5   5  131.49    5.70
   4  -5   5  131.69    6.00
  -5   5  -5    2.80    2.10
  -5   5  -5    0.80    1.80
   5  -5   5    4.00    2.10
   5  -5   5    1.50    1.80
   5  -5   5    0.00    1.70
  -6   5  -5   99.29    6.10
  -6   5  -5   90.39    5.60
   6  -5   5  103.59    5.60
   6  -5   5   96.29    5.90
   6  -5   5  100.79    5.90
  -7   5  -5   61.69    5.30
  -7   5  -5   60.49    5.10
   7  -5   5   58.19    5.10
   7  -5   5   65.09    5.40
   7  -5   5   71.59    5.20
  -8   5  -5    6.00    3.20
   8  -5   5    6.20    2.90
   8  -5   5    3.80    2.80
   8   4  -5   28.30    4.70
   8   4  -5   33.20    4.60
  -8  -4   5   26.90    4.70
   7   4  -5   27.30    4.00
   7   4  -5   25.90    4.10
  -7  -4   5   20.20    3.90
   6   4  -5   41.90    4.30
   6   4  -5   40.80    4.20
  -6  -4   5   42.40    4.80
   5   4  -5  136.19    5.90
   5   4  -5  132.79    5.90
  -5  -4   5  126.39    6.20
   4   4  -5  138.69    5.80
   4   4  -5  141.99    5.40
   4   4  -5  142.89    5.80
  -4  -4   5  144.79    6.00
   3   4  -5  208.68    6.60
   3   4  -5  196.98    6.70
   3   4  -5  207.08    6.70
   3   4  -5  218.48    5.40
  -3  -4   5  197.58    6.60
   2   4  -5   12.40    2.10
   2   4  -5   12.00    1.60
   2   4  -5    9.30    1.70
   2   4  -5   16.30    2.50
   2   4  -5   12.90    2.10
  -2  -4   5   10.40    2.00
   1   4  -5   73.99    3.00
   1   4  -5   78.29    3.80
   1   4  -5   71.29    3.80
   1   4  -5   73.79    3.50
   1   4  -5   75.99    3.90
  -1  -4   5   66.89    3.10
   0   4  -5  445.96    9.20
   0   4  -5  458.65   10.10
   0   4  -5  442.86   10.50
   0   4  -5  442.46   10.30
   0  -4   5  454.55   10.20
   0  -4   5  439.96    8.70
  -1   4  -5  454.95    9.80
  -1   4  -5  447.86   10.30
  -1   4  -5  441.76   10.60
  -1   4  -5  443.96   10.40
   1  -4   5  448.06   10.20
   1  -4   5  433.06    7.60
  -2   4  -5  249.38    7.40
  -2   4  -5  237.18    6.90
  -2   4  -5  229.28    7.10
   2  -4   5  241.88    7.30
   2  -4   5  229.38    6.90
  -3   4  -5  625.14   13.90
  -3   4  -5  632.04   13.90
  -3   4  -5  636.54   13.60
   3  -4   5  635.84   13.70
   3  -4   5  649.83   13.60
  -4   4  -5  107.89    5.20
  -4   4  -5  112.79    5.30
  -4   4  -5  103.09    5.30
   4  -4   5  112.99    5.10
   4  -4   5  104.29    5.10
  -5   4  -5   56.29    4.20
  -5   4  -5   52.29    4.10
  -5   4  -5   51.49    4.40
   5  -4   5   60.09    4.30
   5  -4   5   63.69    4.30
  -6   4  -5   38.10    4.80
  -6   4  -5   44.20    4.60
   6  -4   5   45.70    4.70
   6  -4   5   52.39    5.20
   6  -4   5   48.60    4.80
  -7   4  -5   28.30    4.70
  -7   4  -5   37.80    4.70
   7  -4   5   22.80    4.00
   7  -4   5   29.00    4.20
  -8   4  -5   64.39    6.80
   8  -4   5   78.29    5.80
   8  -4   5   82.29    5.90
   9   3  -5   41.90    5.70
   9   3  -5   37.10    4.90
  -9  -3   5   45.30    6.10
   8   3  -5   71.19    5.40
   8   3  -5   72.59    5.60
  -8  -3   5   54.29    6.10
   7   3  -5  111.59    6.10
   7   3  -5  108.59    6.00
  -7  -3   5  116.99    6.60
   6   3  -5   38.10    4.10
   6   3  -5   41.70    4.40
  -6  -3   5   37.10    4.70
   5   3  -5   89.59    4.40
   5   3  -5   92.99    4.80
   5   3  -5   96.29    4.80
  -5  -3   5   90.19    5.20
   4   3  -5   26.00    2.80
   4   3  -5   21.60    2.80
   4   3  -5   22.60    2.90
  -4  -3   5   21.50    3.00
   3   3  -5   99.29    4.30
   3   3  -5  100.19    4.40
   3   3  -5   97.49    4.40
   3   3  -5   97.99    3.30
  -3  -3   5   96.29    4.50
   2   3  -5  542.35   11.60
   2   3  -5  545.75   11.50
   2   3  -5  560.44   11.80
   2   3  -5  547.85   10.40
  -2  -3   5  532.35   11.30
   1   3  -5  164.18    5.50
   1   3  -5  161.88    5.30
   1   3  -5  159.88    3.90
   1   3  -5  160.98    5.40
   1   3  -5  161.28    4.90
  -1  -3   5  157.58    4.70
   0   3  -5  196.28    6.10
   0   3  -5  198.88    5.00
   0   3  -5  200.68    5.70
   0   3  -5  199.38    6.00
   0  -3   5  193.98    5.90
   0  -3   5  199.88    4.80
  -1   3  -5  424.86    9.00
  -1   3  -5  426.96    9.90
  -1   3  -5  427.06    9.60
  -1   3  -5  426.56    9.50
   1  -3   5  414.96    9.50
   1  -3   5  421.96    7.40
  -2   3  -5  289.27    7.50
  -2   3  -5  281.67    7.80
  -2   3  -5  271.57    7.50
   2  -3   5  285.17    7.60
   2  -3   5  276.37    7.50
  -3   3  -5   71.09    3.90
  -3   3  -5   65.89    3.90
  -3   3  -5   76.49    4.10
   3  -3   5   80.99    4.00
   3  -3   5   69.69    3.80
  -4   3  -5  202.58    6.90
  -4   3  -5  195.28    6.70
  -4   3  -5  208.18    7.20
   4  -3   5  208.38    6.80
   4  -3   5  214.28    7.00
  -5   3  -5   -0.20    1.80
  -5   3  -5    1.50    2.10
  -5   3  -5    2.20    1.60
   5  -3   5    0.10    1.60
   5  -3   5    1.40    1.70
  -6   3  -5   17.90    3.60
  -6   3  -5   24.10    3.40
   6  -3   5   24.20    3.50
   6  -3   5   21.40    3.30
  -7   3  -5  152.18    6.80
  -7   3  -5  137.19    7.50
   7  -3   5  146.99    7.00
   7  -3   5  146.19    6.90
  -8   3  -5  101.79    7.20
   8  -3   5  115.59    6.60
   8  -3   5  103.09    6.40
  -9   3  -5  120.49    8.00
   9  -3   5  112.39    7.00
   9  -3   5  103.09    6.90
   9   2  -5   51.29    5.80
   9   2  -5   67.29    5.60
  -9  -2   5   55.49    6.30
   8   2  -5   75.29    5.50
   8   2  -5   61.79    5.10
  -8  -2   5   60.29    6.30
   7   2  -5   41.40    4.40
   7   2  -5   57.79    4.50
  -7  -2   5   45.60    5.10
   6   2  -5   45.10    3.60
   6   2  -5   35.70    4.10
   6   2  -5   47.80    3.90
  -6  -2   5   48.80    5.00
   5   2  -5  220.08    7.10
   5   2  -5  221.78    7.30
   5   2  -5  226.38    6.90
  -5  -2   5  207.58    7.50
   4   2  -5    6.60    1.80
   4   2  -5    9.60    2.10
   4   2  -5   11.70    2.10
  -4  -2   5    9.90    2.30
   3   2  -5   43.10    2.90
   3   2  -5   34.20    2.70
   3   2  -5   37.70    2.10
   3   2  -5   39.60    2.80
  -3  -2   5   41.40    3.00
   2   2  -5 1335.77   22.50
   2   2  -5 1339.37   21.50
   2   2  -5 1349.27   22.80
   2   2  -5 1345.17   23.00
  -2  -2   5 1356.06   22.60
   1   2  -5    2.60    1.30
   1   2  -5    6.20    0.90
   1   2  -5    2.80    1.40
   1   2  -5    4.00    1.30
  -1  -2   5    4.30    1.50
  -1  -2   5    6.00    1.40
   0   2  -5  175.58    5.50
   0   2  -5  177.68    5.20
   0   2  -5  167.48    4.20
   0   2  -5  164.28    5.10
   0  -2   5  161.48    4.30
   0  -2   5  164.18    5.20
  -1   2  -5  791.92   14.90
  -1   2  -5  783.22   14.80
  -1   2  -5  783.62   14.40
  -1   2  -5  775.72   13.80
   1  -2   5  780.82   12.80
   1  -2   5  775.32   14.50
  -2   2  -5  110.79    4.30
  -2   2  -5  103.09    4.40
  -2   2  -5  105.59    4.30
   2  -2   5  113.89    4.40
   2  -2   5  104.89    4.30
   2  -2   5  110.89    2.90
  -3   2  -5  253.87    7.00
  -3   2  -5  256.67    7.40
  -3   2  -5  249.97    7.40
   3  -2   5  263.27    7.10
   3  -2   5  254.57    7.30
  -4   2  -5  349.57    8.70
  -4   2  -5  360.66    9.80
  -4   2  -5  353.56    9.40
   4  -2   5  354.16    9.00
   4  -2   5  348.97    9.20
  -5   2  -5  179.98    7.20
  -5   2  -5  186.08    6.70
  -5   2  -5  193.08    6.30
   5  -2   5  185.78    6.50
   5  -2   5  179.98    6.80
  -6   2  -5   21.70    3.30
  -6   2  -5   18.60    3.50
   6  -2   5   20.20    3.30
   6  -2   5   17.00    3.20
  -7   2  -5    5.30    2.60
  -7   2  -5    6.50    2.60
   7  -2   5    5.30    2.30
   7  -2   5    4.50    2.30
  -8   2  -5   34.60    5.40
   8  -2   5   48.10    5.20
   8  -2   5   48.40    5.40
  -9   2  -5   60.49    7.20
   9  -2   5   68.99    7.10
   9   1  -5  104.39    6.60
   9   1  -5  109.39    6.90
  -9  -1   5   93.79    6.90
   8   1  -5   60.49    5.90
   8   1  -5   66.19    5.10
  -8  -1   5   65.29    5.70
   7   1  -5    2.50    2.20
   7   1  -5    2.90    2.50
   7   1  -5    0.50    1.90
  -7  -1   5    1.70    2.30
   6   1  -5   39.50    4.00
   6   1  -5   39.10    3.90
   6   1  -5   38.40    4.20
  -6  -1   5   34.80    4.20
   5   1  -5  119.09    5.20
   5   1  -5  113.29    5.10
   5   1  -5  104.49    4.70
  -5  -1   5  111.79    5.50
   4   1  -5   64.99    3.70
   4   1  -5   71.19    3.90
   4   1  -5   65.49    3.60
  -4  -1   5   67.69    4.00
   3   1  -5  116.49    4.60
   3   1  -5  123.69    4.50
   3   1  -5  121.29    3.70
   3   1  -5  124.09    4.80
  -3  -1   5  131.69    5.00
   2   1  -5  543.95   11.60
   2   1  -5  552.54   10.90
   2   1  -5  542.75   10.50
   2   1  -5  560.84   11.20
  -2  -1   5  555.54   11.40
   1   1  -5  331.67    8.00
   1   1  -5  333.87    7.60
   1   1  -5  336.47    7.60
  -1  -1   5  330.67    7.60
  -1  -1   5  322.07    7.50
   0   1  -5  512.05   10.20
   0   1  -5  519.85   10.60
   0   1  -5  528.65   10.90
   0  -1   5  506.25   10.00
   0  -1   5  503.25   10.30
  -1   1  -5  838.92   15.00
  -1   1  -5  791.82   14.30
  -1   1  -5  800.72   14.30
  -1   1  -5  807.92   15.00
   1  -1   5  807.42   14.70
   1  -1   5  772.82   13.60
  -2   1  -5   67.09    3.60
  -2   1  -5   63.89    3.30
  -2   1  -5   66.99    3.50
   2  -1   5   61.19    2.60
   2  -1   5   67.09    3.10
   2  -1   5   67.69    3.50
  -3   1  -5   87.79    3.80
  -3   1  -5   80.49    4.20
  -3   1  -5   83.79    4.20
   3  -1   5   79.39    3.60
   3  -1   5   80.99    3.00
   3  -1   5   80.79    3.90
  -4   1  -5  153.58    6.20
  -4   1  -5  160.08    6.00
  -4   1  -5  159.58    5.20
   4  -1   5  143.99    5.10
   4  -1   5  139.09    5.60
   4  -1   5  155.98    6.50
  -5   1  -5  344.97   10.40
  -5   1  -5  342.47    9.50
   5  -1   5  341.77    9.60
   5  -1   5  337.87    8.70
  -6   1  -5    7.80    2.50
  -6   1  -5   10.00    2.90
   6  -1   5    8.70    2.30
   6  -1   5    8.40    2.60
  -7   1  -5    8.20    3.10
   7  -1   5   12.80    3.10
  -8   1  -5   54.79    6.60
   8  -1   5   37.80    4.80
  -9   1  -5   10.80    4.10
   9   0  -5   -1.60    2.30
   9   0  -5    1.90    2.80
  -9   0   5    3.40    3.10
   8   0  -5    7.70    2.80
   8   0  -5    2.30    2.30
  -8   0   5    4.90    2.90
   7   0  -5   26.00    3.70
   7   0  -5   22.60    3.50
   7   0  -5   26.90    4.00
  -7   0   5   26.70    4.10
   6   0  -5    0.20    1.60
   6   0  -5   -0.40    1.60
   6   0  -5    1.50    2.00
  -6   0   5    2.40    2.10
   5   0  -5  656.53   14.20
   5   0  -5  628.24   13.00
   5   0  -5  640.54   13.90
  -5   0   5  634.44   14.60
   4   0  -5 1010.80   18.70
   4   0  -5  978.50   16.80
   4   0  -5 1019.60   18.00
  -4   0   5 1034.60   19.50
   3   0  -5  138.49    4.90
   3   0  -5  143.39    4.40
   3   0  -5  142.59    5.30
   3   0  -5  143.59    4.70
  -3   0   5  142.09    5.30
   2   0  -5    8.70    1.10
   2   0  -5    6.70    1.50
   2   0  -5    8.00    1.60
   2   0  -5    6.10    1.60
   2   0  -5   10.60    1.70
  -2   0   5    6.30    1.80
   1   0  -5  350.06    7.00
   1   0  -5  359.26    7.90
   1   0  -5  370.86    8.30
   1   0  -5  366.16    8.70
  -1   0   5  375.86    8.60
  -1   0   5  367.06    7.80
   0   0  -5  318.67    7.00
   0   0  -5  305.77    6.80
   0   0  -5  321.97    7.80
   0   0  -5  323.97    7.80
   0   0   5  314.87    7.50
   0   0   5  324.77    7.20
  -1   0  -5  528.85   10.80
  -1   0  -5  528.85   10.60
  -1   0  -5  511.15    9.80
  -1   0  -5  526.15   11.10
   1   0   5  520.35   10.50
   1   0   5  536.85   10.60
  -2   0  -5  195.78    6.10
  -2   0  -5  191.58    5.60
  -2   0  -5  199.88    6.20
   2   0   5  192.38    5.70
   2   0   5  193.88    5.50
   2   0   5  195.38    5.00
  -3   0  -5   68.59    4.10
  -3   0  -5   62.39    3.80
  -3   0  -5   70.49    3.20
   3   0   5   69.89    3.30
   3   0   5   68.79    3.00
   3   0   5   60.69    3.50
  -4   0  -5  143.99    5.70
  -4   0  -5  135.29    6.00
   4   0   5  146.89    5.60
   4   0   5  140.59    4.90
   4   0   5  145.79    4.70
  -5   0  -5   49.10    4.20
  -5   0  -5   45.60    3.70
   5   0   5   43.70    3.60
  -6   0  -5   42.00    4.30
  -6   0  -5   33.20    4.60
   6   0   5   31.00    4.10
  -7   0  -5    5.70    3.00
   7   0   5   12.20    2.90
  -8   0  -5   12.30    3.60
   8   0   5   13.40    3.50
   9  -1  -5    1.60    2.70
  -9   1   5   -0.20    2.80
   8  -1  -5   27.30    4.20
   8  -1  -5   32.00    4.50
  -8   1   5   22.50    4.40
   7  -1  -5   29.00    4.00
   7  -1  -5   21.70    3.70
   7  -1  -5   28.50    3.60
  -7   1   5   23.50    4.10
   6  -1  -5    6.20    2.30
   6  -1  -5    9.80    2.60
   6  -1  -5    8.30    2.30
  -6   1   5    8.60    2.80
   5  -1  -5  837.72   17.20
   5  -1  -5  867.01   16.00
   5  -1  -5  871.01   17.90
  -5   1   5  870.41   18.10
   4  -1  -5  496.15   10.30
   4  -1  -5  490.25   11.90
   4  -1  -5  499.15   10.20
   4  -1  -5  478.15   11.10
  -4   1   5  497.35   11.90
   3  -1  -5   36.30    2.40
   3  -1  -5   34.60    3.50
   3  -1  -5   32.60    2.60
   3  -1  -5   38.80    2.70
  -3   1   5   36.50    3.80
   2  -1  -5    3.90    1.30
   2  -1  -5    3.70    1.40
   2  -1  -5    3.50    1.50
   2  -1  -5    5.40    1.20
  -2   1   5    3.80    1.60
  -2   1   5    1.20    1.20
   1  -1  -5  355.16    8.60
   1  -1  -5  337.77    7.40
   1  -1  -5  335.87    8.30
   1  -1  -5  329.97    7.30
  -1   1   5  352.86    8.60
  -1   1   5  339.17    7.20
   0  -1  -5 1465.85   25.40
   0  -1  -5 1496.65   23.50
   0  -1  -5 1527.85   24.70
   0  -1  -5 1546.05   25.30
   0   1   5 1549.54   25.40
   0   1   5 1538.95   24.00
  -1  -1  -5  105.49    3.20
  -1  -1  -5  111.99    4.40
  -1  -1  -5  106.69    4.10
  -1  -1  -5  105.79    4.50
   1   1   5  107.89    4.30
   1   1   5  106.39    3.80
  -2  -1  -5  173.08    5.90
  -2  -1  -5  171.18    5.10
  -2  -1  -5  165.18    5.90
   2   1   5  167.98    5.30
   2   1   5  168.28    5.60
  -3  -1  -5   37.90    2.50
  -3  -1  -5   38.10    3.30
  -3  -1  -5   41.60    4.00
   3   1   5   35.00    3.30
   3   1   5   40.30    3.10
  -4  -1  -5   46.50    4.00
  -4  -1  -5   44.50    3.60
   4   1   5   45.70    3.30
   4   1   5   42.40    3.30
  -5  -1  -5   32.00    3.80
  -5  -1  -5   31.30    4.40
   5   1   5   40.00    4.10
   5   1   5   32.40    3.70
  -6  -1  -5  176.08    8.20
  -6  -1  -5  180.68    7.30
   6   1   5  162.48    7.00
  -7  -1  -5   28.20    4.80
   7   1   5   28.30    4.10
  -8  -1  -5  102.59    7.40
   8   1   5   98.39    6.30
   9  -2  -5   93.69    6.70
  -9   2   5  102.19    7.30
   8  -2  -5   71.99    5.60
   8  -2  -5   72.89    5.80
  -8   2   5   80.69    6.00
   7  -2  -5   40.10    4.90
   7  -2  -5   36.50    4.40
  -7   2   5   41.00    5.10
   6  -2  -5   19.70    3.40
   6  -2  -5   26.30    3.60
  -6   2   5   25.50    4.00
   5  -2  -5   64.49    4.60
   5  -2  -5   51.99    3.60
   5  -2  -5   64.79    4.10
  -5   2   5   66.39    4.80
   4  -2  -5  357.66   10.20
   4  -2  -5  379.56    9.20
   4  -2  -5  367.06    9.20
  -4   2   5  361.46   10.30
   3  -2  -5  401.16    9.20
   3  -2  -5  392.76   10.40
   3  -2  -5  418.86    9.80
  -3   2   5  412.36    8.90
  -3   2   5  397.06   10.50
   2  -2  -5  174.28    5.00
   2  -2  -5  175.38    5.90
   2  -2  -5  168.98    6.20
   2  -2  -5  175.28    5.30
  -2   2   5  173.38    6.20
  -2   2   5  169.88    4.40
   1  -2  -5  355.76    9.10
   1  -2  -5  364.76    8.40
   1  -2  -5  351.06    9.10
  -1   2   5  357.86    7.10
  -1   2   5  357.46    9.20
   0  -2  -5  312.17    8.10
   0  -2  -5  303.87    8.00
   0  -2  -5  309.17    8.40
   0   2   5  313.27    8.50
   0   2   5  313.47    6.70
  -1  -2  -5   21.30    2.90
  -1  -2  -5   26.60    2.80
  -1  -2  -5   21.70    2.90
   1   2   5   26.00    3.20
   1   2   5   26.60    2.10
  -2  -2  -5   58.29    3.90
  -2  -2  -5   62.59    4.00
  -2  -2  -5   61.09    3.20
   2   2   5   55.09    3.70
   2   2   5   53.09    3.10
  -3  -2  -5   61.89    4.10
  -3  -2  -5   74.29    4.60
   3   2   5   69.09    3.80
   3   2   5   59.99    3.90
  -4  -2  -5   10.60    2.40
  -4  -2  -5   13.10    2.90
   4   2   5   11.40    2.50
   4   2   5    9.90    2.40
  -5  -2  -5  311.17   10.50
  -5  -2  -5  321.87    9.70
   5   2   5  311.67    9.30
   5   2   5  315.97    9.50
  -6  -2  -5  102.59    6.60
   6   2   5  106.29    5.90
   6   2   5  107.89    5.80
  -7  -2  -5   50.69    6.30
   7   2   5   78.89    5.50
  -8  -2  -5   28.50    5.10
   8   2   5   34.30    5.00
   8  -3  -5  102.49    6.80
   8  -3  -5   77.89    6.10
   7  -3  -5   28.00    4.10
   7  -3  -5   39.70    4.90
  -7   3   5   32.00    4.60
   6  -3  -5   41.40    4.60
   6  -3  -5   32.10    4.50
  -6   3   5   38.40    4.80
   5  -3  -5   -1.60    1.70
   5  -3  -5   -1.90    1.60
   5  -3  -5   -1.90    1.90
  -5   3   5    2.60    2.00
   4  -3  -5  136.79    5.70
   4  -3  -5  122.59    6.20
   4  -3  -5  123.39    5.10
  -4   3   5  127.99    6.10
  -4   3   5  128.49    5.20
   3  -3  -5  641.74   14.00
   3  -3  -5  637.04   14.80
   3  -3  -5  648.34   12.80
  -3   3   5  656.73   13.30
  -3   3   5  609.74   14.50
   2  -3  -5  426.56   11.10
   2  -3  -5  444.06   10.40
   2  -3  -5  436.86    9.10
   2  -3  -5  427.76   10.90
  -2   3   5  440.56   11.20
   1  -3  -5   39.70    3.30
   1  -3  -5   41.80    3.50
   1  -3  -5   49.40    3.40
  -1   3   5   45.70    3.60
   0  -3  -5   15.20    2.40
   0  -3  -5   13.00    2.50
   0  -3  -5   16.60    2.70
   0   3   5   15.70    2.70
  -1  -3  -5   23.00    2.90
  -1  -3  -5   26.00    3.30
  -1  -3  -5   28.10    3.40
   1   3   5   24.10    3.30
  -2  -3  -5   12.70    2.70
  -2  -3  -5   10.90    2.70
   2   3   5   13.40    2.70
   2   3   5   13.90    2.20
  -3  -3  -5  296.57    9.20
  -3  -3  -5  293.07    9.50
   3   3   5  279.17    9.00
   3   3   5  279.27    7.70
  -4  -3  -5  153.98    7.20
  -4  -3  -5  160.08    6.80
   4   3   5  162.08    6.80
   4   3   5  160.58    6.10
  -5  -3  -5  106.89    6.60
  -5  -3  -5  111.29    6.00
   5   3   5  102.29    5.40
   5   3   5   96.89    5.70
  -6  -3  -5   23.40    4.70
   6   3   5   34.60    4.30
   6   3   5   30.90    4.60
  -7  -3  -5    2.30    3.50
   7   3   5    2.00    3.60
   7   3   5   -0.50    2.30
   8  -4  -5   12.30    4.00
   8  -4  -5   13.30    3.80
  -8   4   5   20.50    4.40
   7  -4  -5   -0.80    2.40
   7  -4  -5    1.50    2.60
  -7   4   5    4.10    2.80
   6  -4  -5   81.09    6.10
   6  -4  -5   86.09    5.40
  -6   4   5   85.89    5.90
   5  -4  -5   29.20    3.90
   5  -4  -5   30.60    4.50
   5  -4  -5   33.30    4.00
  -5   4   5   31.00    4.50
   4  -4  -5   54.29    3.80
   4  -4  -5   52.99    4.40
   4  -4  -5   51.39    4.60
  -4   4   5   49.90    5.10
  -4   4   5   46.60    4.40
   3  -4  -5 1177.68   22.80
   3  -4  -5 1160.48   23.40
  -3   4   5 1186.38   23.20
  -3   4   5 1170.78   21.90
   2  -4  -5  165.68    6.80
   2  -4  -5  173.68    7.10
   2  -4  -5  161.18    6.40
  -2   4   5  168.58    7.00
   1  -4  -5    2.70    1.90
   1  -4  -5    2.90    1.90
   1  -4  -5    8.80    2.30
  -1   4   5    2.70    1.90
   0  -4  -5   42.60    4.10
   0  -4  -5   36.30    4.20
   0  -4  -5   39.40    4.30
   0   4   5   32.90    4.00
  -1  -4  -5    7.50    2.40
  -1  -4  -5   10.50    2.60
  -1  -4  -5    8.20    2.20
   1   4   5    7.10    2.40
  -2  -4  -5   53.99    4.40
  -2  -4  -5   61.79    4.70
   2   4   5   59.59    4.40
  -3  -4  -5  176.78    7.80
  -3  -4  -5  171.98    7.30
   3   4   5  171.38    7.40
  -4  -4  -5  164.08    7.30
  -4  -4  -5  163.88    7.90
   4   4   5  153.88    7.30
  -5  -4  -5   69.19    6.90
  -5  -4  -5   62.29    5.20
   5   4   5   65.39    6.50
  -6  -4  -5   -1.30    2.90
   6   4   5    4.40    2.90
   7  -5  -5   74.19    5.80
   7  -5  -5   83.69    6.80
  -7   5   5   84.39    6.40
   6  -5  -5  203.18    9.40
  -6   5   5  194.38    8.80
   5  -5  -5  153.88    7.40
   5  -5  -5  139.99    7.60
  -5   5   5  149.29    7.40
   4  -5  -5   82.09    5.60
   4  -5  -5   77.29    5.70
  -4   5   5   76.59    5.10
  -4   5   5   80.09    5.50
   3  -5  -5  148.29    7.20
   3  -5  -5  131.29    6.80
  -3   5   5  155.48    6.80
  -3   5   5  143.89    7.00
   2  -5  -5   17.50    3.30
   2  -5  -5   16.40    3.20
   2  -5  -5    9.30    2.80
  -2   5   5   11.90    3.00
   1  -5  -5   45.30    4.90
   1  -5  -5   43.20    4.80
   1  -5  -5   41.90    4.80
  -1   5   5   46.90    5.10
   0  -5  -5  147.99    6.90
   0  -5  -5  141.99    6.30
   0  -5  -5  158.18    7.20
   0   5   5  145.69    6.90
  -1  -5  -5   85.39    5.50
  -1  -5  -5   84.69    5.50
   1   5   5   82.99    5.50
  -2  -5  -5   62.79    5.10
  -2  -5  -5   57.79    5.00
   2   5   5   59.79    4.80
  -3  -5  -5    2.30    2.50
  -3  -5  -5    0.70    2.20
   3   5   5    0.30    2.10
  -4  -5  -5   53.39    5.60
  -4  -5  -5   55.39    6.30
   4   5   5   60.09    6.40
  -5  -5  -5   34.60    5.30
   5   5   5   32.80    5.20
   6  -6  -5   64.79    7.70
   6  -6  -5   49.70    6.10
  -6   6   5   74.89    7.40
   5  -6  -5  165.28    8.70
   5  -6  -5  154.78    8.10
  -5   6   5  158.08    8.00
   4  -6  -5   57.59    6.20
   4  -6  -5   70.19    5.70
  -4   6   5   73.19    5.50
  -4   6   5   71.89    5.70
   3  -6  -5    7.80    2.70
   3  -6  -5    2.00    2.60
   3  -6  -5    3.50    2.60
  -3   6   5    6.60    2.70
   2  -6  -5   83.89    6.10
   2  -6  -5   76.79    5.70
   2  -6  -5   76.59    5.50
  -2   6   5   71.29    5.50
   1  -6  -5   79.89    5.70
   1  -6  -5   67.99    5.50
   1  -6  -5   83.59    5.70
  -1   6   5   67.49    5.40
   0  -6  -5  105.79    6.50
   0  -6  -5  117.99    6.80
   0   6   5  116.99    6.70
  -1  -6  -5   22.60    4.20
  -1  -6  -5   18.60    3.60
   1   6   5   18.80    3.90
  -2  -6  -5    2.80    2.60
  -2  -6  -5   -0.60    2.30
   2   6   5   -0.90    2.30
  -3  -6  -5    1.50    2.90
  -3  -6  -5   -0.80    2.40
   3   6   5    2.60    2.40
  -4  -6  -5   24.10    4.50
  -4  -6  -5   24.90    5.00
   4   6   5   27.80    4.80
   4  -7  -5   54.29    6.40
   4  -7  -5   60.49    6.90
  -4   7   5   60.59    6.70
  -4   7   5   71.19    6.10
   3  -7  -5    3.00    3.00
   3  -7  -5    0.50    2.80
   3  -7  -5    2.40    2.90
  -3   7   5   -1.00    2.30
   2  -7  -5   -2.50    2.20
   2  -7  -5    0.40    2.90
   2  -7  -5    2.40    2.70
  -2   7   5    1.80    2.70
   1  -7  -5   86.59    6.50
   1  -7  -5   91.59    6.60
  -1   7   5   89.49    6.30
   0  -7  -5   28.30    5.00
   0  -7  -5   19.10    4.10
   0   7   5   20.00    4.10
  -1  -7  -5   29.10    4.70
  -1  -7  -5   26.40    4.60
   1   7   5   41.80    5.40
  -2  -7  -5   44.50    6.20
  -2  -7  -5   44.60    5.70
   2   7   5   57.39    6.50
   0 -10   6    2.60    2.90
  -1  10  -6   23.00    4.40
   1 -10   6   17.20    4.30
   1 -10   6   22.10    4.30
  -2  10  -6  116.49    7.80
   2 -10   6  129.99    7.50
   2 -10   6  124.39    8.10
   4   9  -6   79.99    6.10
  -4  -9   6   68.39    7.10
   1   9  -6  105.19    6.70
  -1  -9   6  115.89    6.60
   0   9  -6    8.30    3.40
   0  -9   6   10.20    3.30
  -1   9  -6  132.59    7.20
   1  -9   6  134.69    7.60
   1  -9   6  128.99    6.90
  -2   9  -6  143.89    7.60
   2  -9   6  140.69    8.00
   2  -9   6  138.69    7.40
  -3   9  -6   53.49    6.30
   3  -9   6   38.00    5.60
   3  -9   6   42.90    5.40
  -4   9  -6    2.80    3.00
   4  -9   6    3.30    3.00
   4  -9   6    3.40    2.90
  -5   9  -6   14.30    4.00
   5  -9   6    4.30    3.30
   5  -9   6   -0.70    2.80
   5   8  -6   25.70    4.80
  -5  -8   6   33.10    5.20
   4   8  -6   31.70    4.40
   4   8  -6   34.00    5.40
  -4  -8   6   38.60    5.00
   3   8  -6   22.80    3.80
   3   8  -6   31.70    4.40
  -3  -8   6   21.60    3.80
   2   8  -6  188.88    8.10
   2   8  -6  202.48    8.20
   1   8  -6  174.78    7.60
   1   8  -6  172.88    7.70
  -1  -8   6  175.38    7.30
   0   8  -6   16.30    3.40
   0   8  -6   20.30    3.60
   0  -8   6   11.10    3.00
   0  -8   6   17.50    3.50
  -1   8  -6   66.89    5.10
  -1   8  -6   58.79    5.20
   1  -8   6   65.69    4.70
   1  -8   6   63.59    5.00
  -2   8  -6   12.20    3.20
  -2   8  -6   11.50    3.30
   2  -8   6    7.50    2.90
   2  -8   6    6.30    2.60
  -3   8  -6   52.29    5.60
   3  -8   6   52.79    5.60
   3  -8   6   53.69    5.80
  -4   8  -6   45.50    5.60
   4  -8   6   45.90    5.70
   4  -8   6   50.99    5.70
  -5   8  -6   32.10    4.80
   5  -8   6   23.50    4.30
   5  -8   6   31.70    4.90
  -6   8  -6   59.89    6.90
   6  -8   6   65.39    7.40
   6  -8   6   73.59    7.30
   6   7  -6   29.00    4.70
   6   7  -6   33.10    5.40
  -6  -7   6   33.40    5.20
   5   7  -6   13.00    3.40
   5   7  -6    7.10    2.90
  -5  -7   6   12.30    3.40
   4   7  -6   82.99    5.60
   4   7  -6   86.79    5.70
  -4  -7   6   84.59    5.70
   3   7  -6  287.77    9.40
   3   7  -6  282.47    9.10
   3   7  -6  278.67    9.40
  -3  -7   6  298.17    9.40
   2   7  -6  106.69    5.80
   2   7  -6  102.19    5.50
   2   7  -6  113.89    6.00
  -2  -7   6  112.19    5.40
   1   7  -6   79.79    5.20
   1   7  -6   70.99    4.90
  -1  -7   6   69.69    4.70
   0   7  -6   40.90    4.70
   0   7  -6   35.00    4.00
   0  -7   6   35.10    4.00
   0  -7   6   30.70    4.20
  -1   7  -6   11.50    3.00
  -1   7  -6   14.80    3.00
   1  -7   6   13.20    3.10
   1  -7   6   10.80    2.70
  -2   7  -6   27.30    4.20
  -2   7  -6   39.30    4.40
   2  -7   6   24.70    3.50
   2  -7   6   27.70    3.90
  -3   7  -6   20.10    3.80
  -3   7  -6   19.40    3.60
  -3   7  -6   13.20    3.20
   3  -7   6   11.70    2.90
   3  -7   6   14.00    3.10
  -4   7  -6  132.79    7.00
  -4   7  -6  120.89    6.60
   4  -7   6  143.69    7.20
   4  -7   6  152.98    6.80
  -5   7  -6   83.79    6.10
   5  -7   6   87.59    5.50
   5  -7   6   81.59    6.10
   5  -7   6   82.39    6.00
  -6   7  -6   86.89    6.50
   6  -7   6  104.39    6.40
   6  -7   6   90.69    6.80
   6  -7   6   89.79    6.30
  -7   7  -6   40.00    5.60
   7  -7   6   38.20    5.40
   7  -7   6   52.29    6.60
   7   6  -6   67.29    5.60
   7   6  -6   62.99    6.70
  -7  -6   6   58.99    6.60
   6   6  -6   10.80    3.00
   6   6  -6    6.30    2.80
  -6  -6   6   11.80    3.60
   5   6  -6   97.19    5.90
   5   6  -6   92.29    5.60
  -5  -6   6   91.29    6.00
   4   6  -6  534.15   13.50
  -4  -6   6  535.75   13.60
   3   6  -6  330.07    9.70
   3   6  -6  333.87   10.00
   3   6  -6  341.57   10.00
  -3  -6   6  328.37    9.60
   2   6  -6   36.10    4.10
   2   6  -6   38.30    4.10
   2   6  -6   42.10    4.30
  -2  -6   6   42.30    3.40
   1   6  -6  130.79    6.00
   1   6  -6  121.29    5.30
   1   6  -6  134.49    6.00
  -1  -6   6  133.09    5.80
  -1  -6   6  138.49    5.20
   0   6  -6    1.10    1.80
   0   6  -6    0.50    1.60
   0   6  -6   -0.60    1.60
   0   6  -6   -0.90    1.50
   0  -6   6   -0.60    1.50
  -1   6  -6   57.39    4.20
  -1   6  -6   58.19    3.90
  -1   6  -6   61.39    4.50
   1  -6   6   44.60    3.70
   1  -6   6   55.59    4.20
  -2   6  -6  126.39    6.30
  -2   6  -6  140.89    6.20
  -2   6  -6  119.99    5.70
   2  -6   6  113.99    5.50
   2  -6   6  126.89    6.10
  -3   6  -6  282.07    9.30
  -3   6  -6  299.37    9.90
  -3   6  -6  298.77    9.50
   3  -6   6  286.47    9.00
   3  -6   6  290.57    9.40
  -4   6  -6  232.18    8.90
  -4   6  -6  234.88    8.70
  -4   6  -6  233.18    8.60
   4  -6   6  226.18    8.20
   4  -6   6  230.88    8.60
  -5   6  -6   82.49    5.60
  -5   6  -6   88.99    5.90
   5  -6   6   86.29    5.80
   5  -6   6   84.49    5.90
   5  -6   6   96.69    5.60
  -6   6  -6  102.29    6.50
  -6   6  -6  118.19    7.10
   6  -6   6  124.99    6.90
   6  -6   6  112.49    7.00
   6  -6   6  133.89    6.80
  -7   6  -6   45.70    5.70
  -7   6  -6   43.10    5.50
   7  -6   6   55.89    6.00
   7  -6   6   52.99    6.10
   7  -6   6   62.79    6.70
   8   5  -6   59.09    6.60
   8   5  -6   47.30    5.50
  -8  -5   6   42.30    6.00
   7   5  -6   64.49    5.30
   7   5  -6   44.50    5.30
  -7  -5   6   47.30    5.80
   6   5  -6   90.49    5.80
   6   5  -6   80.69    5.40
  -6  -5   6   78.99    5.80
   5   5  -6  147.09    6.70
   5   5  -6  140.99    6.60
  -5  -5   6  148.79    7.00
   4   5  -6  205.18    7.60
   4   5  -6  208.38    7.70
   4   5  -6  209.78    7.30
  -4  -5   6  209.98    7.80
   3   5  -6   45.10    3.80
   3   5  -6   46.70    3.80
   3   5  -6   41.50    4.20
  -3  -5   6   45.00    3.60
   2   5  -6   26.20    3.40
   2   5  -6   24.70    3.20
   2   5  -6   28.40    3.40
   2   5  -6   26.20    2.90
  -2  -5   6   26.40    3.00
   1   5  -6  119.39    4.90
   1   5  -6  123.89    5.50
   1   5  -6  119.09    5.60
   1   5  -6  122.49    5.50
  -1  -5   6  122.79    5.40
  -1  -5   6  132.29    4.80
   0   5  -6  216.08    7.30
   0   5  -6  220.48    6.30
   0   5  -6  207.18    7.40
   0   5  -6  219.18    7.00
   0  -5   6  222.38    7.20
  -1   5  -6  661.53   13.80
  -1   5  -6  675.03   15.00
  -1   5  -6  702.43   14.70
   1  -5   6  662.33   14.40
   1  -5   6  675.33   14.90
  -2   5  -6  545.95   13.10
  -2   5  -6  565.94   12.70
  -2   5  -6  583.24   13.70
   2  -5   6  570.04   13.00
   2  -5   6  551.74   13.20
  -3   5  -6  570.34   13.30
  -3   5  -6  532.65   13.30
  -3   5  -6  578.34   13.90
   3  -5   6  547.95   13.00
   3  -5   6  542.75   13.20
  -4   5  -6   18.00    3.30
  -4   5  -6   20.50    3.40
  -4   5  -6   21.80    3.40
   4  -5   6   27.30    3.90
   4  -5   6   17.10    3.10
  -5   5  -6   19.50    3.40
  -5   5  -6   19.70    3.70
  -5   5  -6   22.90    3.70
   5  -5   6   16.20    3.30
   5  -5   6   19.50    3.40
  -6   5  -6  178.48    8.30
  -6   5  -6  171.88    7.70
   6  -5   6  170.18    7.60
   6  -5   6  171.48    7.70
   6  -5   6  189.88    8.00
  -7   5  -6   29.00    4.80
  -7   5  -6   33.70    4.70
   7  -5   6   34.00    4.90
   7  -5   6   26.40    4.20
  -8   5  -6   24.90    4.60
  -8   5  -6   28.60    5.10
   8  -5   6   24.90    4.40
   8  -5   6   31.20    4.80
   8   4  -6  159.98    8.00
  -8  -4   6  143.79    8.30
   7   4  -6   10.50    2.90
   7   4  -6   11.90    3.30
  -7  -4   6    6.80    3.00
   6   4  -6   12.90    3.00
   6   4  -6   15.30    3.20
  -6  -4   6   17.00    3.60
   5   4  -6   28.50    3.30
   5   4  -6   34.00    4.20
   5   4  -6   22.30    3.60
  -5  -4   6   29.10    4.00
   4   4  -6   39.30    4.20
   4   4  -6   37.40    3.90
   4   4  -6   34.80    3.80
  -4  -4   6   41.10    4.50
   3   4  -6  147.19    5.90
   3   4  -6  135.09    5.70
   3   4  -6  144.19    5.90
  -3  -4   6  142.79    5.80
   2   4  -6  159.58    6.00
   2   4  -6  161.78    6.10
   2   4  -6  155.38    5.90
   2   4  -6  152.08    5.10
  -2  -4   6  154.08    5.50
   1   4  -6  169.18    6.20
   1   4  -6  169.48    5.60
   1   4  -6  173.78    6.20
   1   4  -6  173.18    4.90
  -1  -4   6  163.08    5.20
  -1  -4   6  171.48    6.00
   0   4  -6   82.69    4.20
   0   4  -6   81.09    4.40
   0   4  -6   86.79    4.40
   0   4  -6   90.59    3.60
   0  -4   6   94.79    3.40
   0  -4   6   87.19    4.40
  -1   4  -6  392.56    9.90
  -1   4  -6  388.66   10.20
  -1   4  -6  379.86    8.90
  -1   4  -6  379.46    9.70
   1  -4   6  384.66    9.70
  -2   4  -6  336.77    8.70
  -2   4  -6  317.37    9.10
  -2   4  -6  334.57    9.40
   2  -4   6  329.87    9.20
   2  -4   6  345.67    9.20
  -3   4  -6  121.89    5.60
  -3   4  -6  132.49    5.80
  -3   4  -6  123.79    5.50
   3  -4   6  137.39    5.70
   3  -4   6  123.99    5.50
  -4   4  -6    1.80    2.00
  -4   4  -6    1.30    1.80
  -4   4  -6    0.50    1.80
   4  -4   6    2.70    2.00
   4  -4   6    0.50    1.70
  -5   4  -6   64.19    4.60
  -5   4  -6   61.89    4.90
  -5   4  -6   58.99    4.60
   5  -4   6   72.49    4.90
   5  -4   6   62.89    4.60
  -6   4  -6  295.87   10.60
  -6   4  -6  297.37   10.10
   6  -4   6  324.77   10.30
   6  -4   6  309.47   10.10
   6  -4   6  318.97   10.10
  -7   4  -6   23.00    4.40
  -7   4  -6   28.50    4.40
   7  -4   6   27.10    4.30
   7  -4   6   30.50    4.40
  -8   4  -6   10.40    3.70
   8  -4   6    5.20    2.90
   8  -4   6   18.00    3.90
   8   3  -6  131.29    7.20
   8   3  -6  118.49    7.00
  -8  -3   6  127.09    7.50
   7   3  -6   22.00    3.70
   7   3  -6   23.40    4.00
  -7  -3   6   25.90    4.30
   6   3  -6    3.50    2.40
   6   3  -6    7.20    2.50
   6   3  -6    1.90    2.00
  -6  -3   6    2.80    2.20
   5   3  -6  104.69    5.40
   5   3  -6  104.79    5.40
   5   3  -6  115.89    5.30
  -5  -3   6  102.59    5.70
   4   3  -6   -0.70    1.40
   4   3  -6    1.90    1.70
   4   3  -6   -0.40    1.50
  -4  -3   6    0.70    1.70
   3   3  -6  348.07    9.20
   3   3  -6  360.66    9.40
   3   3  -6  339.97    9.30
   3   3  -6  360.76    7.80
  -3  -3   6  362.86    9.40
   2   3  -6  908.71   17.60
   2   3  -6  941.41   17.40
   2   3  -6  905.51   16.10
   2   3  -6  912.01   17.70
  -2  -3   6  888.31   16.80
   1   3  -6   65.29    2.50
   1   3  -6   65.29    3.70
   1   3  -6   58.69    3.70
   1   3  -6   64.99    3.40
  -1  -3   6   64.59    3.70
  -1  -3   6   65.39    3.30
   0   3  -6   38.90    3.10
   0   3  -6   36.60    3.50
   0   3  -6   39.80    3.00
   0   3  -6   39.90    2.20
   0  -3   6   35.90    2.20
   0  -3   6   35.40    3.40
  -1   3  -6   48.50    3.30
  -1   3  -6   46.20    2.80
  -1   3  -6   47.50    3.20
  -1   3  -6   50.69    3.50
   1  -3   6   46.20    2.20
   1  -3   6   43.30    3.10
  -2   3  -6  104.39    4.50
  -2   3  -6  115.89    5.00
  -2   3  -6  124.19    5.20
   2  -3   6  115.39    4.90
   2  -3   6  110.89    4.90
  -3   3  -6  260.87    8.10
  -3   3  -6  256.47    7.90
  -3   3  -6  279.77    8.20
   3  -3   6  277.17    7.90
   3  -3   6  261.47    8.00
  -4   3  -6  253.07    8.00
  -4   3  -6  260.97    8.50
  -4   3  -6  268.87    8.50
   4  -3   6  260.97    8.30
   4  -3   6  275.47    8.20
  -5   3  -6   44.40    3.70
  -5   3  -6   40.20    4.30
  -5   3  -6   50.89    4.40
   5  -3   6   49.40    4.00
   5  -3   6   49.99    4.20
  -6   3  -6  121.89    6.40
  -6   3  -6  121.09    6.80
   6  -3   6  135.79    6.40
   6  -3   6  123.29    6.30
  -7   3  -6    4.50    2.50
  -7   3  -6    5.00    2.80
   7  -3   6    2.70    2.30
   7  -3   6    1.90    2.50
  -8   3  -6   10.50    3.70
   8  -3   6    7.90    3.00
   8  -3   6    8.40    3.30
   9   2  -6   24.00    4.50
   9   2  -6   35.20    5.10
  -9  -2   6   30.70    5.30
   8   2  -6   81.49    6.00
   8   2  -6   79.79    5.70
  -8  -2   6   93.99    6.80
   7   2  -6   40.80    4.80
   7   2  -6   40.70    4.70
  -7  -2   6   48.00    5.80
   6   2  -6   65.29    4.40
   6   2  -6   53.49    4.30
   6   2  -6   51.19    4.20
  -6  -2   6   61.69    5.00
   5   2  -6   64.69    4.30
   5   2  -6   63.59    4.20
   5   2  -6   64.09    4.20
  -5  -2   6   68.99    4.80
   4   2  -6   11.00    2.20
   4   2  -6    7.20    2.00
   4   2  -6   13.40    2.60
  -4  -2   6    9.10    2.40
   3   2  -6  585.54   13.00
   3   2  -6  597.54   11.40
   3   2  -6  608.94   12.70
  -3  -2   6  606.34   13.30
   2   2  -6  733.53   13.60
   2   2  -6  710.93   14.20
   2   2  -6  720.43   14.80
   2   2  -6  711.83   14.40
  -2  -2   6  708.33   14.10
   1   2  -6    2.30    1.40
   1   2  -6    3.40    1.30
   1   2  -6    5.50    1.00
   1   2  -6    2.90    1.40
  -1  -2   6    4.30    1.50
  -1  -2   6    4.80    1.70
   0   2  -6   44.10    2.30
   0   2  -6   41.60    2.90
   0   2  -6   44.90    3.00
   0   2  -6   48.20    3.30
   0  -2   6   46.30    3.10
   0  -2   6   46.80    2.60
  -1   2  -6   50.49    2.80
  -1   2  -6   41.70    3.10
  -1   2  -6   52.39    3.10
  -1   2  -6   50.49    3.30
   1  -2   6   55.09    3.30
   1  -2   6   49.00    2.40
  -2   2  -6   76.39    4.00
  -2   2  -6   74.79    4.10
  -2   2  -6   73.79    3.70
   2  -2   6   73.99    3.80
   2  -2   6   72.79    2.80
   2  -2   6   78.09    4.10
  -3   2  -6  769.02   15.70
  -3   2  -6  805.32   16.50
  -3   2  -6  815.12   16.20
   3  -2   6  784.52   16.10
   3  -2   6  814.22   15.50
  -4   2  -6  531.95   12.00
  -4   2  -6  520.95   12.80
  -4   2  -6  532.45   12.90
   4  -2   6  537.55   12.00
   4  -2   6  514.35   12.40
  -5   2  -6  204.68    8.00
  -5   2  -6  196.28    7.50
   5  -2   6  204.78    7.60
   5  -2   6  218.38    7.20
  -6   2  -6    1.60    2.10
  -6   2  -6   -3.60    1.90
   6  -2   6   -1.70    1.60
   6  -2   6    1.20    2.00
  -7   2  -6   19.10    3.60
  -7   2  -6   21.20    4.20
   7  -2   6   21.10    3.60
   7  -2   6   23.10    3.90
  -8   2  -6   18.20    4.20
   8  -2   6   22.00    4.10
   9   1  -6    1.00    2.80
   9   1  -6    1.70    2.70
  -9  -1   6    2.90    2.70
   8   1  -6   95.99    5.90
   8   1  -6   89.09    6.00
  -8  -1   6   87.79    6.40
   7   1  -6  245.68    9.00
   7   1  -6  263.57    8.80
   7   1  -6  251.87    8.50
  -7  -1   6  226.38    9.40
   6   1  -6  191.78    7.30
   6   1  -6  188.48    7.00
   6   1  -6  186.58    7.40
  -6  -1   6  201.68    8.10
   5   1  -6   35.10    3.80
   5   1  -6   32.00    3.50
   5   1  -6   23.20    3.20
  -5  -1   6   30.00    4.10
   4   1  -6   59.89    3.90
   4   1  -6   66.89    4.10
   4   1  -6   63.49    3.70
  -4  -1   6   64.39    4.30
   3   1  -6   33.90    3.50
   3   1  -6   36.20    2.50
   3   1  -6   39.60    3.00
   3   1  -6   36.40    3.10
  -3  -1   6   38.70    3.20
   2   1  -6   60.79    3.10
   2   1  -6   53.89    3.40
   2   1  -6   49.90    3.20
  -2  -1   6   56.99    3.40
  -2  -1   6   53.39    3.30
   1   1  -6   67.09    3.50
   1   1  -6   73.19    3.60
   1   1  -6   68.09    2.50
   1   1  -6   68.29    3.70
  -1  -1   6   67.39    3.40
  -1  -1   6   70.39    3.50
   0   1  -6  219.68    6.80
   0   1  -6  224.08    6.20
   0   1  -6  233.58    6.70
   0  -1   6  214.88    6.00
   0  -1   6  228.28    6.40
  -1   1  -6  315.57    8.30
  -1   1  -6  330.27    8.40
  -1   1  -6  309.27    7.60
   1  -1   6  318.77    8.00
   1  -1   6  319.37    7.40
  -2   1  -6  268.37    7.50
  -2   1  -6  263.37    7.80
  -2   1  -6  246.98    7.20
   2  -1   6  268.47    6.50
   2  -1   6  262.87    7.50
   2  -1   6  264.77    6.90
  -3   1  -6  664.33   13.60
  -3   1  -6  680.33   14.50
  -3   1  -6  642.64   14.60
   3  -1   6  664.23   14.00
   3  -1   6  677.43   13.20
   3  -1   6  662.43   12.40
  -4   1  -6  306.57    8.10
  -4   1  -6  283.17    8.90
  -4   1  -6  309.57    9.30
   4  -1   6  295.57    8.00
   4  -1   6  296.57    8.80
  -5   1  -6   27.80    4.00
  -5   1  -6   37.50    4.10
   5  -1   6   37.60    3.70
   5  -1   6   44.00    4.70
  -6   1  -6    7.40    2.60
  -6   1  -6   11.40    3.20
   6  -1   6    8.00    2.50
  -7   1  -6   49.10    5.90
  -7   1  -6   51.89    7.00
   7  -1   6   45.70    5.30
  -8   1  -6   17.60    4.50
   8  -1   6   19.00    3.50
   9   0  -6   13.90    3.80
  -9   0   6    4.40    3.60
   8   0  -6  279.07    9.40
   8   0  -6  257.97    9.90
  -8   0   6  283.17   10.80
   7   0  -6  102.69    5.90
   7   0  -6   97.29    5.40
   7   0  -6  103.89    6.00
  -7   0   6   95.69    6.30
   6   0  -6    7.80    2.70
   6   0  -6    0.60    1.80
   6   0  -6    1.00    2.00
  -6   0   6    1.00    2.20
   5   0  -6    3.80    1.90
   5   0  -6    5.20    2.20
   5   0  -6    3.70    1.90
  -5   0   6    4.40    2.40
   4   0  -6   -0.30    1.40
   4   0  -6    1.50    1.60
   4   0  -6    1.90    1.40
   4   0  -6    0.90    1.50
  -4   0   6    2.70    1.90
   3   0  -6   82.59    3.70
   3   0  -6   82.99    4.00
   3   0  -6   87.79    4.60
   3   0  -6   77.19    3.80
  -3   0   6   85.09    4.50
   2   0  -6  201.58    6.00
   2   0  -6  196.18    6.00
   2   0  -6  188.58    6.50
  -2   0   6  194.38    5.70
  -2   0   6  203.58    6.60
   1   0  -6  504.45   10.50
   1   0  -6  516.75   11.60
   1   0  -6  519.95   11.20
   1   0  -6  496.45    9.50
  -1   0   6  513.55   11.40
  -1   0   6  526.15   10.60
   0   0  -6  533.45   10.70
   0   0  -6  531.65   10.60
   0   0  -6  550.04   11.90
   0   0  -6  555.44   11.90
   0   0   6  549.45   11.50
   0   0   6  547.75   11.10
  -1   0  -6  405.46    9.20
  -1   0  -6  394.76    9.60
  -1   0  -6  396.66    9.90
  -1   0  -6  398.56    8.50
   1   0   6  401.76    9.30
   1   0   6  417.36    9.30
  -2   0  -6  145.99    5.80
  -2   0  -6  150.58    5.60
  -2   0  -6  143.99    5.20
   2   0   6  147.99    5.30
   2   0   6  153.38    4.70
   2   0   6  142.79    5.00
  -3   0  -6   84.69    4.00
  -3   0  -6   88.59    4.70
  -3   0  -6   84.09    4.60
   3   0   6   95.59    4.10
   3   0   6   90.19    4.00
   3   0   6   80.69    4.20
  -4   0  -6    8.70    2.30
  -4   0  -6    9.80    2.60
   4   0   6   11.10    2.20
   4   0   6    9.50    2.30
  -5   0  -6   41.20    5.00
  -5   0  -6   40.70    4.50
   5   0   6   51.49    5.00
  -6   0  -6  106.79    5.90
  -6   0  -6   86.69    6.10
   6   0   6   99.99    5.70
  -7   0  -6   21.90    4.30
   7   0   6   26.40    4.10
  -8   0  -6   21.20    4.70
   8   0   6   30.30    4.80
   9  -1  -6   55.89    6.20
  -9   1   6   59.89    6.70
   8  -1  -6   64.29    5.50
   8  -1  -6   65.49    5.60
  -8   1   6   72.19    6.10
   7  -1  -6    7.80    2.70
   7  -1  -6    7.20    2.60
  -7   1   6    5.50    2.80
   6  -1  -6    1.80    2.00
   6  -1  -6    3.70    2.20
  -6   1   6    6.20    2.70
   5  -1  -6   47.00    3.50
   5  -1  -6   37.80    4.20
   5  -1  -6   47.90    3.80
  -5   1   6   45.80    4.90
   4  -1  -6   52.69    3.50
   4  -1  -6   48.20    3.90
   4  -1  -6   43.20    3.40
   4  -1  -6   48.50    3.20
  -4   1   6   47.50    4.70
   3  -1  -6  406.86    9.80
   3  -1  -6  402.86    9.70
   3  -1  -6  418.26   10.90
  -3   1   6  418.56   11.00
  -3   1   6  423.86    9.10
   2  -1  -6  183.08    6.60
   2  -1  -6  181.58    5.60
   2  -1  -6  188.18    5.10
   2  -1  -6  187.38    6.20
  -2   1   6  183.08    5.30
  -2   1   6  183.98    6.60
   1  -1  -6  366.06    8.20
   1  -1  -6  382.56    9.50
   1  -1  -6  369.26    9.60
   1  -1  -6  367.56    8.30
  -1   1   6  373.46    9.50
  -1   1   6  369.06    8.10
   0  -1  -6  205.08    5.30
   0  -1  -6  184.48    6.20
   0  -1  -6  203.28    6.00
   0  -1  -6  195.18    6.60
   0   1   6  205.98    5.70
   0   1   6  195.88    6.50
  -1  -1  -6  186.78    6.10
  -1  -1  -6  199.48    6.40
  -1  -1  -6  198.58    6.70
   1   1   6  201.48    6.50
   1   1   6  197.88    5.80
  -2  -1  -6  648.24   14.40
  -2  -1  -6  667.73   13.40
  -2  -1  -6  665.83   14.10
   2   1   6  649.24   13.90
   2   1   6  658.23   13.30
  -3  -1  -6    6.70    2.40
  -3  -1  -6    2.20    2.00
   3   1   6    9.10    2.10
   3   1   6    6.70    2.10
  -4  -1  -6    7.20    2.60
  -4  -1  -6    9.70    2.60
   4   1   6    8.50    2.40
   4   1   6    8.80    2.20
  -5  -1  -6  131.29    6.40
  -5  -1  -6  136.09    7.00
   5   1   6  141.09    6.30
  -6  -1  -6   41.10    4.70
  -6  -1  -6   40.30    5.40
   6   1   6   39.20    4.60
  -7  -1  -6   27.30    4.70
   7   1   6   25.30    4.20
   8  -2  -6   33.50    4.80
   8  -2  -6   35.20    5.00
  -8   2   6   45.00    5.80
   7  -2  -6   34.90    4.70
   7  -2  -6   33.60    4.50
  -7   2   6   40.30    5.20
   6  -2  -6    5.10    2.70
   6  -2  -6    7.70    2.70
  -6   2   6    7.30    2.50
   5  -2  -6   16.10    3.40
   5  -2  -6   13.60    2.80
  -5   2   6   11.30    2.80
   4  -2  -6  142.19    5.60
   4  -2  -6  141.89    6.60
   4  -2  -6  141.29    5.80
  -4   2   6  136.89    6.40
   3  -2  -6  260.87    7.30
   3  -2  -6  254.97    8.50
   3  -2  -6  269.97    8.10
  -3   2   6  259.37    8.60
   2  -2  -6  491.35   10.70
   2  -2  -6  490.75   12.30
   2  -2  -6  514.45   10.50
   2  -2  -6  521.75   12.10
  -2   2   6  517.55   12.50
   1  -2  -6  212.78    7.20
   1  -2  -6  215.98    6.50
   1  -2  -6  219.48    7.30
  -1   2   6  222.68    7.40
   0  -2  -6   60.69    3.60
   0  -2  -6   62.29    4.10
   0  -2  -6   57.79    3.70
   0   2   6   60.49    3.00
   0   2   6   52.59    3.70
  -1  -2  -6  145.69    5.70
  -1  -2  -6  136.49    5.30
  -1  -2  -6  146.09    6.10
   1   2   6  141.69    5.90
   1   2   6  148.59    4.90
  -2  -2  -6  226.98    7.80
  -2  -2  -6  226.18    7.90
  -2  -2  -6  231.08    6.80
   2   2   6  231.98    6.70
   2   2   6  220.88    7.60
  -3  -2  -6   12.70    3.00
  -3  -2  -6    9.40    2.70
   3   2   6   12.50    2.60
   3   2   6   12.50    2.40
  -4  -2  -6    3.10    2.40
  -4  -2  -6    5.20    2.40
   4   2   6    4.80    2.00
   4   2   6    0.10    1.80
  -5  -2  -6  130.29    7.10
  -5  -2  -6  142.09    6.80
   5   2   6  125.79    6.10
   5   2   6  126.29    6.30
  -6  -2  -6   71.79    6.00
  -6  -2  -6   79.39    6.10
   6   2   6   85.09    5.50
   7   2   6   94.69    6.30
   8  -3  -6   39.00    5.60
   8  -3  -6   69.49    6.80
  -8   3   6   51.19    6.40
   7  -3  -6   30.20    4.60
   7  -3  -6   34.90    4.60
  -7   3   6   30.00    4.70
   6  -3  -6   97.99    6.40
   6  -3  -6  102.99    5.80
  -6   3   6  110.69    6.60
   5  -3  -6    8.00    2.60
   5  -3  -6    6.20    2.50
   5  -3  -6    1.80    2.50
  -5   3   6    3.20    2.20
   4  -3  -6  134.09    6.70
   4  -3  -6  138.29    5.60
   4  -3  -6  134.79    6.20
  -4   3   6  140.99    6.80
   3  -3  -6  347.97   10.00
   3  -3  -6  338.17   10.50
  -3   3   6  342.47   10.40
   2  -3  -6  159.18    6.60
   2  -3  -6  158.18    6.80
   2  -3  -6  152.28    5.80
  -2   3   6  154.18    6.70
   1  -3  -6   76.79    4.70
   1  -3  -6   78.39    4.40
   1  -3  -6   79.59    4.90
  -1   3   6   78.59    4.90
   0  -3  -6   44.70    3.70
   0  -3  -6   46.90    3.70
   0  -3  -6   48.50    4.10
   0   3   6   46.60    3.80
  -1  -3  -6   10.40    2.70
  -1  -3  -6   15.60    2.70
  -1  -3  -6   16.90    2.90
   1   3   6   14.80    3.00
  -2  -3  -6   99.99    5.60
  -2  -3  -6   90.79    5.40
   2   3   6   93.89    5.40
  -3  -3  -6  147.49    7.00
  -3  -3  -6  142.89    6.80
   3   3   6  147.69    6.80
  -4  -3  -6   15.10    3.50
  -4  -3  -6   11.00    3.30
   4   3   6   10.00    2.80
  -5  -3  -6   99.49    6.10
  -5  -3  -6   83.69    6.50
   5   3   6  103.19    6.30
   5   3   6   94.49    5.50
  -6  -3  -6   39.10    5.80
   6   3   6   38.20    4.80
   6   3   6   33.90    5.00
   7  -4  -6   96.19    6.30
   7  -4  -6   93.89    6.90
  -7   4   6  100.39    6.90
   6  -4  -6  113.29    6.20
   6  -4  -6   97.59    6.70
  -6   4   6  104.49    6.80
   5  -4  -6   11.50    3.30
   5  -4  -6   10.40    3.00
  -5   4   6    8.30    3.20
   4  -4  -6   49.80    5.30
   4  -4  -6   49.30    4.90
  -4   4   6   53.39    5.60
   3  -4  -6  172.38    7.70
   3  -4  -6  170.88    7.40
  -3   4   6  161.58    7.40
   2  -4  -6   15.20    3.10
   2  -4  -6   18.60    3.40
   2  -4  -6   21.70    3.30
  -2   4   6   14.70    3.20
   1  -4  -6  444.06   12.10
   1  -4  -6  477.35   12.10
   1  -4  -6  434.66   12.40
  -1   4   6  444.36   12.40
   0  -4  -6   87.69    5.10
   0  -4  -6   81.29    5.40
   0  -4  -6   90.39    5.20
   0   4   6   88.29    5.40
  -1  -4  -6   -0.30    1.90
  -1  -4  -6    7.40    2.50
   1   4   6    2.60    2.10
  -2  -4  -6   64.89    5.10
  -2  -4  -6   59.29    4.90
   2   4   6   63.09    4.80
  -3  -4  -6   93.89    6.20
  -3  -4  -6   97.19    6.10
   3   4   6   86.59    5.80
  -4  -4  -6   69.79    5.80
  -4  -4  -6   72.79    6.70
   4   4   6   70.19    5.50
  -5  -4  -6    1.00    2.80
  -5  -4  -6    3.80    3.10
   5   4   6   -0.40    2.50
   6  -5  -6   76.09    6.40
  -6   5   6   84.89    6.60
   5  -5  -6   66.59    7.10
   5  -5  -6   73.59    5.90
  -5   5   6   57.39    6.20
   4  -5  -6   41.70    5.20
   4  -5  -6   39.80    5.00
  -4   5   6   39.60    5.20
   3  -5  -6   54.49    4.80
   3  -5  -6   61.59    5.40
   3  -5  -6   72.69    5.60
  -3   5   6   63.39    6.30
   2  -5  -6   82.69    5.40
   2  -5  -6   71.29    5.40
   2  -5  -6   77.99    5.70
  -2   5   6   71.39    5.30
   1  -5  -6  198.58    8.50
   1  -5  -6  192.48    8.00
   1  -5  -6  196.38    8.10
  -1   5   6  191.38    8.20
   0  -5  -6  121.69    6.80
   0  -5  -6  130.99    7.80
   0  -5  -6  134.29    6.80
   0   5   6  112.39    6.50
  -1  -5  -6    8.30    3.10
  -1  -5  -6    8.20    2.80
   1   5   6    3.80    2.60
  -2  -5  -6   26.10    4.50
  -2  -5  -6   20.50    4.10
   2   5   6   20.10    3.90
  -3  -5  -6   75.19    6.10
  -3  -5  -6   67.49    6.80
   3   5   6   65.19    6.70
  -4  -5  -6   45.90    5.70
  -4  -5  -6   38.50    5.70
   4   5   6   42.20    5.70
   5  -6  -6   32.00    5.30
   5  -6  -6   29.30    5.00
  -5   6   6   16.70    4.20
   4  -6  -6   -1.30    2.50
   4  -6  -6    2.10    3.00
  -4   6   6    4.90    3.00
   3  -6  -6   28.30    4.60
   3  -6  -6   31.70    4.90
   3  -6  -6   31.10    4.90
  -3   6   6   28.20    4.50
   2  -6  -6  123.39    7.20
   2  -6  -6  114.19    6.90
   2  -6  -6  106.29    7.00
  -2   6   6  107.79    6.70
   1  -6  -6  109.19    7.10
   1  -6  -6  115.39    6.80
   1  -6  -6  116.09    6.90
  -1   6   6  113.19    6.90
   0  -6  -6  129.59    7.50
   0  -6  -6  121.69    7.20
   0   6   6  128.09    7.50
  -1  -6  -6   20.70    4.20
  -1  -6  -6   18.80    4.00
   1   6   6   24.10    4.30
  -2  -6  -6    4.60    2.90
  -2  -6  -6    5.50    3.10
   2   6   6    5.40    3.10
  -3  -6  -6   -3.20    2.60
  -3  -6  -6   -1.70    2.50
   3   6   6    4.40    2.70
   2  -7  -6  130.49    7.90
   2  -7  -6  125.29    8.10
   2  -7  -6  135.79    8.00
  -2   7   6  107.09    7.40
   1  -7  -6    7.40    3.70
   1  -7  -6    1.70    2.80
  -1   7   6    9.40    3.30
   0  -7  -6   10.50    3.40
   0  -7  -6    8.10    3.30
   0 -10   7    7.70    3.40
   3   9  -7   32.30    5.20
  -3  -9   7   26.40    4.60
   2   9  -7  272.87   13.20
   2   9  -7  299.57   10.80
  -2  -9   7  315.17   10.90
   1   9  -7    1.70    3.00
  -1  -9   7    5.30    2.90
  -1  -9   7   11.50    3.50
   0   9  -7   -2.00    2.60
   0  -9   7   -0.40    2.50
   0  -9   7   -0.20    3.30
  -1   9  -7   57.09    6.30
   1  -9   7   63.19    6.40
  -2   9  -7   26.10    4.50
  -2   9  -7   18.50    4.00
   2  -9   7   17.00    3.80
  -3   9  -7   75.39    6.20
   3  -9   7   66.89    6.60
   3  -9   7   59.89    6.60
  -4   9  -7   73.99    6.30
   4  -9   7   74.29    7.20
   4  -9   7   84.39    7.00
   5   8  -7    8.30    3.60
   5   8  -7   11.30    3.70
  -5  -8   7    9.50    3.60
   4   8  -7    6.20    2.90
   4   8  -7    6.30    3.00
  -4  -8   7    5.40    3.20
   3   8  -7   76.99    5.90
   3   8  -7   72.69    5.50
   2   8  -7  236.78    9.40
   2   8  -7  235.88    9.20
  -2  -8   7  237.68    9.00
   1   8  -7  148.29    7.30
   1   8  -7  142.69    7.50
  -1  -8   7  156.48    7.30
   0   8  -7   25.10    4.20
   0  -8   7   27.80    4.20
   0  -8   7   26.60    4.20
  -1   8  -7   43.60    5.40
  -1   8  -7   40.60    5.20
   1  -8   7   45.20    5.00
   1  -8   7   34.70    4.60
  -2   8  -7   12.40    3.60
  -2   8  -7    6.10    2.70
   2  -8   7    5.50    2.60
   2  -8   7    8.80    3.10
  -3   8  -7   45.70    5.70
  -3   8  -7   38.90    4.90
   3  -8   7   45.20    5.10
   3  -8   7   42.10    5.40
  -4   8  -7   96.89    6.60
   4  -8   7   80.69    6.50
   4  -8   7   99.59    6.30
   4  -8   7   91.39    6.50
  -5   8  -7  167.58    8.60
   5  -8   7  151.98    8.60
   5  -8   7  150.48    8.40
   6   7  -7    6.40    3.20
   6   7  -7   13.80    3.80
  -6  -7   7   18.70    4.20
   5   7  -7  126.19    7.20
   5   7  -7  139.39    7.40
  -5  -7   7  123.69    7.20
   4   7  -7  105.09    6.40
  -4  -7   7   98.79    6.20
   3   7  -7   23.20    3.70
   3   7  -7   22.90    3.80
   3   7  -7   22.70    3.70
  -3  -7   7   41.30    4.70
   2   7  -7   84.59    5.60
   2   7  -7   74.09    5.30
  -2  -7   7   75.79    5.20
   1   7  -7  286.07    9.60
   1   7  -7  269.67    9.40
  -1  -7   7  268.37    9.20
   0   7  -7   71.69    5.20
   0   7  -7   76.29    5.40
   0   7  -7   65.79    4.70
   0  -7   7   69.79    5.00
  -1   7  -7    9.50    2.70
  -1   7  -7   10.00    2.70
  -1   7  -7    6.50    2.80
   1  -7   7   13.20    3.00
   1  -7   7   11.70    3.00
  -2   7  -7   14.00    2.90
  -2   7  -7   13.40    3.30
  -2   7  -7    6.70    2.70
   2  -7   7   15.50    3.40
   2  -7   7    9.10    2.80
  -3   7  -7   42.70    5.30
  -3   7  -7   39.70    4.90
  -3   7  -7   44.30    5.00
   3  -7   7   42.20    4.70
   3  -7   7   38.80    4.80
  -4   7  -7  142.79    7.70
  -4   7  -7  128.59    7.10
  -4   7  -7  129.79    7.10
   4  -7   7  129.39    7.10
   4  -7   7  131.09    6.80
  -5   7  -7   42.80    5.50
  -5   7  -7   43.80    5.50
   5  -7   7   36.80    5.20
   5  -7   7   47.30    5.20
   5  -7   7   34.80    5.30
  -6   7  -7   33.70    5.10
  -6   7  -7   19.60    4.30
   6  -7   7   32.10    4.90
   6  -7   7   23.10    4.50
   6  -7   7   24.70    4.70
   7   6  -7   20.80    4.10
   7   6  -7   34.30    4.70
  -7  -6   7   25.40    4.80
   6   6  -7    9.90    3.30
   6   6  -7   13.60    3.70
  -6  -6   7    9.30    3.60
   5   6  -7  195.68    8.30
  -5  -6   7  197.48    8.70
   4   6  -7   85.89    5.60
   4   6  -7   77.29    5.20
   4   6  -7   88.19    5.60
  -4  -6   7   86.69    5.60
   3   6  -7   23.10    3.60
   3   6  -7   26.40    3.80
   3   6  -7   27.90    3.90
  -3  -6   7   28.30    3.80
   2   6  -7  108.49    5.20
   2   6  -7  108.59    5.80
   2   6  -7  106.69    5.80
  -2  -6   7  107.79    5.20
   1   6  -7  286.87    9.50
   1   6  -7  292.47    8.60
   1   6  -7  294.67    9.40
  -1  -6   7  278.97    9.10
   0   6  -7  322.77    9.40
   0   6  -7  318.57    9.80
   0   6  -7  316.07   10.10
   0  -6   7  321.07    9.70
  -1   6  -7   46.00    3.80
  -1   6  -7   55.59    4.60
  -1   6  -7   52.79    4.30
   1  -6   7   52.09    4.90
   1  -6   7   50.99    5.00
  -2   6  -7    1.40    1.90
  -2   6  -7    2.60    2.30
  -2   6  -7   -0.70    1.70
   2  -6   7    2.20    2.00
   2  -6   7    1.80    2.20
  -3   6  -7   89.29    5.30
  -3   6  -7   85.09    5.70
  -3   6  -7   72.69    5.10
   3  -6   7   79.59    5.10
   3  -6   7   69.49    5.10
  -4   6  -7    8.10    3.00
  -4   6  -7    8.50    2.80
  -4   6  -7   10.00    3.00
   4  -6   7    9.40    2.90
   4  -6   7   12.90    3.20
  -5   6  -7   97.39    6.40
  -5   6  -7  103.39    6.40
  -5   6  -7  105.79    6.50
   5  -6   7  107.79    6.20
   5  -6   7  115.99    6.70
  -6   6  -7  167.58    8.20
  -6   6  -7  181.38    8.70
   6  -6   7  183.48    8.50
   6  -6   7  180.28    8.60
   6  -6   7  177.98    8.20
  -7   6  -7   29.40    5.10
  -7   6  -7   39.40    5.50
   7  -6   7   29.70    5.20
   7  -6   7   33.80    5.00
   7   5  -7   26.20    4.40
   7   5  -7   38.70    5.20
  -7  -5   7   34.60    5.30
   6   5  -7  107.19    6.30
  -6  -5   7  111.39    6.80
   5   5  -7  105.69    6.00
   5   5  -7  101.49    5.90
  -5  -5   7   98.59    6.10
   4   5  -7  205.68    7.60
   4   5  -7  183.58    7.60
   4   5  -7  199.08    7.70
  -4  -5   7  187.78    7.70
   3   5  -7   68.89    4.80
   3   5  -7   77.59    4.90
   3   5  -7   67.49    4.70
  -3  -5   7   80.79    4.70
   2   5  -7   27.20    3.20
   2   5  -7   27.10    3.70
   2   5  -7   28.10    3.80
   2   5  -7   30.10    3.70
  -2  -5   7   33.50    3.60
   1   5  -7   86.49    5.10
   1   5  -7   94.49    4.70
   1   5  -7   87.59    4.90
  -1  -5   7   93.29    4.70
  -1  -5   7   86.69    4.90
   0   5  -7   59.79    4.10
   0   5  -7   56.89    4.10
   0   5  -7   55.49    4.30
   0  -5   7   56.89    4.20
  -1   5  -7   19.60    3.30
  -1   5  -7   15.80    3.00
  -1   5  -7   16.10    2.60
  -1   5  -7   15.90    2.80
   1  -5   7   11.20    2.60
  -2   5  -7  128.69    5.60
  -2   5  -7  110.99    5.70
  -2   5  -7  122.59    6.10
   2  -5   7  124.89    6.00
   2  -5   7  116.39    5.80
  -3   5  -7  341.17   10.50
  -3   5  -7  331.97    9.80
  -3   5  -7  324.67   10.20
   3  -5   7  330.57   10.10
   3  -5   7  335.27   10.10
  -4   5  -7   31.90    4.30
  -4   5  -7   26.10    3.90
  -4   5  -7   21.50    3.70
   4  -5   7   31.40    4.40
   4  -5   7   26.40    3.90
  -5   5  -7  194.28    8.20
  -5   5  -7  194.48    8.30
  -5   5  -7  195.68    8.30
   5  -5   7  194.88    8.20
   5  -5   7  191.48    8.00
  -6   5  -7   78.49    6.00
  -6   5  -7   73.39    5.70
   6  -5   7   72.19    5.70
   6  -5   7   77.79    5.70
  -7   5  -7   55.89    6.30
  -7   5  -7   51.69    6.40
   7  -5   7   59.99    6.30
   7  -5   7   59.09    6.40
   8   4  -7   71.89    6.90
  -8  -4   7  101.69    7.40
   7   4  -7  116.49    6.80
   7   4  -7   98.99    6.30
  -7  -4   7   99.69    6.90
   6   4  -7  122.09    6.50
  -6  -4   7  126.59    7.00
   5   4  -7    3.40    2.20
   5   4  -7    2.00    2.20
   5   4  -7    1.40    2.00
  -5  -4   7    3.20    2.40
   4   4  -7   -0.90    1.60
   4   4  -7    3.20    1.90
   4   4  -7    1.70    2.10
  -4  -4   7    2.50    2.00
   3   4  -7  154.88    6.40
   3   4  -7  160.18    6.60
   3   4  -7  162.78    6.60
  -3  -4   7  163.68    6.40
   2   4  -7  169.88    5.70
   2   4  -7  158.48    6.40
   2   4  -7  169.18    6.70
   2   4  -7  173.18    6.50
  -2  -4   7  167.48    6.00
   1   4  -7   79.29    4.70
   1   4  -7   92.09    4.40
   1   4  -7   75.99    4.40
  -1  -4   7   89.89    4.10
  -1  -4   7   80.69    4.50
   0   4  -7  145.79    5.70
   0   4  -7  141.49    5.90
   0   4  -7  139.19    6.00
   0  -4   7  131.89    5.70
  -1   4  -7  151.88    6.20
  -1   4  -7  158.38    6.50
  -1   4  -7  165.68    5.40
  -1   4  -7  158.08    6.20
   1  -4   7  155.98    6.10
  -2   4  -7   33.90    3.50
  -2   4  -7   41.40    4.30
  -2   4  -7   40.70    4.30
   2  -4   7   32.00    3.70
   2  -4   7   36.90    3.80
  -3   4  -7  220.68    7.60
  -3   4  -7  210.18    7.80
  -3   4  -7  203.38    7.60
   3  -4   7  213.78    7.60
   3  -4   7  218.18    7.70
  -4   4  -7   58.59    4.70
  -4   4  -7   57.99    4.50
  -4   4  -7   59.59    4.70
   4  -4   7   58.59    4.50
   4  -4   7   56.69    4.50
  -5   4  -7   45.40    4.80
  -5   4  -7   41.70    5.00
  -5   4  -7   36.90    4.60
   5  -4   7   33.20    4.40
   5  -4   7   45.00    5.00
  -6   4  -7   89.39    6.00
  -6   4  -7   98.79    6.40
   6  -4   7   87.69    5.90
   6  -4   7  105.69    6.20
  -7   4  -7   74.59    6.30
  -7   4  -7   79.59    5.90
   7  -4   7   94.89    6.30
   7  -4   7   72.49    5.80
   8   3  -7   51.79    6.10
   8   3  -7   49.30    5.50
  -8  -3   7   54.09    6.70
   7   3  -7   32.30    4.50
   7   3  -7   25.60    4.20
  -7  -3   7   31.30    4.80
   6   3  -7   92.79    5.60
   6   3  -7   94.79    5.50
   6   3  -7   86.89    5.60
  -6  -3   7   92.99    6.10
   5   3  -7    3.90    2.20
   5   3  -7    7.20    2.30
   5   3  -7    2.00    1.80
  -5  -3   7    0.80    2.10
   4   3  -7    5.50    2.20
   4   3  -7    1.90    1.90
   4   3  -7    2.00    1.80
  -4  -3   7    7.60    2.50
   3   3  -7  833.22   17.50
   3   3  -7  856.61   17.60
   3   3  -7  860.81   15.90
   3   3  -7  881.41   17.40
  -3  -3   7  833.32   17.40
   2   3  -7  250.47    7.80
   2   3  -7  249.68    8.00
   2   3  -7  252.57    7.00
  -2  -3   7  242.58    7.70
  -2  -3   7  235.58    7.20
   1   3  -7   38.50    3.60
   1   3  -7   32.10    3.70
   1   3  -7   32.90    3.50
  -1  -3   7   31.40    2.70
  -1  -3   7   33.20    3.50
   0   3  -7  176.78    6.30
   0   3  -7  181.18    5.20
   0   3  -7  185.78    6.80
   0   3  -7  178.28    6.30
   0  -3   7  183.58    5.30
   0  -3   7  185.08    6.50
  -1   3  -7    5.30    1.60
  -1   3  -7    8.20    2.10
  -1   3  -7    9.30    2.20
  -1   3  -7    4.80    2.00
   1  -3   7   11.00    2.40
  -2   3  -7   19.10    3.10
  -2   3  -7   20.40    3.20
  -2   3  -7   17.80    2.60
   2  -3   7   24.50    3.40
   2  -3   7   23.00    3.20
  -3   3  -7  164.88    6.80
  -3   3  -7  181.48    6.90
  -3   3  -7  177.88    6.70
   3  -3   7  179.38    6.60
   3  -3   7  171.58    6.70
  -4   3  -7  285.77    8.80
  -4   3  -7  279.77    9.20
  -4   3  -7  277.37    9.20
   4  -3   7  283.87    9.10
   4  -3   7  282.47    8.80
  -5   3  -7  100.89    6.20
  -5   3  -7  112.69    5.80
  -5   3  -7  109.09    6.10
   5  -3   7  116.49    6.10
   5  -3   7  114.29    5.90
  -6   3  -7   47.10    5.70
  -6   3  -7   40.40    5.10
   6  -3   7   41.70    5.00
   6  -3   7   52.09    5.20
  -7   3  -7   30.30    4.50
  -7   3  -7   28.60    5.00
   7  -3   7   26.90    4.50
   7  -3   7   28.10    4.30
  -8   3  -7   33.50    5.50
   8  -3   7   61.29    6.60
   8   2  -7   23.20    4.30
   8   2  -7    6.50    3.20
  -8  -2   7   20.60    4.60
   7   2  -7   55.49    6.50
   7   2  -7   69.89    5.40
   7   2  -7   66.29    5.20
  -7  -2   7   48.20    5.60
   6   2  -7  159.38    6.90
   6   2  -7  157.68    7.00
   6   2  -7  161.18    6.90
  -6  -2   7  145.79    7.40
   5   2  -7   67.89    4.60
   5   2  -7   58.39    4.30
   5   2  -7   65.19    4.50
  -5  -2   7   67.29    4.90
   4   2  -7   28.10    3.50
   4   2  -7   40.60    3.60
   4   2  -7   34.10    3.90
  -4  -2   7   30.80    3.90
   3   2  -7  253.07    7.70
   3   2  -7  253.97    6.90
   3   2  -7  260.97    8.10
   3   2  -7  250.57    8.10
  -3  -2   7  257.97    8.00
   2   2  -7  150.98    5.40
   2   2  -7  163.18    6.00
   2   2  -7  146.49    6.10
  -2  -2   7  158.68    5.80
  -2  -2   7  152.68    5.70
   1   2  -7   93.19    4.60
   1   2  -7   86.99    4.20
   1   2  -7   88.39    4.30
  -1  -2   7   92.69    4.40
  -1  -2   7   89.69    4.10
   0   2  -7  190.98    6.80
   0   2  -7  200.28    5.30
   0   2  -7  200.58    6.70
   0   2  -7  194.88    6.40
   0  -2   7  194.78    6.50
   0  -2   7  199.98    5.90
  -1   2  -7    2.90    1.30
  -1   2  -7    6.80    2.00
  -1   2  -7    4.50    1.70
  -1   2  -7    2.40    1.60
   1  -2   7    3.60    1.40
   1  -2   7    2.90    1.70
  -2   2  -7   23.50    3.00
  -2   2  -7   32.30    3.40
  -2   2  -7   29.10    3.50
   2  -2   7   29.10    3.60
   2  -2   7   32.20    3.40
  -3   2  -7   70.89    4.20
  -3   2  -7   70.19    4.50
  -3   2  -7   71.69    4.40
   3  -2   7   64.69    4.00
   3  -2   7   75.39    4.50
  -4   2  -7  372.86    9.90
  -4   2  -7  342.87   10.50
  -4   2  -7  360.16   10.50
   4  -2   7  354.86    9.60
   4  -2   7  348.87   10.20
  -5   2  -7  154.48    7.10
  -5   2  -7  171.18    7.70
   5  -2   7  181.08    7.50
   5  -2   7  172.48    6.70
  -6   2  -7    4.50    2.60
  -6   2  -7    2.40    2.50
   6  -2   7    2.80    2.00
  -7   2  -7   78.69    6.40
  -7   2  -7   71.99    5.70
   7  -2   7   79.99    5.80
  -8   2  -7    6.70    3.30
   8  -2   7    4.80    2.80
   8   1  -7   20.30    3.90
   8   1  -7   25.70    4.40
  -8  -1   7   30.30    5.30
   7   1  -7   24.00    4.00
   7   1  -7   23.80    3.80
   7   1  -7   25.00    4.20
  -7  -1   7   24.60    4.40
   6   1  -7  283.17    9.20
   6   1  -7  297.57    9.70
   6   1  -7  287.47    9.70
  -6  -1   7  309.17   10.50
   5   1  -7  549.95   12.80
   5   1  -7  527.05   13.20
   5   1  -7  542.35   13.60
  -5  -1   7  549.35   14.10
   4   1  -7   82.69    5.00
   4   1  -7   90.89    4.60
   4   1  -7   93.09    4.90
  -4  -1   7   97.29    5.40
   3   1  -7   33.20    3.40
   3   1  -7   34.70    2.90
   3   1  -7   31.80    3.30
   3   1  -7   25.00    3.30
  -3  -1   7   39.60    4.00
   2   1  -7   32.80    3.60
   2   1  -7   29.20    3.20
   2   1  -7   29.60    3.00
  -2  -1   7   40.20    3.40
  -2  -1   7   32.40    3.40
   1   1  -7  109.59    4.60
   1   1  -7  103.29    5.00
   1   1  -7  108.49    4.80
  -1  -1   7  100.39    4.50
  -1  -1   7  106.09    4.60
   0   1  -7  147.19    5.80
   0   1  -7  159.78    4.90
   0   1  -7  159.08    5.50
   0   1  -7  156.78    6.00
   0  -1   7  150.38    5.30
   0  -1   7  161.28    5.60
  -1   1  -7   94.99    4.20
  -1   1  -7  103.99    4.90
  -1   1  -7   87.49    4.60
  -1   1  -7   94.19    4.20
   1  -1   7   95.99    4.50
   1  -1   7  102.99    4.20
  -2   1  -7   62.99    3.80
  -2   1  -7   51.69    3.90
  -2   1  -7   60.69    3.90
   2  -1   7   51.19    3.40
   2  -1   7   58.29    3.80
   2  -1   7   59.39    3.30
  -3   1  -7  204.38    6.80
  -3   1  -7  187.18    7.40
  -3   1  -7  205.98    7.40
   3  -1   7  198.78    6.40
   3  -1   7  204.58    7.10
  -4   1  -7  188.28    7.60
  -4   1  -7  187.58    7.50
   4  -1   7  182.48    7.10
  -5   1  -7  240.08    9.20
  -5   1  -7  224.18    8.60
   5  -1   7  239.48    8.60
  -6   1  -7   36.60    5.20
  -6   1  -7   32.20    4.30
   6  -1   7   28.20    4.50
  -7   1  -7   11.60    3.50
  -7   1  -7   10.00    3.40
   7  -1   7   17.40    3.80
   8   0  -7  137.99    7.50
   8   0  -7  124.99    7.30
  -8   0   7  152.98    8.40
   7   0  -7   43.70    5.10
   7   0  -7   54.89    5.60
   7   0  -7   47.80    5.40
  -7   0   7   42.00    5.60
   6   0  -7  464.95   11.70
   6   0  -7  451.55   12.50
   6   0  -7  445.76   12.70
  -6   0   7  461.45   13.30
   5   0  -7  313.87    9.70
   5   0  -7  328.77    9.10
   5   0  -7  314.37   10.10
  -5   0   7  346.37   10.70
   4   0  -7   10.50    2.50
   4   0  -7   12.20    2.50
   4   0  -7   14.90    2.90
   4   0  -7   10.70    2.60
  -4   0   7   11.80    2.70
   3   0  -7  277.17    8.80
   3   0  -7  272.27    7.60
   3   0  -7  261.07    7.90
  -3   0   7  264.27    8.60
  -3   0   7  275.17    7.60
   2   0  -7   24.20    2.90
   2   0  -7   18.00    3.00
   2   0  -7   23.90    3.00
  -2   0   7   16.90    2.50
  -2   0   7   19.00    2.90
   1   0  -7  807.42   16.00
   1   0  -7  780.02   15.00
   1   0  -7  790.42   16.40
  -1   0   7  781.62   15.00
  -1   0   7  780.62   16.00
   0   0  -7  456.45   11.20
   0   0  -7  470.55   11.40
   0   0  -7  479.35   10.20
   0   0  -7  484.25   10.30
   0   0   7  456.45   10.80
   0   0   7  476.05   10.60
  -1   0  -7  363.46    9.70
  -1   0  -7  380.56   10.10
  -1   0  -7  367.16    9.20
  -1   0  -7  390.06    8.70
   1   0   7  372.76    9.40
   1   0   7  373.66    9.30
  -2   0  -7  228.78    7.90
  -2   0  -7  218.48    7.30
  -2   0  -7  226.38    7.20
   2   0   7  226.68    7.10
   2   0   7  222.88    6.90
  -3   0  -7    6.90    2.30
  -3   0  -7    4.90    2.10
  -3   0  -7    6.90    2.20
   3   0   7    6.90    2.20
   3   0   7    6.40    2.00
  -4   0  -7   16.80    3.20
  -4   0  -7   14.40    3.30
   4   0   7   12.50    2.80
  -5   0  -7  169.78    7.60
  -5   0  -7  168.48    7.90
   5   0   7  176.68    7.30
  -6   0  -7   33.30    4.60
  -6   0  -7   29.70    4.80
   6   0   7   32.20    4.40
  -7   0  -7   16.20    4.00
   7   0   7   20.20    3.90
   8  -1  -7   46.10    5.40
   8  -1  -7   41.40    5.20
  -8   1   7   39.10    5.60
   7  -1  -7   29.10    4.30
   7  -1  -7   27.70    4.50
  -7   1   7   25.10    4.40
   6  -1  -7   11.90    3.20
   6  -1  -7   16.90    3.20
  -6   1   7   14.10    3.40
   5  -1  -7   27.80    4.00
   5  -1  -7   22.00    3.50
  -5   1   7   30.40    4.40
   4  -1  -7   11.30    2.70
   4  -1  -7    7.80    2.10
   4  -1  -7   11.10    2.50
  -4   1   7    4.90    2.30
   3  -1  -7   -0.30    1.60
   3  -1  -7    1.00    1.70
   3  -1  -7    1.30    1.50
  -3   1   7    2.20    1.90
   2  -1  -7   90.39    4.20
   2  -1  -7   87.59    5.00
   2  -1  -7   86.39    4.70
  -2   1   7   94.29    5.10
  -2   1   7   87.99    4.00
   1  -1  -7  814.92   15.60
   1  -1  -7  848.82   15.40
   1  -1  -7  834.22   17.10
   1  -1  -7  804.72   17.10
  -1   1   7  811.32   17.00
  -1   1   7  831.02   15.30
   0  -1  -7  172.08    6.50
   0  -1  -7  183.48    6.80
   0  -1  -7  175.38    5.90
   0   1   7  174.98    6.50
   0   1   7  190.78    5.80
  -1  -1  -7  157.68    6.00
  -1  -1  -7  144.39    6.30
  -1  -1  -7  151.78    5.80
   1   1   7  145.39    5.30
   1   1   7  151.68    6.00
  -2  -1  -7  113.59    5.10
  -2  -1  -7  110.39    5.50
  -2  -1  -7  109.29    5.70
   2   1   7  113.29    4.90
   2   1   7  100.49    5.10
  -3  -1  -7    4.80    2.30
  -3  -1  -7    5.30    2.40
   3   1   7    5.20    2.10
   3   1   7    7.50    2.30
  -4  -1  -7  158.58    7.30
  -4  -1  -7  171.08    7.60
   4   1   7  172.88    9.90
   4   1   7  178.48    6.80
  -5  -1  -7   91.19    6.20
  -5  -1  -7   98.29    6.00
   5   1   7   78.99    5.40
  -6  -1  -7   19.30    3.80
  -6  -1  -7   23.70    4.30
   6   1   7   27.40    4.30
  -7  -1  -7   23.80    5.00
   7   1   7   30.80    4.90
   8  -2  -7    0.20    2.70
   8  -2  -7    0.80    2.80
  -8   2   7    0.70    2.60
   7  -2  -7   42.90    5.40
   7  -2  -7   60.49    6.10
  -7   2   7   38.20    5.30
   6  -2  -7    7.80    2.90
   6  -2  -7   10.20    3.00
  -6   2   7    5.10    2.70
   5  -2  -7   24.00    3.90
   5  -2  -7   27.80    3.80
  -5   2   7   31.80    4.50
   4  -2  -7  166.08    6.40
   4  -2  -7  166.28    7.40
   4  -2  -7  157.68    6.60
  -4   2   7  156.18    7.30
   3  -2  -7  211.98    6.70
   3  -2  -7  201.28    7.40
   3  -2  -7  186.78    7.80
  -3   2   7  209.08    8.10
   2  -2  -7   99.29    5.30
   2  -2  -7   81.29    5.10
  -2   2   7   85.69    5.10
   1  -2  -7   54.49    4.20
   1  -2  -7   49.40    4.00
   1  -2  -7   57.99    3.70
  -1   2   7   49.10    4.10
   0  -2  -7  150.68    6.00
   0  -2  -7  158.28    6.40
   0  -2  -7  169.28    7.00
   0   2   7  158.58    6.60
  -1  -2  -7   80.49    5.00
  -1  -2  -7   73.79    4.60
  -1  -2  -7   76.39    4.50
   1   2   7   75.09    4.70
  -2  -2  -7  169.88    7.20
  -2  -2  -7  168.48    6.90
   2   2   7  165.08    7.20
   2   2   7  155.58    6.80
  -3  -2  -7   90.99    5.60
  -3  -2  -7   87.49    5.60
   3   2   7   91.99    5.30
   3   2   7   95.19    4.90
  -4  -2  -7   76.59    5.80
  -4  -2  -7   64.19    5.00
   4   2   7   71.49    4.70
   4   2   7   70.79    4.80
  -5  -2  -7    6.70    3.00
  -5  -2  -7    5.80    3.00
   5   2   7    8.60    2.70
  -6  -2  -7    2.70    2.60
  -6  -2  -7    0.30    2.60
   6   2   7    3.30    2.30
   7  -3  -7   77.99    5.90
   7  -3  -7   77.09    6.30
  -7   3   7   68.29    7.40
   6  -3  -7   92.19    5.80
   6  -3  -7   68.49    6.00
  -6   3   7   78.19    6.10
   5  -3  -7    0.30    2.20
   5  -3  -7   -1.60    1.80
  -5   3   7    0.70    2.40
   4  -3  -7  373.66   11.90
   4  -3  -7  356.66   10.80
  -4   3   7  370.46   11.80
   3  -3  -7  186.18    8.00
   3  -3  -7  182.98    7.60
  -3   3   7  180.28    7.80
   2  -3  -7    5.90    2.60
   2  -3  -7    4.30    2.40
  -2   3   7    3.60    2.40
   1  -3  -7   43.50    3.80
   1  -3  -7   49.60    4.30
   1  -3  -7   46.20    4.90
  -1   3   7   39.90    4.60
   0  -3  -7   44.80    4.00
   0  -3  -7   43.40    4.90
   0  -3  -7   42.40    4.50
   0   3   7   49.60    4.20
  -1  -3  -7   64.39    4.50
  -1  -3  -7   60.09    4.80
  -1  -3  -7   69.09    4.90
   1   3   7   60.89    4.70
  -2  -3  -7  158.18    7.40
  -2  -3  -7  159.08    7.30
   2   3   7  153.78    7.20
  -3  -3  -7  117.09    6.60
  -3  -3  -7  124.09    6.80
   3   3   7  110.89    6.20
  -4  -3  -7   41.80    5.40
  -4  -3  -7   35.30    4.70
   4   3   7   38.30    4.90
  -5  -3  -7    2.70    3.00
  -5  -3  -7    2.10    2.40
   5   3   7   -2.00    2.40
   6  -4  -7  126.79    7.80
   5  -4  -7   24.70    4.50
   5  -4  -7   34.40    4.60
  -5   4   7   34.70    4.90
   4  -4  -7   77.69    5.70
   4  -4  -7   75.99    6.10
  -4   4   7   62.89    5.50
   3  -4  -7    0.30    2.40
   3  -4  -7   -0.20    2.20
  -3   4   7    1.40    2.10
   2  -4  -7    0.50    2.20
   2  -4  -7    2.30    2.50
  -2   4   7    0.10    2.20
   1  -4  -7  105.09    6.50
   1  -4  -7  112.59    6.00
   1  -4  -7  103.29    6.10
  -1   4   7  117.69    6.40
   0  -4  -7   81.89    5.40
   0  -4  -7   70.79    5.20
   0  -4  -7   72.79    5.50
   0   4   7   71.19    5.30
  -1  -4  -7  245.48    9.20
  -1  -4  -7  220.08    9.10
   1   4   7  218.28    8.90
  -2  -4  -7   73.49    5.70
  -2  -4  -7   75.39    5.80
   2   4   7   68.89    5.30
  -3  -4  -7   66.99    6.60
  -3  -4  -7   59.89    6.40
   3   4   7   65.39    6.60
  -4  -4  -7   11.90    3.80
  -4  -4  -7   14.60    4.00
   4   4   7   16.60    3.90
   5  -5  -7   46.80    5.60
   5  -5  -7   40.20    5.60
  -5   5   7   45.70    6.00
   4  -5  -7    1.70    2.60
   4  -5  -7    0.20    2.40
  -4   5   7    1.10    2.30
   3  -5  -7   15.90    3.90
   3  -5  -7   17.80    3.90
  -3   5   7   16.60    3.80
   2  -5  -7   91.19    6.50
   2  -5  -7   79.59    6.10
  -2   5   7   81.79    5.90
   1  -5  -7  221.98    9.60
   1  -5  -7  240.38    9.20
   1  -5  -7  225.08    9.20
  -1   5   7  222.88    9.40
   0  -5  -7  168.78    8.10
   0  -5  -7  150.88    8.10
   0   5   7  156.08    8.10
  -1  -5  -7   36.20    5.20
  -1  -5  -7   38.90    5.40
   1   5   7   40.00    5.40
  -2  -5  -7   19.20    4.20
  -2  -5  -7   13.60    3.70
   2   5   7   16.30    3.90
  -3  -5  -7    0.30    2.60
  -3  -5  -7    0.30    2.60
   3   5   7    3.00    2.90
   3  -6  -7   12.80    4.10
   3  -6  -7    6.30    3.40
  -3   6   7    9.40    3.60
   2  -6  -7   77.99    6.60
   2  -6  -7   68.39    7.30
  -2   6   7   80.59    6.30
   1  -6  -7   68.29    7.00
   1  -6  -7   75.69    6.10
  -1   6   7   78.09    6.20
   0  -6  -7   54.99    6.40
   0  -6  -7   60.69    6.60
   0   6   7   48.20    6.10
  -1  -6  -7   40.40    5.80
  -1  -6  -7   52.59    6.50
   1   6   7   44.30    6.10
   2   9  -8  182.78    8.80
   2   9  -8  176.38    8.90
  -2  -9   8  187.68    8.90
   1   9  -8   50.99    6.00
  -1  -9   8   57.89    6.00
  -1  -9   8   45.60    5.70
   0   9  -8   96.09    6.90
   0  -9   8   95.89    6.70
   0  -9   8   91.69    6.50
  -1   9  -8    0.20    2.50
   1  -9   8    0.20    2.60
   1  -9   8   -4.60    2.20
  -2   9  -8   -0.40    2.70
   2  -9   8    5.30    3.00
   2  -9   8    0.00    2.70
  -3   9  -8   27.20    4.90
  -3   9  -8   30.10    5.50
   3  -9   8   29.40    5.20
   4   8  -8   13.90    3.70
   4   8  -8   21.30    4.30
   3   8  -8   40.80    5.20
   3   8  -8   32.50    4.70
  -3  -8   8   32.50    4.80
   2   8  -8   60.59    6.20
   2   8  -8   54.89    5.90
  -2  -8   8   65.29    6.30
   1   8  -8   88.99    6.30
   1   8  -8   91.69    6.20
  -1  -8   8   95.29    6.10
   0   8  -8   60.59    6.30
   0  -8   8   68.99    5.50
   0  -8   8   51.89    5.70
  -1   8  -8   40.10    5.50
   1  -8   8   41.20    5.60
   1  -8   8   45.80    5.70
  -2   8  -8    8.30    3.30
  -2   8  -8    2.90    2.40
   2  -8   8   10.60    3.40
   2  -8   8    6.20    3.00
  -3   8  -8   79.69    6.50
  -3   8  -8   84.39    6.50
  -3   8  -8   93.19    6.30
   3  -8   8   90.59    6.30
   3  -8   8   87.49    6.50
  -4   8  -8  100.69    7.20
  -4   8  -8  124.29    7.40
  -4   8  -8   97.99    6.90
   4  -8   8  103.99    7.20
   4  -8   8  101.49    6.70
  -5   8  -8   52.09    6.40
  -5   8  -8   58.99    6.70
   5  -8   8   57.19    6.40
   5  -8   8   58.59    6.20
   5  -8   8   52.89    6.60
   5   7  -8   38.30    5.10
   5   7  -8   40.40    5.00
  -5  -7   8   31.70    4.90
   4   7  -8   53.89    5.80
   4   7  -8   67.59    5.70
  -4  -7   8   52.09    5.60
   3   7  -8   73.89    5.70
   3   7  -8   70.59    5.60
   3   7  -8   80.69    5.80
   2   7  -8   16.40    3.40
   2   7  -8   18.20    3.50
  -2  -7   8   18.30    3.60
   1   7  -8   69.69    5.50
   1   7  -8   73.89    5.10
   1   7  -8   81.99    5.70
  -1  -7   8   73.69    5.40
   0   7  -8  151.28    7.00
   0   7  -8  156.58    7.60
   0   7  -8  156.58    7.40
   0  -7   8  155.98    7.30
  -1   7  -8  134.39    6.80
  -1   7  -8  138.29    7.40
   1  -7   8  120.49    6.50
   1  -7   8  143.89    7.20
  -2   7  -8   59.79    5.10
  -2   7  -8   61.49    5.50
  -2   7  -8   62.99    6.60
   2  -7   8   63.79    5.10
   2  -7   8   59.79    5.90
  -3   7  -8   32.20    4.70
  -3   7  -8   32.60    4.60
  -3   7  -8   39.30    4.80
   3  -7   8   34.60    4.60
   3  -7   8   33.50    4.70
  -4   7  -8   20.10    4.10
  -4   7  -8   18.30    3.80
  -4   7  -8    7.60    3.10
   4  -7   8   14.10    3.50
   4  -7   8   19.00    3.90
  -5   7  -8   29.40    5.10
  -5   7  -8   31.50    4.90
  -5   7  -8   35.00    5.00
   5  -7   8   35.00    5.30
   5  -7   8   31.30    4.80
  -6   7  -8   27.10    5.10
   6  -7   8   30.50    5.10
   6  -7   8   34.80    5.10
   6  -7   8   38.10    5.50
   6   6  -8   42.20    5.50
   6   6  -8   23.40    4.40
  -6  -6   8   47.30    6.00
   5   6  -8  130.79    7.20
   5   6  -8  122.39    7.10
  -5  -6   8  127.69    7.20
   4   6  -8   58.19    5.00
   4   6  -8   42.10    5.00
   4   6  -8   63.09    5.30
  -4  -6   8   65.99    5.10
   3   6  -8   19.40    3.60
   3   6  -8   17.50    3.40
   3   6  -8   24.20    3.90
  -3  -6   8   24.10    3.70
   2   6  -8   -0.30    2.00
   2   6  -8    1.00    2.00
  -2  -6   8    2.20    2.20
   1   6  -8  134.89    6.60
   1   6  -8  127.49    6.70
   1   6  -8  125.49    5.90
  -1  -6   8  134.29    6.60
   0   6  -8  450.05   11.90
   0   6  -8  435.66   12.70
   0   6  -8  419.26   12.10
   0  -6   8  449.26   12.30
  -1   6  -8  261.27    9.60
  -1   6  -8  258.37    9.00
   1  -6   8  267.57    9.40
   1  -6   8  265.17    9.10
  -2   6  -8  279.17   10.00
  -2   6  -8  264.17    9.50
  -2   6  -8  274.37    9.00
   2  -6   8  288.97    9.90
   2  -6   8  277.07    9.60
  -3   6  -8   73.99    5.80
  -3   6  -8   84.09    5.50
  -3   6  -8   73.09    5.60
   3  -6   8   81.59    5.60
   3  -6   8   82.99    5.60
  -4   6  -8   78.29    5.70
  -4   6  -8   68.59    5.60
  -4   6  -8   64.79    5.40
   4  -6   8   83.49    5.90
   4  -6   8   61.99    5.20
  -5   6  -8   74.19    6.00
  -5   6  -8   73.09    5.90
  -5   6  -8   80.69    6.10
   5  -6   8   73.29    5.90
   5  -6   8   68.49    5.60
  -6   6  -8   64.99    7.10
  -6   6  -8   51.09    6.20
   6  -6   8   59.89    6.40
   6  -6   8   59.19    6.30
   7   5  -8    3.00    3.10
   7   5  -8    1.30    2.60
  -7  -5   8    2.70    3.20
   6   5  -8   22.10    4.10
   6   5  -8   17.40    3.70
  -6  -5   8   23.80    4.60
   5   5  -8   45.10    5.10
   5   5  -8   34.80    4.60
   5   5  -8   41.10    4.70
  -5  -5   8   38.40    5.00
   4   5  -8  122.49    6.50
   4   5  -8  116.79    6.40
   4   5  -8  125.69    6.50
  -4  -5   8  133.39    6.60
   3   5  -8   69.89    4.90
   3   5  -8   79.89    5.30
   3   5  -8   70.89    5.10
  -3  -5   8   75.09    4.80
   2   5  -8  147.29    6.90
   2   5  -8  141.39    5.90
   2   5  -8  133.79    6.50
  -2  -5   8  135.29    6.50
  -2  -5   8  147.29    6.00
   1   5  -8  148.09    6.50
   1   5  -8  134.69    6.60
   1   5  -8  143.49    6.00
  -1  -5   8  135.79    6.40
   0   5  -8  182.18    6.90
   0   5  -8  187.08    7.30
   0   5  -8  165.58    7.30
   0  -5   8  168.08    7.10
  -1   5  -8  125.09    6.00
  -1   5  -8  118.99    6.30
  -1   5  -8  122.29    6.10
   1  -5   8  105.89    5.70
  -2   5  -8   14.90    3.30
  -2   5  -8   17.80    3.10
  -2   5  -8   14.90    3.10
   2  -5   8   16.00    3.40
   2  -5   8   14.70    3.10
  -3   5  -8  107.79    5.60
  -3   5  -8   91.59    5.70
  -3   5  -8   95.59    5.70
   3  -5   8   93.79    5.60
   3  -5   8   88.79    5.60
  -4   5  -8    6.10    2.70
  -4   5  -8    9.50    3.10
  -4   5  -8   12.30    3.30
   4  -5   8   12.00    3.30
   4  -5   8    9.40    3.10
  -5   5  -8  343.37   11.40
  -5   5  -8  323.97   11.40
  -5   5  -8  341.27   11.30
   5  -5   8  351.36   11.40
   5  -5   8  344.67   11.40
  -6   5  -8  207.08    9.80
  -6   5  -8  215.98    9.50
  -6   5  -8  203.88    9.30
   6  -5   8  210.88    9.20
   6  -5   8  217.88    9.30
  -7   5  -8  109.99    7.60
  -7   5  -8  114.09    7.50
   7  -5   8  121.39    7.60
   7  -5   8   96.79    6.80
   7   4  -8    2.30    2.80
   7   4  -8    0.10    2.60
  -7  -4   8    3.10    3.10
   6   4  -8   94.99    6.20
   6   4  -8   91.09    6.20
  -6  -4   8   98.79    6.60
   5   4  -8   46.90    5.00
   5   4  -8   53.49    4.70
  -5  -4   8   60.49    5.20
   4   4  -8  138.49    6.70
   4   4  -8  142.39    6.70
   4   4  -8  154.08    6.90
  -4  -4   8  160.58    7.20
   3   4  -8  254.67    8.70
   3   4  -8  269.57    9.20
   3   4  -8  266.57    9.00
  -3  -4   8  269.97    8.80
   2   4  -8   31.70    3.90
   2   4  -8   30.60    3.40
   2   4  -8   27.40    3.90
  -2  -4   8   24.90    3.50
  -2  -4   8   32.90    3.60
   1   4  -8   23.00    3.10
   1   4  -8   19.00    3.20
   1   4  -8   20.00    3.20
  -1  -4   8   24.60    3.60
  -1  -4   8   25.10    3.40
   0   4  -8   60.59    4.40
   0   4  -8   49.90    3.90
   0   4  -8   56.39    4.20
   0  -4   8   47.50    4.60
  -1   4  -8   53.79    5.20
  -1   4  -8   44.20    4.60
  -1   4  -8   49.20    4.10
   1  -4   8   48.20    4.00
  -2   4  -8   61.69    4.60
  -2   4  -8   59.09    4.50
  -2   4  -8   66.59    4.20
   2  -4   8   56.99    4.40
   2  -4   8   62.79    4.50
  -3   4  -8  117.69    6.30
  -3   4  -8  134.79    6.50
  -3   4  -8  136.39    6.30
   3  -4   8  133.79    6.30
   3  -4   8  117.69    6.10
  -4   4  -8   15.80    3.40
  -4   4  -8   17.70    3.20
  -4   4  -8   23.60    4.00
   4  -4   8   16.40    3.40
   4  -4   8   21.80    3.80
  -5   4  -8  179.88    8.30
  -5   4  -8  175.18    7.90
  -5   4  -8  176.88    8.10
   5  -4   8  191.08    8.30
   5  -4   8  191.28    8.10
  -6   4  -8   86.69    6.20
  -6   4  -8   90.49    6.40
   6  -4   8   95.29    6.60
   6  -4   8   94.39    6.20
  -7   4  -8   21.10    4.50
  -7   4  -8   11.60    3.80
   7  -4   8   20.40    4.10
   7  -4   8   16.30    3.90
   8   3  -8    9.70    3.50
   8   3  -8    6.20    3.30
  -8  -3   8   13.90    4.30
   7   3  -8   25.00    4.30
   7   3  -8   31.70    4.60
  -7  -3   8   27.20    4.80
   6   3  -8   87.09    5.80
   6   3  -8   82.29    5.60
  -6  -3   8   90.19    6.30
   5   3  -8   10.00    2.90
   5   3  -8    5.80    2.40
   5   3  -8    9.40    2.70
  -5  -3   8   10.10    3.00
   4   3  -8  133.19    6.40
   4   3  -8  124.99    6.20
   4   3  -8  145.09    6.50
  -4  -3   8  145.29    6.70
   3   3  -8  309.67    9.80
   3   3  -8  307.77    9.60
   3   3  -8  328.77    9.60
  -3  -3   8  323.17    9.50
   2   3  -8    2.90    1.80
   2   3  -8   -1.40    1.60
   2   3  -8    1.40    1.70
  -2  -3   8    1.90    1.90
  -2  -3   8    0.90    2.00
   1   3  -8  173.88    6.70
   1   3  -8  164.98    6.90
   1   3  -8  162.18    6.20
  -1  -3   8  172.28    5.90
  -1  -3   8  169.28    6.60
   0   3  -8   51.29    3.90
   0   3  -8   53.69    3.90
   0   3  -8   46.90    4.00
   0  -3   8   51.19    4.00
  -1   3  -8    7.90    2.40
  -1   3  -8    7.30    2.20
  -1   3  -8    8.30    2.50
  -1   3  -8    9.20    2.40
   1  -3   8   11.80    2.70
  -2   3  -8  178.08    6.50
  -2   3  -8  182.98    7.40
  -2   3  -8  183.68    7.20
   2  -3   8  171.48    6.70
   2  -3   8  174.78    7.00
  -3   3  -8  172.08    7.30
  -3   3  -8  170.58    7.20
  -3   3  -8  177.98    7.00
   3  -3   8  182.68    7.30
   3  -3   8  175.48    6.80
  -4   3  -8  119.99    6.20
  -4   3  -8  108.59    6.20
  -4   3  -8  107.59    5.90
   4  -3   8  110.89    6.00
   4  -3   8  112.69    5.80
  -5   3  -8    4.10    2.50
  -5   3  -8    2.60    2.40
   5  -3   8    5.10    2.60
   5  -3   8    1.30    2.10
  -6   3  -8   23.80    4.50
  -6   3  -8   17.40    3.90
   6  -3   8   21.20    4.00
   6  -3   8   25.30    4.10
  -7   3  -8   59.19    6.80
  -7   3  -8   58.99    6.40
   7  -3   8   58.19    6.20
   8   2  -8    9.50    3.40
   8   2  -8   15.90    3.80
  -8  -2   8   18.60    4.60
   7   2  -8  122.09    7.00
   7   2  -8  128.19    7.10
   7   2  -8  129.89    7.10
  -7  -2   8  124.69    7.70
   6   2  -8   76.69    5.40
   6   2  -8   85.79    5.60
   6   2  -8   76.99    5.40
  -6  -2   8   74.69    5.90
   5   2  -8  116.89    5.90
   5   2  -8  107.69    6.10
  -5  -2   8  116.59    6.50
   4   2  -8  126.29    5.90
   4   2  -8  106.09    5.70
   4   2  -8  110.29    5.90
  -4  -2   8  120.39    6.10
   3   2  -8   80.39    5.10
   3   2  -8   94.89    4.50
   3   2  -8   84.59    4.80
  -3  -2   8   90.39    5.00
  -3  -2   8   91.39    5.10
   2   2  -8   19.90    2.80
   2   2  -8   24.90    3.40
   2   2  -8   20.00    3.10
  -2  -2   8   27.60    3.50
  -2  -2   8   24.40    3.40
   1   2  -8   78.49    4.40
   1   2  -8   75.29    4.60
   1   2  -8   78.39    4.50
  -1  -2   8   84.59    4.70
  -1  -2   8   86.49    4.40
   0   2  -8  170.18    6.20
   0   2  -8  163.58    6.70
   0   2  -8  153.08    6.40
   0  -2   8  165.98    5.70
   0  -2   8  161.88    6.20
  -1   2  -8   34.90    4.20
  -1   2  -8   42.90    3.10
  -1   2  -8   42.50    4.30
  -1   2  -8   40.90    3.40
   1  -2   8   39.80    4.00
  -2   2  -8  155.38    6.70
  -2   2  -8  142.39    6.30
  -2   2  -8  159.98    6.10
   2  -2   8  160.88    6.20
   2  -2   8  154.68    6.40
  -3   2  -8  156.38    6.60
  -3   2  -8  152.38    6.90
  -3   2  -8  137.69    6.20
   3  -2   8  142.49    5.90
   3  -2   8  144.29    6.40
  -4   2  -8   68.39    5.00
  -4   2  -8   67.19    5.10
  -4   2  -8   74.69    4.90
   4  -2   8   63.89    4.40
   4  -2   8   66.09    4.90
  -5   2  -8   10.50    3.30
  -5   2  -8   10.00    3.00
   5  -2   8    9.60    3.00
  -6   2  -8   36.10    5.20
  -6   2  -8   37.30    5.40
   6  -2   8   39.20    4.90
  -7   2  -8  106.59    7.00
  -7   2  -8  104.09    7.50
   7  -2   8  114.59    7.00
   8   1  -8   42.50    5.60
   8   1  -8   44.00    5.40
  -8  -1   8   45.10    5.90
   7   1  -8   73.89    5.70
   7   1  -8   50.69    5.40
   7   1  -8   47.50    5.60
  -7  -1   8   50.09    6.10
   6   1  -8  130.59    6.80
   6   1  -8  144.79    7.30
   6   1  -8  142.29    6.60
  -6  -1   8  125.79    7.30
   5   1  -8   79.79    5.40
   5   1  -8   74.89    4.90
   5   1  -8   73.59    5.20
  -5  -1   8   70.59    5.40
   4   1  -8   82.99    4.80
   4   1  -8   71.99    4.70
   4   1  -8   82.39    5.20
  -4  -1   8   76.59    5.20
   3   1  -8   90.39    4.90
   3   1  -8   99.89    5.50
   3   1  -8   98.19    4.70
  -3  -1   8   88.69    4.80
  -3  -1   8   88.49    5.20
   2   1  -8  109.89    5.60
   2   1  -8  109.49    5.10
   2   1  -8  108.59    5.10
  -2  -1   8  105.29    5.00
  -2  -1   8  110.89    5.40
   1   1  -8   61.09    4.10
   1   1  -8   63.69    4.40
   1   1  -8   57.89    3.80
  -1  -1   8   54.39    3.70
  -1  -1   8   60.99    3.90
   0   1  -8  150.78    5.70
   0   1  -8  153.48    6.50
   0   1  -8  163.08    6.40
   0  -1   8  155.88    6.00
   0  -1   8  154.18    5.80
  -1   1  -8   73.69    4.10
  -1   1  -8   75.99    4.10
  -1   1  -8   68.99    4.50
  -1   1  -8   62.39    4.40
   1  -1   8   72.89    4.30
   1  -1   8   79.89    4.10
  -2   1  -8   37.00    4.00
  -2   1  -8   34.90    4.00
  -2   1  -8   42.00    4.50
   2  -1   8   39.00    4.20
   2  -1   8   43.70    4.00
  -3   1  -8    6.80    2.50
  -3   1  -8    9.40    2.80
  -3   1  -8    5.40    2.30
   3  -1   8    9.60    2.50
  -4   1  -8   13.60    3.30
  -4   1  -8   18.60    3.70
   4  -1   8   23.10    3.90
  -5   1  -8  114.09    6.70
  -5   1  -8  103.29    6.30
   5  -1   8  108.19    6.20
  -6   1  -8   70.29    6.00
  -6   1  -8   51.79    5.90
   6  -1   8   72.29    6.80
  -7   1  -8  150.08    8.60
  -7   1  -8  147.69    8.20
   7  -1   8  146.19    7.80
   8   0  -8   18.60    4.10
   8   0  -8   18.10    4.10
  -8   0   8   15.50    4.20
   7   0  -8   18.30    3.60
   7   0  -8   24.10    4.20
  -7   0   8   31.20    5.00
   6   0  -8  190.28    8.50
   6   0  -8  187.38    8.10
  -6   0   8  194.38    8.80
   5   0  -8  143.79    6.60
   5   0  -8  140.99    8.80
   5   0  -8  137.29    7.00
  -5   0   8  139.79    7.20
   4   0  -8  257.87    9.20
   4   0  -8  252.07    8.40
  -4   0   8  248.88    7.90
  -4   0   8  237.18    9.00
   3   0  -8   63.59    4.20
   3   0  -8   60.89    4.10
   3   0  -8   58.39    4.60
  -3   0   8   63.69    4.00
  -3   0   8   61.09    4.60
   2   0  -8   11.00    2.60
   2   0  -8   10.20    2.30
   2   0  -8   12.90    2.70
  -2   0   8   11.30    2.70
  -2   0   8   11.00    2.30
   1   0  -8    5.10    2.20
   1   0  -8    4.10    1.70
   1   0  -8    2.80    2.00
  -1   0   8    4.40    2.00
  -1   0   8    2.20    1.70
   0   0  -8    1.20    2.00
   0   0  -8    2.80    1.80
   0   0  -8    3.40    1.80
   0   0   8    4.70    1.90
   0   0   8    2.80    2.00
  -1   0  -8  506.35   13.10
  -1   0  -8  506.85   12.70
  -1   0  -8  532.85   12.10
   1   0   8  526.85   12.20
   1   0   8  532.85   12.40
  -2   0  -8  104.79    5.40
  -2   0  -8   97.89    5.70
  -2   0  -8   94.99    5.20
   2   0   8  101.69    5.10
   2   0   8  115.79    5.30
  -3   0  -8   -0.20    2.00
  -3   0  -8    1.10    1.90
   3   0   8    1.70    1.90
  -4   0  -8  162.08    7.60
  -4   0  -8  144.89    7.10
   4   0   8  161.68    7.00
  -5   0  -8  127.89    7.40
  -5   0  -8  137.39    7.40
   5   0   8  142.29    6.90
  -6   0  -8   42.90    5.90
  -6   0  -8   36.40    5.10
   6   0   8   42.80    5.10
   7  -1  -8   19.50    4.00
   7  -1  -8   26.20    4.60
  -7   1   8   31.50    5.30
   6  -1  -8   20.50    4.00
   6  -1  -8   25.50    3.90
  -6   1   8   13.60    3.40
   5  -1  -8  101.09    5.80
   5  -1  -8  104.59    6.40
  -5   1   8   96.29    6.20
   4  -1  -8   59.29    4.40
   4  -1  -8   56.69    4.30
   4  -1  -8   67.69    5.10
  -4   1   8   58.09    4.80
   3  -1  -8   47.50    4.50
   3  -1  -8   51.89    4.50
   3  -1  -8   46.70    3.70
  -3   1   8   53.29    4.50
   2  -1  -8    8.80    2.70
   2  -1  -8    7.80    2.50
   2  -1  -8    9.60    2.40
  -2   1   8    9.50    2.70
   1  -1  -8    3.10    2.00
   1  -1  -8    0.80    1.80
  -1   1   8   -1.30    1.50
   0  -1  -8   35.30    4.00
   0  -1  -8   24.00    3.60
   0   1   8   41.00    3.80
   0   1   8   39.80    4.30
  -1  -1  -8  623.84   14.00
  -1  -1  -8  618.04   15.00
  -1  -1  -8  618.24   14.50
   1   1   8  614.14   14.50
   1   1   8  616.14   13.30
  -2  -1  -8  133.29    6.70
  -2  -1  -8  134.79    6.00
  -2  -1  -8  127.39    6.30
   2   1   8  127.79    6.10
   2   1   8  131.09    5.70
  -3  -1  -8   -2.00    2.00
  -3  -1  -8    1.90    2.30
   3   1   8    0.80    1.90
   3   1   8    0.00    1.90
  -4  -1  -8   89.19    6.10
  -4  -1  -8   90.99    6.00
   4   1   8   90.99    5.40
  -5  -1  -8   49.30    5.70
  -5  -1  -8   43.90    5.50
   5   1   8   54.69    5.70
  -6  -1  -8   57.49    6.10
  -6  -1  -8   59.99    6.70
   6   1   8   65.59    5.50
   7  -2  -8    4.40    3.10
   7  -2  -8    8.50    3.20
  -7   2   8    6.00    3.40
   6  -2  -8    2.40    2.60
   6  -2  -8    2.20    2.40
  -6   2   8    3.00    2.60
   5  -2  -8   59.59    4.80
   5  -2  -8   63.89    5.60
  -5   2   8   53.09    6.10
   4  -2  -8  254.77    9.80
   4  -2  -8  250.87    8.80
  -4   2   8  258.37    9.90
   3  -2  -8  103.39    6.20
   3  -2  -8  108.39    5.90
  -3   2   8  101.49    6.10
   2  -2  -8   15.30    3.10
   2  -2  -8   14.00    3.10
  -2   2   8   19.90    3.70
   1  -2  -8   14.00    3.10
   1  -2  -8   16.40    3.30
  -1   2   8    7.50    2.60
   0  -2  -8   16.50    3.20
   0  -2  -8   16.30    3.10
   0  -2  -8   17.00    3.20
   0   2   8    8.10    2.70
  -1  -2  -8   99.19    5.50
  -1  -2  -8   96.19    5.30
  -1  -2  -8   89.59    5.60
   1   2   8   97.09    5.50
  -2  -2  -8  327.57   10.30
  -2  -2  -8  334.77   10.90
   2   2   8  298.77   10.10
  -3  -2  -8   45.10    5.30
  -3  -2  -8   49.80    5.50
   3   2   8   48.50    5.20
  -4  -2  -8   69.69    5.70
  -4  -2  -8   76.89    6.10
  -5  -2  -8   42.00    5.70
  -5  -2  -8   43.50    5.80
   6  -3  -8    1.70    2.60
  -6   3   8    3.20    2.90
   5  -3  -8   39.90    5.50
  -5   3   8   40.70    5.80
   4  -3  -8  311.07   11.30
   4  -3  -8  293.17   10.20
  -4   3   8  288.87   10.70
   3  -3  -8   -1.60    2.00
   3  -3  -8    0.10    2.30
  -3   3   8   -0.30    2.20
   2  -3  -8   79.09    5.70
   2  -3  -8   75.09    5.60
  -2   3   8   75.29    5.50
   1  -3  -8   74.49    5.40
   1  -3  -8   66.89    5.30
  -1   3   8   88.49    5.70
   0  -3  -8    2.60    2.30
   0  -3  -8    0.70    2.20
   0  -3  -8    2.60    2.30
   0   3   8    2.80    2.40
  -1  -3  -8   50.09    5.40
  -1  -3  -8   46.00    5.10
   1   3   8   56.79    5.80
  -2  -3  -8  156.48    7.90
  -2  -3  -8  170.98    7.90
   2   3   8  177.18    8.10
  -3  -3  -8  121.49    7.20
  -3  -3  -8  135.99    7.50
   3   3   8  127.49    7.00
  -4  -3  -8   14.40    4.10
  -4  -3  -8   12.80    3.80
   4   3   8    9.80    3.20
   5  -4  -8   25.20    4.90
  -5   4   8   22.60    4.70
   4  -4  -8   68.39    5.90
   4  -4  -8   55.09    6.00
  -4   4   8   62.79    6.60
   3  -4  -8   18.70    4.10
   3  -4  -8   15.30    3.80
  -3   4   8   19.90    4.10
   2  -4  -8   64.99    6.40
   2  -4  -8   49.80    5.60
  -2   4   8   53.79    6.00
   1  -4  -8   39.40    5.30
   1  -4  -8   54.69    5.70
  -1   4   8   44.30    5.60
   0  -4  -8    4.40    3.00
   0  -4  -8    5.70    2.80
   0   4   8    4.40    2.70
  -1  -4  -8   14.60    3.70
  -1  -4  -8   11.60    3.40
   1   4   8   16.80    3.90
  -2  -4  -8   57.89    6.30
  -2  -4  -8   59.59    6.50
   2   4   8   68.49    5.70
  -3  -4  -8  188.38    9.30
  -3  -4  -8  209.78    9.50
   3   4   8  178.88    9.00
   3  -5  -8   50.39    6.50
   3  -5  -8   50.89    6.40
  -3   5   8   45.20    5.70
   2  -5  -8   39.10    5.70
   2  -5  -8   42.80    5.70
  -2   5   8   32.70    5.00
   1  -5  -8   88.49    9.40
   1  -5  -8   83.09    6.80
  -1   5   8   82.19    6.50
   0  -5  -8   43.40    5.50
   0  -5  -8   45.40    5.70
   0   5   8   45.40    5.90
  -1  -5  -8   44.10    5.80
  -1  -5  -8   56.49    6.50
   1   5   8   45.70    5.80
   1   9  -9    7.60    3.60
  -1  -9   9    5.30    3.70
  -1  -9   9   11.40    4.30
   0   9  -9   62.89    7.20
   0  -9   9   39.70    5.40
   0  -9   9   53.09    6.20
  -1   9  -9   39.30    5.60
   1  -9   9   39.20    5.80
   1  -9   9   32.00    4.80
   3   8  -9   -0.40    2.70
   3   8  -9    1.80    2.80
  -3  -8   9    2.90    3.00
   2   8  -9   26.90    4.60
   2   8  -9   30.40    4.80
  -2  -8   9   21.80    4.40
   1   8  -9   26.10    4.50
   1   8  -9   31.60    4.80
  -1  -8   9   24.50    4.50
   0   8  -9   19.10    4.10
   0   8  -9   15.80    3.70
   0  -8   9   10.00    3.30
   0  -8   9   19.80    4.20
  -1   8  -9   40.40    5.30
  -1   8  -9   37.10    5.60
   1  -8   9   33.40    4.80
   1  -8   9   37.20    5.30
  -2   8  -9   46.90    6.10
  -2   8  -9   46.00    5.90
   2  -8   9   53.99    5.80
   2  -8   9   50.89    5.90
  -3   8  -9   98.29    7.10
  -3   8  -9  104.69    7.50
   3  -8   9  111.69    7.10
   3  -8   9  110.59    7.20
  -4   8  -9   39.20    5.70
  -4   8  -9   38.00    5.50
  -4   8  -9   48.30    6.40
   4  -8   9   32.80    5.10
   4  -8   9   40.20    5.40
   5   7  -9   43.50    5.60
   5   7  -9   44.90    5.70
  -5  -7   9   42.40    5.60
   4   7  -9    2.40    2.60
   4   7  -9    0.20    2.60
   4   7  -9    1.30    2.60
   3   7  -9    4.50    2.90
   3   7  -9    4.20    2.90
  -3  -7   9    8.30    3.00
   2   7  -9   13.80    3.50
   2   7  -9   10.50    3.40
  -2  -7   9    9.90    3.20
   1   7  -9  253.77   10.10
   1   7  -9  241.58    9.70
   1   7  -9  249.08    9.00
  -1  -7   9  258.17    9.80
   0   7  -9   45.70    5.00
   0   7  -9   43.10    5.20
   0   7  -9   47.80    5.70
   0  -7   9   41.00    5.10
  -1   7  -9   58.19    5.90
  -1   7  -9   50.49    5.70
   1  -7   9   46.50    5.40
   1  -7   9   58.99    6.00
  -2   7  -9  201.18    8.80
  -2   7  -9  204.78    9.30
   2  -7   9  193.48    8.80
   2  -7   9  191.28    8.50
  -3   7  -9   49.00    5.60
  -3   7  -9   41.30    5.70
   3  -7   9   50.29    6.00
   3  -7   9   39.10    5.10
  -4   7  -9   13.50    4.20
  -4   7  -9    9.90    3.20
  -4   7  -9   13.70    3.60
   4  -7   9   13.30    3.80
   4  -7   9   14.00    3.90
  -5   7  -9   37.30    5.60
  -5   7  -9   31.80    5.30
  -5   7  -9   38.90    5.50
   5  -7   9   33.70    5.50
   5  -7   9   40.50    5.40
   6   6  -9   13.60    3.70
   6   6  -9   17.60    4.10
  -6  -6   9   15.60    4.30
   5   6  -9   35.30    5.00
   5   6  -9   29.60    4.50
  -5  -6   9   42.30    5.40
   4   6  -9   24.40    4.10
   4   6  -9   24.10    4.20
   4   6  -9   35.50    4.80
  -4  -6   9   33.10    4.70
   3   6  -9    9.70    3.20
   3   6  -9   10.90    3.20
  -3  -6   9    8.50    2.90
   2   6  -9   35.20    4.50
   2   6  -9   38.40    4.80
  -2  -6   9   35.50    4.70
   1   6  -9  188.28    7.60
   1   6  -9  178.58    8.00
   1   6  -9  188.88    8.40
  -1  -6   9  187.68    8.00
   0   6  -9   17.20    3.60
   0   6  -9   20.50    3.90
   0   6  -9   23.70    3.90
   0  -6   9   20.40    3.80
  -1   6  -9  110.19    6.60
  -1   6  -9  103.99    6.20
   1  -6   9   94.79    5.90
   1  -6   9   97.69    6.20
  -2   6  -9  336.37   11.50
  -2   6  -9  330.07   11.20
   2  -6   9  321.37   11.10
   2  -6   9  343.87   11.00
  -3   6  -9   16.80    3.70
  -3   6  -9    9.10    3.10
   3  -6   9   14.20    3.40
   3  -6   9   13.60    3.50
  -4   6  -9   21.60    4.10
  -4   6  -9   33.60    4.80
  -4   6  -9   24.10    4.40
   4  -6   9   31.80    4.90
   4  -6   9   24.20    4.40
  -5   6  -9    0.70    2.90
  -5   6  -9    1.10    2.80
  -5   6  -9    2.50    3.00
   5  -6   9    3.40    2.80
   5  -6   9    1.00    2.80
   6   5  -9   12.90    3.80
   6   5  -9   10.40    3.40
  -6  -5   9   13.10    3.90
   5   5  -9    0.50    2.30
   5   5  -9    1.50    2.60
   5   5  -9    2.40    2.60
  -5  -5   9   -1.50    2.40
   4   5  -9   54.19    5.70
   4   5  -9   46.90    5.30
   4   5  -9   44.90    5.10
  -4  -5   9   48.30    5.40
   3   5  -9  114.69    6.40
   3   5  -9   99.69    6.40
  -3  -5   9  119.99    6.50
  -3  -5   9  115.39    6.10
   2   5  -9  100.39    7.90
   2   5  -9   92.99    5.80
   2   5  -9   96.59    6.10
  -2  -5   9   94.99    5.80
   1   5  -9   79.79    5.10
   1   5  -9   83.19    5.70
   1   5  -9   72.59    5.10
  -1  -5   9   82.29    5.40
   0   5  -9  179.58    7.70
   0   5  -9  197.68    7.70
   0   5  -9  170.88    7.80
   0  -5   9  185.98    7.70
  -1   5  -9  106.59    6.20
  -1   5  -9   88.69    5.70
  -1   5  -9   87.39    5.60
   1  -5   9   82.69    5.40
  -2   5  -9  120.59    6.70
  -2   5  -9  130.59    7.00
   2  -5   9  140.29    6.90
   2  -5   9  131.79    6.80
  -3   5  -9   15.30    3.60
  -3   5  -9   10.10    3.40
  -3   5  -9   14.30    3.40
   3  -5   9   11.40    3.10
   3  -5   9   14.80    3.40
  -4   5  -9    3.50    2.70
  -4   5  -9    1.30    2.20
  -4   5  -9    7.00    3.00
   4  -5   9    1.80    2.50
   4  -5   9    5.20    2.70
  -5   5  -9    4.80    2.90
  -5   5  -9    0.40    2.50
  -5   5  -9    1.20    2.30
   5  -5   9   -2.90    2.20
   5  -5   9   -2.50    2.30
  -6   5  -9    4.60    3.20
  -6   5  -9   10.80    3.90
   6  -5   9    7.60    3.60
   6  -5   9    7.40    3.20
   7   4  -9   20.70    4.40
   7   4  -9   22.70    4.60
  -7  -4   9   15.90    4.30
   6   4  -9    4.40    2.50
   6   4  -9    7.90    3.10
   6   4  -9    4.70    3.00
  -6  -4   9    8.00    3.50
   5   4  -9   18.80    3.80
   5   4  -9   17.70    3.60
   5   4  -9   17.40    3.60
  -5  -4   9   20.20    4.20
   4   4  -9  332.87   11.10
   4   4  -9  329.17   11.00
   4   4  -9  349.67   10.90
  -4  -4   9  366.56   11.20
   3   4  -9  454.45   13.20
   3   4  -9  473.55   13.00
  -3  -4   9  477.65   13.00
  -3  -4   9  491.85   12.60
   2   4  -9   65.49    4.50
   2   4  -9   62.29    4.70
   2   4  -9   69.89    5.20
  -2  -4   9   66.99    4.90
  -2  -4   9   71.99    4.60
   1   4  -9   52.19    4.30
   1   4  -9   47.40    4.10
   1   4  -9   42.90    4.80
  -1  -4   9   48.20    4.90
   0   4  -9    0.30    1.90
   0   4  -9    4.60    2.40
   0   4  -9    3.30    2.10
   0  -4   9    0.00    1.90
  -1   4  -9    2.30    2.10
  -1   4  -9    4.00    2.30
  -1   4  -9    3.30    2.00
   1  -4   9    3.50    2.30
  -2   4  -9   69.59    5.30
  -2   4  -9   70.29    5.20
   2  -4   9   66.39    5.00
   2  -4   9   74.29    5.20
  -3   4  -9  121.99    6.30
  -3   4  -9  114.29    6.60
  -3   4  -9  124.69    6.70
   3  -4   9  128.39    6.70
   3  -4   9  132.89    6.50
  -4   4  -9   39.30    4.80
  -4   4  -9   33.40    4.60
  -4   4  -9   29.10    4.60
   4  -4   9   42.30    5.10
   4  -4   9   37.30    4.70
  -5   4  -9   30.10    6.20
  -5   4  -9   23.30    4.10
  -5   4  -9   17.20    4.10
   5  -4   9   29.30    4.60
   5  -4   9   28.70    4.50
  -6   4  -9   11.80    3.80
  -6   4  -9   10.10    3.40
   6  -4   9   22.10    4.30
   6  -4   9   11.20    3.80
   7   3  -9   25.40    4.60
   7   3  -9   27.10    4.60
  -7  -3   9   27.30    5.30
   6   3  -9   25.80    4.10
   6   3  -9   37.00    5.00
   6   3  -9   21.50    4.10
  -6  -3   9   26.40    4.60
   5   3  -9    9.10    3.00
   5   3  -9   13.70    3.40
   5   3  -9    9.00    2.90
  -5  -3   9   24.70    4.30
   4   3  -9  188.18    7.90
   4   3  -9  200.48    8.20
   4   3  -9  195.68    7.90
  -4  -3   9  211.18    8.30
   3   3  -9  166.28    7.30
   3   3  -9  162.98    7.40
  -3  -3   9  185.88    7.40
  -3  -3   9  175.78    7.40
   2   3  -9   25.10    3.80
   2   3  -9   29.90    3.50
   2   3  -9   26.00    3.70
  -2  -3   9   27.90    3.60
  -2  -3   9   24.80    3.60
   1   3  -9   39.60    4.30
   1   3  -9   40.10    4.50
   1   3  -9   39.50    4.30
  -1  -3   9   46.10    4.80
   0   3  -9   -1.10    1.90
   0   3  -9    2.10    2.00
   0   3  -9   -0.20    1.80
   0  -3   9    2.20    1.90
  -1   3  -9   69.59    4.90
  -1   3  -9   78.69    4.90
  -1   3  -9   79.99    5.20
   1  -3   9   77.89    5.00
  -2   3  -9  147.69    7.00
  -2   3  -9  139.09    6.80
   2  -3   9  135.19    6.60
   2  -3   9  143.59    6.60
  -3   3  -9  232.78    8.40
  -3   3  -9  219.88    8.60
  -3   3  -9  234.18    9.10
   3  -3   9  228.08    8.20
   3  -3   9  227.48    8.60
  -4   3  -9  108.89    6.40
  -4   3  -9  102.29    6.20
  -4   3  -9   96.79    6.40
   4  -3   9  110.29    6.30
   4  -3   9  116.49    6.20
  -5   3  -9    3.20    2.70
  -5   3  -9    3.70    2.90
   5  -3   9    0.70    2.30
  -6   3  -9   16.20    3.90
  -6   3  -9   14.50    4.30
   6  -3   9   25.10    4.50
   7   2  -9    3.00    2.90
   7   2  -9    8.60    3.20
   7   2  -9    2.60    2.80
  -7  -2   9    0.50    2.90
   6   2  -9   75.69    5.80
   6   2  -9   83.29    5.70
   6   2  -9   84.19    6.10
  -6  -2   9   79.09    6.30
   5   2  -9  118.59    6.70
   5   2  -9  110.59    6.50
   5   2  -9  126.29    6.50
  -5  -2   9  132.39    7.10
   4   2  -9    8.70    2.80
   4   2  -9   10.60    2.90
  -4  -2   9    2.90    2.30
  -4  -2   9   12.30    3.30
   3   2  -9   66.49    4.80
   3   2  -9   83.79    5.50
  -3  -2   9   73.09    5.00
  -3  -2   9   64.39    4.60
   2   2  -9  131.89    6.00
   2   2  -9  134.29    6.60
   2   2  -9  128.39    6.10
  -2  -2   9  126.99    6.00
  -2  -2   9  122.49    5.90
   1   2  -9  115.59    6.10
   1   2  -9  109.69    5.50
   1   2  -9  106.39    5.60
  -1  -2   9  112.09    5.40
  -1  -2   9  110.29    5.50
   0   2  -9   49.60    4.00
   0   2  -9   54.19    4.30
   0   2  -9   49.10    4.40
   0  -2   9   47.30    4.50
  -1   2  -9   31.80    3.70
  -1   2  -9   25.10    3.50
  -1   2  -9   26.20    3.80
   1  -2   9   27.80    3.70
  -2   2  -9  116.69    8.20
  -2   2  -9  125.29    6.30
  -2   2  -9  126.29    6.50
   2  -2   9  129.49    6.00
   2  -2   9  141.19    6.50
  -3   2  -9   83.19    5.30
  -3   2  -9   82.69    5.60
  -3   2  -9   72.79    5.00
   3  -2   9   77.79    5.30
  -4   2  -9   63.89    5.20
  -4   2  -9   49.20    5.60
   4  -2   9   60.49    5.00
  -5   2  -9    5.30    3.00
  -5   2  -9    7.20    3.30
   5  -2   9    6.60    3.00
  -6   2  -9    8.30    3.50
  -6   2  -9   13.90    4.00
   6  -2   9   13.60    3.70
   7   1  -9   26.30    4.70
   7   1  -9   43.80    5.50
  -7  -1   9   46.30    6.50
   6   1  -9  190.88    8.00
   6   1  -9  179.18    8.30
   6   1  -9  199.38    8.80
  -6  -1   9  194.78    9.30
   5   1  -9   63.39    5.10
   5   1  -9   70.09    5.50
   5   1  -9   78.89    5.20
  -5  -1   9   80.09    5.90
   4   1  -9   -1.30    1.90
   4   1  -9    2.60    2.40
  -4  -1   9    0.70    2.10
  -4  -1   9    2.60    2.50
   3   1  -9    3.00    1.90
   3   1  -9    0.50    2.00
   3   1  -9    0.60    1.80
  -3  -1   9   -0.60    1.80
  -3  -1   9    1.90    2.00
   2   1  -9  343.37   10.90
   2   1  -9  347.77   10.00
   2   1  -9  356.76   10.10
  -2  -1   9  355.96   10.00
  -2  -1   9  365.06   10.70
   1   1  -9  287.17    9.70
   1   1  -9  292.57    9.20
   1   1  -9  291.27    8.90
  -1  -1   9  290.47    8.80
  -1  -1   9  297.57    9.20
   0   1  -9   95.59    4.90
   0   1  -9   99.79    5.50
   0   1  -9   93.59    5.50
   0  -1   9  100.89    5.10
   0  -1   9   95.99    5.20
  -1   1  -9   39.80    4.40
  -1   1  -9   45.80    4.90
   1  -1   9   49.40    4.70
  -2   1  -9    5.00    2.50
  -2   1  -9    6.10    2.50
  -2   1  -9    5.00    2.10
   2  -1   9    4.80    2.20
  -3   1  -9   -3.50    1.70
  -3   1  -9   -2.00    1.90
  -3   1  -9    0.20    2.20
   3  -1   9    2.20    2.10
  -4   1  -9   63.39    5.50
  -4   1  -9   64.79    5.40
   4  -1   9   61.79    5.00
  -5   1  -9   31.70    4.70
  -5   1  -9   31.10    4.70
   5  -1   9   39.80    5.10
  -6   1  -9    5.50    3.00
  -6   1  -9   14.30    4.00
   6  -1   9   -5.10    2.20
   7   0  -9   14.50    4.10
   7   0  -9   11.30    3.50
  -7   0   9    6.80    3.60
   6   0  -9   34.30    4.70
   6   0  -9   25.50    4.30
  -6   0   9   38.30    5.60
   5   0  -9   49.70    5.00
   5   0  -9   61.19    6.20
  -5   0   9   45.20    5.40
   4   0  -9   68.39    4.90
   4   0  -9   73.79    5.70
  -4   0   9   69.89    5.40
   3   0  -9   91.79    5.90
   3   0  -9  104.99    5.50
   3   0  -9  101.19    5.50
  -3   0   9   92.09    5.80
   2   0  -9  512.15   13.90
   2   0  -9  523.25   13.20
   2   0  -9  536.75   12.70
  -2   0   9  536.45   13.00
  -2   0   9  537.05   13.80
   1   0  -9  115.99    5.90
   1   0  -9  105.49    6.00
  -1   0   9  111.89    5.70
  -1   0   9  115.79    5.50
   0   0  -9    2.30    2.10
   0   0  -9    2.50    2.00
   0   0   9    0.00    1.70
   0   0   9   -1.30    1.60
  -1   0  -9    2.70    2.10
  -1   0  -9    0.80    1.80
   1   0   9   -0.60    1.70
   1   0   9   -0.20    1.80
  -2   0  -9   82.19    5.20
  -2   0  -9   83.39    5.40
  -2   0  -9   81.29    5.60
   2   0   9   88.99    5.10
  -3   0  -9   68.09    5.50
  -3   0  -9   69.29    5.20
   3   0   9   75.09    5.10
  -4   0  -9  169.18    8.30
  -4   0  -9  194.08    8.70
   4   0   9  191.18    8.00
  -5   0  -9   59.89    6.90
  -5   0  -9   70.39    6.00
   5   0   9   78.09    5.60
   6  -1  -9   39.00    4.90
   6  -1  -9   29.50    4.80
  -6   1   9   37.40    5.50
   5  -1  -9   97.79    5.90
   5  -1  -9  111.39    7.00
  -5   1   9  110.69    7.00
   4  -1  -9  172.68    7.20
   4  -1  -9  156.18    7.90
  -4   1   9  163.58    8.00
   3  -1  -9  136.19    7.20
   3  -1  -9  129.99    6.60
  -3   1   9  140.49    7.30
   2  -1  -9   10.60    3.00
   2  -1  -9   17.80    3.40
  -2   1   9   10.40    3.00
   1  -1  -9    1.80    2.30
   1  -1  -9    0.80    2.00
  -1   1   9    6.00    2.60
   0  -1  -9    4.40    2.30
   0  -1  -9    2.40    2.10
   0   1   9    4.70    2.40
  -1  -1  -9   11.60    2.90
  -1  -1  -9    9.80    2.90
   1   1   9   11.50    3.00
  -2  -1  -9   41.90    4.80
  -2  -1  -9   28.50    4.20
   2   1   9   36.70    4.40
  -3  -1  -9  233.18    9.70
  -3  -1  -9  249.78    9.70
   3   1   9  252.97   10.80
  -4  -1  -9  158.18    8.20
  -4  -1  -9  168.38    8.50
   4   1   9  161.78    7.40
  -5  -1  -9    2.70    2.80
  -5  -1  -9    5.20    2.70
   5   1   9    1.10    2.60
   6  -2  -9    0.70    2.40
  -6   2   9   -0.10    2.70
   5  -2  -9   36.20    5.10
  -5   2   9   41.10    5.90
   4  -2  -9   76.39    5.70
   4  -2  -9   76.69    6.10
  -4   2   9   75.59    6.00
   3  -2  -9   17.10    3.50
   3  -2  -9   25.50    4.50
  -3   2   9   25.10    4.50
   2  -2  -9   42.70    5.10
   2  -2  -9   28.30    4.20
  -2   2   9   34.30    4.90
   1  -2  -9   15.60    3.40
   1  -2  -9   13.10    3.40
  -1   2   9   19.00    3.80
   0  -2  -9    6.20    2.60
   0  -2  -9    5.70    2.70
   0   2   9    6.00    2.70
  -1  -2  -9   55.19    6.10
   1   2   9   56.79    4.90
  -2  -2  -9  121.49    7.00
  -2  -2  -9  134.29    7.40
   2   2   9  109.09    6.50
  -3  -2  -9   80.69    6.40
  -3  -2  -9   75.69    6.00
  -4  -2  -9   77.89    6.60
  -4  -2  -9   57.89    6.40
   5  -3  -9   26.40    4.90
  -5   3   9   36.50    5.80
   4  -3  -9    4.30    3.20
   4  -3  -9    8.80    3.30
  -4   3   9   10.00    3.70
   3  -3  -9    3.80    2.90
   3  -3  -9    8.50    3.20
  -3   3   9   10.60    3.30
   2  -3  -9  167.88    8.20
   2  -3  -9  163.08    8.20
  -2   3   9  151.58    8.00
   1  -3  -9   13.70    3.60
   1  -3  -9   17.20    3.80
  -1   3   9    9.10    3.20
   0  -3  -9   33.50    4.80
   0  -3  -9   38.80    4.90
   0   3   9   37.40    5.10
  -1  -3  -9   57.09    6.20
   1   3   9   38.20    5.30
  -2  -3  -9   39.00    5.40
  -2  -3  -9   45.80    5.60
   2   3   9   47.70    5.80
  -3  -3  -9   48.10    6.10
  -3  -3  -9   47.30    6.00
   3   3   9   56.19    6.20
   3  -4  -9   29.80    4.90
   3  -4  -9   22.60    4.50
  -3   4   9   28.90    5.30
   2  -4  -9  164.88    8.50
   2  -4  -9  142.09    8.20
  -2   4   9  147.89    8.20
   1  -4  -9  115.39    7.30
   1  -4  -9  110.39    7.40
  -1   4   9   98.19    6.90
   0  -4  -9    6.60    3.20
   0   4   9    1.90    2.70
  -1  -4  -9    5.90    3.30
   1   4   9    3.80    2.80
   2   8 -10   11.40    4.00
   2   8 -10   14.20    4.10
  -2  -8  10   15.10    4.00
   1   8 -10   -0.80    2.60
   1   8 -10    3.00    3.10
  -1  -8  10    6.50    3.10
   0   8 -10    8.20    3.40
   0   8 -10   10.90    3.50
   0  -8  10    8.50    3.70
   0  -8  10   12.50    3.90
  -1   8 -10   18.50    4.20
  -1   8 -10   14.90    4.00
   1  -8  10   16.60    4.00
   1  -8  10   16.30    4.10
  -2   8 -10   39.00    5.90
  -2   8 -10   31.60    5.10
   2  -8  10   43.50    5.70
   2  -8  10   43.20    5.60
   4   7 -10    9.60    3.50
   4   7 -10   17.70    4.20
  -4  -7  10   13.50    3.80
   3   7 -10    0.60    2.80
   3   7 -10    4.20    2.90
  -3  -7  10    5.00    3.10
   2   7 -10    1.10    2.70
   2   7 -10    4.10    3.10
  -2  -7  10   -0.20    2.40
   1   7 -10   35.90    5.20
   1   7 -10   26.40    4.40
   1   7 -10   25.90    5.60
  -1  -7  10   18.90    3.90
   0   7 -10   20.50    4.60
   0   7 -10   13.60    3.70
   0   7 -10   18.60    4.10
   0  -7  10   15.20    3.80
  -1   7 -10  241.28    9.70
  -1   7 -10  234.78   10.30
   1  -7  10  230.58    9.60
   1  -7  10  248.38   10.20
  -2   7 -10   34.00    5.20
  -2   7 -10   34.30    5.40
   2  -7  10   29.40    4.70
   2  -7  10   34.80    5.50
  -3   7 -10   -0.40    3.10
  -3   7 -10    2.80    3.20
   3  -7  10    2.20    2.70
   3  -7  10   -4.00    2.50
   5   6 -10    6.80    3.20
   5   6 -10   13.10    3.90
   5   6 -10   12.10    4.00
  -5  -6  10   13.20    3.90
   4   6 -10   -1.70    2.60
   4   6 -10    4.30    3.10
  -4  -6  10    3.20    2.70
   3   6 -10   14.80    3.70
   3   6 -10   10.90    3.30
  -3  -6  10   10.60    3.50
   2   6 -10   37.90    5.10
   2   6 -10   41.20    5.10
  -2  -6  10   46.70    5.70
   1   6 -10   78.29    5.90
   1   6 -10   80.59    5.60
   1   6 -10   72.59    5.90
  -1  -6  10   71.99    5.80
   0   6 -10   67.79    5.60
   0   6 -10   77.59    6.10
   0   6 -10   84.59    5.90
   0  -6  10   74.59    5.70
  -1   6 -10  158.58    7.80
  -1   6 -10  146.89    8.00
   1  -6  10  150.08    7.60
   1  -6  10  162.38    8.00
  -2   6 -10    2.80    2.90
  -2   6 -10    6.20    2.90
   2  -6  10   -0.70    2.40
   2  -6  10    7.30    3.00
  -3   6 -10    6.30    3.30
  -3   6 -10    3.80    3.10
   3  -6  10    3.40    2.60
   3  -6  10    0.00    2.50
  -4   6 -10  184.38    9.30
  -4   6 -10  193.38    9.60
   4  -6  10  186.68    9.00
   4  -6  10  186.78    9.10
   5   5 -10   27.10    4.50
   5   5 -10   24.70    4.40
   5   5 -10   26.00    4.60
  -5  -5  10   32.30    5.20
   4   5 -10  105.69    6.80
  -4  -5  10  122.39    7.20
  -4  -5  10  118.39    7.00
   3   5 -10   31.10    4.60
   3   5 -10   25.10    4.10
  -3  -5  10   33.40    5.00
   2   5 -10   18.30    3.90
   2   5 -10   17.50    3.70
  -2  -5  10   22.10    4.20
   1   5 -10   68.09    5.10
   1   5 -10   66.89    5.60
   1   5 -10   52.29    5.60
  -1  -5  10   67.19    5.30
   0   5 -10   58.59    5.70
   0   5 -10   47.80    5.40
   0   5 -10   59.09    5.30
   0  -5  10   56.59    5.80
  -1   5 -10   29.80    4.50
  -1   5 -10   34.90    4.60
   1  -5  10   25.20    4.00
   1  -5  10   39.80    4.90
  -2   5 -10  127.59    7.50
  -2   5 -10  137.99    7.40
   2  -5  10  145.09    7.40
   2  -5  10  127.39    7.10
  -3   5 -10   27.30    4.70
  -3   5 -10   35.80    5.20
   3  -5  10   36.00    4.90
   3  -5  10   27.00    4.30
  -4   5 -10   93.49    6.80
  -4   5 -10  105.29    7.20
   4  -5  10   96.39    6.60
   4  -5  10  111.19    7.00
  -5   5 -10   48.50    5.90
  -5   5 -10   60.29    6.60
  -5   5 -10   54.39    6.60
   5  -5  10   55.89    6.40
   5  -5  10   58.09    6.50
   6   4 -10    3.90    2.70
   6   4 -10   -0.90    2.70
   6   4 -10   -1.60    2.70
  -6  -4  10    1.70    3.40
   5   4 -10    6.00    2.90
   5   4 -10   11.30    3.40
   5   4 -10   14.30    3.70
  -5  -4  10   13.90    4.00
   4   4 -10  181.38    8.40
   4   4 -10  187.48    8.60
  -4  -4  10  190.88    8.40
  -4  -4  10  200.88    8.60
   3   4 -10   -0.80    2.10
   3   4 -10    2.60    2.60
  -3  -4  10    0.80    2.30
  -3  -4  10   -0.30    2.00
   2   4 -10   96.69    5.70
   2   4 -10   87.19    5.80
   2   4 -10   83.89    6.00
  -2  -4  10   87.79    5.70
   1   4 -10  197.68    8.10
   1   4 -10  188.98    8.50
   1   4 -10  207.38    8.00
  -1  -4  10  216.18    8.50
   0   4 -10   14.20    3.40
   0   4 -10   17.50    3.50
   0   4 -10   23.90    3.80
   0  -4  10   23.10    3.80
  -1   4 -10   32.30    4.80
  -1   4 -10   36.20    4.80
  -1   4 -10   29.00    4.30
   1  -4  10   22.60    3.80
  -2   4 -10   59.89    6.00
  -2   4 -10   58.49    6.10
   2  -4  10   69.29    5.30
   2  -4  10   61.39    5.20
  -3   4 -10   83.39    6.20
  -3   4 -10   67.19    5.70
   3  -4  10   77.09    5.70
   3  -4  10   77.69    5.60
  -4   4 -10   11.10    4.00
  -4   4 -10   15.00    3.90
  -4   4 -10    5.20    3.10
   4  -4  10   11.00    3.30
   4  -4  10    7.10    3.30
  -5   4 -10    2.50    2.70
  -5   4 -10    1.40    3.00
   5  -4  10    4.70    5.50
   5  -4  10    6.10    3.20
   6   3 -10    4.80    2.70
   6   3 -10    8.40    3.60
   6   3 -10    4.60    2.80
  -6  -3  10    5.40    3.40
   5   3 -10   18.50    3.70
   5   3 -10   15.10    3.50
   5   3 -10   18.00    3.80
  -5  -3  10   19.50    4.10
   4   3 -10   48.20    5.40
   4   3 -10   49.20    5.30
  -4  -3  10   58.79    5.90
  -4  -3  10   66.19    5.50
   3   3 -10   35.90    4.70
   3   3 -10   34.30    4.70
  -3  -3  10   31.20    4.30
  -3  -3  10   31.80    4.20
   2   3 -10   79.89    5.60
   2   3 -10   76.29    5.30
   2   3 -10   69.39    4.90
  -2  -3  10   73.29    6.20
  -2  -3  10   67.69    5.10
   1   3 -10  142.09    6.80
   1   3 -10  141.89    6.80
   1   3 -10  141.99    7.30
  -1  -3  10  150.28    7.00
   0   3 -10   21.10    3.60
   0   3 -10    7.40    2.90
   0   3 -10    6.80    2.50
   0  -3  10   14.60    3.10
  -1   3 -10   10.80    3.00
  -1   3 -10   14.90    3.20
  -1   3 -10    9.30    3.00
   1  -3  10    5.80    2.50
  -2   3 -10   32.50    4.60
  -2   3 -10   37.60    4.80
   2  -3  10   36.20    4.80
   2  -3  10   38.00    4.60
  -3   3 -10  160.18    8.10
  -3   3 -10  180.78    8.20
   3  -3  10  178.58    8.10
   3  -3  10  185.58    7.90
  -4   3 -10   11.60    3.60
  -4   3 -10   16.80    3.80
   4  -3  10    8.00    3.10
  -5   3 -10    8.30    3.40
  -5   3 -10    9.00    3.70
   5  -3  10    5.40    3.00
   6   2 -10   13.20    3.50
   6   2 -10    8.40    3.20
   6   2 -10   12.50    3.50
  -6  -2  10   11.60    3.80
   5   2 -10   -0.90    2.30
   5   2 -10    3.20    2.50
  -5  -2  10    1.80    2.50
  -5  -2  10   -0.30    2.40
   4   2 -10    5.30    2.70
   4   2 -10   -0.20    2.20
  -4  -2  10    1.20    2.40
  -4  -2  10    2.90    2.50
   3   2 -10   71.29    5.20
   3   2 -10   76.89    5.70
  -3  -2  10   72.19    5.20
  -3  -2  10   77.39    5.20
   2   2 -10   66.69    4.90
   2   2 -10   76.49    5.20
   2   2 -10   53.39    4.70
  -2  -2  10   69.69    4.90
  -2  -2  10   71.09    5.20
   1   2 -10  153.28    7.60
   1   2 -10  161.68    7.30
   1   2 -10  170.08    7.20
  -1  -2  10  167.88    7.20
   0   2 -10  122.69    6.10
   0   2 -10  115.49    6.50
   0   2 -10  112.59    6.30
   0  -2  10  122.19    6.30
  -1   2 -10   41.00    4.50
  -1   2 -10   36.40    4.70
  -1   2 -10   39.80    4.90
   1  -2  10   42.30    4.60
  -2   2 -10   10.70    2.90
  -2   2 -10   14.40    3.30
   2  -2  10   13.80    3.20
  -3   2 -10   11.50    3.30
  -3   2 -10   20.70    3.80
   3  -2  10   21.30    3.90
  -4   2 -10   68.99    6.00
  -4   2 -10   80.59    6.20
   4  -2  10   72.69    5.80
  -5   2 -10   13.00    4.20
  -5   2 -10   15.20    4.10
   5  -2  10   11.50    3.70
   6   1 -10    6.20    3.00
   6   1 -10    6.60    3.10
  -6  -1  10    4.10    3.20
   5   1 -10   10.60    3.10
   5   1 -10    9.00    3.20
  -5  -1  10   12.30    3.80
   4   1 -10   18.90    3.70
   4   1 -10   16.90    3.70
  -4  -1  10   18.90    3.80
   3   1 -10  110.49    9.10
   3   1 -10   84.69    6.00
   3   1 -10  105.49    6.00
  -3  -1  10   96.39    5.80
  -3  -1  10   91.69    5.90
   2   1 -10  117.49    6.80
   2   1 -10  131.89    6.30
   2   1 -10  122.89    6.30
  -2  -1  10  127.19    6.60
  -2  -1  10  122.99    6.20
   1   1 -10    9.70    3.10
   1   1 -10    6.30    2.60
   1   1 -10    9.60    2.80
  -1  -1  10   12.80    3.00
  -1  -1  10   11.20    2.80
   0   1 -10  284.37   10.20
   0   1 -10  284.37   10.00
   0  -1  10  304.07    9.50
  -1   1 -10  128.79    7.00
  -1   1 -10  120.39    6.70
   1  -1  10  122.59    6.20
  -2   1 -10   11.80    3.30
  -2   1 -10    9.20    2.90
   2  -1  10   11.00    3.00
  -3   1 -10    7.60    2.90
   3  -1  10    6.70    2.90
  -4   1 -10   86.79    6.50
  -4   1 -10   89.79    6.40
   4  -1  10   85.69    6.20
  -5   1 -10   24.00    4.70
  -5   1 -10   19.70    4.20
   5  -1  10   15.30    4.00
   6   0 -10   24.80    4.30
   6   0 -10   30.80    5.10
  -6   0  10   20.50    4.60
   5   0 -10   37.60    5.20
   5   0 -10   32.70    4.70
  -5   0  10   24.80    4.50
   4   0 -10   41.50    5.10
   4   0 -10   32.90    4.50
  -4   0  10   40.10    5.40
   3   0 -10   92.39    6.30
   3   0 -10   84.79    5.50
  -3   0  10   89.59    6.20
   2   0 -10   81.79    5.80
   2   0 -10   89.19    5.60
  -2   0  10   81.19    5.60
   1   0 -10   29.00    4.30
   1   0 -10   26.40    4.00
  -1   0  10   36.10    4.50
   0   0 -10  372.16   11.90
   0   0 -10  367.76   11.90
   0   0  10  400.56   11.50
  -1   0 -10  117.69    6.70
  -1   0 -10   99.29    6.40
   1   0  10  112.59    6.10
  -2   0 -10   39.70    5.00
   2   0  10   63.79    5.80
  -3   0 -10    1.40    2.60
   3   0  10   -2.00    2.10
  -4   0 -10    6.40    3.20
  -4   0 -10    1.60    2.60
   4   0  10    4.90    3.10
   5  -1 -10  192.58    9.50
  -5   1  10  201.08    9.70
   4  -1 -10  159.88    8.60
  -4   1  10  169.08    8.70
   3  -1 -10   46.80    5.10
   3  -1 -10   58.39    6.50
  -3   1  10   54.19    6.10
   2  -1 -10   55.39    6.10
   2  -1 -10   46.40    5.30
  -2   1  10   26.40    4.30
   1  -1 -10   27.70    4.40
   1  -1 -10   33.20    4.70
  -1   1  10   30.20    4.40
   0  -1 -10   11.10    3.40
   0  -1 -10   18.40    3.80
   0   1  10   14.60    3.40
  -1  -1 -10   47.20    5.30
  -1  -1 -10   49.60    5.90
   1   1  10   61.99    5.00
  -2  -1 -10    2.80    2.80
  -3  -1 -10    2.10    2.50
   4  -2 -10   15.70    4.00
  -4   2  10   11.60    3.80
   3  -2 -10    3.10    2.90
   3  -2 -10   -0.20    2.70
  -3   2  10   -0.40    2.60
   2  -2 -10   21.30    4.20
   2  -2 -10   19.50    4.00
  -2   2  10   23.90    4.40
   1  -2 -10    9.40    3.40
   1  -2 -10   11.70    3.50
  -1   2  10    7.10    3.20
   0  -2 -10   22.10    4.20
   0  -2 -10   17.60    4.10
   0   2  10   14.30    3.90
  -1  -2 -10   62.99    6.40
   1   2  10   69.99    5.70
  -2  -2 -10   54.99    6.60
   2  -3 -10   46.70    5.70
   2  -3 -10   34.90    5.10
  -2   3  10   42.10    5.70
   1  -3 -10   38.90    5.30
   1  -3 -10   33.70    5.00
  -1   3  10   32.20    5.00
   0  -3 -10   43.60    5.90
   0   3  10   43.30    5.60
   2   7 -11  119.89    7.50
   2   7 -11   96.69    7.30
  -2  -7  11  102.29    7.40
   1   7 -11   11.40    3.70
   1   7 -11   13.00    3.70
  -1  -7  11   10.80    3.40
   0   7 -11    2.40    3.20
   0   7 -11   -0.90    2.50
   0   7 -11    0.20    2.70
   0  -7  11   -0.50    2.70
  -1   7 -11   46.50    5.60
  -1   7 -11   37.50    6.00
   1  -7  11   38.40    5.30
   1  -7  11   36.60    5.60
   2  -7  11   -0.50    2.80
   3   6 -11    8.60    3.30
   3   6 -11   13.00    4.00
  -3  -6  11    9.90    3.30
   2   6 -11    2.50    2.90
   2   6 -11    6.70    3.00
  -2  -6  11    3.90    3.00
   1   6 -11   19.30    4.10
   1   6 -11   23.40    4.20
   1   6 -11   23.90    4.40
  -1  -6  11   21.80    4.30
   0   6 -11   25.80    4.40
   0   6 -11   36.00    5.20
   0   6 -11   24.90    4.50
   0  -6  11   16.90    4.10
  -1   6 -11   64.29    6.70
  -1   6 -11   50.39    5.70
   1  -6  11   47.10    6.00
   1  -6  11   53.79    6.20
  -2   6 -11   11.40    3.40
  -2   6 -11   15.20    4.00
   2  -6  11   23.40    4.70
   2  -6  11   14.10    3.80
  -3   6 -11   12.70    4.00
  -3   6 -11   17.60    4.60
   3  -6  11   16.30    4.20
   3  -6  11   12.70    3.60
   4   5 -11   90.19    6.90
   4   5 -11   88.99    6.60
  -4  -5  11   92.99    6.70
   3   5 -11   22.60    4.30
   3   5 -11   29.10    4.90
  -3  -5  11   24.20    4.40
   2   5 -11   23.70    4.30
   2   5 -11   27.90    4.50
  -2  -5  11   21.70    4.50
   1   5 -11   13.50    3.90
   1   5 -11   11.70    3.50
   1   5 -11   12.90    3.50
  -1  -5  11    7.60    3.00
   0   5 -11    3.40    2.90
   0   5 -11    2.90    2.70
   0   5 -11    4.80    2.80
   0  -5  11    4.90    2.60
  -1   5 -11   41.40    5.40
  -1   5 -11   47.80    5.90
   1  -5  11   36.00    4.90
   1  -5  11   44.20    5.70
  -2   5 -11   88.39    6.80
  -2   5 -11   87.29    6.60
   2  -5  11   99.59    6.70
   2  -5  11   93.89    6.50
  -3   5 -11   37.10    5.50
  -3   5 -11   35.40    5.60
   3  -5  11   34.50    5.20
   3  -5  11   34.40    5.10
   5   4 -11   21.10    4.40
   5   4 -11   21.10    4.50
  -5  -4  11   32.10    5.30
  -5  -4  11   24.60    4.50
   4   4 -11   57.19    5.90
  -4  -4  11   57.49    6.00
  -4  -4  11   39.40    7.10
   3   4 -11    4.00    2.60
   3   4 -11   -0.50    2.40
  -3  -4  11   10.10    3.30
   2   4 -11   31.80    5.20
   2   4 -11   35.70    4.90
  -2  -4  11   31.50    4.80
   1   4 -11    2.50    2.70
   1   4 -11   -0.90    2.20
   1   4 -11    0.90    2.40
  -1  -4  11    1.30    2.40
   0   4 -11   46.80    5.50
   0   4 -11   27.70    4.20
   0   4 -11   37.30    4.70
   0  -4  11   35.50    5.00
  -1   4 -11  166.48    8.10
  -1   4 -11  161.58    8.40
   1  -4  11  178.78    8.20
   1  -4  11  164.38    7.90
  -2   4 -11  169.18    8.60
  -2   4 -11  171.78    8.60
   2  -4  11  177.18    8.30
   2  -4  11  166.98    8.20
  -3   4 -11   66.29    6.70
  -3   4 -11   70.09    6.30
   3  -4  11   73.89    6.00
   3  -4  11   75.09    6.10
  -4   4 -11   -2.00    2.80
  -4   4 -11    4.90    3.50
   4  -4  11    3.80    2.80
   5   3 -11    9.10    3.30
   5   3 -11    1.60    2.80
  -5  -3  11    1.10    2.80
  -5  -3  11    6.80    3.70
   4   3 -11    5.60    2.80
   4   3 -11    2.40    2.60
  -4  -3  11    4.00    3.00
  -4  -3  11   -2.20    2.40
   3   3 -11    7.30    3.40
   3   3 -11   16.80    3.70
  -3  -3  11   15.40    3.60
   2   3 -11   47.70    5.30
   2   3 -11   39.80    5.40
   2   3 -11   46.30    5.00
  -2  -3  11   48.10    5.40
   1   3 -11   68.09    5.30
   1   3 -11   62.39    5.20
   1   3 -11   57.89    6.50
  -1  -3  11   56.39    5.70
   0   3 -11   38.20    4.90
   0   3 -11   39.10    4.80
   0   3 -11   35.60    4.70
   0  -3  11   39.70    4.80
  -1   3 -11  113.59    7.00
   1  -3  11  121.99    6.90
  -2   3 -11   61.59    6.50
  -2   3 -11   43.20    5.70
   2  -3  11   63.79    6.30
  -3   3 -11    6.90    3.20
  -3   3 -11    5.70    3.10
   3  -3  11    6.10    3.10
  -4   3 -11    0.40    3.00
   4  -3  11    3.30    3.10
   5   2 -11   -0.10    2.50
   5   2 -11    4.30    3.10
  -5  -2  11    8.40    3.60
  -5  -2  11    4.20    3.40
   4   2 -11   18.60    3.80
   4   2 -11   18.50    4.10
  -4  -2  11   19.10    3.90
  -4  -2  11   12.80    3.60
   3   2 -11    6.30    2.80
   3   2 -11    5.70    2.70
  -3  -2  11   11.80    3.20
  -3  -2  11   10.40    3.20
   2   2 -11   66.99    5.30
   2   2 -11   60.59    5.50
   2   2 -11   72.19    5.40
  -2  -2  11   66.19    5.30
   1   2 -11   94.49    6.10
   1   2 -11   83.39    6.20
   1   2 -11  100.29    5.90
  -1  -2  11   94.19    5.80
   0   2 -11   61.89    5.50
   0   2 -11   68.79    5.50
   0  -2  11   71.49    5.30
  -1   2 -11   37.20    5.00
  -1   2 -11   37.20    5.10
   1  -2  11   45.70    5.20
  -2   2 -11    8.90    3.30
  -2   2 -11    8.40    3.30
   2  -2  11    3.80    2.70
  -3   2 -11   18.30    4.10
   3  -2  11   27.20    4.50
   5   1 -11   -1.10    2.30
   5   1 -11   -0.90    2.20
  -5  -1  11    5.20    3.10
   4   1 -11    7.80    3.00
   4   1 -11    3.20    2.70
  -4  -1  11    3.90    2.80
   3   1 -11   53.99    5.90
  -3  -1  11   69.99    5.70
   2   1 -11   89.29    6.40
   2   1 -11   90.89    6.00
  -2  -1  11  100.19    6.30
   1   1 -11   54.79    5.70
   1   1 -11   48.40    5.30
  -1  -1  11   69.19    6.20
   0   1 -11  140.09    7.70
   0   1 -11  158.58    8.00
   0  -1  11  128.59    6.80
  -1   1 -11    3.00    2.30
  -1   1 -11    2.90    2.60
   1  -1  11    1.50    2.30
  -2   1 -11   17.60    4.30
  -2   1 -11    8.70    3.10
   2  -1  11   11.40    3.30
  -3   1 -11  118.09    7.60
   3  -1  11  130.69    7.30
   4   0 -11   68.89    6.20
  -4   0  11   50.29    6.30
   3   0 -11   19.60    4.20
  -3   0  11   23.30    4.50
   2   0 -11    6.30    3.00
   2   0 -11   12.10    3.40
  -2   0  11   12.60    3.40
   1   0 -11   19.10    3.90
   1   0 -11   15.80    3.70
  -1   0  11   21.90    3.80
   0   0 -11   79.09    6.00
   0   0 -11   92.89    6.40
  -1   0 -11   36.40    5.10
  -1   0 -11   29.40    4.60
  -2   0 -11  113.89    7.40
   3  -1 -11   46.70    5.60
   3  -1 -11   48.60    5.90
  -3   1  11   46.00    6.00
   2  -1 -11   39.60    5.30
   2  -1 -11   31.80    5.00
  -2   1  11   46.70    5.70
   1  -1 -11    6.30    2.90
   1  -1 -11   11.10    3.40
  -1   1  11   17.50    4.00
   0  -1 -11   51.99    5.80
   0  -1 -11   72.09    6.00
   0   1  11   58.49    6.60
  -1  -1 -11  119.89    7.80
   2   5 -12   15.50    4.00
   2   5 -12   23.40    4.70
  -2  -5  12   22.10    4.50
   1   5 -12    6.10    3.20
   1   5 -12    6.00    3.40
   1   5 -12    5.90    3.30
  -1  -5  12    6.30    3.30
   0   5 -12    8.90    3.70
   0   5 -12    6.90    3.20
   0   5 -12    4.80    3.30
   0  -5  12    8.60    3.40
  -1   5 -12   32.60    5.40
  -1   5 -12   27.90    4.90
   1  -5  12   25.80    4.60
   1  -5  12   35.20    5.40
   3   4 -12    1.10    2.80
   3   4 -12    4.10    3.20
  -3  -4  12   -0.80    2.50
   2   4 -12   26.60    4.60
   2   4 -12   27.90    5.00
  -2  -4  12   28.00    4.60
   1   4 -12    9.90    3.40
   1   4 -12    8.30    3.30
   1   4 -12    3.90    2.80
  -1  -4  12    7.50    3.30
   0   4 -12    9.90    3.80
   0   4 -12    4.50    3.10
   0   4 -12    5.20    3.10
   0  -4  12    4.60    2.90
  -1   4 -12    9.30    3.50
  -1   4 -12    9.20    3.60
   1  -4  12    7.40    3.30
   1  -4  12    9.30    3.60
   3   3 -12   13.70    3.70
   3   3 -12   19.30    4.30
  -3  -3  12    9.20    3.40
   2   3 -12   22.10    4.80
   2   3 -12   13.60    3.70
  -2  -3  12   18.80    4.00
   1   3 -12   29.60    4.60
   1   3 -12   21.60    4.20
   1   3 -12   26.80    4.70
  -1  -3  12   30.70    4.70
   0   3 -12   19.70    4.20
   0   3 -12   24.30    4.50
   0  -3  12   18.60    4.00
  -1   3 -12   35.80    5.40
  -1   3 -12   26.60    4.50
   1  -3  12   36.90    5.40
   3   2 -12   75.99    6.30
   3   2 -12   78.69    6.10
   2   2 -12    0.40    2.90
   2   2 -12   -2.10    2.30
  -2  -2  12    0.00    2.70
   1   2 -12   19.80    3.90
   1   2 -12   13.10    3.70
  -1  -2  12   17.30    3.90
   0   2 -12   56.79    6.50
   0   2 -12   48.50    5.60
   0  -2  12   72.49    5.80
  -1   2 -12   -1.20    2.50
  -1   2 -12    7.40    3.50
   1  -2  12    0.60    2.50
   2   1 -12   11.50    3.50
   2   1 -12    7.00    2.90
   1   1 -12   24.00    4.40
   1   1 -12   34.70    4.90
   0   1 -12  115.39    7.60
   0   0   0    0.00    0.00

_computing_structure_solution     'SHELXT 2014/5 (Sheldrick, 2014)'
;
_shelx_hkl_checksum              11136
loop_
_space_group_symop_operation_xyz
'x, y, z'
'-x, -y, -z'
loop_
_atom_site_label
_atom_site_type_symbol
_atom_site_fract_x
_atom_site_fract_y
_atom_site_fract_z
_atom_site_U_iso_or_equiv
_atom_site_adp_type
_atom_site_occupancy
_atom_site_site_symmetry_order
_atom_site_calc_flag
_atom_site_refinement_flags_posn
_atom_site_refinement_flags_adp
_atom_site_refinement_flags_occupancy
Ni1 Ni 0.5000 0.5000 1.0000 0.01709(11) Uani 1 2 d S . P
O1 O 0.35787(15) 0.28991(15) 0.85796(13) 0.0206(3) Uani 1 1 d . . .
O2 O 0.31195(15) 0.65647(15) 1.00179(13) 0.0198(3) Uani 1 1 d . . .
N1 N 0.59149(18) 0.56933(19) 0.82404(16) 0.0191(3) Uani 1 1 d . . .
C1 C 0.2134(2) 0.2961(2) 0.79861(18) 0.0188(3) Uani 1 1 d . . .
C2 C 0.1248(2) 0.4440(2) 0.82007(19) 0.0226(4) Uani 1 1 d . . .
H2 H 0.0194 0.4292 0.7632 0.027 Uiso 1 1 calc R U .
C3 C 0.1770(2) 0.6125(2) 0.91797(18) 0.0189(3) Uani 1 1 d . . .
C4 C 0.1310(2) 0.1236(2) 0.6936(2) 0.0270(4) Uani 1 1 d . . .
H4A H 0.0254 0.1431 0.6455 0.041 Uiso 1 1 calc R U .
H4B H 0.1064 0.0420 0.7479 0.041 Uiso 1 1 calc R U .
H4C H 0.2079 0.0742 0.6196 0.041 Uiso 1 1 calc R U .
C5 C 0.0624(2) 0.7554(2) 0.9235(2) 0.0262(4) Uani 1 1 d . . .
H5A H 0.1132 0.8654 0.9956 0.039 Uiso 1 1 calc R U .
H5B H -0.0481 0.7228 0.9518 0.039 Uiso 1 1 calc R U .
H5C H 0.0479 0.7705 0.8268 0.039 Uiso 1 1 calc R U .
C6 C 0.5883(2) 0.7323(2) 0.81752(19) 0.0201(3) Uani 1 1 d . . .
H6 H 0.5469 0.8179 0.8962 0.024 Uiso 1 1 calc R U .
C7 C 0.6425(2) 0.7822(2) 0.70144(19) 0.0203(3) Uani 1 1 d . . .
C8 C 0.7044(2) 0.6547(2) 0.58835(19) 0.0202(3) Uani 1 1 d . . .
H8 H 0.7422 0.6836 0.5068 0.024 Uiso 1 1 calc R U .
C9 C 0.7114(2) 0.4856(2) 0.59375(18) 0.0196(3) Uani 1 1 d . . .
C10 C 0.6518(2) 0.4494(2) 0.71393(18) 0.0194(3) Uani 1 1 d . . .
H10 H 0.6540 0.3339 0.7184 0.023 Uiso 1 1 calc R U .
C11 C 0.6317(3) 0.9663(2) 0.6987(2) 0.0264(4) Uani 1 1 d . . .
H11A H 0.5864 0.9632 0.6010 0.040 Uiso 1 1 calc R U .
H11B H 0.7449 1.0301 0.7222 0.040 Uiso 1 1 calc R U .
H11C H 0.5569 1.0253 0.7712 0.040 Uiso 1 1 calc R U .
C12 C 0.7800(2) 0.3456(2) 0.4738(2) 0.0250(4) Uani 1 1 d . . .
H12A H 0.7435 0.3571 0.3786 0.037 Uiso 1 1 calc R U .
H12B H 0.7371 0.2300 0.4766 0.037 Uiso 1 1 calc R U .
H12C H 0.9039 0.3588 0.4884 0.037 Uiso 1 1 calc R U .
loop_
_atom_site_aniso_label
_atom_site_aniso_U_11
_atom_site_aniso_U_22
_atom_site_aniso_U_33
_atom_site_aniso_U_23
_atom_site_aniso_U_13
_atom_site_aniso_U_12
Ni1 0.01781(17) 0.01315(16) 0.02031(17) 0.00423(11) 0.00311(11) 0.00537(11)
O1 0.0214(6) 0.0164(6) 0.0235(6) 0.0048(5) 0.0035(5) 0.0052(5)
O2 0.0195(6) 0.0170(6) 0.0225(6) 0.0045(5) 0.0032(5) 0.0063(5)
N1 0.0185(7) 0.0177(7) 0.0214(7) 0.0059(6) 0.0030(5) 0.0047(5)
C1 0.0225(8) 0.0182(8) 0.0162(7) 0.0053(6) 0.0050(6) 0.0025(6)
C2 0.0221(8) 0.0232(9) 0.0214(8) 0.0054(7) -0.0005(7) 0.0054(7)
C3 0.0221(8) 0.0207(8) 0.0168(8) 0.0082(6) 0.0061(6) 0.0073(7)
C4 0.0306(10) 0.0207(9) 0.0262(9) 0.0031(7) -0.0003(7) 0.0024(7)
C5 0.0289(9) 0.0252(9) 0.0252(9) 0.0072(7) 0.0018(7) 0.0125(8)
C6 0.0189(8) 0.0172(8) 0.0236(8) 0.0046(6) 0.0032(6) 0.0059(6)
C7 0.0188(8) 0.0176(8) 0.0252(9) 0.0076(7) 0.0013(6) 0.0041(6)
C8 0.0196(8) 0.0205(8) 0.0215(8) 0.0078(7) 0.0025(6) 0.0031(7)
C9 0.0184(8) 0.0181(8) 0.0203(8) 0.0032(6) 0.0002(6) 0.0039(6)
C10 0.0207(8) 0.0146(7) 0.0227(8) 0.0052(6) 0.0022(6) 0.0041(6)
C11 0.0316(10) 0.0181(8) 0.0322(10) 0.0097(7) 0.0082(8) 0.0064(7)
C12 0.0310(10) 0.0200(8) 0.0227(9) 0.0036(7) 0.0062(7) 0.0060(7)
loop_
_atom_type_symbol
_atom_type_description
_atom_type_scat_dispersion_real
_atom_type_scat_dispersion_imag
_atom_type_scat_source
C C 0.0033 0.0016 'International Tables Vol C Tables 4.2.6.8 and 6.1.1.4'
H H 0.0000 0.0000 'International Tables Vol C Tables 4.2.6.8 and 6.1.1.4'
N N 0.0061 0.0033 'International Tables Vol C Tables 4.2.6.8 and 6.1.1.4'
Ni Ni 0.3393 1.1124 'International Tables Vol C Tables 4.2.6.8 and 6.1.1.4'
O O 0.0106 0.0060 'International Tables Vol C Tables 4.2.6.8 and 6.1.1.4'
loop_
_geom_angle_atom_site_label_1
_geom_angle_atom_site_label_2
_geom_angle_atom_site_label_3
_geom_angle
_geom_angle_site_symmetry_1
_geom_angle_site_symmetry_3
O1 Ni1 O1 180.0 . 2_667
O1 Ni1 O2 88.00(5) . 2_667
O1 Ni1 O2 92.00(5) 2_667 2_667
O1 Ni1 O2 92.00(5) . .
O1 Ni1 O2 88.00(5) 2_667 .
O2 Ni1 O2 180.0 2_667 .
O1 Ni1 N1 89.56(6) . 2_667
O1 Ni1 N1 90.44(5) 2_667 2_667
O2 Ni1 N1 88.88(5) 2_667 2_667
O2 Ni1 N1 91.13(5) . 2_667
O1 Ni1 N1 90.44(5) . .
O1 Ni1 N1 89.56(6) 2_667 .
O2 Ni1 N1 91.12(5) 2_667 .
O2 Ni1 N1 88.87(5) . .
N1 Ni1 N1 180.00(3) 2_667 .
C1 O1 Ni1 124.07(11) . .
C3 O2 Ni1 124.61(11) . .
C10 N1 C6 118.31(15) . .
C10 N1 Ni1 120.30(11) . .
C6 N1 Ni1 121.39(11) . .
O1 C1 C2 126.76(16) . .
O1 C1 C4 115.16(15) . .
C2 C1 C4 118.08(16) . .
C1 C2 C3 126.16(17) . .
C1 C2 H2 116.9 . .
C3 C2 H2 116.9 . .
O2 C3 C2 125.82(15) . .
O2 C3 C5 116.40(15) . .
C2 C3 C5 117.78(16) . .
C1 C4 H4A 109.5 . .
C1 C4 H4B 109.5 . .
H4A C4 H4B 109.5 . .
C1 C4 H4C 109.5 . .
H4A C4 H4C 109.5 . .
H4B C4 H4C 109.5 . .
C3 C5 H5A 109.5 . .
C3 C5 H5B 109.5 . .
H5A C5 H5B 109.5 . .
C3 C5 H5C 109.5 . .
H5A C5 H5C 109.5 . .
H5B C5 H5C 109.5 . .
N1 C6 C7 123.27(15) . .
N1 C6 H6 118.4 . .
C7 C6 H6 118.4 . .
C6 C7 C8 117.16(15) . .
C6 C7 C11 120.76(15) . .
C8 C7 C11 122.07(16) . .
C9 C8 C7 120.61(16) . .
C9 C8 H8 119.7 . .
C7 C8 H8 119.7 . .
C10 C9 C8 117.39(15) . .
C10 C9 C12 120.89(15) . .
C8 C9 C12 121.71(16) . .
N1 C10 C9 123.25(15) . .
N1 C10 H10 118.4 . .
C9 C10 H10 118.4 . .
C7 C11 H11A 109.5 . .
C7 C11 H11B 109.5 . .
H11A C11 H11B 109.5 . .
C7 C11 H11C 109.5 . .
H11A C11 H11C 109.5 . .
H11B C11 H11C 109.5 . .
C9 C12 H12A 109.5 . .
C9 C12 H12B 109.5 . .
H12A C12 H12B 109.5 . .
C9 C12 H12C 109.5 . .
H12A C12 H12C 109.5 . .
H12B C12 H12C 109.5 . .
loop_
_geom_bond_atom_site_label_1
_geom_bond_atom_site_label_2
_geom_bond_distance
_geom_bond_site_symmetry_2
Ni1 O1 2.0245(13) .
Ni1 O1 2.0245(13) 2_667
Ni1 O2 2.0270(12) 2_667
Ni1 O2 2.0270(12) .
Ni1 N1 2.1053(15) 2_667
Ni1 N1 2.1053(15) .
O1 C1 1.262(2) .
O2 C3 1.259(2) .
N1 C10 1.338(2) .
N1 C6 1.340(2) .
C1 C2 1.399(2) .
C1 C4 1.515(2) .
C2 C3 1.408(2) .
C2 H2 0.9500 .
C3 C5 1.513(2) .
C4 H4A 0.9800 .
C4 H4B 0.9800 .
C4 H4C 0.9800 .
C5 H5A 0.9800 .
C5 H5B 0.9800 .
C5 H5C 0.9800 .
C6 C7 1.388(2) .
C6 H6 0.9500 .
C7 C8 1.393(2) .
C7 C11 1.505(2) .
C8 C9 1.390(2) .
C8 H8 0.9500 .
C9 C10 1.386(2) .
C9 C12 1.508(2) .
C10 H10 0.9500 .
C11 H11A 0.9800 .
C11 H11B 0.9800 .
C11 H11C 0.9800 .
C12 H12A 0.9800 .
C12 H12B 0.9800 .
C12 H12C 0.9800 .
