#------------------------------------------------------------------------------
#$Date: 2019-11-10 07:46:16 +0200 (Sun, 10 Nov 2019) $
#$Revision: 225904 $
#$URL: file:///home/coder/svn-repositories/cod/cif/4/51/57/4515779.cif $
#------------------------------------------------------------------------------
#
# This file is available in the Crystallography Open Database (COD),
# http://www.crystallography.net/
#
# All data on this site have been placed in the public domain by the
# contributors.
#
data_4515779
loop_
_publ_author_name
'Lad, Bapurao Sudam'
'Katukojvala, Sreenivas'
_publ_section_title
;
 Piano-Stool Rhodium Enalcarbenoids: Application to Catalyst-Controlled
 Metal-Templated Annulations of Diazoenals and 1,3-Dicarbonyls
;
_journal_issue                   12
_journal_name_full               'ACS Catalysis'
_journal_page_first              11807
_journal_paper_doi               10.1021/acscatal.8b03865
_journal_volume                  8
_journal_year                    2018
_chemical_formula_moiety         'C12 H14 O5'
_chemical_formula_sum            'C12 H14 O5'
_chemical_formula_weight         238.23
_space_group_crystal_system      triclinic
_space_group_IT_number           2
_space_group_name_Hall           '-P 1'
_space_group_name_H-M_alt        'P -1'
_atom_sites_solution_hydrogens   geom
_audit_creation_method           SHELXL-2016/6
_cell_angle_alpha                82.491(7)
_cell_angle_beta                 89.314(7)
_cell_angle_gamma                82.461(7)
_cell_formula_units_Z            2
_cell_length_a                   5.8118(8)
_cell_length_b                   7.6603(10)
_cell_length_c                   13.506(2)
_cell_measurement_reflns_used    7637
_cell_measurement_temperature    140(2)
_cell_measurement_theta_max      2.93
_cell_measurement_theta_min      25.05
_cell_volume                     590.97(14)
_computing_structure_refinement  'SHELXL-2016/6 (Sheldrick, 2016)'
_computing_structure_solution    'SHELXT 2014/5 (Sheldrick, 2014)'
_diffrn_ambient_temperature      140(2)
_diffrn_measured_fraction_theta_full 0.996
_diffrn_measured_fraction_theta_max 0.996
_diffrn_measurement_device_type  'Bruker APEX-II CCD'
_diffrn_measurement_method       '\f and \w scans'
_diffrn_radiation_type           MoK\a
_diffrn_radiation_wavelength     0.71073
_diffrn_reflns_av_R_equivalents  0.0431
_diffrn_reflns_av_unetI/netI     0.0224
_diffrn_reflns_Laue_measured_fraction_full 0.996
_diffrn_reflns_Laue_measured_fraction_max 0.996
_diffrn_reflns_limit_h_max       6
_diffrn_reflns_limit_h_min       -6
_diffrn_reflns_limit_k_max       9
_diffrn_reflns_limit_k_min       -9
_diffrn_reflns_limit_l_max       16
_diffrn_reflns_limit_l_min       -16
_diffrn_reflns_number            16686
_diffrn_reflns_point_group_measured_fraction_full 0.996
_diffrn_reflns_point_group_measured_fraction_max 0.996
_diffrn_reflns_theta_full        25.065
_diffrn_reflns_theta_max         25.065
_diffrn_reflns_theta_min         2.926
_exptl_absorpt_correction_type   none
_exptl_crystal_colour            'clear whiteish colourless'
_exptl_crystal_density_diffrn    1.339
_exptl_crystal_description       needle
_exptl_crystal_F_000             252
_exptl_crystal_size_max          0.15
_exptl_crystal_size_mid          0.12
_exptl_crystal_size_min          0.10
_refine_diff_density_max         0.215
_refine_diff_density_min         -0.207
_refine_diff_density_rms         0.038
_refine_ls_extinction_coef       0.039(8)
_refine_ls_extinction_expression Fc^*^=kFc[1+0.001xFc^2^\l^3^/sin(2\q)]^-1/4^
_refine_ls_extinction_method     'SHELXL-2016/6 (Sheldrick 2016)'
_refine_ls_goodness_of_fit_ref   1.055
_refine_ls_hydrogen_treatment    constr
_refine_ls_matrix_type           full
_refine_ls_number_parameters     158
_refine_ls_number_reflns         2086
_refine_ls_number_restraints     0
_refine_ls_restrained_S_all      1.055
_refine_ls_R_factor_all          0.0455
_refine_ls_R_factor_gt           0.0358
_refine_ls_shift/su_max          0.000
_refine_ls_shift/su_mean         0.000
_refine_ls_structure_factor_coef Fsqd
_refine_ls_weighting_details
'w=1/[\s^2^(Fo^2^)+(0.0402P)^2^+0.2469P] where P=(Fo^2^+2Fc^2^)/3'
_refine_ls_weighting_scheme      calc
_refine_ls_wR_factor_gt          0.0858
_refine_ls_wR_factor_ref         0.0908
_reflns_Friedel_coverage         0.000
_reflns_number_gt                1785
_reflns_number_total             2086
_reflns_threshold_expression     'I > 2\s(I)'
_cod_data_source_file            cs8b03865_si_003.cif
_cod_data_source_block           BL_04-92
_cod_database_code               4515779
_shelx_shelxl_version_number     2016/6
_shelx_space_group_comment
;
The symmetry employed for this shelxl refinement is uniquely defined
by the following loop, which should always be used as a source of
symmetry information in preference to the above space-group names.
They are only intended as comments.
;
_shelx_res_file
;
TITL finalw_a.res in P-1
    shelx.res
    created by SHELXL-2016/6 at 16:31:33 on 22-Apr-2017
CELL  0.71073   5.8118   7.6603  13.5056   82.491   89.314   82.461
ZERR     2.00   0.0008   0.0010   0.0020    0.007    0.007    0.007
LATT   1
SFAC  C    H    O
UNIT  24 28 10
MERG   2
OMIT     0   3   0
OMIT     2   2   1
MORE -1
FMAP   2   53   53
PLAN    5
ACTA
BOND   $H
CONF
LIST   6
L.S.  11
TEMP  -133.15
WGHT    0.040200    0.246900
EXTI    0.038790
FVAR       1.44091
O1    3    0.438431    0.546463    0.306671    11.00000    0.02486    0.02153 =
         0.02691   -0.00178   -0.00223   -0.00832
O4    3    0.795673    0.061967    0.582302    11.00000    0.02711    0.02508 =
         0.03726    0.00278   -0.00532   -0.01034
O5    3    1.044347    0.265081    0.571858    11.00000    0.02347    0.02449 =
         0.03385   -0.00210   -0.00602   -0.00964
O3    3   -0.141086    0.344064    0.156662    11.00000    0.02782    0.02738 =
         0.02977   -0.00086   -0.00766   -0.01062
O2    3   -0.132373    0.632525    0.097789    11.00000    0.03356    0.02923 =
         0.03882    0.00418   -0.00901   -0.00787
C11   1    0.852650    0.202811    0.544442    11.00000    0.02047    0.02199 =
         0.02714   -0.00698    0.00226   -0.00628
C9    1    0.534956    0.279584    0.425594    11.00000    0.02286    0.01984 =
         0.02637   -0.00356    0.00261   -0.00487
AFIX  43
H9    2    0.490665    0.168210    0.452788    11.00000   -1.20000
AFIX   0
C4    1    0.391174    0.378670    0.347168    11.00000    0.02428    0.01906 =
         0.02497   -0.00209    0.00336   -0.00684
C10   1    0.724730    0.325359    0.465210    11.00000    0.02414    0.01982 =
         0.02734   -0.00314    0.00164   -0.00617
AFIX  43
H10   2    0.776179    0.436227    0.442236    11.00000   -1.20000
AFIX   0
C2    1    0.131869    0.485693    0.225895    11.00000    0.02246    0.02278 =
         0.02444   -0.00401    0.00148   -0.00548
C1    1    0.278451    0.609559    0.233403    11.00000    0.02451    0.02292 =
         0.02348   -0.00284    0.00109   -0.00442
C3    1    0.206017    0.337842    0.299311    11.00000    0.02271    0.02243 =
         0.02772   -0.00345    0.00212   -0.00704
AFIX  43
H3    2    0.138113    0.230935    0.312134    11.00000   -1.20000
AFIX   0
C6    1   -0.058494    0.500442    0.153497    11.00000    0.02324    0.02479 =
         0.02562   -0.00202    0.00186   -0.00625
C12   1    1.189932    0.152080    0.646622    11.00000    0.02330    0.02980 =
         0.03609   -0.00407   -0.00628   -0.00426
AFIX 137
H12A  2    1.201574    0.028697    0.632965    11.00000   -1.50000
H12B  2    1.121992    0.161431    0.712786    11.00000   -1.50000
H12C  2    1.345046    0.189414    0.644861    11.00000   -1.50000
AFIX   0
C5    1    0.299821    0.788409    0.179639    11.00000    0.03299    0.02438 =
         0.03090   -0.00073   -0.00032   -0.01009
AFIX 137
H5A   2    0.290565    0.874707    0.227558    11.00000   -1.50000
H5B   2    0.173631    0.822810    0.130650    11.00000   -1.50000
H5C   2    0.449379    0.785821    0.145204    11.00000   -1.50000
AFIX   0
C7    1   -0.325327    0.338766    0.085931    11.00000    0.02642    0.03686 =
         0.02796   -0.00466   -0.00590   -0.00981
AFIX  23
H7A   2   -0.270001    0.365614    0.016689    11.00000   -1.20000
H7B   2   -0.459762    0.427691    0.096859    11.00000   -1.20000
AFIX   0
C8    1   -0.394032    0.155198    0.102544    11.00000    0.04552    0.04394 =
         0.03959   -0.00579   -0.00882   -0.02217
AFIX 137
H8A   2   -0.524017    0.148582    0.058221    11.00000   -1.50000
H8B   2   -0.441050    0.128025    0.172192    11.00000   -1.50000
H8C   2   -0.261916    0.069051    0.088072    11.00000   -1.50000
AFIX   0
HKLF    4




REM  finalw_a.res in P-1
REM R1 =  0.0358 for    1785 Fo > 4sig(Fo)  and  0.0455 for all    2086 data
REM    158 parameters refined using      0 restraints

END

WGHT      0.0402      0.2469

REM Highest difference peak  0.215,  deepest hole -0.207,  1-sigma level  0.038
Q1    1   0.1821  0.3917  0.2392  11.00000  0.05    0.21
Q2    1   0.4261  0.3519  0.4049  11.00000  0.05    0.21
Q3    1   0.0380  0.4835  0.1968  11.00000  0.05    0.21
Q4    1   0.5030  0.3084  0.3613  11.00000  0.05    0.21
Q5    1   1.2282  0.2202  0.7006  11.00000  0.05    0.19
;
_shelx_res_checksum              45735
_shelx_hkl_file
;
  -1   0   0  177.38    6.60
  -1   0   0  188.28    6.60
  -1   0   0  195.68    6.40
  -1   0   0  189.28    6.60
   1   0   0  192.88    6.60
   1   0   0  179.88    6.80
   1   0   0  187.08    6.70
   1   0   0  200.68    6.40
   1   0   0  190.78    6.50
  -2   0   0  797.22   25.20
  -2   0   0  821.82   25.00
  -2   0   0  814.02   25.50
  -2   0   0  842.62   25.40
  -2   0   0  804.42   24.80
   2   0   0  806.42   25.20
   2   0   0  788.22   25.30
   2   0   0  826.32   24.80
   2   0   0  819.12   25.00
   2   0   0  802.42   25.80
  -3   0   0  925.11   30.60
  -3   0   0  961.90   30.00
  -3   0   0  996.60   30.80
  -3   0   0  949.90   29.80
  -3   0   0  968.70   30.50
   3   0   0  943.11   29.60
   3   0   0  940.41   30.60
   3   0   0  939.71   30.10
   3   0   0  946.61   31.30
   3   0   0  952.80   30.30
  -4   0   0   86.99    8.20
  -4   0   0   87.59    8.40
  -4   0   0  102.19   10.20
  -4   0   0   91.99    6.60
  -4   0   0   92.39    4.60
  -4   0   0   87.29    7.10
  -4   0   0   93.39    8.10
   4   0   0   85.09    7.00
   4   0   0   85.09   10.10
   4   0   0   73.09    8.80
   4   0   0   84.89    8.60
   4   0   0   91.39    9.80
  -5   0   0    1.60    5.30
  -5   0   0   -1.60    5.60
  -5   0   0   -0.70    7.00
  -5   0   0   -2.50    3.90
  -5   0   0    4.10    2.30
  -5   0   0    0.30    5.80
   5   0   0    4.50    7.20
   5   0   0    2.40    6.50
   5   0   0    6.10    7.60
  -6   0   0    8.60    3.00
  -6   0   0    1.00    6.00
  -6   0   0    9.60    8.30
  -6   0   0    3.50    8.50
  -6   0   0    5.40    8.10
  -6   0   0   10.80   10.80
  -6   0   0    6.60    6.70
   6   0   0   17.70   12.60
   6   0   0    8.50    7.70
   6   0   0    0.10   10.10
   6   0   0    5.40    6.80
   6   0   0  -12.90    8.40
   6  -1   0  572.84   22.10
   6  -1   0  509.05   25.10
   6  -1   0  558.64   27.10
   6  -1   0  616.14   24.20
   6  -1   0  564.94   30.90
  -6   1   0  579.74   23.10
  -6   1   0  485.25   29.80
  -6   1   0  544.45   22.90
  -6   1   0  557.74   19.30
  -6   1   0  577.04   26.10
  -6   1   0  580.94   25.50
  -6   1   0  591.44   25.40
   5  -1   0  114.79   14.70
   5  -1   0  124.39    9.00
   5  -1   0  128.69   11.00
   5  -1   0  133.29   13.60
   5  -1   0  121.29   13.50
  -5   1   0  131.79   11.80
  -5   1   0  147.79    9.40
  -5   1   0  109.69   12.70
  -5   1   0  133.79    6.40
  -5   1   0  136.29   12.40
  -5   1   0  115.99    9.70
   4  -1   0  106.29   10.50
   4  -1   0   89.59    9.90
   4  -1   0   71.89    6.60
   4  -1   0  100.49    8.00
  -4   1   0   91.69    7.20
  -4   1   0   83.09    4.50
  -4   1   0   92.49    6.40
  -4   1   0   89.39    8.20
  -4   1   0   93.79    9.00
  -4   1   0  101.29    8.40
   3  -1   0  114.49    8.00
   3  -1   0  114.29    6.70
   3  -1   0  104.99    7.10
  -3   1   0  112.19    7.20
  -3   1   0  108.69    6.80
  -3   1   0  116.79    5.80
  -3   1   0  115.89    6.10
  -3   1   0   99.19    5.90
  -3   1   0  113.39    6.80
  -3   1   0  116.19    4.70
   2  -1   0  214.48    8.50
   2  -1   0  213.88    9.10
   2  -1   0  218.28    8.20
  -2   1   0  228.18    8.00
  -2   1   0  222.68    7.90
  -2   1   0  224.78    8.30
  -2   1   0  218.88    7.80
  -2   1   0  218.48    8.60
  -2   1   0  224.98    7.30
   1  -1   0 2000.60   57.49
   1  -1   0 1929.21   57.69
  -1   1   0 2148.29   56.99
  -1   1   0 2022.60   57.49
  -1   1   0 1947.41   57.59
  -1  -1   0 1619.34   46.00
  -1  -1   0 1571.44   45.80
  -1  -1   0 1589.84   46.20
  -1  -1   0 1594.44   46.10
  -1  -1   0 1543.75   46.20
   1   1   0 1597.14   45.90
   1   1   0 1593.64   45.80
   1   1   0 1648.44   46.20
   1   1   0 1572.54   46.20
   1   1   0 1495.35   46.10
  -2  -1   0 3031.10   87.49
  -2  -1   0 3130.39   87.29
  -2  -1   0 3004.10   87.49
  -2  -1   0 3051.89   87.69
  -2  -1   0 3044.40   86.99
   2   1   0 3029.50   87.09
   2   1   0 3047.99   86.99
   2   1   0 3009.10   87.69
   2   1   0 2892.51   87.29
   2   1   0 2875.11   87.39
  -3  -1   0  162.58    8.80
  -3  -1   0  149.59    8.00
  -3  -1   0  155.08    8.90
  -3  -1   0  156.38    9.90
  -3  -1   0  165.18    9.30
   3   1   0  167.08    9.60
   3   1   0  153.58    9.10
   3   1   0  153.38    8.20
   3   1   0  156.68    9.50
   3   1   0  151.48    8.80
  -4  -1   0  120.19   10.60
  -4  -1   0  108.99    7.80
  -4  -1   0  109.49    9.00
  -4  -1   0  110.49    8.80
  -4  -1   0   99.69    9.30
   4   1   0   90.69    9.10
   4   1   0   96.49    8.70
   4   1   0   98.49    7.80
   4   1   0  105.29   10.00
   4   1   0   93.79   10.10
  -5  -1   0  103.59   14.20
  -5  -1   0   88.19   13.40
  -5  -1   0   86.59   13.80
  -5  -1   0   85.89   11.40
  -5  -1   0   84.09    9.50
   5   1   0   92.09   14.60
   5   1   0   73.79   14.60
   5   1   0   84.89   11.00
   5   1   0   87.19   13.20
   5   1   0   96.99    9.50
  -6  -1   0  199.98    9.20
  -6  -1   0  208.18   14.20
  -6  -1   0  242.28   18.20
  -6  -1   0  205.28   17.00
  -6  -1   0  208.68   15.60
  -6  -1   0  203.38   17.00
  -6  -1   0  249.58   21.30
   6   1   0  271.07   22.40
   6   1   0  153.08   16.80
   6   1   0  212.88   20.60
   6  -2   0  272.57   25.40
   6  -2   0  286.27   14.00
   6  -2   0  309.57   19.50
  -6   2   0  283.77   18.40
  -6   2   0  277.27   16.00
  -6   2   0  275.17   15.90
  -6   2   0  271.97   11.20
  -6   2   0  253.97   14.60
   5  -2   0  119.89    8.40
   5  -2   0  146.09   12.60
  -5   2   0  119.59    9.80
  -5   2   0  116.09    5.90
  -5   2   0   88.49   14.70
  -5   2   0  120.89    9.60
  -5   2   0   98.19    8.80
   4  -2   0   26.50    6.50
   4  -2   0   20.00    3.60
   4  -2   0   19.70    5.00
  -4   2   0   22.40    4.00
  -4   2   0   17.20    3.40
  -4   2   0   20.90    4.50
  -4   2   0   22.80    4.00
  -4   2   0   18.10    2.40
   3  -2   0  315.77   10.50
   3  -2   0  294.87   13.40
  -3   2   0  287.87   11.90
  -3   2   0  308.37   11.50
  -3   2   0  315.47   10.10
   2  -2   0   54.99    4.90
   2  -2   0   56.99    3.70
  -2   2   0   55.99    4.00
  -2   2   0   49.80    2.60
  -2   2   0   47.30    3.80
   1  -2   0   17.60    2.00
   1  -2   0   16.50    2.40
  -1   2   0   17.30    1.40
  -1   2   0   15.30    2.40
   0  -2   0 1064.09   32.40
   0  -2   0 1074.99   32.20
   0  -2   0 1119.99   32.10
   0   2   0 1145.69   32.10
   0   2   0 1251.77   32.30
   0   2   0 1113.39   32.30
   0   2   0 1058.59   32.30
  -1  -2   0    1.60    1.50
  -1  -2   0    4.00    2.10
  -1  -2   0    4.10    2.00
  -1  -2   0    2.50    1.80
  -1  -2   0    2.80    2.10
   1   2   0    2.00    1.90
   1   2   0    3.40    2.10
   1   2   0    4.20    2.00
   1   2   0    4.90    1.70
   1   2   0    0.40    1.70
  -2  -2   0  286.97   11.50
  -2  -2   0  290.67   11.40
  -2  -2   0  293.27   12.10
  -2  -2   0  285.77   10.80
  -2  -2   0  295.87   11.40
   2   2   0  281.77   11.70
   2   2   0  275.77   11.60
   2   2   0  286.67   11.20
   2   2   0  312.37   12.00
   2   2   0  293.07   11.00
  -3  -2   0   10.10    3.30
  -3  -2   0    5.00    4.10
  -3  -2   0   11.10    4.70
  -3  -2   0   12.10    3.60
  -3  -2   0    5.60    3.20
   3   2   0   13.60    4.60
   3   2   0    9.30    3.00
   3   2   0    8.40    4.20
   3   2   0   11.70    4.20
   3   2   0    7.10    3.90
  -4  -2   0  139.99   11.20
  -4  -2   0  143.29    9.50
  -4  -2   0  155.18   10.30
  -4  -2   0  152.88   10.80
  -4  -2   0  167.08   12.50
   4   2   0  150.38    9.60
   4   2   0  169.68   11.30
   4   2   0  153.28   12.00
   4   2   0  133.69   11.80
   4   2   0  131.09   10.20
  -5  -2   0    7.60    7.40
  -5  -2   0    6.00    8.30
  -5  -2   0   -0.70    5.20
   5   2   0   -5.50    4.80
   5   2   0    9.50   13.70
   5   2   0  -11.40    6.40
   5   2   0  -10.00    6.80
  -6  -2   0   31.80    8.40
  -6  -2   0   25.10   12.30
  -6  -2   0   21.50    8.30
  -6  -2   0   28.00    9.10
  -6  -2   0   13.40   10.40
   6   2   0   36.90   11.60
   6   2   0   14.70    9.50
   6   2   0   15.60    8.00
   6   2   0   48.20   13.20
   6  -3   0   -2.70   14.40
   6  -3   0   29.50   10.50
  -6   3   0   35.30    8.90
  -6   3   0   21.40    3.40
  -6   3   0   31.60    8.60
   5  -3   0  194.48   27.80
  -5   3   0  163.78    7.80
  -5   3   0  183.58   12.20
   4  -3   0   13.00    6.90
  -4   3   0    6.40    4.00
  -4   3   0    7.10    3.90
  -4   3   0    5.20    1.80
   3  -3   0   49.70    7.60
   3  -3   0   37.60    4.90
  -3   3   0   29.30    4.80
  -3   3   0   36.70    5.00
  -3   3   0   32.80    2.70
   2  -3   0  429.76   15.40
   2  -3   0  432.66   15.00
  -2   3   0  451.55   14.50
  -2   3   0  440.66   13.90
  -2   3   0  456.25   15.30
   1  -3   0    0.50    0.90
   1  -3   0    0.60    1.30
  -1   3   0   -0.10    0.80
   0  -3   0  240.48    7.70
   0  -3   0  232.68    8.20
   0  -3   0  224.08    7.60
   0   3   0  230.78    7.90
   0   3   0  231.08    7.90
   0   3   0  188.68    8.10
   0   3   0  247.38    7.50
  -1  -3   0  291.07   11.50
  -1  -3   0  305.87   10.60
  -1  -3   0  296.37   11.10
  -1  -3   0  290.17   11.00
   1   3   0  298.47   11.30
   1   3   0  302.37   11.50
   1   3   0  299.87   10.80
   1   3   0  297.57   11.00
  -2  -3   0  806.02   25.90
  -2  -3   0  771.62   25.90
  -2  -3   0  761.22   25.20
  -2  -3   0  802.22   25.60
  -2  -3   0  785.82   26.40
   2   3   0  784.52   25.60
   2   3   0  841.52   26.00
   2   3   0  757.12   25.30
   2   3   0  775.52   26.00
   2   3   0  766.02   26.20
  -3  -3   0   23.70    4.70
  -3  -3   0   16.50    4.20
  -3  -3   0   21.30    4.50
  -3  -3   0   17.50    5.20
  -3  -3   0   17.70    5.00
   3   3   0   24.20    4.10
   3   3   0   17.80    5.00
   3   3   0   13.50    4.30
   3   3   0   19.00    5.10
   3   3   0   20.50    5.10
  -4  -3   0   50.89    8.20
  -4  -3   0   39.50    6.30
  -4  -3   0   38.00    7.20
  -4  -3   0   49.80    8.20
  -4  -3   0   43.80    7.00
   4   3   0   43.20    8.30
   4   3   0   35.40    6.40
   4   3   0   42.00    7.10
   4   3   0   54.29    8.00
   4   3   0   33.70    5.80
  -5  -3   0  104.89   13.40
  -5  -3   0  102.19   11.30
  -5  -3   0  128.99   16.20
  -5  -3   0  110.69   12.30
  -5  -3   0   78.39   11.40
   5   3   0  106.79   10.90
   5   3   0  107.99   15.20
   5   3   0   87.89   10.20
   5   3   0  100.99   13.60
   5   3   0   97.69   14.50
  -6  -3   0  127.99   16.30
  -6  -3   0  120.59   16.20
  -6  -3   0  144.09   15.20
  -6  -3   0  155.38   19.20
   6   3   0  142.09   21.70
   6   3   0  157.78   21.30
   6   3   0  139.39   19.20
   6   3   0  122.89   15.20
   6   3   0  108.69   12.60
   5  -4   0   13.20   11.90
  -5   4   0    1.90    6.70
  -5   4   0    4.70    2.50
  -5   4   0    0.20    5.80
   4  -4   0   58.99    9.00
  -4   4   0   45.80    4.00
  -4   4   0   45.80    5.70
   3  -4   0  195.08    9.90
   3  -4   0  207.08   11.70
  -3   4   0  204.48   10.50
  -3   4   0  188.68    7.60
   2  -4   0  335.97   12.70
   2  -4   0  344.17   11.60
   2  -4   0  333.37   12.90
  -2   4   0  338.17   11.40
   1  -4   0   12.70    2.70
   1  -4   0   12.50    2.00
  -1   4   0   12.50    1.80
   0  -4   0  211.58    8.90
   0  -4   0  220.88    7.90
   0   4   0  228.18    8.10
   0   4   0  239.08    7.70
  -1  -4   0  396.96   14.60
  -1  -4   0  411.96   15.30
  -1  -4   0  394.36   14.40
  -1  -4   0  398.26   13.80
   1   4   0  390.06   14.20
   1   4   0  407.56   12.90
   1   4   0  392.56   14.20
   1   4   0  408.56   15.10
   1   4   0  422.86   14.90
  -2  -4   0 2078.49   62.39
  -2  -4   0 2147.29   62.89
  -2  -4   0 2098.19   63.09
  -2  -4   0 2031.00   63.09
  -2  -4   0 2079.59   63.79
   2   4   0 2122.39   62.99
   2   4   0 2060.39   63.59
   2   4   0 2154.18   62.79
   2   4   0 2113.09   63.59
  -3  -4   0   47.00    6.50
  -3  -4   0   43.60    6.70
  -3  -4   0   36.90    5.20
  -3  -4   0   43.10    6.20
  -3  -4   0   47.20    7.40
   3   4   0   38.10    5.70
   3   4   0   44.70    6.90
   3   4   0   40.10    6.10
   3   4   0   46.00    6.70
   3   4   0   42.50    6.70
  -4  -4   0  144.59   11.00
  -4  -4   0  162.38   14.80
  -4  -4   0  156.28   12.30
  -4  -4   0  163.38   11.70
  -4  -4   0  129.89   13.50
   4   4   0  150.38   13.20
   4   4   0  169.98   13.70
   4   4   0  128.29   11.70
   4   4   0  133.79   11.10
   4   4   0  150.88   13.60
  -5  -4   0  116.39   12.70
  -5  -4   0  105.49   12.70
  -5  -4   0  144.09   18.30
  -5  -4   0  131.59   14.00
  -5  -4   0  122.79   15.00
   5   4   0  110.39   14.10
   5   4   0  135.79   16.70
   5   4   0  123.89   12.40
   5   4   0  127.69   15.80
   5   4   0  141.79   17.10
  -6  -4   0    3.80   10.90
  -6  -4   0   -9.70    9.70
  -6  -4   0    4.70   11.70
  -6  -4   0   43.20   15.20
  -6  -4   0   -0.30    9.10
   6   4   0    2.50   11.80
   6   4   0   -6.60   11.40
   6   4   0  -24.10   13.00
   6   4   0  -19.40    8.40
   6   4   0    0.20   10.90
   5  -5   0   12.20   13.90
  -5   5   0    3.50    2.50
   4  -5   0  159.78    9.20
   4  -5   0  170.58   11.80
   4  -5   0  217.38   17.00
  -4   5   0  153.18    7.60
   3  -5   0   10.50    2.90
   3  -5   0   13.70    6.10
   3  -5   0    6.70    4.70
  -3   5   0    6.30    2.10
   2  -5   0   77.89    6.70
   2  -5   0   84.89    5.10
  -2   5   0   83.49    4.70
   1  -5   0  205.88    9.30
   1  -5   0  211.78    8.00
  -1   5   0  194.78    7.90
   0  -5   0   21.00    3.30
   0  -5   0   18.90    2.70
   0   5   0   21.40    2.90
   0   5   0   24.40    3.00
  -1  -5   0   -1.60    3.00
  -1  -5   0   -4.30    3.30
  -1  -5   0   -1.90    3.30
   1   5   0    0.10    1.60
   1   5   0   -0.50    3.90
   1   5   0   -1.90    3.60
   1   5   0   -5.90    2.80
  -2  -5   0  123.59    9.70
  -2  -5   0  140.59    9.40
  -2  -5   0  143.59    8.70
  -2  -5   0  136.89   11.20
  -2  -5   0  130.19    8.20
   2   5   0  140.49    8.90
   2   5   0  138.09    9.80
   2   5   0  138.69   11.00
   2   5   0  152.18    9.10
  -3  -5   0    1.80    4.00
  -3  -5   0    1.50    4.50
  -3  -5   0    1.60    5.10
  -3  -5   0    6.10    6.10
  -3  -5   0   -4.30    5.30
   3   5   0    4.20    4.40
   3   5   0   -4.70    5.40
   3   5   0    0.00    5.80
   3   5   0    0.10    4.40
  -4  -5   0 1257.97   43.00
  -4  -5   0 1234.68   45.60
  -4  -5   0 1175.58   41.20
  -4  -5   0 1271.77   42.20
  -4  -5   0 1223.78   42.60
   4   5   0 1303.27   43.90
   4   5   0 1226.88   41.80
   4   5   0 1310.77   43.10
   4   5   0 1190.88   43.40
   4   5   0 1217.28   42.00
  -5  -5   0   11.90    7.40
  -5  -5   0    7.60    9.10
  -5  -5   0   11.70   10.20
  -5  -5   0   21.80   11.70
  -5  -5   0   11.20    8.50
   5   5   0   19.90    9.90
   5   5   0    2.50   10.40
   5   5   0    1.20    8.70
   5   5   0   19.10    8.30
   5   5   0   13.20    9.80
  -6  -5   0   16.40   14.00
  -6  -5   0   25.60   11.70
  -6  -5   0   46.50   13.20
  -6  -5   0   43.10   10.90
   6   5   0   26.00   14.70
   6   5   0   13.90   13.20
   6   5   0   -5.10   10.00
   6   5   0   11.90   14.90
   6   5   0   35.90   12.40
   4  -6   0  196.28   14.10
   4  -6   0  181.18   19.20
   4  -6   0  181.98   10.60
  -4   6   0  170.78    8.50
   3  -6   0   22.60    6.50
   3  -6   0   40.80    5.80
  -3   6   0   30.50    3.60
   2  -6   0  484.85   15.90
   2  -6   0  443.06   17.70
  -2   6   0  426.46   15.60
   1  -6   0    3.70    2.40
   1  -6   0   -0.30    3.00
  -1   6   0    1.30    2.00
   0   6   0  323.37   12.10
  -1  -6   0  200.78   11.30
  -1  -6   0  203.68   12.90
  -1  -6   0  195.38   10.40
  -1  -6   0  200.38    9.50
   1   6   0  195.68    7.90
   1   6   0  216.38   12.20
   1   6   0  194.98   10.30
   1   6   0  204.08   11.10
   1   6   0  189.48   10.10
  -2  -6   0   36.20    5.40
  -2  -6   0   55.49    7.30
  -2  -6   0   40.60    6.80
  -2  -6   0   55.09    8.90
  -2  -6   0   46.00    7.80
   2   6   0   36.00    5.80
   2   6   0   31.20    6.80
   2   6   0   42.00    5.00
   2   6   0   48.70    7.30
   2   6   0   44.30    6.00
  -3  -6   0  534.45   20.80
  -3  -6   0  533.45   22.50
  -3  -6   0  527.55   21.30
  -3  -6   0  526.25   24.00
  -3  -6   0  437.86   28.60
   3   6   0  529.05   21.60
   3   6   0  530.65   22.70
   3   6   0  559.14   24.40
  -4  -6   0   -3.60    9.40
  -4  -6   0   -2.20    6.30
  -4  -6   0    5.30    7.50
  -4  -6   0    5.70    7.20
  -4  -6   0    7.90    8.50
   4   6   0    5.30    8.00
   4   6   0    8.50    6.80
   4   6   0   15.30    9.60
   4   6   0   14.80    7.50
  -5  -6   0   72.29   15.20
  -5  -6   0   73.29   12.00
  -5  -6   0   57.09    9.80
  -5  -6   0   62.29   11.90
  -5  -6   0   51.99   12.60
   5   6   0   57.49   11.00
   5   6   0   63.99   11.40
   5   6   0   78.59   13.40
   5   6   0   49.20   12.50
   3  -7   0   35.90    5.80
   3  -7   0   12.30    7.00
  -3   7   0   26.40    4.20
   2  -7   0  213.58   12.70
   2  -7   0  238.08   10.50
  -2   7   0  211.88    9.80
   1  -7   0  395.66   14.50
   1  -7   0  388.96   16.50
  -1   7   0  377.76   14.50
   0  -7   0  332.07   14.80
   0   7   0  305.17   12.50
  -1  -7   0   18.50    5.10
  -1  -7   0   29.60    6.40
  -1  -7   0   25.70    4.70
  -1  -7   0   26.50    7.70
   1   7   0   19.30    4.60
   1   7   0   30.10    7.20
   1   7   0   28.90    5.90
   1   7   0   30.50    3.60
   1   7   0   22.90    5.10
  -2  -7   0  156.68   10.80
  -2  -7   0  178.78   12.50
  -2  -7   0  171.08   15.50
  -2  -7   0  169.08   13.50
   2   7   0  161.98   12.00
   2   7   0  168.08    8.40
   2   7   0  201.28   15.60
   2   7   0  167.38   12.30
   2   7   0  160.98   13.40
  -3  -7   0  265.47   15.80
  -3  -7   0  282.57   17.80
  -3  -7   0  253.07   14.90
  -3  -7   0  272.37   19.50
  -3  -7   0  282.97   17.30
   3   7   0  266.17   16.70
   3   7   0  271.07   16.60
   3   7   0  285.27   12.50
   3   7   0  239.48   17.40
   3   7   0  330.07   20.70
  -4  -7   0   73.49   10.00
  -4  -7   0  121.09   14.90
  -4  -7   0  124.39   17.60
  -4  -7   0  116.09   16.30
  -4  -7   0  116.39   14.10
   4   7   0  123.49   15.00
   4   7   0   84.49   11.30
   4   7   0   71.69   12.60
   4   7   0  123.99   20.10
  -5  -7   0   19.00   14.10
  -5  -7   0   51.89   12.40
  -5  -7   0   48.50   16.60
  -5  -7   0   28.20   11.00
  -5  -7   0   47.00   13.20
   5   7   0   60.69   15.10
   5   7   0   17.10   13.50
   5   7   0   55.29   12.30
   5   7   0   32.10   11.90
   2  -8   0   55.59    8.20
   2  -8   0   56.89    7.10
  -2   8   0   43.40    5.60
   1  -8   0  109.39   11.70
  -1   8   0  130.29    8.10
   0  -8   0   20.40    5.90
  -1  -8   0   -4.40    7.00
  -1  -8   0    5.70    4.80
   1   8   0    2.70    3.60
   1   8   0   -5.40    5.50
   1   8   0    3.10    5.00
  -2  -8   0   63.49   11.80
  -2  -8   0   57.39    8.80
  -2  -8   0   50.99    9.60
  -2  -8   0   44.40    7.10
   2   8   0   47.20    6.80
   2   8   0   52.29    8.50
   2   8   0   51.39    9.80
   2   8   0   74.49   11.50
  -3  -8   0   14.00    7.40
  -3  -8   0   13.20   10.80
  -3  -8   0   26.00   12.30
  -3  -8   0   20.20    9.10
  -3  -8   0   25.00    8.40
   3   8   0   23.10    9.30
   3   8   0   15.60    8.80
   3   8   0   13.50    9.70
   3   8   0   28.50    5.80
   3   8   0   48.10   12.60
   4   8   0  128.19   18.30
   4   8   0  106.19   15.00
  -1  -9   0  140.19   11.00
  -1  -9   0  164.38   17.60
  -1  -9   0  164.28   15.40
   1   9   0  120.49   11.30
   3   8  -1    0.90   10.20
   3   8  -1   14.40    5.20
   3   8  -1   43.50   13.00
   3   8  -1   15.10    8.80
   3   8  -1    5.00    9.20
  -3  -8   1   -2.00   11.00
  -3  -8   1   -5.60   12.90
  -3  -8   1    8.50    7.40
  -3  -8   1   17.00    9.80
   2   8  -1   -3.20   10.30
   2   8  -1   -7.10    8.10
   2   8  -1   -0.90   10.70
   2   8  -1   -2.40    6.30
   2   8  -1    2.70    3.70
  -2  -8   1   -9.60    7.20
  -2  -8   1    5.20    5.40
  -2  -8   1    5.40    8.60
  -2  -8   1    6.00   10.10
   1   8  -1   28.30    6.70
   1   8  -1   36.70    6.20
  -1  -8   1   29.20    8.20
  -1  -8   1   39.10    5.80
   0  -8   1   16.40    6.00
  -1   8  -1   34.20    5.40
   1  -8   1   29.50    7.40
  -2   8  -1    8.10    4.00
   2  -8   1   -0.70    5.20
   2  -8   1   16.40    7.40
   4   7  -1    0.40    9.40
   4   7  -1  -17.70    9.50
   4   7  -1    0.70    9.20
  -4  -7   1   -9.00   11.00
  -4  -7   1   25.50    8.90
  -4  -7   1    3.50   10.70
   3   7  -1   23.00    8.70
   3   7  -1   35.10    5.30
   3   7  -1   23.00   10.20
   3   7  -1   36.70    8.10
   3   7  -1   34.30    8.20
  -3  -7   1   21.70    7.40
  -3  -7   1   28.50    6.80
  -3  -7   1   22.00    9.60
  -3  -7   1   37.80    9.20
  -3  -7   1   33.80    7.10
   2   7  -1  151.98   11.90
   2   7  -1  103.09   10.80
   2   7  -1  125.99   12.60
   2   7  -1  133.09    6.90
   2   7  -1  136.19   15.50
  -2  -7   1  104.99   12.80
  -2  -7   1  120.09   12.00
  -2  -7   1  126.59    9.80
  -2  -7   1  113.49   14.80
   1   7  -1   35.70    8.00
   1   7  -1   32.10    5.30
   1   7  -1   24.40    5.10
  -1  -7   1   23.70    4.60
  -1  -7   1   22.40    6.30
  -1  -7   1   25.30    5.30
   0  -7   1   10.60    3.20
   0  -7   1   12.40    4.90
  -1   7  -1  224.98   10.20
   1  -7   1  213.08   12.30
   1  -7   1  232.98   10.00
  -2   7  -1  166.58    8.50
   2  -7   1  175.08   11.90
   2  -7   1  184.78    9.10
  -3   7  -1   12.80    3.70
   3  -7   1   10.00    4.90
   3  -7   1   -6.90    6.20
   5   6  -1  309.67   21.00
   5   6  -1  268.37   22.30
   5   6  -1  337.77   21.30
   5   6  -1  370.86   25.70
  -5  -6   1  320.47   20.90
  -5  -6   1  295.27   22.50
  -5  -6   1  314.27   24.30
  -5  -6   1  282.67   19.30
  -5  -6   1  298.97   26.20
   4   6  -1   76.19   11.90
   4   6  -1   46.60    9.90
   4   6  -1   59.99    9.20
   4   6  -1   60.19    9.50
  -4  -6   1   76.39   11.90
  -4  -6   1   55.39    9.70
  -4  -6   1   82.69   11.80
  -4  -6   1   49.40   11.10
  -4  -6   1   55.29    8.40
   3   6  -1    4.90    5.80
   3   6  -1   -6.60    7.90
   3   6  -1  -11.90    5.90
  -3  -6   1    0.20    4.60
  -3  -6   1    8.50    5.60
  -3  -6   1    3.20    5.40
  -3  -6   1  -11.90    7.20
   2   6  -1   10.10    6.50
   2   6  -1   14.00    5.40
   2   6  -1   16.20    5.00
   2   6  -1    7.80    5.50
   2   6  -1    9.50    3.00
  -2  -6   1   14.70    4.30
  -2  -6   1    5.10    6.20
  -2  -6   1   13.60    5.70
  -2  -6   1   10.80    4.80
   1   6  -1  161.08    6.50
   1   6  -1  142.99    8.70
   1   6  -1  172.38   11.60
   1   6  -1  165.68   10.00
   1   6  -1  140.89   12.00
  -1  -6   1  172.78   11.90
  -1  -6   1  167.88    9.40
  -1  -6   1  151.58   10.30
   0   6  -1  121.19    6.50
   0   6  -1  121.39    6.70
   0   6  -1  129.59    7.70
   0  -6   1  132.09    8.90
   0  -6   1  140.19    8.60
   0  -6   1  128.79    6.50
  -1   6  -1  126.19    6.50
   1  -6   1  124.49    6.30
   1  -6   1  117.59    8.50
  -2   6  -1  740.93   24.70
   2  -6   1  795.32   24.50
   2  -6   1  788.02   26.80
  -3   6  -1   -0.70    2.30
   3  -6   1   -1.00    6.10
   3  -6   1    3.20    3.40
  -4   6  -1   19.00    3.40
   4  -6   1   18.40    5.20
   4  -6   1   26.20    7.00
   6   5  -1    5.30   15.90
   6   5  -1   32.60   11.50
   6   5  -1    2.30   13.50
   6   5  -1    7.20   10.50
   6   5  -1   11.90   13.60
  -6  -5   1    7.00   11.90
  -6  -5   1   12.50    9.40
  -6  -5   1  -17.30   14.40
  -6  -5   1   11.60   16.30
  -6  -5   1   12.90   10.90
   5   5  -1  -18.20    9.80
   5   5  -1    5.80    8.40
   5   5  -1   -3.60    9.20
   5   5  -1   19.40   10.00
   5   5  -1   12.90    9.70
  -5  -5   1   11.70    7.80
  -5  -5   1    9.90    8.50
  -5  -5   1   -1.40    8.40
  -5  -5   1   -3.40    9.80
  -5  -5   1   -5.40   11.70
   4   5  -1 1568.74   50.79
   4   5  -1 1536.65   50.09
   4   5  -1 1523.25   49.99
   4   5  -1 1459.25   50.89
   4   5  -1 1493.35   51.59
  -4  -5   1 1551.44   49.90
  -4  -5   1 1516.75   49.30
  -4  -5   1 1564.64   51.09
  -4  -5   1 1535.55   52.39
  -4  -5   1 1546.55   50.69
   3   5  -1   -3.60    5.00
   3   5  -1    2.10    6.20
   3   5  -1    4.80    4.80
   3   5  -1   -0.10    4.40
   3   5  -1   -7.80    5.00
  -3  -5   1    7.30    4.60
  -3  -5   1    1.50    4.10
  -3  -5   1   -8.50    5.50
  -3  -5   1    1.60    4.60
  -3  -5   1  -11.80    5.90
   2   5  -1   53.89    9.00
   2   5  -1   62.99    7.30
   2   5  -1   55.59    7.00
   2   5  -1   47.20    6.30
  -2  -5   1   48.10    6.40
  -2  -5   1   39.70    5.80
  -2  -5   1   69.09    7.60
  -2  -5   1   52.19    7.10
  -2  -5   1   63.89    8.20
   1   5  -1   -2.10    3.00
   1   5  -1   -4.80    3.40
   1   5  -1    0.90    4.70
   1   5  -1    3.20    1.50
   1   5  -1    2.00    3.90
  -1  -5   1    1.50    3.10
  -1  -5   1    1.80    4.70
  -1  -5   1    2.50    3.60
  -1  -5   1    0.90    2.40
   0   5  -1  232.78    9.10
   0   5  -1  241.28    9.80
   0   5  -1  240.38    9.30
   0  -5   1  261.47   10.60
   0  -5   1  242.48   10.40
   0  -5   1  242.28    8.90
  -1   5  -1   70.99    4.50
   1  -5   1   66.19    5.80
   1  -5   1   75.69    4.30
  -2   5  -1    0.40    1.90
   2  -5   1    1.50    2.00
   2  -5   1    4.90    3.20
  -3   5  -1    1.80    1.80
   3  -5   1   -0.50    3.90
   3  -5   1   -6.40    5.60
   3  -5   1    1.50    2.90
  -4   5  -1  129.99    6.70
   4  -5   1  106.59   15.90
   4  -5   1  138.49   11.40
  -5   5  -1  152.58   15.90
  -5   5  -1  186.58    8.80
   5  -5   1  216.48   24.60
   6   4  -1  217.08   23.30
   6   4  -1  240.28   22.90
   6   4  -1  216.98   20.20
   6   4  -1  223.38   18.30
   6   4  -1  204.58   24.80
  -6  -4   1  226.48   26.30
  -6  -4   1  219.48   18.00
  -6  -4   1  221.98   21.20
  -6  -4   1  170.08   22.80
  -6  -4   1  188.58   19.20
   5   4  -1  430.46   22.00
   5   4  -1  490.65   24.10
   5   4  -1  413.96   23.70
   5   4  -1  431.06   20.90
   5   4  -1  440.06   24.10
  -5  -4   1  433.06   21.20
  -5  -4   1  449.86   20.60
  -5  -4   1  457.05   25.70
  -5  -4   1  425.96   22.50
  -5  -4   1  418.96   23.40
   4   4  -1    4.20    6.60
   4   4  -1   12.10    7.10
   4   4  -1    2.70    6.80
   4   4  -1   13.40    5.70
   4   4  -1    2.60    5.80
  -4  -4   1    9.00    5.60
  -4  -4   1    4.80    7.50
  -4  -4   1   -4.00    6.40
  -4  -4   1    2.90    4.50
  -4  -4   1   13.60    5.90
   3   4  -1  328.27   14.80
   3   4  -1  314.47   15.40
   3   4  -1  321.27   14.70
   3   4  -1  352.96   15.60
   3   4  -1  318.77   16.30
  -3  -4   1  322.17   15.50
  -3  -4   1  326.17   16.20
  -3  -4   1  322.87   14.00
  -3  -4   1  342.97   15.30
  -3  -4   1  333.47   14.70
   2   4  -1   16.30    3.90
   2   4  -1   18.60    4.70
   2   4  -1   20.10    4.10
   2   4  -1   19.10    4.40
   2   4  -1   22.20    4.30
  -2  -4   1   22.90    4.70
  -2  -4   1   15.10    3.30
  -2  -4   1   16.10    3.90
  -2  -4   1   19.60    4.00
  -2  -4   1   21.00    4.90
   1   4  -1  251.07   10.30
   1   4  -1  250.27   10.30
   1   4  -1  255.07   10.70
   1   4  -1  248.18    8.50
   1   4  -1  259.77   11.20
  -1  -4   1  250.27   10.10
  -1  -4   1  256.57   11.30
  -1  -4   1  268.57   10.80
  -1  -4   1  239.68    9.60
   0   4  -1   11.30    2.40
   0   4  -1   11.00    2.20
   0   4  -1   13.20    2.10
   0  -4   1   15.10    2.90
   0  -4   1   13.80    2.30
   0  -4   1   15.20    2.20
   0  -4   1   12.20    1.80
  -1   4  -1  282.77    9.70
   1  -4   1  289.07    9.40
   1  -4   1  273.87   10.80
  -2   4  -1  857.31   26.50
   2  -4   1  888.11   26.60
   2  -4   1  891.91   28.20
  -3   4  -1  112.89    6.90
  -3   4  -1  113.29    5.30
  -3   4  -1  106.99    8.30
   3  -4   1  101.19   10.10
   3  -4   1  119.79    8.20
  -4   4  -1   76.09    4.70
  -4   4  -1   67.89    9.10
  -4   4  -1   59.09    8.00
   4  -4   1   71.79    8.80
   4  -4   1   83.99   11.00
  -5   4  -1  298.37   11.80
  -5   4  -1  317.37   16.90
   6   3  -1  557.64   28.50
   6   3  -1  617.84   27.40
   6   3  -1  695.83   34.10
   6   3  -1  648.34   30.30
   6   3  -1  633.54   31.60
  -6  -3   1  630.64   27.20
  -6  -3   1  604.84   28.40
  -6  -3   1  643.04   28.80
  -6  -3   1  649.43   30.70
  -6  -3   1  719.33   33.80
   5   3  -1   13.70    9.10
   5   3  -1    0.10    8.20
   5   3  -1   -4.00    5.70
   5   3  -1    1.80    7.50
   5   3  -1  -11.50    7.20
  -5  -3   1   -2.00    5.70
  -5  -3   1   -6.90    7.80
  -5  -3   1    4.40    6.50
  -5  -3   1  -11.90    8.70
  -5  -3   1   -0.70    6.90
   4   3  -1  743.93   28.20
   4   3  -1  789.32   29.20
   4   3  -1  776.52   27.40
   4   3  -1  735.93   27.10
   4   3  -1  732.93   28.50
  -4  -3   1  768.82   27.50
  -4  -3   1  766.02   28.20
  -4  -3   1  760.22   27.90
  -4  -3   1  771.52   29.40
  -4  -3   1  768.02   26.80
   3   3  -1  194.88   10.70
   3   3  -1  202.98   11.40
   3   3  -1  214.68   11.60
   3   3  -1  204.58   12.10
   3   3  -1  210.88   10.60
  -3  -3   1  201.38   10.90
  -3  -3   1  209.38   10.20
  -3  -3   1  216.58   11.70
  -3  -3   1  216.78   10.70
  -3  -3   1  197.98   12.10
   2   3  -1  885.91   28.90
   2   3  -1  916.21   29.10
   2   3  -1  883.61   29.60
   2   3  -1  895.71   29.80
   2   3  -1  965.00   29.40
  -2  -3   1  909.81   30.00
  -2  -3   1  931.61   29.00
  -2  -3   1  902.41   28.70
  -2  -3   1  933.61   29.50
  -2  -3   1  903.71   29.40
   1   3  -1   26.40    3.80
   1   3  -1   28.30    4.40
   1   3  -1   25.00    3.40
   1   3  -1   35.00    3.80
  -1  -3   1   34.90    4.50
  -1  -3   1   29.60    4.60
  -1  -3   1   23.80    3.10
  -1  -3   1   29.00    3.80
   0   3  -1  149.09    5.90
   0   3  -1  146.79    6.40
   0   3  -1  167.68    5.80
   0   3  -1  152.28    6.00
   0   3  -1  157.18    5.10
   0  -3   1  145.09    6.30
   0  -3   1  162.48    5.70
   0  -3   1  145.69    5.30
   0  -3   1  152.58    5.90
  -1   3  -1 1286.47   35.70
   1  -3   1 1162.28   36.50
   1  -3   1 1218.68   35.40
  -2   3  -1  360.36   12.80
  -2   3  -1  342.17   11.90
  -2   3  -1  357.46   11.40
   2  -3   1  345.97   13.00
   2  -3   1  347.67   12.70
  -3   3  -1   73.69    6.20
  -3   3  -1   61.79    5.70
  -3   3  -1   63.29    3.60
   3  -3   1   66.09    5.70
   3  -3   1   63.49    8.30
  -4   3  -1  128.99    6.00
  -4   3  -1  135.39    9.30
  -4   3  -1  143.29    9.40
   4  -3   1  136.59   13.70
  -5   3  -1   41.60    8.20
  -5   3  -1   40.00    4.00
  -5   3  -1   37.60    6.70
   5  -3   1   21.40   15.60
   5  -3   1   43.20    6.10
  -6   3  -1    2.50    2.90
  -6   3  -1   -2.30    8.30
  -6   3  -1    0.70    8.00
   6  -3   1   -1.00    4.90
   6  -3   1   17.80   11.00
   6  -3   1   22.40   15.80
   6   2  -1  343.37   23.20
   6   2  -1  345.17   24.90
   6   2  -1  331.47   21.20
   6   2  -1  286.67   20.20
   6   2  -1  300.57   18.40
  -6  -2   1  382.56   25.80
  -6  -2   1  297.87   18.30
  -6  -2   1  298.47   20.00
  -6  -2   1  341.07   22.10
  -6  -2   1  337.87   20.10
   5   2  -1   51.99    9.40
   5   2  -1   37.60    7.70
   5   2  -1   65.79    9.60
   5   2  -1   62.49   11.20
   5   2  -1   34.40   14.30
  -5  -2   1   61.49   13.90
  -5  -2   1   50.49    7.20
  -5  -2   1   45.90    9.20
  -5  -2   1   38.00    9.10
  -5  -2   1   44.50    9.80
   4   2  -1    9.50    4.20
   4   2  -1   16.00    5.60
   4   2  -1   -0.70    4.50
   4   2  -1    4.80    5.70
   4   2  -1   12.50    5.80
  -4  -2   1    4.20    5.30
  -4  -2   1    9.40    4.10
  -4  -2   1   15.20    5.90
  -4  -2   1    8.20    4.70
  -4  -2   1    7.20    4.40
   3   2  -1 1122.79   35.00
   3   2  -1 1084.09   35.00
   3   2  -1 1122.39   35.90
   3   2  -1 1085.09   35.80
   3   2  -1 1092.79   35.80
  -3  -2   1 1083.09   35.60
  -3  -2   1 1115.09   35.60
  -3  -2   1 1079.49   36.20
  -3  -2   1 1148.09   34.90
  -3  -2   1 1104.39   35.30
   2   2  -1 2060.69   60.29
   2   2  -1 1967.00   60.39
   2   2  -1 2083.39   59.99
   2   2  -1 2105.79   60.19
   2   2  -1 1986.90   60.49
  -2  -2   1 2019.70   59.99
  -2  -2   1 2005.10   60.29
  -2  -2   1 2012.60   60.69
  -2  -2   1 2048.79   60.19
  -2  -2   1 2018.00   59.69
   1   2  -1  546.85   18.30
   1   2  -1  574.34   18.10
   1   2  -1  569.94   18.10
   1   2  -1  567.44   18.00
   1   2  -1  579.34   18.50
  -1  -2   1  589.44   18.30
  -1  -2   1  579.34   18.60
  -1  -2   1  556.44   17.80
  -1  -2   1  583.44   18.30
  -1  -2   1  578.44   17.90
   0   2  -1  169.68    5.50
   0   2  -1  160.98    5.70
   0   2  -1  160.78    5.80
   0  -2   1  160.78    5.70
   0  -2   1  163.48    5.60
   0  -2   1  155.48    5.90
   0  -2   1  157.48    6.10
  -1   2  -1   48.20    3.20
  -1   2  -1   53.09    2.40
   1  -2   1   49.30    3.00
  -2   2  -1 1745.83   50.29
  -2   2  -1 1733.83   49.10
  -2   2  -1 1673.23   50.19
   2  -2   1 1702.13   50.29
   2  -2   1 1671.83   50.79
   2  -2   1 1703.43   49.50
   2  -2   1 1729.53   49.00
  -3   2  -1    6.60    2.70
  -3   2  -1    9.00    3.00
  -3   2  -1    5.50    2.40
  -3   2  -1    9.90    2.10
  -3   2  -1    9.80    1.60
   3  -2   1    6.40    3.80
   3  -2   1    7.30    3.20
   3  -2   1    9.60    2.00
  -4   2  -1  368.66   13.90
  -4   2  -1  386.36   13.00
  -4   2  -1  389.66   15.10
  -4   2  -1  392.96   16.40
  -4   2  -1  395.56   14.80
   4  -2   1  410.26   13.80
   4  -2   1  390.66   15.90
   4  -2   1  405.96   18.70
  -5   2  -1  217.98   13.90
  -5   2  -1  192.58   15.80
  -5   2  -1  225.28    8.90
  -5   2  -1  230.48   12.70
  -5   2  -1  200.58   11.10
   5  -2   1  247.48   15.10
   5  -2   1  236.28   10.80
   5  -2   1  230.98   19.50
  -6   2  -1   10.90    2.80
  -6   2  -1    0.90    8.10
  -6   2  -1   17.90    6.30
  -6   2  -1   17.10    7.30
   6  -2   1   19.50    5.60
   6  -2   1   33.10   14.80
   6  -2   1   42.20   10.70
   6   1  -1   70.69    9.40
   6   1  -1   67.49   11.70
   6   1  -1   71.59   13.20
   6   1  -1   65.79   10.50
   6   1  -1   79.29   12.50
  -6  -1   1   61.49   10.20
  -6  -1   1   59.99    8.70
  -6  -1   1   71.49   12.00
  -6  -1   1   71.29   13.70
  -6  -1   1   71.09   10.00
   5   1  -1    3.90    5.90
   5   1  -1   12.70    5.00
   5   1  -1   13.80    7.20
  -5  -1   1    9.30    4.90
  -5  -1   1   12.10    7.70
  -5  -1   1    8.70    6.80
   4   1  -1  499.45   19.20
   4   1  -1  524.95   21.40
   4   1  -1  506.25   19.60
   4   1  -1  512.45   20.60
   4   1  -1  534.35   20.60
  -4  -1   1  535.85   20.40
  -4  -1   1  508.45   20.10
  -4  -1   1  541.25   21.60
  -4  -1   1  524.25   19.10
  -4  -1   1  525.75   20.20
   3   1  -1  151.68    9.00
   3   1  -1  134.69    9.00
   3   1  -1  132.59    8.90
   3   1  -1  148.59    7.90
   3   1  -1  136.39    8.30
  -3  -1   1  133.69    9.90
  -3  -1   1  144.79    8.80
  -3  -1   1  142.99    7.70
  -3  -1   1  151.68    8.20
  -3  -1   1  146.89    8.90
   2   1  -1 1265.17   37.70
   2   1  -1 1276.47   38.10
   2   1  -1 1245.98   37.50
   2   1  -1 1243.78   38.20
   2   1  -1 1214.68   38.10
  -2  -1   1 1219.88   37.80
  -2  -1   1 1284.17   37.50
  -2  -1   1 1300.57   38.00
  -2  -1   1 1246.78   38.30
  -2  -1   1 1216.58   37.90
   1   1  -1 4123.99  113.29
   1   1  -1 3835.92  113.39
   1   1  -1 4003.60  113.19
   1   1  -1 3838.82  113.39
   1   1  -1 3854.31  112.99
  -1  -1   1 3986.10  113.49
  -1  -1   1 4042.70  113.39
  -1  -1   1 4029.00  113.09
  -1  -1   1 4167.78  113.29
  -1  -1   1 3879.91  113.09
   0   1  -1 1164.18   34.60
   0   1  -1 1227.18   34.60
   0   1  -1 1202.88   34.70
   0   1  -1 1288.97   34.50
   0  -1   1 1235.48   34.60
   0  -1   1 1287.37   34.70
   0  -1   1 1194.78   34.70
   0  -1   1 1128.09   34.50
   0  -1   1 1152.68   34.70
  -1   1  -1 2809.62   74.59
  -1   1  -1 2634.94   74.79
  -1   1  -1 2606.64   75.19
  -1   1  -1 2471.55   75.19
  -1   1  -1 2601.44   74.79
  -1   1  -1 2912.81   74.99
  -1   1  -1 2585.34   74.89
   1  -1   1 2635.04   74.69
   1  -1   1 2597.54   75.29
   1  -1   1 2479.85   75.29
   1  -1   1 2602.74   74.79
   1  -1   1 2646.44   74.79
  -2   1  -1  129.29    5.40
  -2   1  -1  123.39    5.20
  -2   1  -1  119.49    6.00
  -2   1  -1  117.09    5.50
  -2   1  -1  129.89    4.40
  -2   1  -1  122.09    5.60
   2  -1   1  116.69    6.50
   2  -1   1  109.89    5.90
   2  -1   1  122.49    5.40
   2  -1   1  120.89    5.50
   2  -1   1  127.39    5.00
  -3   1  -1   40.50    5.20
  -3   1  -1   30.00    4.40
  -3   1  -1   40.10    4.10
  -3   1  -1   43.00    5.20
  -3   1  -1   34.40    5.10
  -3   1  -1   39.20    2.60
   3  -1   1   43.30    4.50
   3  -1   1   40.00    5.80
   3  -1   1   25.20    3.80
   3  -1   1   38.60    6.40
  -4   1  -1  626.74   19.50
  -4   1  -1  627.24   21.50
  -4   1  -1  610.74   21.10
  -4   1  -1  613.54   22.80
  -4   1  -1  639.54   22.30
  -4   1  -1  648.34   22.60
   4  -1   1  627.64   22.40
   4  -1   1  656.83   21.80
   4  -1   1  622.04   20.90
   4  -1   1  602.64   22.90
   4  -1   1  610.74   24.50
  -5   1  -1   68.39    7.70
  -5   1  -1   59.59    8.70
  -5   1  -1   67.19   10.50
  -5   1  -1   61.29    8.70
  -5   1  -1   57.89    4.40
  -5   1  -1   58.49    9.40
   5  -1   1   59.59    9.10
   5  -1   1   65.39   11.10
   5  -1   1   56.89    7.60
   5  -1   1   52.49    7.10
   5  -1   1   79.79   12.40
  -6   1  -1  375.46   17.90
  -6   1  -1  326.27   20.40
  -6   1  -1  330.47   12.90
  -6   1  -1  324.97   20.80
  -6   1  -1  329.07   18.00
  -6   1  -1  359.66   20.40
   6  -1   1  372.36   26.70
   6  -1   1  290.97   20.20
   6  -1   1  349.87   16.00
   6  -1   1  312.27   22.80
   6  -1   1  378.06   18.10
   6   0  -1   -8.70   10.50
   6   0  -1   -1.80    8.40
   6   0  -1   22.80   10.40
  -6   0   1   12.60    7.40
  -6   0   1   15.00    8.50
  -6   0   1    4.90   10.80
  -6   0   1    5.40    3.00
  -6   0   1    7.80    8.60
  -6   0   1    9.90    7.40
  -6   0   1   -1.40    6.40
   5   0  -1   43.60   14.30
   5   0  -1   63.69    9.20
   5   0  -1   54.69    8.00
   5   0  -1   84.69   10.20
  -5   0   1   69.39   10.80
  -5   0   1   67.89    4.60
  -5   0   1   56.89    8.30
  -5   0   1   62.09    9.80
  -5   0   1   51.79    7.50
   4   0  -1  938.91   31.90
   4   0  -1  933.51   31.20
   4   0  -1  957.80   33.30
   4   0  -1  948.81   30.60
   4   0  -1  942.91   31.70
  -4   0   1  937.71   31.90
  -4   0   1  973.30   30.80
  -4   0   1  908.21   29.70
  -4   0   1  999.00   32.50
  -4   0   1  956.00   31.40
  -4   0   1  950.10   31.60
   3   0  -1   11.70    3.70
   3   0  -1    3.70    3.50
   3   0  -1    5.50    3.50
   3   0  -1    3.80    2.50
   3   0  -1   -4.40    3.00
  -3   0   1   -3.80    3.50
  -3   0   1   10.70    3.10
  -3   0   1    9.10    2.90
  -3   0   1    4.50    3.90
  -3   0   1    1.80    2.60
   2   0  -1  737.03   24.30
   2   0  -1  770.62   23.50
   2   0  -1  751.32   23.90
   2   0  -1  753.02   23.60
   2   0  -1  766.52   23.90
  -2   0   1  760.72   24.20
  -2   0   1  806.92   23.50
  -2   0   1  751.82   24.00
  -2   0   1  766.12   23.80
  -2   0   1  771.22   23.80
   1   0  -1  352.96   11.30
   1   0  -1  332.47   11.10
   1   0  -1  348.57   11.10
   1   0  -1  366.66   10.90
   1   0  -1  356.86   11.00
  -1   0   1  342.57   11.00
  -1   0   1  348.27   11.10
  -1   0   1  352.86   11.20
  -1   0   1  355.36   10.80
  -1   0  -1  460.65   13.90
  -1   0  -1  476.95   13.00
  -1   0  -1  419.96   14.20
  -1   0  -1  471.75   13.70
   1   0   1  457.65   13.60
   1   0   1  431.46   14.30
   1   0   1  449.36   13.80
   1   0   1  427.46   13.90
   1   0   1  447.36   13.70
  -2   0  -1  827.32   24.50
  -2   0  -1  763.42   24.80
  -2   0  -1  844.02   25.00
  -2   0  -1  821.72   24.50
  -2   0  -1  784.22   25.30
   2   0   1  781.22   24.50
   2   0   1  775.42   24.90
   2   0   1  787.62   25.50
  -3   0  -1  869.91   28.20
  -3   0  -1  892.21   28.20
  -3   0  -1  836.22   28.40
  -3   0  -1  864.81   27.40
  -3   0  -1  903.21   27.50
  -3   0  -1  874.31   25.70
   3   0   1  857.01   28.20
   3   0   1  862.71   29.10
   3   0   1  825.52   27.60
  -4   0  -1   56.09    6.00
  -4   0  -1   67.69    7.70
  -4   0  -1   55.49    9.10
  -4   0  -1   69.69    3.90
  -4   0  -1   63.99    7.70
  -4   0  -1   65.99    6.60
  -4   0  -1   62.89    7.40
   4   0   1   52.69    6.40
   4   0   1   59.09    7.40
   4   0   1   58.29    7.90
   4   0   1   72.79    9.40
  -5   0  -1  308.67   16.00
  -5   0  -1  304.97   17.10
  -5   0  -1  306.27   11.20
  -5   0  -1  313.67   16.50
  -5   0  -1  289.37   17.70
  -5   0  -1  298.57   13.70
   5   0   1  296.47   18.80
   5   0   1  314.37   20.20
   5   0   1  311.87   16.40
   5   0   1  304.27   18.40
  -6   0  -1   25.50    8.80
  -6   0  -1   25.30    6.90
  -6   0  -1   26.90    9.20
  -6   0  -1   23.40    7.90
  -6   0  -1   30.10    9.10
  -6   0  -1   27.50    4.00
  -6   0  -1   21.20   10.40
   6   0   1   50.89   12.80
   6   0   1   29.90    8.00
   6   0   1   25.80    6.80
   6   0   1    6.60   10.70
   6   0   1   28.00    9.80
   6  -1  -1  180.18   13.00
   6  -1  -1  193.08   19.50
   6  -1  -1  206.88   22.60
   6  -1  -1  196.88   15.90
  -6   1   1  232.28   16.90
  -6   1   1  195.88   14.90
  -6   1   1  185.78   15.90
  -6   1   1  195.88   13.70
  -6   1   1  180.68    8.90
  -6   1   1  196.58   13.70
  -6   1   1  200.38   19.30
   5  -1  -1   32.00    7.20
   5  -1  -1   44.30   13.40
  -5   1   1   31.80    7.20
  -5   1   1   29.70    3.40
  -5   1   1   34.80    5.50
  -5   1   1   21.60    6.50
  -5   1   1   29.20    7.80
  -5   1   1   33.20    5.50
   4  -1  -1  181.88   10.80
   4  -1  -1  198.78   12.90
   4  -1  -1  174.28    8.90
   4  -1  -1  160.38   11.10
  -4   1   1  168.98   10.20
  -4   1   1  169.28   10.10
  -4   1   1  180.18    7.10
  -4   1   1  179.48    8.50
  -4   1   1  171.38    9.00
  -4   1   1  173.98   11.20
  -4   1   1  172.48    9.40
   3  -1  -1   81.59    5.20
   3  -1  -1   88.39    7.30
   3  -1  -1   76.49    6.20
   3  -1  -1   89.49    6.10
  -3   1   1   73.79    5.10
  -3   1   1   96.59    7.10
  -3   1   1   81.29    5.60
  -3   1   1   87.49    4.00
  -3   1   1   83.29    5.90
  -3   1   1   89.39    4.90
   2  -1  -1 1717.03   50.89
   2  -1  -1 1748.13   49.70
   2  -1  -1 1705.53   49.80
  -2   1   1 1679.03   49.60
  -2   1   1 1760.32   49.70
  -2   1   1 1704.93   49.80
  -2   1   1 1693.53   50.49
   1  -1  -1 1868.31   54.09
   1  -1  -1 1774.12   53.59
  -1   1   1 1883.21   53.99
  -1   1   1 1874.31   53.69
  -1   1   1 1999.50   53.39
   0  -1  -1  475.15   14.00
   0  -1  -1  453.95   14.10
   0   1   1  464.15   14.10
   0   1   1  432.46   13.90
   0   1   1  525.35   13.80
  -1  -1  -1   10.70    1.70
  -1  -1  -1    8.20    1.60
  -1  -1  -1    9.40    1.90
  -1  -1  -1    8.40    1.80
  -1  -1  -1    9.20    1.50
   1   1   1    9.80    1.60
   1   1   1    8.70    1.50
   1   1   1    9.40    1.60
   1   1   1    9.50    1.90
   1   1   1    9.60    1.80
  -2  -1  -1  967.80   30.50
  -2  -1  -1  953.30   30.60
  -2  -1  -1  983.90   30.50
  -2  -1  -1 1016.50   30.20
  -2  -1  -1  975.10   29.90
   2   1   1  980.40   30.30
   2   1   1  994.20   29.90
   2   1   1  990.20   30.90
   2   1   1  954.00   30.50
   2   1   1  989.80   30.10
  -3  -1  -1 1424.16   44.10
  -3  -1  -1 1469.05   44.40
  -3  -1  -1 1513.95   45.30
  -3  -1  -1 1435.86   45.20
  -3  -1  -1 1419.96   44.90
   3   1   1 1426.46   45.60
   3   1   1 1467.55   44.70
   3   1   1 1475.95   44.00
   3   1   1 1418.86   45.00
   3   1   1 1431.26   44.40
  -4  -1  -1  162.48   10.90
  -4  -1  -1  176.28    9.90
  -4  -1  -1  167.08   10.80
  -4  -1  -1  177.88   11.10
  -4  -1  -1  189.98   12.20
   4   1   1  182.18    9.60
   4   1   1  166.38   12.00
   4   1   1  172.48   10.50
   4   1   1  173.58   12.40
  -5  -1  -1   -8.40    9.10
  -5  -1  -1    1.10    4.70
  -5  -1  -1   -2.90    6.10
  -5  -1  -1    4.80    7.40
  -5  -1  -1    0.20    5.90
   5   1   1    0.10    7.50
   5   1   1    4.70    6.60
   5   1   1    1.90   10.00
  -6  -1  -1   14.90    7.90
  -6  -1  -1    7.60    7.30
  -6  -1  -1   13.60   10.90
  -6  -1  -1   -1.60    8.80
  -6  -1  -1    7.40    2.90
  -6  -1  -1    7.50    8.20
  -6  -1  -1    9.60    6.40
   6   1   1    1.10    8.80
   6   1   1   20.90    8.00
   6   1   1    1.40   10.60
   6   1   1    5.20    6.70
   6   1   1   15.90   13.20
   6  -2  -1   40.00   14.40
   6  -2  -1   38.60    7.10
   6  -2  -1   51.49   10.60
  -6   2   1   44.00    8.90
  -6   2   1   30.00    3.90
  -6   2   1   29.80    7.60
  -6   2   1   36.30    7.40
  -6   2   1   55.49    8.40
   5  -2  -1    4.10    4.30
   5  -2  -1    1.60    9.80
   5  -2  -1   20.30    6.70
  -5   2   1    7.70    9.40
  -5   2   1   11.30    4.90
  -5   2   1   -2.50    4.50
  -5   2   1    3.40    2.10
  -5   2   1    1.80    4.50
   4  -2  -1  115.19    8.70
   4  -2  -1  101.79    6.50
   4  -2  -1  109.69   11.20
  -4   2   1   95.29    7.90
  -4   2   1   96.19    6.80
  -4   2   1   95.89    6.90
  -4   2   1   93.49    4.90
  -4   2   1   95.89    6.70
   3  -2  -1   -1.80    3.40
  -3   2   1    6.20    2.40
  -3   2   1    2.30    1.20
  -3   2   1    1.00    2.30
   2  -2  -1   16.40    2.50
   2  -2  -1   16.60    3.20
  -2   2   1   18.20    2.90
  -2   2   1   15.70    1.70
  -2   2   1   18.70    2.90
   1  -2  -1 2180.38   63.39
   1  -2  -1 2215.98   63.69
   1  -2  -1 2133.99   63.69
  -1   2   1 2340.27   63.19
   0  -2  -1 2996.00   85.99
   0  -2  -1 2836.72   85.89
   0   2   1 3020.50   85.89
   0   2   1 3261.97   85.79
  -1  -2  -1  407.66   13.60
  -1  -2  -1  393.86   13.70
  -1  -2  -1  415.96   13.60
  -1  -2  -1  407.06   13.40
  -1  -2  -1  403.76   13.20
   1   2   1  404.46   13.60
   1   2   1  419.06   13.40
   1   2   1  385.26   13.70
   1   2   1  407.26   13.20
  -2  -2  -1   86.89    5.40
  -2  -2  -1  103.39    6.20
  -2  -2  -1   94.49    6.70
  -2  -2  -1   93.79    6.10
  -2  -2  -1   98.89    6.10
   2   2   1   99.89    6.60
   2   2   1   94.19    5.50
   2   2   1   97.89    6.50
   2   2   1   94.49    6.30
   2   2   1  103.99    6.10
  -3  -2  -1  450.55   17.60
  -3  -2  -1  439.96   17.50
  -3  -2  -1  445.56   16.50
  -3  -2  -1  449.06   17.20
  -3  -2  -1  469.95   18.00
   3   2   1  440.36   17.00
   3   2   1  445.76   17.50
   3   2   1  477.95   18.20
   3   2   1  445.56   17.80
   3   2   1  454.05   16.50
  -4  -2  -1  193.88   13.10
  -4  -2  -1  173.98   11.50
  -4  -2  -1  179.78   11.80
  -4  -2  -1  187.08   10.50
  -4  -2  -1  194.08   12.10
   4   2   1  176.28   12.90
   4   2   1  196.78   13.10
   4   2   1  179.08   10.20
   4   2   1  189.48   11.50
   4   2   1  184.88   11.60
  -5  -2  -1   55.79    7.50
  -5  -2  -1   55.39   10.40
  -5  -2  -1   54.99    8.80
   5   2   1   61.79    7.60
   5   2   1   55.99    9.60
   5   2   1   62.19   15.40
   5   2   1   53.39    8.50
  -6  -2  -1   66.29   12.50
  -6  -2  -1   37.50    9.00
  -6  -2  -1   43.80    9.80
  -6  -2  -1   41.30    9.10
  -6  -2  -1   48.90   10.50
   6   2   1   22.30    9.60
   6   2   1   44.00   12.10
   6   2   1   47.80   12.90
   6  -3  -1  637.34   35.90
   6  -3  -1  635.64   22.40
  -6   3   1  604.44   21.30
  -6   3   1  652.73   25.90
  -6   3   1  618.74   26.60
   5  -3  -1   74.09   11.50
  -5   3   1   73.59   10.10
  -5   3   1   57.39    4.80
   4  -3  -1   16.30    6.60
  -4   3   1    8.80    2.20
  -4   3   1   21.60    4.40
  -4   3   1   13.70    4.40
   3  -3  -1  980.50   31.30
   3  -3  -1 1027.70   33.10
  -3   3   1 1024.70   31.60
  -3   3   1 1010.40   31.50
  -3   3   1  994.50   30.10
   2  -3  -1   19.10    3.60
   2  -3  -1   22.20    3.30
  -2   3   1   20.60    2.10
  -2   3   1   19.80    3.00
   1  -3  -1   24.80    2.20
   1  -3  -1   22.00    2.70
   1  -3  -1   26.30    2.90
  -1   3   1   24.30    1.90
   0  -3  -1   17.40    2.00
   0   3   1   16.40    1.70
   0   3   1   13.20    1.80
  -1  -3  -1   43.30    4.20
  -1  -3  -1   52.29    5.00
  -1  -3  -1   46.10    3.70
  -1  -3  -1   53.19    4.10
  -1  -3  -1   43.60    4.50
   1   3   1   44.30    4.00
   1   3   1   43.60    4.70
   1   3   1   41.60    4.20
   1   3   1   42.60    4.70
  -2  -3  -1  360.26   14.00
  -2  -3  -1  365.16   14.60
  -2  -3  -1  356.06   14.10
  -2  -3  -1  378.56   14.20
  -2  -3  -1  360.26   13.40
   2   3   1  354.66   13.70
   2   3   1  355.26   13.50
   2   3   1  358.06   14.30
   2   3   1  347.57   14.20
  -3  -3  -1  270.77   12.20
  -3  -3  -1  293.37   13.20
  -3  -3  -1  279.07   13.90
  -3  -3  -1  278.37   12.70
  -3  -3  -1  266.67   12.90
   3   3   1  269.97   13.40
   3   3   1  261.77   12.50
   3   3   1  282.87   13.60
   3   3   1  261.17   11.90
   3   3   1  282.17   13.50
  -4  -3  -1  127.19   10.70
  -4  -3  -1  122.49    9.70
  -4  -3  -1  142.89   12.40
  -4  -3  -1  115.29   11.00
  -4  -3  -1  124.39   10.40
   4   3   1  130.79   11.70
   4   3   1  103.79    9.00
   4   3   1  121.09   11.70
   4   3   1  122.59   10.60
   4   3   1  146.09   12.50
  -5  -3  -1  355.26   19.20
  -5  -3  -1  358.76   19.30
  -5  -3  -1  345.67   17.70
  -5  -3  -1  358.66   18.60
  -5  -3  -1  413.76   21.70
   5   3   1  352.86   19.30
   5   3   1  316.87   18.60
   5   3   1  361.16   20.80
   5   3   1  340.47   20.30
   5   3   1  326.97   16.80
  -6  -3  -1  346.17   20.40
  -6  -3  -1  299.77   19.40
  -6  -3  -1  326.77   22.30
  -6  -3  -1  313.57   24.90
  -6  -3  -1  295.67   21.10
   6   3   1  344.47   26.00
   6   3   1  279.27   20.40
   6   3   1  296.67   23.70
   5  -4  -1   13.60   10.90
  -5   4   1   -5.00    6.70
  -5   4   1    0.90    2.20
   4  -4  -1   87.39   13.00
   4  -4  -1   70.39    8.10
  -4   4   1   67.59    9.00
  -4   4   1   70.29    4.70
   3  -4  -1   15.90    5.10
   3  -4  -1   19.40    3.90
  -3   4   1   16.30    2.30
   2  -4  -1   10.70    3.50
   2  -4  -1    8.30    2.30
   2  -4  -1    3.50    2.30
  -2   4   1    6.70    1.50
   1  -4  -1  329.87   12.30
   1  -4  -1  344.17   11.50
   1  -4  -1  341.17   11.40
  -1   4   1  338.47   11.10
   0  -4  -1 2728.83   80.19
   0   4   1 2787.22   79.89
   0   4   1 2862.21   80.09
  -1  -4  -1  235.18    9.70
  -1  -4  -1  247.88   10.00
  -1  -4  -1  255.87   11.00
  -1  -4  -1  246.28   10.40
  -1  -4  -1  252.47   10.50
   1   4   1  254.47   10.80
   1   4   1  232.28   10.10
   1   4   1  250.17    8.90
   1   4   1  253.27   10.70
  -2  -4  -1   71.89    7.10
  -2  -4  -1   66.29    6.10
  -2  -4  -1   74.19    7.90
  -2  -4  -1   73.29    6.80
  -2  -4  -1   73.29    7.10
   2   4   1   58.79    6.40
   2   4   1   71.29    7.80
   2   4   1   75.19    7.40
   2   4   1   61.19    6.20
  -3  -4  -1  239.78   13.20
  -3  -4  -1  241.68   14.00
  -3  -4  -1  239.58   12.00
  -3  -4  -1  255.07   12.30
  -3  -4  -1  243.88   12.80
   3   4   1  245.08   12.10
   3   4   1  241.38   13.20
   3   4   1  249.88   13.60
   3   4   1  222.18   12.40
  -4  -4  -1  331.27   17.60
  -4  -4  -1  321.27   15.90
  -4  -4  -1  330.17   16.90
  -4  -4  -1  347.67   18.40
  -4  -4  -1  329.47   16.70
   4   4   1  344.97   17.60
   4   4   1  333.37   17.90
   4   4   1  325.37   17.60
   4   4   1  328.17   16.70
   4   4   1  322.67   15.40
  -5  -4  -1  241.98   18.00
  -5  -4  -1  278.17   17.30
  -5  -4  -1  260.77   19.00
  -5  -4  -1  231.18   16.00
   5   4   1  226.98   16.80
   5   4   1  260.47   19.00
   5   4   1  261.27   20.10
   5   4   1  264.27   18.20
   5   4   1  236.58   15.40
  -6  -4  -1    6.20   13.90
  -6  -4  -1  -13.50   12.30
  -6  -4  -1   -0.30    9.30
  -6  -4  -1   16.00   11.80
  -6  -4  -1   14.00    9.60
   6   4   1  -13.60    9.80
   6   4   1   11.10    9.80
   6   4   1   25.50   12.50
   6   4   1   -1.50   14.00
   5  -5  -1   14.00    5.80
   5  -5  -1   21.00   14.10
  -5   5   1   20.70    3.70
   4  -5  -1   32.20    5.90
   4  -5  -1   40.90    9.70
   4  -5  -1   16.90    4.20
  -4   5   1   13.90    2.80
   3  -5  -1    2.70    2.70
   3  -5  -1    1.60    3.60
   3  -5  -1   -0.10    5.50
  -3   5   1    3.40    2.10
   2  -5  -1  183.08    8.10
   2  -5  -1  195.08    9.90
   2  -5  -1  183.18    9.20
  -2   5   1  179.18    7.40
   1  -5  -1   59.89    4.30
   1  -5  -1   61.09    5.50
  -1   5   1   53.79    3.80
   0  -5  -1  936.11   29.30
   0   5   1  953.90   29.20
   0   5   1 1001.70   29.00
  -1  -5  -1 1303.87   40.90
  -1  -5  -1 1333.97   41.00
  -1  -5  -1 1305.17   40.80
  -1  -5  -1 1337.17   40.40
  -1  -5  -1 1360.76   41.60
   1   5   1 1348.57   40.70
   1   5   1 1353.86   41.30
   1   5   1 1310.17   39.40
   1   5   1 1246.28   40.70
   1   5   1 1422.86   41.70
  -2  -5  -1  344.77   14.10
  -2  -5  -1  368.56   15.20
  -2  -5  -1  340.27   15.10
  -2  -5  -1  357.66   14.90
  -2  -5  -1  347.07   16.00
   2   5   1  369.86   16.10
   2   5   1  345.07   14.30
   2   5   1  343.97   15.30
   2   5   1  334.37   14.50
  -3  -5  -1   11.30    5.40
  -3  -5  -1    5.90    6.00
  -3  -5  -1   -2.20    5.30
  -3  -5  -1    6.50    4.40
  -3  -5  -1   -1.90    3.90
   3   5   1    4.80    5.40
   3   5   1    2.30    6.10
   3   5   1   -0.10    4.30
   3   5   1   -0.30    5.00
  -4  -5  -1  238.48   15.30
  -4  -5  -1  246.38   16.80
  -4  -5  -1  232.88   16.00
  -4  -5  -1  219.78   14.30
  -4  -5  -1  252.87   20.20
   4   5   1  250.87   16.80
   4   5   1  217.48   14.90
   4   5   1  222.08   14.20
   4   5   1  248.38   16.80
  -5  -5  -1    2.30    7.50
  -5  -5  -1   20.70    9.70
  -5  -5  -1   10.90    8.30
  -5  -5  -1   46.10   12.70
  -5  -5  -1   13.40    9.80
   5   5   1    9.70    9.70
   5   5   1   -5.30   11.60
   5   5   1   12.60    9.80
   5   5   1    9.80    8.20
   5   5   1   23.20   10.00
  -6  -5  -1   31.10   12.90
  -6  -5  -1   46.40   11.30
  -6  -5  -1   34.50   11.40
  -6  -5  -1   35.10   14.80
  -6  -5  -1   42.60   17.20
   6   5   1   26.60   11.80
   6   5   1   42.70   11.50
   6   5   1   45.30   14.40
   6   5   1   35.40   14.30
   6   5   1   43.50   14.80
   4  -6  -1   26.90    6.90
   4  -6  -1   53.29   11.50
   4  -6  -1   24.60    5.50
  -4   6   1   16.30    3.20
   3  -6  -1   -4.40    6.70
   3  -6  -1   -6.60    5.00
   3  -6  -1    1.80    3.80
  -3   6   1    2.60    2.10
   2  -6  -1  233.68    9.80
  -2   6   1  218.18    9.30
   1  -6  -1   22.60    3.50
   1  -6  -1   22.40    3.90
  -1   6   1   18.70    2.90
   0   6   1  344.47   12.80
   0   6   1  366.96   12.50
  -1  -6  -1  311.47   15.20
  -1  -6  -1  321.97   14.40
  -1  -6  -1  331.07   12.90
   1   6   1  321.27   14.30
   1   6   1  311.97   13.20
   1   6   1  330.37   11.60
   1   6   1  362.06   14.90
   1   6   1  330.97   13.40
  -2  -6  -1  457.55   18.00
  -2  -6  -1  466.15   20.30
  -2  -6  -1  488.15   18.90
  -2  -6  -1  462.85   19.10
  -2  -6  -1  459.85   19.20
   2   6   1  489.75   18.50
   2   6   1  456.35   19.50
   2   6   1  466.05   18.40
   2   6   1  459.05   16.30
   2   6   1  482.75   20.00
  -3  -6  -1   -9.40    7.80
  -3  -6  -1   -4.90    5.30
  -3  -6  -1    5.30    5.40
  -3  -6  -1    8.30    6.40
  -3  -6  -1   -1.50    7.60
   3   6   1    1.10    7.20
   3   6   1   -0.10    6.40
   3   6   1   -2.10    5.60
  -4  -6  -1   13.70    9.70
  -4  -6  -1    4.00    7.50
  -4  -6  -1   -5.70    8.20
  -4  -6  -1   -9.70    6.70
  -4  -6  -1   -1.20    6.30
   4   6   1  -10.20    7.20
   4   6   1   -0.90    8.60
   4   6   1    0.10    6.20
   4   6   1   -4.00    8.30
  -5  -6  -1   17.00    9.40
  -5  -6  -1   14.30   11.50
  -5  -6  -1   45.00   14.20
  -5  -6  -1    5.60    8.30
  -5  -6  -1   26.60   11.00
   5   6   1  -12.60    9.50
   5   6   1    2.80    9.00
   5   6   1   18.60   11.40
   5   6   1   14.00   10.90
   3  -7  -1   18.60    5.00
   3  -7  -1   -9.10    6.30
  -3   7   1    6.20    3.20
   2  -7  -1   -3.10    5.40
   2  -7  -1   13.80    4.20
  -2   7   1    4.10    2.50
   1  -7  -1  237.38   10.70
   1  -7  -1  227.18   12.00
  -1   7   1  232.68   10.10
   0   7   1  177.78    8.70
  -1  -7  -1   74.69   12.10
  -1  -7  -1   55.19    7.50
  -1  -7  -1   66.49    7.40
   1   7   1   63.69    5.30
   1   7   1   66.89    7.80
   1   7   1   64.69    7.80
  -2  -7  -1   10.70    6.10
  -2  -7  -1   -6.40    8.10
  -2  -7  -1   -3.50    4.60
  -2  -7  -1   10.30    6.20
  -2  -7  -1   -5.70    6.60
   2   7   1   -0.90    5.80
   2   7   1    7.40    3.30
   2   7   1    2.40    7.00
   2   7   1  -12.50    6.30
   2   7   1    2.60    5.20
  -3  -7  -1   78.19   11.40
  -3  -7  -1   61.89    8.20
  -3  -7  -1   54.69    8.90
  -3  -7  -1   69.49    9.90
  -3  -7  -1   93.39   13.40
   3   7   1   84.19   12.20
   3   7   1   58.09    8.30
   3   7   1   55.59   10.20
   3   7   1   81.59    8.20
   3   7   1   68.59   11.10
  -4  -7  -1   97.39   15.90
  -4  -7  -1   82.89   14.30
  -4  -7  -1  135.99   18.80
  -4  -7  -1   88.29   10.50
  -4  -7  -1   81.99   12.60
   4   7   1  107.79   18.10
   4   7   1   88.69   12.50
   4   7   1  110.39   15.00
   4   7   1   67.69   10.00
  -5  -7  -1   67.59   13.80
  -5  -7  -1   77.89   13.20
  -5  -7  -1   61.69   11.70
  -5  -7  -1   96.49   17.30
  -5  -7  -1   68.69   15.30
   5   7   1   58.79   12.20
   5   7   1   85.09   16.20
   5   7   1   55.59   12.80
   5   7   1   53.19   14.60
   2  -8  -1  316.97   17.20
   2  -8  -1  298.97   17.10
  -2   8   1  339.27   13.60
   1  -8  -1   63.89    8.70
  -1   8   1   67.59    6.50
   0  -8  -1  176.28   12.90
  -1  -8  -1  311.77   14.30
  -1  -8  -1  338.97   17.10
   1   8   1  335.37   12.60
   1   8   1  346.77   14.90
   1   8   1  269.07   14.10
  -2  -8  -1   40.10    8.30
  -2  -8  -1   42.10    7.80
  -2  -8  -1   34.00    9.10
  -2  -8  -1   54.59   11.40
   2   8   1   54.19    8.30
   2   8   1   43.60   10.30
   2   8   1   42.70    9.30
   2   8   1   48.40    5.50
   2   8   1   75.79   10.70
  -3  -8  -1   48.70   11.90
  -3  -8  -1   28.30    7.80
  -3  -8  -1   21.40   10.90
  -3  -8  -1   22.40    8.90
  -3  -8  -1   44.40   10.10
   3   8   1   36.20   12.00
   3   8   1   54.79    6.80
   3   8   1   18.20   10.20
   3   8   1   38.20    8.90
   3   8   1   38.40    9.30
  -4  -8  -1   19.90   10.90
  -4  -8  -1   50.49   15.20
  -4  -8  -1   29.80   16.00
  -4  -8  -1   17.70   13.10
  -4  -8  -1   -6.80    9.40
   4   8   1   33.60    7.70
   4   8   1    6.10   10.20
   4   8   1   -8.00   12.10
   4   8   1    8.60   11.50
   0  -9  -1    7.80    7.10
  -1  -9  -1   19.30    9.70
  -1  -9  -1   23.80    6.40
   3   8  -2   31.70   10.70
   3   8  -2   58.49   11.50
   3   8  -2   48.30   13.90
   3   8  -2   31.40   10.00
  -3  -8   2   56.19   12.20
  -3  -8   2   51.19    9.90
  -3  -8   2   37.20   14.10
  -3  -8   2   31.00    7.70
   2   8  -2   16.90    7.10
   2   8  -2    2.90   11.00
   2   8  -2    7.90    7.90
   2   8  -2    2.20    8.90
  -2  -8   2  -18.90    8.90
  -2  -8   2   -2.40    5.50
  -2  -8   2   -7.20   10.20
  -2  -8   2    5.40    7.00
   1   8  -2    4.00    6.90
   1   8  -2    7.40    5.10
   1   8  -2    7.60    6.80
   1   8  -2    9.90    9.80
  -1  -8   2   10.10    4.60
  -1  -8   2   19.90    6.50
  -1  -8   2   17.10    8.30
   0  -8   2   26.20    6.10
   0  -8   2   43.80    8.60
   0  -8   2   29.60    4.40
  -1   8  -2   27.00    5.10
   1  -8   2   23.70    6.90
   2  -8   2   16.80    7.60
   4   7  -2   60.39   13.70
   4   7  -2   58.49   11.10
   4   7  -2   47.40   11.00
   4   7  -2   73.99   11.60
  -4  -7   2   46.70    8.40
  -4  -7   2   51.29   12.60
  -4  -7   2   45.90   10.80
  -4  -7   2   59.09    9.40
  -4  -7   2   64.09   12.80
   3   7  -2   33.40    9.10
   3   7  -2   51.09    8.50
   3   7  -2   64.69    7.30
   3   7  -2   47.30    8.80
   3   7  -2   51.09   11.40
  -3  -7   2   37.40   10.00
  -3  -7   2   38.70    7.10
  -3  -7   2   47.50    8.80
  -3  -7   2   40.70   10.50
  -3  -7   2   41.20    7.20
   2   7  -2  632.64   24.40
   2   7  -2  600.04   23.30
   2   7  -2  628.54   24.80
   2   7  -2  648.54   27.10
  -2  -7   2  614.04   23.90
  -2  -7   2  631.94   25.40
  -2  -7   2  596.24   22.40
  -2  -7   2  627.74   26.80
   1   7  -2  460.25   20.30
   1   7  -2  454.85   18.10
   1   7  -2  400.96   16.50
   1   7  -2  438.96   17.80
  -1  -7   2  460.85   20.90
  -1  -7   2  425.16   18.60
  -1  -7   2  396.46   16.90
  -1  -7   2  386.96   16.40
   0   7  -2  243.38   10.00
   0   7  -2  246.28   12.30
   0  -7   2  264.27   13.70
   0  -7   2  246.08   12.70
   0  -7   2  245.28   10.10
  -1   7  -2  661.03   22.90
   1  -7   2  691.13   24.70
  -2   7  -2  210.48   10.20
   2  -7   2  228.18   10.10
   2  -7   2  224.08   13.50
  -3   7  -2    0.20    3.00
   3  -7   2   -8.50    6.50
   3  -7   2    2.00    4.70
   5   6  -2   44.30   11.80
   5   6  -2   39.50   11.60
   5   6  -2   51.79   10.90
   5   6  -2   54.29   13.30
   5   6  -2   74.39   14.20
  -5  -6   2   32.70    9.30
  -5  -6   2   56.59   13.50
  -5  -6   2   48.80   11.80
  -5  -6   2   35.70   10.50
  -5  -6   2   53.79   14.60
   4   6  -2   42.50    9.70
   4   6  -2   44.80   11.70
   4   6  -2   65.29    9.70
   4   6  -2   63.39    9.50
  -4  -6   2   75.79   11.70
  -4  -6   2   67.19    9.20
  -4  -6   2   66.89   10.50
  -4  -6   2   55.79   11.70
  -4  -6   2   51.29    8.10
   3   6  -2    1.90    6.30
   3   6  -2    8.10    6.50
   3   6  -2   10.70    8.40
   3   6  -2   -2.30    6.20
  -3  -6   2    1.60    6.30
  -3  -6   2    3.90    7.90
  -3  -6   2    5.90    8.80
  -3  -6   2    3.50    4.90
  -3  -6   2   10.80    5.50
   2   6  -2  116.39   12.30
   2   6  -2  125.99   10.60
   2   6  -2  100.39    9.20
   2   6  -2  115.29   10.30
  -2  -6   2  124.09   11.00
  -2  -6   2  113.49   10.30
  -2  -6   2  103.49    8.20
  -2  -6   2  112.89   12.50
   1   6  -2  237.68   11.20
   1   6  -2  274.17   14.30
   1   6  -2  271.37   12.60
  -1  -6   2  260.87   14.60
  -1  -6   2  244.78   10.70
  -1  -6   2  266.87   13.30
  -1  -6   2  246.08   11.70
   0   6  -2  319.17   12.30
   0   6  -2  320.47   13.00
   0   6  -2  311.37   11.70
   0  -6   2  330.67   13.90
   0  -6   2  312.17   13.30
   0  -6   2  317.07   11.50
  -1   6  -2    0.50    2.40
   1  -6   2    3.10    2.40
  -2   6  -2   18.30    3.50
   2  -6   2   16.80    4.80
   2  -6   2   23.00    3.60
  -3   6  -2   36.70    4.50
   3  -6   2   35.20    6.50
   3  -6   2   41.70    4.90
  -4   6  -2  241.78   10.80
   4  -6   2  252.87   16.10
   4  -6   2  254.47   12.10
   6   5  -2  -14.00   13.30
   6   5  -2   10.70   11.70
   6   5  -2   30.70   16.00
   6   5  -2    7.00   12.50
   6   5  -2   41.70   15.90
  -6  -5   2   29.40   13.10
  -6  -5   2   19.00   14.80
  -6  -5   2   10.30   10.10
  -6  -5   2   13.70   11.40
  -6  -5   2   12.30   17.50
   5   5  -2   30.50   11.70
   5   5  -2   -3.90    9.70
   5   5  -2   32.40    8.60
   5   5  -2    9.90   10.60
  -5  -5   2   15.80   11.80
  -5  -5   2   17.60    8.30
  -5  -5   2   11.10   10.40
  -5  -5   2    9.40    7.10
  -5  -5   2   27.60    9.40
   4   5  -2   13.30    9.00
   4   5  -2    5.10    7.80
   4   5  -2    4.50    6.60
   4   5  -2    9.10    8.20
   4   5  -2    5.30    7.20
  -4  -5   2   15.80    7.00
  -4  -5   2    4.20    6.00
  -4  -5   2    0.50    5.10
  -4  -5   2    1.50    8.50
  -4  -5   2   -1.30    8.20
   3   5  -2  686.13   26.50
   3   5  -2  689.53   27.90
   3   5  -2  687.63   26.10
   3   5  -2  730.13   26.20
   3   5  -2  719.33   26.10
  -3  -5   2  694.93   27.80
  -3  -5   2  711.23   25.10
  -3  -5   2  734.43   25.20
  -3  -5   2  766.02   27.40
  -3  -5   2  724.83   26.40
   2   5  -2  466.95   19.40
   2   5  -2  459.05   17.70
   2   5  -2  466.35   18.30
   2   5  -2  475.05   18.10
  -2  -5   2  463.55   16.60
  -2  -5   2  456.75   16.80
  -2  -5   2  446.06   17.70
  -2  -5   2  447.76   18.50
  -2  -5   2  465.55   19.70
   1   5  -2  236.48   10.80
   1   5  -2  223.08   10.10
   1   5  -2  227.48   12.00
   1   5  -2  228.78   10.80
  -1  -5   2  246.68   11.50
  -1  -5   2  240.98   12.30
  -1  -5   2  232.78    9.60
  -1  -5   2  224.48   10.40
   0   5  -2   26.30    3.20
   0   5  -2   27.60    3.20
   0   5  -2   22.50    4.50
   0   5  -2   22.80    3.70
   0  -5   2   30.30    3.20
   0  -5   2   24.70    3.60
   0  -5   2   27.00    4.10
   0  -5   2   24.10    4.30
  -1   5  -2  310.77   11.30
   1  -5   2  319.67   12.90
   1  -5   2  318.67   10.60
  -2   5  -2    0.90    1.90
   2  -5   2    6.40    3.50
   2  -5   2    0.20    2.00
  -3   5  -2    6.30    2.20
   3  -5   2   11.10    3.40
   3  -5   2    3.80    4.70
  -4   5  -2   84.19    9.50
  -4   5  -2   84.69    5.50
   4  -5   2  118.99   16.30
   4  -5   2   84.99   10.40
  -5   5  -2   60.19   10.90
  -5   5  -2   63.59    5.80
   6   4  -2    2.60   10.10
   6   4  -2  -23.90   12.30
   6   4  -2   32.10   12.60
   6   4  -2   -5.30   14.10
   6   4  -2   29.10   10.90
  -6  -4   2   10.90   13.40
  -6  -4   2   -9.20    9.70
  -6  -4   2   12.20   15.70
  -6  -4   2   -2.70    8.60
  -6  -4   2    9.80   11.40
   5   4  -2   52.79   11.40
   5   4  -2   33.70   10.40
   5   4  -2   46.40    9.10
   5   4  -2   22.10   10.30
   5   4  -2   52.09    8.90
  -5  -4   2   47.50    9.20
  -5  -4   2   35.40    8.40
  -5  -4   2   28.90    7.50
  -5  -4   2   21.20   10.40
  -5  -4   2   42.40   11.20
   4   4  -2   29.80    7.70
   4   4  -2   35.10    8.30
   4   4  -2   26.90    6.70
   4   4  -2   30.10    6.40
   4   4  -2   19.10    7.00
  -4  -4   2   28.40    5.60
  -4  -4   2    9.00    8.10
  -4  -4   2   36.50    6.70
  -4  -4   2   19.70    7.50
  -4  -4   2   30.00    6.60
   3   4  -2  104.99   10.70
   3   4  -2   97.89    9.00
   3   4  -2  130.59   10.10
   3   4  -2   96.89    9.80
   3   4  -2  101.79    9.10
  -3  -4   2  104.09   10.00
  -3  -4   2  105.79    8.00
  -3  -4   2  112.09    9.30
  -3  -4   2  110.89    8.40
  -3  -4   2  106.89   11.00
   2   4  -2 1168.38   35.40
   2   4  -2 1097.19   35.50
   2   4  -2 1139.09   36.70
   2   4  -2 1122.29   35.50
   2   4  -2 1107.89   36.00
  -2  -4   2 1159.78   36.20
  -2  -4   2 1125.19   34.70
  -2  -4   2 1094.79   36.60
  -2  -4   2 1110.99   34.90
  -2  -4   2 1098.99   35.60
   1   4  -2 2936.71   85.99
   1   4  -2 2967.00   86.09
   1   4  -2 2918.71   85.69
   1   4  -2 2937.91   86.69
  -1  -4   2 2968.60   86.79
  -1  -4   2 2931.91   85.79
  -1  -4   2 2946.01   85.29
  -1  -4   2 2993.20   86.29
   0   4  -2   27.10    3.80
   0   4  -2   29.50    3.00
   0   4  -2   21.30    3.50
   0   4  -2   28.60    3.30
   0   4  -2   24.70    2.90
   0  -4   2   31.20    5.10
   0  -4   2   27.60    3.90
   0  -4   2   27.00    3.50
   0  -4   2   31.30    3.20
   0  -4   2   26.60    3.30
  -1   4  -2  287.77   10.10
   1  -4   2  282.57   11.20
   1  -4   2  307.87    9.60
   1  -4   2  284.27    9.40
   1  -4   2  291.87   10.40
  -2   4  -2   11.20    1.90
  -2   4  -2   10.70    3.30
   2  -4   2   10.20    3.20
  -3   4  -2   20.70    4.60
  -3   4  -2   25.00    2.90
   3  -4   2   25.60    4.40
   3  -4   2   27.80    6.20
  -4   4  -2   53.09    4.20
  -4   4  -2   59.39    7.80
  -4   4  -2   67.09    7.90
   4  -4   2   57.39    8.60
   4  -4   2   59.19   10.10
  -5   4  -2    3.50    6.40
  -5   4  -2   13.10    7.20
  -5   4  -2    5.50    2.60
   5  -4   2    1.80   16.80
   6   3  -2  172.08   23.30
   6   3  -2  164.68   18.30
   6   3  -2  166.38   20.70
   6   3  -2  138.49   16.00
   6   3  -2  155.68   21.20
  -6  -3   2  206.18   25.20
  -6  -3   2  143.59   17.30
  -6  -3   2  172.98   17.60
  -6  -3   2  146.59   21.10
  -6  -3   2  123.89   15.30
   5   3  -2  106.29   12.90
   5   3  -2  129.99   12.50
   5   3  -2  104.89   14.90
   5   3  -2  101.09   12.90
   5   3  -2  120.69   14.80
  -5  -3   2  106.99   14.50
  -5  -3   2  101.29   16.80
  -5  -3   2  108.79   11.20
  -5  -3   2  111.29   12.70
  -5  -3   2   91.59   11.90
   4   3  -2  610.34   24.50
   4   3  -2  590.34   24.60
   4   3  -2  611.64   23.00
   4   3  -2  587.14   23.90
   4   3  -2  596.04   22.80
  -4  -3   2  591.34   22.90
  -4  -3   2  584.04   24.00
  -4  -3   2  597.94   22.20
  -4  -3   2  601.34   25.30
  -4  -3   2  635.64   23.70
   3   3  -2   -5.70    3.90
   3   3  -2    2.80    3.60
   3   3  -2   -3.30    3.40
   3   3  -2   -2.50    3.70
   3   3  -2    0.70    4.30
  -3  -3   2   -0.80    3.40
  -3  -3   2    5.00    3.40
  -3  -3   2    5.10    4.20
  -3  -3   2    1.00    4.60
  -3  -3   2    2.80    3.00
   2   3  -2  481.25   17.20
   2   3  -2  489.15   17.10
   2   3  -2  490.35   18.00
   2   3  -2  458.15   17.50
   2   3  -2  478.45   17.20
  -2  -3   2  478.25   16.60
  -2  -3   2  490.55   18.20
  -2  -3   2  487.75   17.40
  -2  -3   2  473.65   16.60
  -2  -3   2  502.15   17.70
   1   3  -2 3521.35  104.39
   1   3  -2 3536.95  103.99
   1   3  -2 3630.34  103.79
   1   3  -2 3581.54  103.79
  -1  -3   2 3597.54  103.89
  -1  -3   2 3777.22  104.19
  -1  -3   2 3649.03  104.59
  -1  -3   2 3562.04  103.39
   0   3  -2 1275.77   37.70
   0   3  -2 1260.57   37.80
   0   3  -2 1315.97   37.80
   0  -3   2 1276.07   38.30
   0  -3   2 1304.97   38.40
   0  -3   2 1303.07   38.10
   0  -3   2 1279.57   37.80
  -1   3  -2   82.39    3.80
  -1   3  -2   82.39    3.50
  -1   3  -2   81.99    3.80
   1  -3   2   71.99    4.70
   1  -3   2   85.49    4.20
   1  -3   2   88.19    3.70
  -2   3  -2   48.20    4.60
  -2   3  -2   49.10    3.00
   2  -3   2   49.20    3.90
   2  -3   2   41.00    5.60
   2  -3   2   39.50    4.20
   2  -3   2   51.59    3.20
  -3   3  -2  141.89    7.80
  -3   3  -2  142.29    5.90
  -3   3  -2  154.68    7.10
  -3   3  -2  160.58    8.50
   3  -3   2  147.19    8.00
   3  -3   2  128.89   10.20
   3  -3   2  146.09    6.10
  -4   3  -2    5.70    4.30
  -4   3  -2    6.50    4.40
  -4   3  -2    0.80    3.80
  -4   3  -2    8.10    2.10
   4  -3   2    5.20    2.50
   4  -3   2    4.20    7.20
   4  -3   2   -1.30    5.20
  -5   3  -2  356.26   16.90
  -5   3  -2  337.27   12.60
  -5   3  -2  356.36   17.10
   5  -3   2  322.67   23.70
   5  -3   2  350.86   18.30
   5  -3   2  360.96   13.30
  -6   3  -2   83.69   11.40
  -6   3  -2   71.89    5.70
  -6   3  -2   75.49   10.60
  -6   3  -2   60.39    8.40
  -6   3  -2   57.79    9.60
   6  -3   2   82.69    9.10
   6  -3   2   70.19   13.20
   6   2  -2   64.39   14.00
   6   2  -2   80.19   10.60
   6   2  -2   84.19   12.70
   6   2  -2   88.29   12.00
   6   2  -2   73.99   12.80
  -6  -2   2  129.69   21.90
  -6  -2   2   82.59   14.10
  -6  -2   2   63.49   12.90
  -6  -2   2  116.19   14.80
  -6  -2   2   93.49   13.40
   5   2  -2   24.10    7.80
   5   2  -2   -6.10    8.10
   5   2  -2    7.50    6.80
   5   2  -2    5.80    5.70
   5   2  -2    8.80    7.10
  -5  -2   2    6.50    6.30
  -5  -2   2   -3.20    7.90
  -5  -2   2    6.50    7.80
  -5  -2   2   10.20    5.30
  -5  -2   2   11.60    6.20
   4   2  -2   82.09   10.50
   4   2  -2   79.89    8.40
   4   2  -2   65.09    8.70
   4   2  -2   98.99   10.50
   4   2  -2   83.79   10.30
  -4  -2   2   76.49    8.30
  -4  -2   2   70.09   11.40
  -4  -2   2   88.09    7.80
  -4  -2   2   81.69    9.10
  -4  -2   2   80.59   10.20
   3   2  -2   96.09    7.30
   3   2  -2  104.09    7.50
   3   2  -2  101.89    8.10
   3   2  -2  111.89    8.40
   3   2  -2  102.09    8.30
  -3  -2   2  103.89    8.40
  -3  -2   2  100.19    7.60
  -3  -2   2  106.59    7.00
  -3  -2   2   97.89    9.10
  -3  -2   2  103.29    7.20
   2   2  -2  277.97   11.60
   2   2  -2  287.17   11.20
   2   2  -2  286.67   11.20
   2   2  -2  278.47   11.70
   2   2  -2  292.27   11.50
  -2  -2   2  301.97   11.80
  -2  -2   2  290.07   12.10
  -2  -2   2  285.37   11.50
  -2  -2   2  293.47   10.80
  -2  -2   2  288.47   10.90
   1   2  -2  143.49    6.10
   1   2  -2  154.48    6.70
   1   2  -2  141.89    6.70
   1   2  -2  148.29    6.30
   1   2  -2  149.69    6.30
  -1  -2   2  151.58    7.00
  -1  -2   2  144.59    6.40
  -1  -2   2  144.09    5.90
  -1  -2   2  146.89    5.70
  -1  -2   2  149.59    6.60
   0   2  -2    1.10    1.10
   0   2  -2    4.00    1.30
   0   2  -2    4.10    1.20
   0   2  -2    5.20    1.20
   0   2  -2    2.90    1.40
   0  -2   2    4.20    1.10
   0  -2   2    4.50    1.40
   0  -2   2    3.20    1.50
   0  -2   2    4.00    1.20
   0  -2   2    3.10    1.20
  -1   2  -2   42.00    2.10
  -1   2  -2   40.40    2.10
  -1   2  -2   37.10    2.50
  -1   2  -2   37.00    3.10
  -1   2  -2   39.10    2.10
   1  -2   2   37.10    2.90
   1  -2   2   39.50    2.30
   1  -2   2   41.20    2.50
  -2   2  -2 2993.40   83.79
  -2   2  -2 2837.52   84.79
  -2   2  -2 3037.70   83.79
  -2   2  -2 2987.20   85.09
  -2   2  -2 2917.11   84.19
   2  -2   2 2829.42   84.99
   2  -2   2 2960.20   85.49
   2  -2   2 2985.10   84.29
   2  -2   2 2907.61   83.69
  -3   2  -2  121.19    4.90
  -3   2  -2  114.59    6.80
  -3   2  -2  125.39    6.40
  -3   2  -2  113.79    5.40
  -3   2  -2  119.49    6.30
  -3   2  -2  114.09    7.20
   3  -2   2  126.89    5.40
   3  -2   2  122.09    7.20
   3  -2   2  111.89    9.10
   3  -2   2  101.49    7.80
  -4   2  -2   61.09    8.10
  -4   2  -2   71.39    7.10
  -4   2  -2   56.59    6.60
  -4   2  -2   65.59    3.90
  -4   2  -2   60.49    5.50
  -4   2  -2   66.99    7.10
  -4   2  -2   62.79    8.30
   4  -2   2   52.59    6.30
   4  -2   2   70.49    5.30
   4  -2   2   60.89    9.30
   4  -2   2   68.09   11.10
   4  -2   2   68.09    8.60
  -5   2  -2 1154.78   36.60
  -5   2  -2 1111.59   36.80
  -5   2  -2 1061.49   35.10
  -5   2  -2 1124.29   38.60
  -5   2  -2 1199.58   36.80
  -5   2  -2 1131.49   34.20
   5  -2   2 1078.99   37.60
   5  -2   2 1143.39   35.10
   5  -2   2 1064.19   35.80
   5  -2   2 1143.09   42.10
  -6   2  -2   27.70    6.70
  -6   2  -2   29.50    8.30
  -6   2  -2   32.70    3.80
  -6   2  -2   25.50    7.70
  -6   2  -2   30.70    9.20
  -6   2  -2   37.60    9.20
   6  -2   2   63.29   15.80
   6  -2   2   25.40    7.90
   6  -2   2   46.50    6.60
   6  -2   2   12.80   10.90
   6   1  -2    8.80    8.60
   6   1  -2  -10.80    6.80
   6   1  -2    3.80    9.60
   6   1  -2    7.60   10.60
   6   1  -2  -13.50   10.90
  -6  -1   2    8.60   10.00
  -6  -1   2    7.10    5.80
  -6  -1   2    3.20    7.00
  -6  -1   2   21.70   12.30
  -6  -1   2    6.10    7.30
  -6  -1   2   11.50    8.60
   5   1  -2   30.00    5.90
   5   1  -2   38.90    7.90
   5   1  -2   40.80   13.40
   5   1  -2   28.10    6.80
   5   1  -2   25.50   10.60
  -5  -1   2   23.20    9.00
  -5  -1   2   33.80    9.40
  -5  -1   2   33.90    7.40
  -5  -1   2   33.40    6.70
   4   1  -2  523.95   20.30
   4   1  -2  519.45   20.90
   4   1  -2  550.04   20.00
   4   1  -2  552.84   21.40
   4   1  -2  543.15   22.10
  -4  -1   2  546.55   20.60
  -4  -1   2  546.75   19.60
  -4  -1   2  532.75   21.00
  -4  -1   2  535.65   20.60
  -4  -1   2  550.54   22.20
   3   1  -2   -2.40    2.50
   3   1  -2   -4.20    3.30
   3   1  -2   -5.10    2.90
   3   1  -2   -0.10    3.20
   3   1  -2   -4.60    2.80
  -3  -1   2   -1.50    3.20
  -3  -1   2    0.10    2.50
  -3  -1   2    0.80    2.40
  -3  -1   2   -2.40    3.00
   2   1  -2  103.69    6.10
   2   1  -2  102.49    6.20
   2   1  -2  105.89    5.70
   2   1  -2  103.79    6.10
   2   1  -2   99.89    5.50
  -2  -1   2  100.79    6.50
  -2  -1   2   99.49    5.80
  -2  -1   2  112.79    6.20
  -2  -1   2  106.19    5.30
  -2  -1   2  106.79    5.70
   1   1  -2 4337.77  117.89
   1   1  -2 4096.99  118.09
   1   1  -2 4038.70  117.89
   1   1  -2 4108.79  117.69
   1   1  -2 4092.99  117.69
  -1  -1   2 4122.99  117.59
  -1  -1   2 4106.49  118.19
  -1  -1   2 4051.69  117.49
  -1  -1   2 4040.20  117.79
  -1  -1   2 4382.16  117.99
   0  -1   2 4206.38  121.19
   0  -1   2 4354.06  121.19
  -1   1  -2  158.78    5.70
  -1   1  -2  145.39    6.10
  -1   1  -2  173.48    5.20
  -1   1  -2  174.08    5.70
  -1   1  -2  152.88    5.40
  -1   1  -2  167.18    6.00
   1  -1   2  163.68    5.90
   1  -1   2  160.88    5.60
   1  -1   2  138.49    6.30
   1  -1   2  165.48    5.60
   1  -1   2  166.58    5.40
  -2   1  -2    0.10    1.40
  -2   1  -2    1.10    1.20
  -2   1  -2    0.50    1.80
  -2   1  -2    1.30    1.60
  -2   1  -2    0.80    0.80
  -2   1  -2   -1.00    2.00
   2  -1   2    1.40    2.40
   2  -1   2   -1.20    1.30
   2  -1   2   -0.40    1.10
   2  -1   2    2.80    2.20
   2  -1   2    1.80    1.70
  -3   1  -2  608.54   19.90
  -3   1  -2  601.74   18.20
  -3   1  -2  603.24   20.50
  -3   1  -2  593.84   21.00
  -3   1  -2  621.84   20.10
  -3   1  -2  580.84   19.70
   3  -1   2  598.34   22.00
   3  -1   2  622.14   19.20
   3  -1   2  620.24   19.80
   3  -1   2  611.64   20.10
   3  -1   2  557.84   20.40
  -4   1  -2    9.60    3.80
  -4   1  -2    3.50    4.10
  -4   1  -2    3.20    4.30
  -4   1  -2    6.10    3.90
  -4   1  -2    6.00    4.50
  -4   1  -2    3.80    1.50
  -4   1  -2    0.00    3.10
   4  -1   2    6.00    3.80
   4  -1   2    9.70    4.70
   4  -1   2    6.20    3.00
   4  -1   2   13.20    6.50
   4  -1   2    4.50    5.00
  -5   1  -2  249.78   14.90
  -5   1  -2  228.38   12.90
  -5   1  -2  238.38   14.80
  -5   1  -2  241.18    9.30
  -5   1  -2  230.08   13.70
  -5   1  -2  226.28   13.00
   5  -1   2  259.67   15.00
   5  -1   2  239.78   15.10
   5  -1   2  267.87   19.10
   5  -1   2  230.08   11.50
   5  -1   2  245.78   16.50
  -6   1  -2    3.60    9.30
  -6   1  -2   -0.20    8.20
  -6   1  -2   10.50    8.80
  -6   1  -2   11.50    7.00
  -6   1  -2    6.40    2.70
  -6   1  -2   10.80    7.80
  -6   1  -2    6.60    8.80
   6  -1   2   18.90   14.00
   6  -1   2   11.30   12.10
   6  -1   2   21.90    9.40
   6  -1   2   14.40    7.10
   6  -1   2    7.50    5.30
   6   0  -2    1.10    6.70
   6   0  -2  -10.20   11.10
   6   0  -2   -0.70    8.50
   6   0  -2    2.60   10.30
   6   0  -2    0.90   10.30
  -6   0   2    6.60    8.40
  -6   0   2   -0.40    6.90
  -6   0   2    2.50    2.80
  -6   0   2    6.10    6.60
  -6   0   2  -15.20    8.70
  -6   0   2    4.60   11.20
  -6   0   2    3.70    5.40
   5   0  -2  104.79   13.40
   5   0  -2  113.59   11.60
   5   0  -2  121.89   17.00
   5   0  -2  113.49   14.90
   5   0  -2  112.29   11.60
  -5   0   2  120.09   16.60
  -5   0   2  103.59    8.10
  -5   0   2  111.79   12.10
  -5   0   2  110.69   13.00
  -5   0   2  107.49   11.60
  -5   0   2  123.29   14.50
   4   0  -2  502.85   20.40
   4   0  -2  491.65   19.40
   4   0  -2  473.95   18.80
   4   0  -2  472.45   18.40
   4   0  -2  479.05   17.90
  -4   0   2  462.95   16.40
  -4   0   2  516.65   20.10
  -4   0   2  483.65   18.60
  -4   0   2  469.35   18.90
  -4   0   2  497.35   18.50
  -4   0   2  452.95   17.40
   3   0  -2  407.86   15.20
   3   0  -2  426.26   16.10
   3   0  -2  410.66   15.60
   3   0  -2  434.36   15.10
   3   0  -2  429.46   16.50
  -3   0   2  434.86   15.70
  -3   0   2  423.96   15.90
  -3   0   2  428.56   15.50
  -3   0   2  416.96   16.50
  -3   0   2  428.56   14.80
   2   0  -2    8.20    2.00
   2   0  -2    5.30    2.40
   2   0  -2    9.00    2.40
   2   0  -2    7.40    2.50
   2   0  -2    8.00    1.90
  -2   0   2    5.60    2.20
  -2   0   2    5.90    1.70
  -2   0   2    7.00    2.60
  -2   0   2    9.80    2.10
  -2   0   2    8.40    2.10
   1   0  -2 1786.42   49.99
   1   0  -2 1714.43   50.29
   1   0  -2 1705.23   50.09
   1   0  -2 1763.92   50.09
   1   0  -2 1746.33   49.90
  -1   0   2 1781.62   50.09
  -1   0   2 1757.42   50.29
  -1   0   2 1655.73   49.70
  -1   0   2 1749.82   50.19
  -1   0   2 1727.83   49.99
   0   0  -2  120.09    4.10
   0   0  -2  111.19    3.90
   0   0  -2  113.59    4.00
   0   0  -2  133.09    4.00
   0   0  -2  108.49    3.90
   0   0   2  106.09    3.90
   0   0   2  121.59    4.10
   0   0   2  123.29    4.00
   0   0   2  119.89    4.10
  -1   0  -2 2752.22   78.49
  -1   0  -2 2673.23   78.99
  -1   0  -2 2686.43   78.19
  -1   0  -2 2849.81   78.29
  -1   0  -2 2792.12   77.49
  -1   0  -2 2754.92   78.49
   1   0   2 2711.23   78.39
   1   0   2 2791.72   78.39
   1   0   2 2715.33   78.59
   1   0   2 2740.03   78.09
  -2   0  -2  301.27   11.70
  -2   0  -2  300.67   11.20
  -2   0  -2  318.27   10.70
  -2   0  -2  323.77    9.40
  -2   0  -2  298.67   10.60
  -2   0  -2  305.87   11.20
   2   0   2  321.27   10.50
   2   0   2  293.27   11.30
   2   0   2  297.57   10.90
   2   0   2  306.27   11.00
   2   0   2  294.27   12.00
  -3   0  -2  895.11   29.10
  -3   0  -2  913.31   28.70
  -3   0  -2  925.61   28.50
  -3   0  -2  882.71   29.20
  -3   0  -2  956.90   26.80
  -3   0  -2  890.81   29.80
   3   0   2  916.71   28.10
   3   0   2  879.31   28.80
   3   0   2  903.31   30.40
   3   0   2  880.11   29.30
   3   0   2  901.21   28.70
  -4   0  -2  112.19    9.20
  -4   0  -2  115.79    7.60
  -4   0  -2  111.29    5.10
  -4   0  -2  111.79    8.50
  -4   0  -2  102.59    9.60
  -4   0  -2  114.99    7.90
  -4   0  -2  113.19    9.20
   4   0   2  113.59   10.30
   4   0   2  121.49   11.70
   4   0   2  100.59    9.00
   4   0   2  117.09    8.60
   4   0   2  112.39    7.30
  -5   0  -2  191.18   14.00
  -5   0  -2  171.48   10.70
  -5   0  -2  170.48   12.50
  -5   0  -2  173.78    7.50
  -5   0  -2  177.38   13.50
   5   0   2  187.48   17.80
   5   0   2  150.68   13.50
   5   0   2  191.48   15.40
  -6   0  -2   27.00    9.80
  -6   0  -2   19.00    7.20
  -6   0  -2   18.00    8.70
  -6   0  -2   35.00    8.10
  -6   0  -2   22.10    3.30
  -6   0  -2   30.80   10.80
  -6   0  -2   28.20    9.30
   6   0   2   36.90   12.30
   6   0   2   26.70    6.70
   6   0   2   30.70   11.70
   6   0   2   32.70   10.40
   6  -1  -2   49.40   11.60
   6  -1  -2   59.19   13.00
   6  -1  -2   97.09   15.70
  -6   1   2   44.80    7.60
  -6   1   2   72.39    9.90
  -6   1   2   73.59   13.40
  -6   1   2   60.19    5.40
  -6   1   2   50.89    9.20
  -6   1   2   90.29   14.80
   5  -1  -2  -10.10    7.30
   5  -1  -2    0.90    6.50
   5  -1  -2    5.10    6.80
   5  -1  -2   -5.80    4.30
   5  -1  -2    2.80    8.20
  -5   1   2   -2.10    2.30
  -5   1   2   -5.70    7.10
  -5   1   2    1.60    5.20
  -5   1   2    7.90    6.00
  -5   1   2    6.00    3.90
  -5   1   2    5.60    5.40
  -5   1   2   -0.60    4.30
   4  -1  -2  219.48   11.40
   4  -1  -2  215.88   13.10
   4  -1  -2  207.88   12.00
   4  -1  -2  220.98   10.10
  -4   1   2  200.78   10.70
  -4   1   2  213.58    9.30
  -4   1   2  230.68   12.60
  -4   1   2  198.48    8.10
  -4   1   2  210.08    9.70
  -4   1   2  216.28   11.00
  -4   1   2  208.78   10.90
   3  -1  -2  199.28   10.10
   3  -1  -2  187.88    8.70
   3  -1  -2  189.68    9.20
   3  -1  -2  195.58    8.30
  -3   1   2  189.58    8.80
  -3   1   2  189.48    7.70
  -3   1   2  192.38    7.90
  -3   1   2  199.38    8.70
  -3   1   2  182.18    8.80
  -3   1   2  200.28    9.90
  -3   1   2  200.78    7.20
   2  -1  -2    5.60    2.40
   2  -1  -2    1.50    2.00
   2  -1  -2    4.30    1.60
  -2   1   2    1.90    1.40
  -2   1   2    4.70    1.10
  -2   1   2    6.10    1.70
  -2   1   2    0.70    2.00
   1  -1  -2  389.76   12.30
   1  -1  -2  419.46   13.10
  -1   1   2  424.66   12.20
   0  -1  -2  595.34   18.10
   0  -1  -2  604.04   17.90
   0  -1  -2  632.14   17.90
   0  -1  -2  547.35   17.90
   0  -1  -2  629.14   17.80
   0   1   2  631.14   17.90
   0   1   2  635.54   18.00
   0   1   2  641.84   17.50
   0   1   2  583.64   18.00
   0   1   2  632.34   17.90
  -1  -1  -2  697.93   22.50
  -1  -1  -2  728.73   22.30
  -1  -1  -2  737.03   22.00
   1   1   2  739.03   22.10
   1   1   2  735.13   22.20
   1   1   2  741.83   21.90
   1   1   2  713.13   22.40
  -2  -1  -2   89.09    4.90
  -2  -1  -2   77.39    5.80
  -2  -1  -2   82.79    5.40
  -2  -1  -2   86.39    5.30
  -2  -1  -2   82.49    5.70
   2   1   2   82.99    5.20
   2   1   2   79.19    5.20
   2   1   2   79.89    5.50
   2   1   2   83.29    4.60
   2   1   2   80.29    6.20
  -3  -1  -2 2293.27   67.99
  -3  -1  -2 2206.08   67.19
  -3  -1  -2 2279.47   68.59
  -3  -1  -2 2322.47   67.19
  -3  -1  -2 2284.07   67.89
   3   1   2 2196.38   67.99
   3   1   2 2273.97   68.79
   3   1   2 2280.57   67.39
  -4  -1  -2  125.39    9.70
  -4  -1  -2  113.59    9.60
  -4  -1  -2  119.99   10.60
  -4  -1  -2  112.19    9.80
  -4  -1  -2  113.49    8.50
   4   1   2  129.39   11.40
   4   1   2  108.49    9.10
   4   1   2  114.49    7.90
   4   1   2  132.99   10.60
   4   1   2  138.89    9.60
  -5  -1  -2   29.00    6.30
  -5  -1  -2   22.60    8.30
  -5  -1  -2   23.10    7.00
  -5  -1  -2   32.20    3.50
   5   1   2   21.60    8.60
   5   1   2   25.10    7.60
   5   1   2   31.10    5.70
  -6  -1  -2   20.00    8.50
  -6  -1  -2    4.40    8.70
  -6  -1  -2   -7.00   10.60
  -6  -1  -2   -2.30    8.60
  -6  -1  -2    1.80    7.30
  -6  -1  -2   11.60    3.50
  -6  -1  -2   16.00    6.90
   6   1   2   12.00   10.20
   6   1   2   22.10   12.30
   6   1   2   21.60   10.80
   6   1   2   18.50    6.70
   6   1   2   18.80    7.90
   6  -2  -2    6.00   12.30
   6  -2  -2   14.10    6.30
   6  -2  -2   -4.90    9.30
  -6   2   2    4.50    3.20
  -6   2   2    8.50    7.10
  -6   2   2   -7.50    6.10
  -6   2   2   12.90    7.70
  -6   2   2    6.60    7.20
   5  -2  -2  454.65   22.80
   5  -2  -2  400.76   18.00
   5  -2  -2  417.16   16.20
  -5   2   2  402.76   14.50
  -5   2   2  431.76   16.60
  -5   2   2  393.16   15.90
  -5   2   2  397.16   16.90
  -5   2   2  408.86   18.10
   4  -2  -2   43.50    5.40
   4  -2  -2   53.59    7.80
  -4   2   2   47.50    5.90
  -4   2   2   51.09    6.80
  -4   2   2   46.00    3.60
   3  -2  -2   -2.40    3.50
  -3   2   2    1.20    1.20
  -3   2   2    0.90    2.30
  -3   2   2    0.90    2.20
   2  -2  -2  288.97   10.20
   2  -2  -2  296.87   11.50
  -2   2   2  305.97    9.70
  -2   2   2  307.57   10.90
  -2   2   2  303.37   10.30
   1  -2  -2  451.65   14.70
   1  -2  -2  479.15   15.00
  -1   2   2  499.85   14.20
   0  -2  -2 6522.15  182.98
   0   2   2 6447.16  183.28
  -1  -2  -2  424.86   14.60
  -1  -2  -2  442.66   14.20
  -1  -2  -2  435.16   14.70
  -1  -2  -2  452.05   14.40
   1   2   2  437.56   14.80
   1   2   2  450.95   14.50
  -2  -2  -2    4.60    2.40
  -2  -2  -2    7.20    2.80
  -2  -2  -2    7.60    3.00
  -2  -2  -2    6.50    2.90
  -2  -2  -2    3.40    2.40
   2   2   2    5.70    2.20
   2   2   2   10.90    3.10
   2   2   2    8.60    2.70
   2   2   2   10.30    2.80
   2   2   2    7.70    3.20
  -3  -2  -2 1114.79   36.50
  -3  -2  -2 1113.19   36.60
  -3  -2  -2 1127.49   35.60
  -3  -2  -2 1175.68   36.00
  -3  -2  -2 1139.49   36.70
   3   2   2 1107.69   35.20
   3   2   2 1124.49   36.20
   3   2   2 1128.49   35.90
   3   2   2 1149.58   37.10
   3   2   2 1087.49   36.50
  -4  -2  -2    9.50    4.30
  -4  -2  -2   10.70    4.70
  -4  -2  -2    3.90    5.00
  -4  -2  -2   -2.70    5.50
  -4  -2  -2    4.70    4.50
   4   2   2   10.70    5.40
   4   2   2    1.30    4.70
   4   2   2   13.90    6.10
  -5  -2  -2   79.59   11.60
  -5  -2  -2   96.89   12.10
  -5  -2  -2   91.49   12.40
  -5  -2  -2   59.59    8.10
  -5  -2  -2   76.49   12.20
   5   2   2  106.59   15.10
   5   2   2   83.89   11.20
   5   2   2   94.19   12.10
  -6  -2  -2   42.60   10.80
  -6  -2  -2   52.49    9.00
  -6  -2  -2   47.70    9.90
  -6  -2  -2   51.99   10.30
  -6  -2  -2   58.69   12.70
   6   2   2   39.60   10.40
   6   2   2   56.59   13.50
   6   2   2   47.50   13.20
   6   2   2   51.19   10.20
   6   2   2   29.40    7.60
   6  -3  -2  196.28   24.90
  -6   3   2  132.19    7.70
  -6   3   2  149.09   14.90
  -6   3   2  140.29   15.80
   5  -3  -2  136.89   16.70
  -5   3   2   84.69    5.50
  -5   3   2   91.09    9.80
  -5   3   2   96.29   10.70
   4  -3  -2    5.90    6.10
  -4   3   2    6.90    4.10
  -4   3   2    8.80    2.10
  -4   3   2    9.20    4.00
   3  -3  -2  640.94   21.50
   3  -3  -2  676.23   23.60
  -3   3   2  639.24   20.30
  -3   3   2  681.93   21.70
   2  -3  -2  161.08    8.10
   2  -3  -2  162.88    6.70
   2  -3  -2  163.38    7.00
  -2   3   2  169.88    6.10
   1  -3  -2   74.69    4.10
   1  -3  -2   75.59    3.70
  -1   3   2   75.69    3.30
   0  -3  -2  106.29    4.70
   0   3   2  111.09    4.10
   0   3   2  106.29    4.50
  -1  -3  -2 3536.65   99.49
  -1  -3  -2 3456.95   99.79
  -1  -3  -2 3391.26   99.79
  -1  -3  -2 3441.56   99.29
   1   3   2 3539.65   99.69
   1   3   2 3485.75   99.49
   1   3   2 3388.26   99.09
   1   3   2 3408.36   98.89
   1   3   2 3458.75   99.89
  -2  -3  -2 1992.60   60.89
  -2  -3  -2 2024.20   60.19
  -2  -3  -2 2055.09   61.09
  -2  -3  -2 2027.80   60.99
  -2  -3  -2 2087.29   60.49
   2   3   2 2025.40   59.99
   2   3   2 1973.50   60.99
   2   3   2 2037.00   60.79
   2   3   2 2026.00   60.49
  -3  -3  -2   20.90    4.60
  -3  -3  -2   20.40    5.10
  -3  -3  -2   17.80    4.70
  -3  -3  -2   19.50    4.10
  -3  -3  -2   20.40    5.10
   3   3   2   19.30    4.80
   3   3   2   22.10    4.50
   3   3   2   23.80    5.20
   3   3   2   22.90    5.10
   3   3   2   10.70    3.40
  -4  -3  -2   31.70    6.60
  -4  -3  -2   25.20    6.10
  -4  -3  -2   31.60    6.10
  -4  -3  -2   26.90    7.10
  -4  -3  -2   28.60    5.40
   4   3   2   33.30    5.50
   4   3   2   32.20    7.00
   4   3   2   34.70    6.90
   4   3   2   29.90    6.10
   4   3   2   26.10    7.20
  -5  -3  -2  837.82   30.90
  -5  -3  -2  885.41   33.60
  -5  -3  -2  824.12   32.40
  -5  -3  -2  804.52   32.00
  -5  -3  -2  853.91   31.70
   5   3   2  843.72   33.30
   5   3   2  861.51   34.10
   5   3   2  809.12   31.60
  -6  -3  -2   39.50   11.00
  -6  -3  -2   46.00   12.20
  -6  -3  -2   24.90   12.90
  -6  -3  -2   36.40   10.10
  -6  -3  -2   24.50    9.00
   6   3   2   25.50   12.20
   6   3   2   25.50   12.90
   6   3   2   23.50   10.30
   6   3   2   39.90    9.20
   6   3   2   29.90   10.00
  -5   4   2   59.89    4.80
  -5   4   2   55.79    8.30
   4  -4  -2   19.00    7.80
   4  -4  -2   35.40    5.50
  -4   4   2   20.60    2.90
   3  -4  -2  152.88   10.90
   3  -4  -2  162.18    8.60
   3  -4  -2  166.48    7.80
  -3   4   2  160.38    6.70
   2  -4  -2  558.74   18.60
   2  -4  -2  580.14   19.40
   2  -4  -2  594.84   19.90
  -2   4   2  590.34   18.10
   1  -4  -2   42.50    3.50
   1  -4  -2   41.80    4.10
  -1   4   2   37.30    2.60
   0   4   2   19.70    2.60
   0   4   2   15.00    1.90
  -1  -4  -2  427.76   15.50
  -1  -4  -2  422.46   15.30
  -1  -4  -2  423.46   15.00
   1   4   2  438.46   15.30
   1   4   2  411.76   15.00
   1   4   2  411.76   15.50
   1   4   2  423.06   14.00
  -2  -4  -2   47.80    6.60
  -2  -4  -2   56.19    7.20
  -2  -4  -2   42.90    5.40
  -2  -4  -2   39.40    6.00
  -2  -4  -2   44.30    6.30
   2   4   2   42.80    6.90
   2   4   2   45.20    5.80
   2   4   2   39.00    5.30
   2   4   2   43.00    6.00
  -3  -4  -2 1151.68   39.20
  -3  -4  -2 1223.58   39.80
  -3  -4  -2 1219.88   38.80
  -3  -4  -2 1156.98   38.10
  -3  -4  -2 1221.28   39.50
   3   4   2 1203.98   38.70
   3   4   2 1170.28   39.40
   3   4   2 1151.58   37.90
   3   4   2 1206.08   39.20
  -4  -4  -2   22.80    6.90
  -4  -4  -2   14.60    5.90
  -4  -4  -2   30.60    8.30
  -4  -4  -2   12.20    6.10
  -4  -4  -2   21.50    6.30
   4   4   2   21.00    7.00
   4   4   2   21.30    6.60
   4   4   2   22.30    5.80
   4   4   2   21.80    6.90
  -5  -4  -2  753.52   30.80
  -5  -4  -2  725.33   29.20
  -5  -4  -2  797.92   32.70
  -5  -4  -2  758.32   31.20
  -5  -4  -2  793.32   31.30
   5   4   2  776.82   29.20
   5   4   2  821.02   32.30
   5   4   2  716.33   31.60
   5   4   2  721.13   30.20
  -6  -4  -2    3.80   11.10
  -6  -4  -2   20.90   12.20
  -6  -4  -2   25.40   13.90
  -6  -4  -2    7.10    9.80
  -6  -4  -2   -0.50    9.30
   6   4   2  -20.00   10.60
   6   4   2   14.50   12.80
   6   4   2   -9.70   12.20
   5  -5  -2   39.00    6.70
   5  -5  -2   64.89   14.40
  -5   5   2   34.20    4.50
   4  -5  -2   31.50    5.40
   4  -5  -2   49.30    6.80
   4  -5  -2   27.40    9.10
  -4   5   2   30.20    3.60
   3  -5  -2  249.97   14.00
   3  -5  -2  238.88   12.00
   3  -5  -2  241.58   10.50
  -3   5   2  241.08    9.40
   2  -5  -2   60.29    4.90
   2  -5  -2   64.39    7.10
   2  -5  -2   59.29    5.90
  -2   5   2   55.79    3.80
   1  -5  -2  105.49    6.10
   1  -5  -2  100.59    5.80
   1  -5  -2   99.99    6.60
  -1   5   2  101.79    5.00
   0  -5  -2  193.78    8.20
   0   5   2  197.18    7.70
   0   5   2  193.38    7.70
  -1  -5  -2    4.90    3.90
  -1  -5  -2    1.60    3.60
  -1  -5  -2    1.10    2.90
  -1  -5  -2    8.50    3.60
   1   5   2    3.50    2.00
   1   5   2    7.80    3.70
   1   5   2    4.80    2.70
   1   5   2    4.80    3.00
   1   5   2    2.00    3.40
  -2  -5  -2  290.37   13.50
  -2  -5  -2  292.37   13.30
  -2  -5  -2  294.97   14.10
  -2  -5  -2  273.77   12.60
  -2  -5  -2  274.97   13.30
   2   5   2  305.67   14.10
   2   5   2  275.67   12.80
   2   5   2  299.77   12.40
   2   5   2  295.37   11.30
   2   5   2  277.77   13.90
  -3  -5  -2    9.80    6.00
  -3  -5  -2   19.70    5.60
  -3  -5  -2    7.10    4.70
  -3  -5  -2   14.10    6.20
  -3  -5  -2   11.60    5.20
   3   5   2   11.30    4.20
   3   5   2   12.80    6.10
   3   5   2   13.80    5.80
   3   5   2   12.90    5.90
  -4  -5  -2  855.31   33.10
  -4  -5  -2  817.42   31.10
  -4  -5  -2  801.62   29.80
  -4  -5  -2  834.72   31.00
  -4  -5  -2  794.82   30.90
   4   5   2  833.72   31.40
   4   5   2  810.42   30.40
   4   5   2  805.12   29.50
   4   5   2  774.32   31.50
  -5  -5  -2  168.78   18.90
  -5  -5  -2  158.88   16.20
  -5  -5  -2  157.38   20.00
  -5  -5  -2  147.09   15.40
  -5  -5  -2  164.38   17.80
   5   5   2  151.78   14.90
   5   5   2  134.49   17.90
   5   5   2  151.48   17.70
  -6  -5  -2    6.60   15.00
  -6  -5  -2    4.00   13.80
  -6  -5  -2    3.80   12.40
  -6  -5  -2   28.10   11.70
  -6  -5  -2    4.50   10.80
   6   5   2  -17.80   11.00
   6   5   2   17.80   14.00
   4  -6  -2    0.30    4.80
   4  -6  -2    6.10    7.00
   4  -6  -2   21.30    9.70
  -4   6   2    9.90    3.10
   3  -6  -2    9.10    4.60
   3  -6  -2   -4.20    6.60
   3  -6  -2   -7.80    4.70
  -3   6   2    1.40    2.10
   2  -6  -2   23.70    5.20
   2  -6  -2   19.90    5.20
   2  -6  -2   21.10    3.80
  -2   6   2   17.80    2.80
   1  -6  -2  269.17   10.80
   1  -6  -2  270.17   11.90
  -1   6   2  268.87   10.20
   0   6   2   33.80    4.20
   0   6   2   20.10    3.10
  -1  -6  -2  133.39    8.30
  -1  -6  -2  144.69    9.30
  -1  -6  -2  132.29    9.50
   1   6   2  144.89   10.10
   1   6   2  142.39    8.70
   1   6   2  138.19    8.00
   1   6   2  138.99    6.90
  -2  -6  -2    8.80    5.10
  -2  -6  -2   24.40    6.30
  -2  -6  -2   11.00    4.60
  -2  -6  -2   -1.00    5.40
  -2  -6  -2    2.60    5.00
   2   6   2    7.70    5.20
   2   6   2   14.30    3.60
   2   6   2    1.60    4.80
   2   6   2    4.10    4.30
   2   6   2   13.50    5.70
  -3  -6  -2 1452.65   46.90
  -3  -6  -2 1404.76   45.30
  -3  -6  -2 1136.69   49.60
  -3  -6  -2 1345.77   44.00
  -3  -6  -2 1380.76   45.60
   3   6   2 1394.36   45.80
   3   6   2 1365.56   45.90
   3   6   2 1361.86   44.00
  -4  -6  -2    7.20    9.00
  -4  -6  -2    1.00    6.50
  -4  -6  -2    3.10    8.30
  -4  -6  -2   23.90   10.10
  -4  -6  -2    4.10    8.30
   4   6   2    9.50    9.20
   4   6   2   -2.60    7.20
   4   6   2    6.20    7.00
   4   6   2    8.40    8.40
  -5  -6  -2    5.50    8.30
  -5  -6  -2   -5.50   10.90
  -5  -6  -2    2.60   11.10
  -5  -6  -2    2.80    9.80
  -5  -6  -2    5.50   12.50
   5   6   2   19.30   11.10
   5   6   2  -18.10   10.30
   5   6   2  -10.50    9.30
   5   6   2    8.40    9.00
   3  -7  -2  266.47   12.70
   3  -7  -2  240.78   14.50
  -3   7   2  240.78   10.70
   2  -7  -2  107.69    8.10
   2  -7  -2  109.79   10.00
  -2   7   2  101.29    6.40
   1  -7  -2   75.79    7.30
   1  -7  -2   75.09    8.40
  -1   7   2   72.39    5.60
   0   7   2   72.39    6.00
   0   7   2   60.59    5.40
  -1  -7  -2   11.90    6.00
  -1  -7  -2   16.10    4.40
   1   7   2   14.80    3.60
   1   7   2   20.30    5.00
  -2  -7  -2   33.10    7.10
  -2  -7  -2   29.40    7.50
  -2  -7  -2   29.10    5.90
  -2  -7  -2   11.50    7.00
  -2  -7  -2   39.00    8.80
   2   7   2   33.80    8.00
   2   7   2   21.10    6.10
   2   7   2   29.50    4.70
   2   7   2   25.20    7.50
  -3  -7  -2    8.40    7.10
  -3  -7  -2    9.20    8.10
  -3  -7  -2   29.30   10.30
  -3  -7  -2   16.10    7.70
  -3  -7  -2    8.70    6.40
   3   7   2   13.60    7.50
   3   7   2   21.80    5.00
   3   7   2   19.00    6.60
   3   7   2   15.30    8.90
   3   7   2    7.10    8.50
  -4  -7  -2  477.05   25.20
  -4  -7  -2  498.65   25.00
  -4  -7  -2  462.85   24.60
  -4  -7  -2  555.34   27.60
  -4  -7  -2  458.55   22.80
   4   7   2  461.25   22.90
   4   7   2  447.66   23.30
   4   7   2  492.05   26.30
   4   7   2  454.75   25.10
  -5  -7  -2    0.80   11.10
  -5  -7  -2   -5.90   13.70
  -5  -7  -2   11.50   14.20
  -5  -7  -2   15.80   13.20
  -5  -7  -2    1.70   10.40
   5   7   2   -9.00   12.70
   5   7   2  -10.10   10.80
   2  -8  -2  288.47   14.20
   2  -8  -2  253.37   15.80
  -2   8   2  261.97   11.70
   1  -8  -2    2.20    4.90
   1  -8  -2    1.80    5.30
  -1   8   2    5.10    3.30
   0  -8  -2   65.59   10.10
   0   8   2   32.80    4.80
  -1  -8  -2  135.09   13.00
  -1  -8  -2  113.79   12.80
  -1  -8  -2  134.59   10.60
   1   8   2  159.28    8.70
  -2  -8  -2   10.00    8.60
  -2  -8  -2   11.40   10.90
  -2  -8  -2   21.60    8.10
  -2  -8  -2   31.50    8.20
  -2  -8  -2   21.90    7.80
   2   8   2   14.40    7.00
   2   8   2    6.30    8.60
   2   8   2   18.00    4.70
  -3  -8  -2   50.29   10.50
  -3  -8  -2   25.90    8.10
  -3  -8  -2   39.30    9.20
  -3  -8  -2   31.90   10.40
  -3  -8  -2   49.00   13.20
   3   8   2   20.70   11.10
   3   8   2   29.70    8.00
   3   8   2   37.30    9.00
   3   8   2   14.60    9.00
   3   8   2   30.40   11.40
  -4  -8  -2   -7.30   11.00
  -4  -8  -2   12.60   14.50
  -4  -8  -2   10.40    9.30
  -4  -8  -2   13.20   12.50
   4   8   2  -13.00    9.80
   4   8   2   -5.00   12.20
   4   8   2   16.30    7.60
   4   8   2   19.70   11.60
   0  -9  -2   23.50    8.60
  -1  -9  -2    0.50    6.30
  -1  -9  -2   -2.30    9.00
   1   9   2   14.80    6.40
   3   8  -3  124.49   15.60
   3   8  -3  136.39   18.10
   3   8  -3  154.98   18.90
   3   8  -3  161.48   25.00
  -3  -8   3  137.09   14.10
  -3  -8   3  118.19   15.50
  -3  -8   3  131.49   17.50
  -3  -8   3  137.69   22.50
   2   8  -3  145.99   15.80
   2   8  -3  150.28   21.20
   2   8  -3  159.68   16.50
   2   8  -3  135.89   13.40
  -2  -8   3  140.69   17.70
  -2  -8   3  156.88   11.60
  -2  -8   3  149.19   20.00
  -2  -8   3  129.79   14.20
   1   8  -3   68.39    7.10
   1   8  -3   85.39   12.80
   1   8  -3   79.09   11.70
   1   8  -3   59.29    8.60
  -1  -8   3   56.39   10.00
  -1  -8   3   72.09    9.10
  -1  -8   3   88.89    9.00
   0   8  -3    7.60    6.60
   0  -8   3    0.40    5.80
   0  -8   3    2.50    8.00
   0  -8   3    5.30    4.00
  -1   8  -3    4.40    3.80
   1  -8   3   -7.70    7.10
   4   7  -3    7.70   13.40
   4   7  -3   19.50   10.60
   4   7  -3    3.60    9.80
   4   7  -3    8.20    9.60
  -4  -7   3    3.90    9.40
  -4  -7   3    5.60   12.20
  -4  -7   3    1.70    8.20
  -4  -7   3   -1.00    7.30
  -4  -7   3    4.20   11.90
   3   7  -3   38.60   12.30
   3   7  -3   26.20    9.00
   3   7  -3   48.80    9.70
   3   7  -3   29.30    9.10
  -3  -7   3   29.90    6.80
  -3  -7   3   46.30    8.90
  -3  -7   3   37.70   10.90
  -3  -7   3   43.30   10.00
   2   7  -3    8.60    6.90
   2   7  -3    3.80    8.90
   2   7  -3   -3.00    6.60
   2   7  -3    4.90    5.50
  -2  -7   3    3.70    8.10
  -2  -7   3    9.70    9.00
  -2  -7   3   -2.30    4.40
  -2  -7   3   -5.40    5.70
   1   7  -3   -1.00    4.40
   1   7  -3   -1.10    7.80
   1   7  -3   11.50    5.40
  -1  -7   3    1.30    3.50
  -1  -7   3   11.30    5.50
  -1  -7   3   -3.20    4.30
  -1  -7   3    4.20    7.10
  -1  -7   3    0.90    8.30
   0   7  -3  178.18    8.70
   0   7  -3  196.28   11.60
   0  -7   3  177.98    8.60
   0  -7   3  183.98   11.30
   0  -7   3  220.68   13.50
  -1   7  -3  107.89    7.00
   1  -7   3  112.89    9.90
  -2   7  -3   53.49    5.70
   2  -7   3   67.69   10.50
  -3   7  -3    4.20    3.60
   3  -7   3    6.10    7.70
   3  -7   3    5.20    4.80
   5   6  -3  151.98   20.50
   5   6  -3  101.49   15.50
   5   6  -3  127.79   19.00
   5   6  -3  107.69   16.80
   5   6  -3   90.79   13.80
  -5  -6   3  113.59   15.50
  -5  -6   3  111.59   15.20
  -5  -6   3  118.69   17.30
  -5  -6   3   97.49   13.30
  -5  -6   3  112.79   17.00
   4   6  -3  278.57   18.70
   4   6  -3  270.87   18.20
   4   6  -3  240.48   26.40
   4   6  -3  261.87   18.00
   4   6  -3  277.97   18.00
  -4  -6   3  271.57   19.90
  -4  -6   3  248.08   19.00
  -4  -6   3  262.27   15.40
  -4  -6   3  271.07   16.50
  -4  -6   3  280.37   21.60
   3   6  -3  114.89   12.40
   3   6  -3  116.69   13.00
   3   6  -3  102.79   11.90
   3   6  -3  109.49   15.90
  -3  -6   3  107.89   10.20
  -3  -6   3  105.09   13.70
  -3  -6   3  115.89   15.40
  -3  -6   3  106.19   10.10
  -3  -6   3  120.49   12.50
   2   6  -3   15.90    9.00
   2   6  -3   10.10    6.70
   2   6  -3   17.30    6.30
  -2  -6   3    4.20    4.90
  -2  -6   3    1.40   13.20
  -2  -6   3   16.60    4.10
   1   6  -3  561.74   20.10
   1   6  -3  549.65   22.10
   1   6  -3  489.15   19.80
   1   6  -3  576.74   20.70
  -1  -6   3  553.34   21.60
  -1  -6   3  534.85   18.50
  -1  -6   3  578.24   22.40
  -1  -6   3  517.35   19.30
   0   6  -3  344.97   14.20
   0   6  -3  314.57   12.30
   0  -6   3  338.87   12.10
   0  -6   3  340.67   15.80
   0  -6   3  325.17   13.90
   0  -6   3  351.06   15.20
  -1   6  -3  412.46   15.20
   1  -6   3  423.06   14.20
   1  -6   3  429.46   16.80
  -2   6  -3   33.40    4.00
   2  -6   3   35.60    5.70
   2  -6   3   39.50    4.70
  -3   6  -3  142.69    7.60
   3  -6   3  129.39    7.80
   3  -6   3  145.39   12.00
  -4   6  -3   -0.20    3.00
   4  -6   3    3.90    7.20
   4  -6   3    7.40    4.90
   5   5  -3    7.30   11.70
   5   5  -3    1.70   11.40
   5   5  -3   -6.10   10.10
   5   5  -3   18.40    8.90
   5   5  -3    8.20   13.70
  -5  -5   3    6.00    7.00
  -5  -5   3    9.20    8.10
  -5  -5   3  -12.60    7.60
  -5  -5   3   22.90   17.10
  -5  -5   3   11.20   12.40
   4   5  -3  213.18   15.10
   4   5  -3  213.38   18.20
   4   5  -3  192.68   15.70
   4   5  -3  237.88   16.40
   4   5  -3  227.68   15.50
  -4  -5   3  199.68   13.90
  -4  -5   3  195.08   18.10
  -4  -5   3  198.78   13.10
  -4  -5   3  229.68   15.00
  -4  -5   3  211.08   16.90
   3   5  -3   57.39    8.80
   3   5  -3   53.29    7.30
   3   5  -3   45.20    7.10
   3   5  -3   71.19   10.30
   3   5  -3   53.89    7.00
  -3  -5   3   53.69    8.90
  -3  -5   3   51.59    7.40
  -3  -5   3   54.79    8.00
  -3  -5   3   60.39    8.50
  -3  -5   3   45.60    6.00
   2   5  -3  296.07   15.20
   2   5  -3  277.77   13.50
   2   5  -3  274.87   13.20
   2   5  -3  299.57   14.00
  -2  -5   3  299.97   12.30
  -2  -5   3  283.87   13.20
  -2  -5   3  293.97   14.80
  -2  -5   3  287.97   15.30
   1   5  -3  355.66   15.60
   1   5  -3  349.47   13.60
   1   5  -3  362.86   14.50
   1   5  -3  352.96   14.10
  -1  -5   3  343.97   12.80
  -1  -5   3  341.67   15.60
  -1  -5   3  344.37   13.50
  -1  -5   3  359.66   15.00
   0   5  -3   45.00    7.20
   0   5  -3   48.70    4.60
   0   5  -3   57.39    5.80
   0  -5   3   53.69    4.50
   0  -5   3   49.99    6.80
   0  -5   3   60.49    5.00
   0  -5   3   67.79    7.60
   0  -5   3   55.39    5.50
  -1   5  -3  455.25   15.40
  -1   5  -3  451.85   14.30
  -1   5  -3  445.76   15.30
   1  -5   3  420.86   16.30
   1  -5   3  460.55   14.50
   1  -5   3  436.96   15.90
  -2   5  -3   37.80    3.70
   2  -5   3   36.80    3.80
   2  -5   3   45.30    6.00
  -3   5  -3  345.47   12.80
   3  -5   3  357.76   16.00
  -4   5  -3   39.10    7.90
  -4   5  -3   39.80    4.40
   4  -5   3   52.89   10.60
   4  -5   3   41.10    8.20
   6   4  -3   65.19   14.30
   6   4  -3   57.99   16.50
   6   4  -3   30.60   11.00
   6   4  -3    5.10   12.40
   6   4  -3   25.10   11.60
  -6  -4   3   37.40   10.60
  -6  -4   3   34.90   10.80
  -6  -4   3   17.80   13.90
  -6  -4   3    8.30   16.10
  -6  -4   3   20.40    8.60
   5   4  -3  957.00   37.40
   5   4  -3  891.01   35.10
   5   4  -3  928.71   37.60
   5   4  -3  956.00   35.20
   5   4  -3  908.01   36.00
  -5  -4   3  948.71   36.60
  -5  -4   3  902.81   33.20
  -5  -4   3  957.20   38.70
  -5  -4   3  919.21   34.60
  -5  -4   3  949.31   35.60
   4   4  -3   -6.10    6.10
   4   4  -3    4.10    6.20
   4   4  -3   -4.40    5.20
   4   4  -3   -3.10    7.30
   4   4  -3    6.50    7.00
  -4  -4   3   -7.30    4.50
  -4  -4   3   -1.10    7.80
  -4  -4   3    0.30    5.30
  -4  -4   3   -5.00    6.70
  -4  -4   3    3.80    5.70
   3   4  -3  395.86   17.10
   3   4  -3  408.26   17.60
   3   4  -3  404.06   17.60
   3   4  -3  414.46   18.70
   3   4  -3  397.16   17.00
  -3  -4   3  409.96   18.90
  -3  -4   3  411.56   18.20
  -3  -4   3  399.66   17.00
  -3  -4   3  419.96   16.30
  -3  -4   3  410.66   16.20
   2   4  -3   -1.10    3.80
   2   4  -3    1.20    4.30
   2   4  -3    1.50    3.30
   2   4  -3    2.50    3.50
   2   4  -3    2.40    3.40
  -2  -4   3    0.50    2.80
  -2  -4   3   -2.20    4.30
  -2  -4   3   -1.40    3.30
  -2  -4   3   -4.90    2.60
  -2  -4   3    2.60    4.20
   1   4  -3   36.60    5.40
   1   4  -3   30.50    4.30
   1   4  -3   40.90    4.70
   1   4  -3   35.30    5.10
  -1  -4   3   31.30    4.00
  -1  -4   3   37.70    5.10
  -1  -4   3   31.10    3.40
  -1  -4   3   37.50    4.80
   0   4  -3  407.66   14.90
   0   4  -3  398.76   13.70
   0   4  -3  407.26   13.90
   0   4  -3  429.96   13.80
   0  -4   3  406.56   13.80
   0  -4   3  406.66   14.60
   0  -4   3  442.16   15.20
   0  -4   3  409.66   14.40
   0  -4   3  389.96   13.30
  -1   4  -3  228.88    8.50
  -1   4  -3  228.48    8.70
  -1   4  -3  225.68    8.00
   1  -4   3  228.68    9.70
   1  -4   3  229.38    8.20
   1  -4   3  225.68    9.20
  -2   4  -3   -4.40    3.10
  -2   4  -3   -2.60    1.50
   2  -4   3    0.00    2.30
   2  -4   3   -1.00    2.90
   2  -4   3    1.30    2.60
  -3   4  -3  104.39    5.30
  -3   4  -3  105.79    8.70
   3  -4   3  112.49    8.30
  -4   4  -3   49.00    4.30
  -4   4  -3   62.29    8.10
  -4   4  -3   66.69    9.20
   4  -4   3   63.39   10.10
  -5   4  -3    8.10    6.50
  -5   4  -3   -0.90    7.50
  -5   4  -3   -1.70    2.60
   5  -4   3   16.30   12.50
   6   3  -3   46.10   15.00
   6   3  -3   53.39   11.80
   6   3  -3   30.70   12.50
   6   3  -3   35.10   10.30
  -6  -3   3   40.80    9.20
  -6  -3   3   42.00   13.60
  -6  -3   3   62.39   11.40
  -6  -3   3   68.39   11.20
  -6  -3   3   56.29   15.40
   5   3  -3    8.00    9.10
   5   3  -3   18.50    7.10
   5   3  -3    1.60    8.40
   5   3  -3   19.90    7.60
   5   3  -3    8.70    8.20
  -5  -3   3   23.30   10.00
  -5  -3   3   13.90    6.00
  -5  -3   3   13.50    9.10
  -5  -3   3   17.80    6.90
  -5  -3   3   11.40    6.50
   4   3  -3   63.19    7.80
   4   3  -3   65.19    9.20
   4   3  -3   52.89    8.00
   4   3  -3   70.19   11.50
   4   3  -3   65.39    7.90
  -4  -3   3   73.89    9.00
  -4  -3   3   68.19    9.80
  -4  -3   3   67.29    8.90
  -4  -3   3   55.79    7.70
  -4  -3   3   79.59   10.00
   3   3  -3 1510.45   47.90
   3   3  -3 1529.85   47.40
   3   3  -3 1504.85   47.40
   3   3  -3 1453.35   47.70
   3   3  -3 1525.85   48.50
  -3  -3   3 1530.05   47.60
  -3  -3   3 1513.85   47.00
  -3  -3   3 1518.15   46.70
  -3  -3   3 1576.64   48.20
  -3  -3   3 1543.25   48.80
   2   3  -3   25.60    4.40
   2   3  -3   29.20    4.20
   2   3  -3   36.30    5.50
   2   3  -3   39.70    5.50
   2   3  -3   30.20    4.80
  -2  -3   3   35.10    5.40
  -2  -3   3   42.90    6.20
  -2  -3   3   30.40    4.30
  -2  -3   3   25.20    4.20
  -2  -3   3   28.80    4.00
   1   3  -3   59.49    4.70
   1   3  -3   51.59    4.90
   1   3  -3   57.79    4.60
   1   3  -3   57.09    5.50
  -1  -3   3   69.49    6.00
  -1  -3   3   58.29    4.10
  -1  -3   3   57.39    4.80
  -1  -3   3   55.39    5.30
   0   3  -3   16.30    2.40
   0   3  -3   26.40    3.40
   0   3  -3   19.80    2.40
   0   3  -3   18.70    2.60
   0   3  -3   16.10    2.80
   0  -3   3   21.40    2.90
   0  -3   3   16.50    2.90
   0  -3   3   19.70    2.90
   0  -3   3   15.90    2.40
   0  -3   3   22.70    2.50
  -1   3  -3  130.19    6.70
  -1   3  -3  138.09    5.40
  -1   3  -3  146.09    6.00
  -1   3  -3  133.09    5.50
  -1   3  -3  141.69    5.50
  -1   3  -3  136.89    5.60
   1  -3   3  143.29    6.20
   1  -3   3  133.59    6.40
   1  -3   3  144.59    5.50
   1  -3   3  139.89    5.90
   1  -3   3  140.49    5.80
  -2   3  -3  439.46   13.90
  -2   3  -3  415.36   14.00
  -2   3  -3  440.36   15.50
  -2   3  -3  439.16   13.60
   2  -3   3  438.16   14.40
   2  -3   3  448.06   13.90
   2  -3   3  432.36   14.00
   2  -3   3  428.96   15.40
  -3   3  -3  301.17   10.70
  -3   3  -3  334.87   13.30
  -3   3  -3  314.77   10.90
  -3   3  -3  310.37   12.70
   3  -3   3  309.67   13.30
   3  -3   3  350.56   15.10
   3  -3   3  322.77   12.70
   3  -3   3  320.37   13.20
   3  -3   3  324.77   11.00
  -4   3  -3   50.19    7.30
  -4   3  -3   53.79    4.00
  -4   3  -3   53.89    8.10
  -4   3  -3   47.70    5.00
   4  -3   3   49.99    6.90
   4  -3   3   81.89   12.80
   4  -3   3   59.19    5.60
  -5   3  -3   -1.10    6.00
  -5   3  -3    3.20    2.50
  -5   3  -3    3.70    5.90
  -5   3  -3    3.70    3.50
  -5   3  -3   -2.80    6.10
   5  -3   3   -0.20    3.40
   5  -3   3   13.30    8.40
   5  -3   3    3.10   10.40
   6   2  -3   60.69    9.80
   6   2  -3   34.30   12.00
   6   2  -3   40.70   12.60
   6   2  -3   69.49   11.40
  -6  -2   3   69.59   12.90
  -6  -2   3   41.60    8.60
  -6  -2   3  103.19   15.70
  -6  -2   3   58.39   14.70
  -6  -2   3   61.79    9.60
   5   2  -3   35.20    8.80
   5   2  -3   57.59    9.80
   5   2  -3   36.40    9.60
   5   2  -3   48.70    8.20
  -5  -2   3   38.40   10.00
  -5  -2   3   49.40    7.40
  -5  -2   3   47.20    7.80
  -5  -2   3   37.90    8.50
  -5  -2   3   31.30    8.20
   4   2  -3   19.20    6.00
   4   2  -3   17.00    6.20
   4   2  -3   10.70    5.80
   4   2  -3   23.50    5.30
   4   2  -3   16.10    4.90
  -4  -2   3   16.30    4.70
  -4  -2   3   15.70    6.20
  -4  -2   3   11.90    4.30
  -4  -2   3   25.10    7.50
  -4  -2   3   19.70    5.10
   3   2  -3  136.19    9.40
   3   2  -3  158.98    9.80
   3   2  -3  144.19    9.00
   3   2  -3  156.78    8.80
   3   2  -3  159.58    9.80
  -3  -2   3  153.88    8.60
  -3  -2   3  142.29    8.00
  -3  -2   3  150.38    9.70
  -3  -2   3  155.28   10.50
  -3  -2   3  160.68    9.00
   2   2  -3  219.58    9.50
   2   2  -3  228.08    9.60
   2   2  -3  224.58    9.90
   2   2  -3  232.08    9.90
   2   2  -3  223.78   10.30
  -2  -2   3  222.18   10.50
  -2  -2   3  240.08   10.30
  -2  -2   3  223.18    9.00
  -2  -2   3  220.48    9.60
  -2  -2   3  227.78    9.00
   1   2  -3  160.68    6.80
   1   2  -3  145.49    6.30
   1   2  -3  160.18    7.20
   1   2  -3  156.18    6.70
   1   2  -3  149.49    6.90
  -1  -2   3  171.08    7.20
  -1  -2   3  155.68    6.70
  -1  -2   3  162.98    7.50
  -1  -2   3  159.98    6.30
  -1  -2   3  148.99    5.80
   0   2  -3    5.90    1.50
   0   2  -3    6.20    1.70
   0   2  -3    4.60    1.40
   0   2  -3    6.20    1.60
   0  -2   3    5.10    1.40
   0  -2   3    6.00    1.20
   0  -2   3    5.40    1.40
   0  -2   3    6.90    1.80
   0  -2   3    5.10    1.80
  -1   2  -3  544.45   17.00
  -1   2  -3  513.55   16.00
  -1   2  -3  510.75   16.20
  -1   2  -3  537.95   16.30
  -1   2  -3  545.55   16.00
   1  -2   3  549.45   16.20
   1  -2   3  522.45   16.40
   1  -2   3  519.45   16.20
   1  -2   3  512.35   16.20
   1  -2   3  524.85   16.90
  -2   2  -3  413.66   14.10
  -2   2  -3  394.36   13.20
  -2   2  -3  380.16   14.10
  -2   2  -3  414.16   13.20
  -2   2  -3  427.56   12.70
  -2   2  -3  415.16   13.90
   2  -2   3  403.56   14.20
   2  -2   3  423.56   13.70
   2  -2   3  405.56   13.10
   2  -2   3  415.46   12.90
   2  -2   3  389.86   14.90
   2  -2   3  395.06   13.90
  -3   2  -3    7.80    2.00
  -3   2  -3   10.10    3.30
  -3   2  -3    8.20    1.70
  -3   2  -3   10.90    2.90
  -3   2  -3   12.20    3.40
   3  -2   3    8.20    3.40
   3  -2   3    8.00    2.70
   3  -2   3   13.30    4.90
   3  -2   3    8.20    2.10
   3  -2   3    7.40    3.80
  -4   2  -3  248.38   11.50
  -4   2  -3  230.68    8.80
  -4   2  -3  230.78   12.80
  -4   2  -3  253.17   11.80
  -4   2  -3  242.28   11.30
  -4   2  -3  242.08   12.50
  -4   2  -3  244.18   10.00
   4  -2   3  250.57   13.30
   4  -2   3  234.48   10.80
   4  -2   3  247.48    9.70
   4  -2   3  282.17   16.00
   4  -2   3  233.88   12.90
  -5   2  -3   70.39   11.60
  -5   2  -3   58.69    7.50
  -5   2  -3   60.79    4.50
  -5   2  -3   81.99    9.40
  -5   2  -3   72.69   10.10
  -5   2  -3   63.39    7.10
   5  -2   3   74.09   12.40
   5  -2   3   60.79    9.00
   5  -2   3   92.39   14.10
  -6   2  -3   51.19    9.40
  -6   2  -3   75.69    9.80
  -6   2  -3   50.39    9.10
  -6   2  -3   57.49   11.20
  -6   2  -3   64.19   11.90
  -6   2  -3   63.29    5.10
   6  -2   3   56.89    6.50
   6  -2   3   61.79   12.60
   6  -2   3   86.99   16.80
   6  -2   3   45.30   13.70
   6   1  -3   10.20   12.10
   6   1  -3   21.00    7.90
   6   1  -3   -4.70   10.20
   6   1  -3   14.70    9.90
   6   1  -3   18.40    8.90
  -6  -1   3   29.80    9.10
  -6  -1   3   18.00    6.30
  -6  -1   3   32.60   12.70
  -6  -1   3    4.40    7.00
  -6  -1   3   20.10    7.40
  -6  -1   3    3.80   10.90
   5   1  -3   80.39   13.10
   5   1  -3   93.59   14.10
   5   1  -3  130.79   11.60
   5   1  -3  137.69   13.50
  -5  -1   3  109.69   11.60
  -5  -1   3  121.39   15.70
  -5  -1   3   85.59   12.90
  -5  -1   3  100.99   13.20
  -5  -1   3  111.89   10.60
   4   1  -3   35.00    5.40
   4   1  -3   38.10    7.20
   4   1  -3   22.00    5.30
   4   1  -3   22.20    5.60
   4   1  -3   31.90    6.10
  -4  -1   3   25.40    7.10
  -4  -1   3   40.60    6.70
  -4  -1   3   17.00    5.90
  -4  -1   3   26.40    4.50
  -4  -1   3   34.40    5.80
   3   1  -3  338.97   13.00
   3   1  -3  334.17   13.90
   3   1  -3  308.57   13.50
   3   1  -3  315.17   13.90
   3   1  -3  328.57   13.00
  -3  -1   3  320.47   13.00
  -3  -1   3  333.77   13.30
  -3  -1   3  336.47   13.80
  -3  -1   3  329.87   12.40
  -3  -1   3  333.37   14.40
   2   1  -3   50.19    4.90
   2   1  -3   42.30    4.20
   2   1  -3   45.80    4.60
   2   1  -3   42.30    4.60
   2   1  -3   47.70    4.20
  -2  -1   3   49.99    4.90
  -2  -1   3   47.30    3.60
  -2  -1   3   44.10    3.80
  -2  -1   3   45.10    4.30
  -2  -1   3   49.99    5.20
   1   1  -3  807.82   24.30
   1   1  -3  788.92   24.60
   1   1  -3  777.82   24.20
   1   1  -3  803.12   24.50
   1   1  -3  812.52   24.40
  -1  -1   3  808.12   24.80
  -1  -1   3  849.22   24.70
  -1  -1   3  809.42   24.00
  -1  -1   3  784.62   24.30
   0   1  -3  126.49    4.70
   0   1  -3  132.49    4.70
   0   1  -3  117.09    4.50
   0   1  -3  126.49    4.80
   0   1  -3  124.69    4.90
   0  -1   3  123.29    4.70
   0  -1   3  119.39    4.50
   0  -1   3  123.19    4.90
   0  -1   3  129.99    4.50
   0  -1   3  127.29    4.90
  -1   1  -3  132.09    5.00
  -1   1  -3  122.89    4.70
  -1   1  -3  124.89    5.20
  -1   1  -3  107.59    5.50
  -1   1  -3  126.99    4.30
  -1   1  -3  129.79    4.80
  -1   1  -3  126.89    5.00
   1  -1   3  127.99    5.20
   1  -1   3  128.09    4.80
   1  -1   3  128.89    4.90
   1  -1   3  126.79    5.20
   1  -1   3  128.39    4.70
  -2   1  -3  803.22   26.30
  -2   1  -3  848.52   25.00
  -2   1  -3  793.72   25.20
  -2   1  -3  810.42   25.70
  -2   1  -3  851.81   25.40
  -2   1  -3  815.42   25.60
  -2   1  -3  848.32   24.20
   2  -1   3  821.12   25.90
   2  -1   3  800.62   26.60
   2  -1   3  863.41   24.90
   2  -1   3  850.81   25.50
   2  -1   3  850.51   25.20
  -3   1  -3   11.30    3.60
  -3   1  -3   14.20    3.20
  -3   1  -3   11.00    1.50
  -3   1  -3   17.60    3.60
  -3   1  -3   15.50    3.60
  -3   1  -3   12.70    2.70
  -3   1  -3   11.20    2.80
   3  -1   3   10.20    2.60
   3  -1   3    9.80    3.10
   3  -1   3   10.50    4.20
   3  -1   3    9.70    2.10
   3  -1   3   10.30    4.00
  -4   1  -3    5.90    4.80
  -4   1  -3   15.30    4.80
  -4   1  -3   10.50    3.90
  -4   1  -3   15.70    3.90
  -4   1  -3    9.40    1.80
  -4   1  -3   12.30    3.50
  -4   1  -3   13.80    4.70
   4  -1   3   18.70    6.90
   4  -1   3    7.00    5.20
   4  -1   3   10.20    3.70
   4  -1   3   13.50    5.50
   4  -1   3    9.60    3.30
  -5   1  -3  511.65   18.90
  -5   1  -3  485.85   20.60
  -5   1  -3  493.75   21.30
  -5   1  -3  490.75   19.60
  -5   1  -3  479.75   19.10
  -5   1  -3  461.25   15.90
  -5   1  -3  489.25   22.00
   5  -1   3  445.46   20.90
   5  -1   3  483.95   18.80
   5  -1   3  498.25   18.00
   5  -1   3  481.55   26.30
   5  -1   3  465.45   22.30
  -6   1  -3   11.80   10.20
  -6   1  -3   17.00    8.90
  -6   1  -3    9.60    2.90
  -6   1  -3   22.20    9.80
  -6   1  -3   27.10    7.40
  -6   1  -3   12.80    7.60
  -6   1  -3   17.90    7.80
   6  -1   3   22.80   13.80
   6  -1   3   13.50   10.60
   6  -1   3   17.20    5.70
   6  -1   3    0.90   11.70
   6  -1   3    6.40    7.10
   6   0  -3   52.39    9.60
   6   0  -3   20.80   10.90
   6   0  -3   48.20    8.40
   6   0  -3   71.99   12.20
   6   0  -3   37.40   12.00
  -6   0   3   53.79    5.00
  -6   0   3   44.30    8.50
  -6   0   3   36.70   10.00
  -6   0   3   50.09    6.80
  -6   0   3   69.89   13.50
  -6   0   3   63.89    9.70
  -6   0   3   30.90    7.00
   5   0  -3  144.89   11.60
   5   0  -3  153.58   15.10
   5   0  -3   94.89   13.10
   5   0  -3  142.79   10.50
  -5   0   3  129.59   15.50
  -5   0   3  141.29   13.60
  -5   0   3  121.49    9.50
  -5   0   3  139.89   11.00
  -5   0   3  131.49    8.50
   4   0  -3   70.59    7.70
   4   0  -3   58.89    9.50
   4   0  -3   72.19    9.30
   4   0  -3   44.90    6.50
   4   0  -3   52.99    7.00
  -4   0   3   53.99    5.10
  -4   0   3   55.29    6.90
  -4   0   3   58.69    6.80
  -4   0   3   62.49   10.60
  -4   0   3   50.79    6.20
   3   0  -3  506.05   18.80
   3   0  -3  520.15   17.40
   3   0  -3  523.75   18.30
   3   0  -3  500.15   17.40
  -3   0   3  520.15   18.10
  -3   0   3  511.85   18.90
  -3   0   3  500.05   17.60
  -3   0   3  497.25   17.80
  -3   0   3  488.95   16.80
  -3   0   3  475.35   15.80
   2   0  -3  119.69    6.40
   2   0  -3  113.69    6.10
   2   0  -3  105.49    5.80
   2   0  -3  112.99    5.50
   2   0  -3  114.49    5.50
  -2   0   3  121.09    6.20
  -2   0   3  109.39    5.50
  -2   0   3  104.09    4.90
  -2   0   3  108.39    5.50
  -2   0   3  108.59    6.50
   1   0  -3 8995.40  263.87
   1   0  -3 9251.88  263.47
   1   0  -3 9110.89  263.77
  -1   0   3 9999.00  263.87
   0   0  -3 1356.66   40.30
   0   0  -3 1334.67   40.20
   0   0  -3 1304.77   40.10
   0   0  -3 1489.75   40.20
   0   0  -3 1458.65   40.40
   0   0   3 1403.76   40.30
   0   0   3 1289.97   40.10
   0   0   3 1454.05   40.30
   0   0   3 1427.86   40.40
   0   0   3 1506.95   40.20
  -1   0  -3  739.03   21.80
  -1   0  -3  692.43   21.90
  -1   0  -3  749.82   21.60
  -1   0  -3  732.33   20.60
  -1   0  -3  717.23   21.60
   1   0   3  713.53   22.00
   1   0   3  721.83   21.40
   1   0   3  720.23   21.70
   1   0   3  723.43   21.70
  -2   0  -3    1.30    0.80
  -2   0  -3    3.30    2.10
  -2   0  -3   -0.70    2.40
  -2   0  -3    2.20    2.00
  -2   0  -3    1.10    1.70
  -2   0  -3    1.70    1.50
   2   0   3   -1.00    1.60
   2   0   3   -1.90    2.50
   2   0   3    3.20    1.50
   2   0   3    0.10    2.10
   2   0   3    0.50    1.80
  -3   0  -3  260.17   11.30
  -3   0  -3  267.87    8.50
  -3   0  -3  261.27   10.60
  -3   0  -3  255.27   11.30
  -3   0  -3  261.67   10.70
  -3   0  -3  251.57   12.00
   3   0   3  260.17   10.00
   3   0   3  229.28   11.50
   3   0   3  268.77   10.80
   3   0   3  255.17   10.90
   3   0   3  260.07   12.70
  -4   0  -3  272.07   12.40
  -4   0  -3  268.77   12.20
  -4   0  -3  259.47   13.80
  -4   0  -3  254.37   13.30
  -4   0  -3  266.37   12.00
  -4   0  -3  276.57   13.60
  -4   0  -3  265.77    9.30
   4   0   3  248.18   13.90
   4   0   3  280.07   11.50
   4   0   3  268.27   13.20
   4   0   3  276.47   12.40
   4   0   3  296.07   16.10
  -5   0  -3  725.73   25.90
  -5   0  -3  711.23   25.90
  -5   0  -3  743.63   27.60
  -5   0  -3  724.33   27.30
  -5   0  -3  583.34   31.60
  -5   0  -3  713.03   22.10
   5   0   3  698.03   28.10
   5   0   3  694.33   27.30
   5   0   3  697.53   24.80
   5   0   3  705.63   25.50
  -6   0  -3  171.58   18.60
  -6   0  -3  137.59   13.00
  -6   0  -3  152.28    7.80
  -6   0  -3  141.69   17.30
  -6   0  -3  162.78   16.80
  -6   0  -3  172.98   15.40
  -6   0  -3  154.28   14.30
   6   0   3  130.99   21.20
   6   0   3  177.48   23.50
   6   0   3  181.98   14.10
   6   0   3  167.78   12.40
   6   0   3  135.09   18.30
   6  -1  -3   -8.40    9.80
   6  -1  -3   14.40    6.90
   6  -1  -3   18.50   12.40
   6  -1  -3   11.30    9.80
  -6   1   3   -0.60    5.80
  -6   1   3   15.50    8.40
  -6   1   3   13.90    8.00
  -6   1   3   -0.90    8.20
  -6   1   3    0.20    5.80
  -6   1   3   11.10    3.00
   5  -1  -3    6.90    6.70
   5  -1  -3   25.70   10.50
   5  -1  -3   15.70    6.90
   5  -1  -3   30.70    9.70
   5  -1  -3   14.80    5.10
  -5   1   3    7.20    4.40
  -5   1   3   21.80    7.00
  -5   1   3   13.40    6.20
  -5   1   3   18.20    4.50
  -5   1   3   27.80    8.30
  -5   1   3   16.00    5.50
  -5   1   3   15.00    3.10
   4  -1  -3  317.27   15.80
   4  -1  -3  300.67   13.40
   4  -1  -3  338.37   14.90
   4  -1  -3  342.27   13.20
  -4   1   3  326.57   14.30
  -4   1   3  320.07   15.50
  -4   1   3  312.07   13.70
  -4   1   3  295.87   11.10
  -4   1   3  308.67   11.80
  -4   1   3  312.17   13.50
  -4   1   3  310.47   12.10
   3  -1  -3  534.65   19.70
   3  -1  -3  545.15   17.70
   3  -1  -3  523.35   17.70
   3  -1  -3  543.85   18.50
  -3   1   3  536.15   18.40
  -3   1   3  523.65   18.90
  -3   1   3  525.55   16.50
  -3   1   3  527.15   16.70
  -3   1   3  513.75   17.00
  -3   1   3  527.25   18.10
   2  -1  -3  524.75   16.90
   2  -1  -3  540.45   17.30
   2  -1  -3  543.95   16.90
   2  -1  -3  544.65   16.90
   2  -1  -3  537.95   18.10
  -2   1   3  554.54   16.40
  -2   1   3  520.55   17.10
  -2   1   3  538.95   16.30
  -2   1   3  536.65   17.50
  -2   1   3  533.15   16.20
   0  -1  -3   20.50    1.50
   0  -1  -3   20.90    1.70
   0  -1  -3   19.00    1.60
   0  -1  -3   19.60    1.80
   0  -1  -3   21.90    1.90
   0   1   3   21.60    1.70
   0   1   3   18.50    1.50
   0   1   3   17.20    1.90
   0   1   3   22.20    1.70
   0   1   3   21.90    1.70
   0   1   3   19.90    0.90
  -1  -1  -3   11.90    1.80
  -1  -1  -3   13.50    2.20
  -1  -1  -3   10.00    1.90
  -1  -1  -3   11.80    1.50
   1   1   3   11.90    1.80
   1   1   3   11.20    2.20
   1   1   3   14.00    1.90
   1   1   3   11.70    1.60
  -2  -1  -3 1554.84   46.40
  -2  -1  -3 1513.85   47.00
  -2  -1  -3 1561.14   45.70
  -2  -1  -3 1516.15   45.70
  -2  -1  -3 1524.75   46.20
   2   1   3 1547.65   46.00
   2   1   3 1567.44   45.50
   2   1   3 1579.14   46.00
   2   1   3 1491.75   46.40
  -3  -1  -3  244.58   10.70
  -3  -1  -3  232.28   11.70
  -3  -1  -3  237.48   11.20
  -3  -1  -3  224.08   11.00
  -3  -1  -3  239.68   10.40
   3   1   3  243.18   10.00
   3   1   3  245.78   10.80
   3   1   3  236.18   10.80
   3   1   3  233.48   11.50
   3   1   3  208.88   12.10
  -4  -1  -3   37.80    6.20
  -4  -1  -3   40.20    5.90
  -4  -1  -3   35.40    6.60
  -4  -1  -3   36.10    6.70
  -4  -1  -3   31.20    5.00
   4   1   3   47.40    7.30
   4   1   3   41.40    6.20
   4   1   3   47.80    6.60
   4   1   3   40.30    5.70
   4   1   3   54.69    8.40
  -5  -1  -3   68.29   14.00
  -5  -1  -3   64.99    9.40
  -5  -1  -3   69.79    8.20
  -5  -1  -3   57.69    4.40
  -5  -1  -3   62.39    8.90
  -5  -1  -3   65.59    7.80
   5   1   3   65.69   10.10
   5   1   3   62.79    8.60
   5   1   3   55.69    9.40
   5   1   3   63.49    8.50
   5   1   3   66.89   15.10
  -6  -1  -3  225.98    9.60
  -6  -1  -3  240.28   20.60
  -6  -1  -3  215.28   17.60
  -6  -1  -3  207.88   15.40
  -6  -1  -3  225.08   16.80
  -6  -1  -3  249.97   18.40
  -6  -1  -3  206.38   18.40
   6   1   3  188.78   19.10
   6   1   3  208.28   23.00
   6   1   3  257.67   16.20
   6   1   3  208.78   14.30
   6   1   3  249.38   23.90
   6  -2  -3   74.99   15.60
   6  -2  -3   34.80   10.20
   6  -2  -3   35.50    7.30
  -6   2   3   35.80    4.30
  -6   2   3   52.79    9.70
  -6   2   3   48.70    8.70
  -6   2   3   38.60    9.40
   5  -2  -3   14.90    6.40
   5  -2  -3   17.50    9.10
   5  -2  -3   13.20    4.90
  -5   2   3   10.30    4.20
  -5   2   3   16.80    5.10
  -5   2   3   21.30    6.00
  -5   2   3    9.10    5.80
  -5   2   3   13.10    2.90
   4  -2  -3   87.59    6.80
   4  -2  -3   76.79    8.10
   4  -2  -3   89.69   10.70
  -4   2   3   86.79    7.60
  -4   2   3   88.09    4.80
  -4   2   3   87.39    6.60
  -4   2   3   83.49    5.90
   3  -2  -3    2.90    3.70
  -3   2   3    3.10    2.00
  -3   2   3    2.40    2.50
  -3   2   3    1.40    1.40
   2  -2  -3  466.05   15.30
   2  -2  -3  485.75   16.80
  -2   2   3  516.15   15.00
   1  -2  -3  725.23   22.10
   1  -2  -3  707.23   21.90
  -1   2   3  772.32   21.50
   0  -2  -3 1928.21   55.59
   0  -2  -3 2002.20   55.09
   0  -2  -3 1880.31   55.09
   0   2   3 1917.01   54.99
   0   2   3 1925.51   55.49
   0   2   3 1886.71   55.39
   0   2   3 1984.30   54.59
   0   2   3 1909.11   54.79
   0   2   3 1891.41   55.19
  -1  -2  -3 2317.27   67.89
  -1  -2  -3 2416.16   67.59
  -1  -2  -3 2328.97   67.99
  -1  -2  -3 2290.37   67.49
   1   2   3 2366.16   67.79
   1   2   3 2316.07   67.29
   1   2   3 2313.17   68.09
   1   2   3 2358.36   67.79
  -2  -2  -3  201.58    9.40
  -2  -2  -3  209.98    9.70
  -2  -2  -3  216.08    9.10
  -2  -2  -3  232.88    9.30
  -2  -2  -3  209.88   10.00
   2   2   3  221.18    8.80
   2   2   3  228.18    9.50
   2   2   3  209.28    9.80
   2   2   3  212.98    9.40
  -3  -2  -3    0.10    3.50
  -3  -2  -3    1.20    2.90
  -3  -2  -3    7.30    4.10
  -3  -2  -3   -0.80    3.90
  -3  -2  -3    6.40    3.90
   3   2   3    2.20    3.60
   3   2   3    4.30    3.60
   3   2   3    4.60    3.40
   3   2   3    2.70    2.70
   3   2   3    7.00    4.30
  -4  -2  -3   81.39    9.70
  -4  -2  -3   74.29   10.40
  -4  -2  -3   76.89    9.40
  -4  -2  -3   87.79    8.20
  -4  -2  -3   76.79    9.20
   4   2   3   73.69   10.80
   4   2   3   95.99    9.90
   4   2   3   89.89    9.10
   4   2   3   91.59   10.80
   4   2   3   73.39    7.50
  -5  -2  -3  237.78   15.40
  -5  -2  -3  211.68   14.90
  -5  -2  -3  227.58   15.40
  -5  -2  -3  206.58   17.00
  -5  -2  -3  232.28   14.10
   5   2   3  228.48   17.80
   5   2   3  234.68   13.00
   5   2   3  189.28   15.40
   5   2   3  224.58   17.50
   5   2   3  220.88   14.30
  -6  -2  -3   30.50    9.10
  -6  -2  -3   32.10   14.10
  -6  -2  -3   22.10    8.80
  -6  -2  -3   21.70   10.20
  -6  -2  -3   30.40    4.10
  -6  -2  -3   19.90    9.80
   6   2   3   35.60    8.80
   6   2   3   28.10    7.90
   6   2   3   39.90   10.60
   6   2   3   11.50   11.90
   6  -3  -3  242.68   27.40
  -6   3   3  164.28    8.60
  -6   3   3  173.38   15.70
  -6   3   3  150.08   16.30
   5  -3  -3    9.80    9.30
  -5   3   3    3.40    2.40
  -5   3   3    2.40    5.80
  -5   3   3    3.00    5.50
   4  -3  -3   40.70    7.50
  -4   3   3   43.40    5.30
  -4   3   3   36.60    3.50
   3  -3  -3   14.20    4.50
   3  -3  -3   13.80    2.80
  -3   3   3   10.50    1.80
   2  -3  -3   89.69    4.80
   2  -3  -3   88.69    5.00
   2  -3  -3   98.09    6.40
  -2   3   3   96.99    4.10
   1  -3  -3  329.17   11.20
  -1   3   3  338.37   10.50
   0  -3  -3   47.90    3.40
   0   3   3   54.39    2.50
   0   3   3   47.00    3.10
  -1  -3  -3  315.97   12.20
  -1  -3  -3  333.67   11.80
  -1  -3  -3  330.57   12.20
  -1  -3  -3  349.17   11.90
   1   3   3  332.37   12.00
   1   3   3  328.27   11.40
   1   3   3  333.87   11.40
   1   3   3  322.97   12.40
   1   3   3  328.17   12.00
  -2  -3  -3   -1.80    2.40
  -2  -3  -3    2.30    3.20
  -2  -3  -3   -0.10    3.00
  -2  -3  -3    1.40    2.90
  -2  -3  -3    3.70    3.10
   2   3   3    2.70    2.90
   2   3   3    1.20    3.40
  -3  -3  -3  194.18   11.60
  -3  -3  -3  208.48   11.90
  -3  -3  -3  203.48   10.40
  -3  -3  -3  195.18   11.40
  -3  -3  -3  205.98   11.10
   3   3   3  216.48   11.90
   3   3   3  205.88   11.20
  -4  -3  -3   19.90    7.20
  -4  -3  -3   27.60    5.90
  -4  -3  -3   29.20    6.60
  -4  -3  -3   32.10    6.50
  -4  -3  -3   24.40    5.50
   4   3   3   20.30    6.10
   4   3   3   31.70    7.00
   4   3   3   25.10    6.90
  -5  -3  -3   16.80    6.70
  -5  -3  -3   13.20    7.70
  -5  -3  -3    5.50    6.70
  -5  -3  -3   16.60    8.00
  -5  -3  -3   12.20    9.10
   5   3   3   18.30    9.00
   5   3   3   14.10    7.40
   5   3   3   10.90    5.30
   5   3   3   26.80    8.10
   5   3   3   20.90    9.00
  -6  -3  -3  187.38   22.60
  -6  -3  -3  159.78   19.80
  -6  -3  -3  208.78   19.20
  -6  -3  -3  177.18   17.70
  -6  -3  -3  151.68   19.00
   6   3   3  177.28   19.80
   6   3   3  180.68   15.90
   6   3   3  189.78   17.80
   6   3   3  194.08   23.20
   6   3   3  199.98   21.40
   5  -4  -3   17.70   10.60
   4  -4  -3    1.20    3.40
   4  -4  -3    3.70    4.20
   4  -4  -3   -2.00    7.10
  -4   4   3    0.20    1.70
   3  -4  -3  171.18    8.10
   3  -4  -3  187.68   11.70
   3  -4  -3  170.68    8.80
  -3   4   3  174.58    7.00
   2  -4  -3    9.80    3.40
   2  -4  -3   11.70    2.60
   2  -4  -3    7.20    2.50
  -2   4   3    8.20    1.50
   1  -4  -3  168.98    7.10
  -1   4   3  172.58    6.30
   0  -4  -3    3.20    1.80
   0   4   3    6.30    1.60
   0   4   3    5.50    1.90
  -1  -4  -3  659.23   21.10
  -1  -4  -3  649.34   21.70
  -1  -4  -3  637.44   21.60
   1   4   3  656.93   21.90
   1   4   3  644.34   21.40
   1   4   3  646.64   20.60
  -2  -4  -3   -4.00    3.50
  -2  -4  -3   -0.10    2.80
  -2  -4  -3   -3.60    3.20
  -2  -4  -3   -3.50    3.70
  -2  -4  -3   -1.30    3.50
   2   4   3    3.50    4.00
   2   4   3   -1.60    3.40
  -3  -4  -3    2.80    5.20
  -3  -4  -3   -6.40    4.40
  -3  -4  -3   -0.50    3.70
  -3  -4  -3    0.80    4.90
  -3  -4  -3    1.30    4.60
   3   4   3   -1.40    4.50
   3   4   3    4.60    5.60
  -4  -4  -3  169.98   12.20
  -4  -4  -3  158.18   13.50
  -4  -4  -3  143.59   12.90
  -4  -4  -3  150.28   11.60
  -4  -4  -3  156.68   14.40
   4   4   3  160.08   14.50
   4   4   3  166.08   12.70
  -5  -4  -3  150.78   14.30
  -5  -4  -3  164.58   18.30
  -5  -4  -3  168.58   16.20
  -5  -4  -3  128.59   14.80
  -5  -4  -3  137.39   15.80
   5   4   3  141.49   16.20
   5   4   3  152.48   18.10
  -6  -4  -3    8.10   12.00
  -6  -4  -3    3.50   10.20
  -6  -4  -3   10.80   11.90
  -6  -4  -3    4.40   12.80
  -6  -4  -3    5.00   10.20
   6   4   3   -4.50    8.80
   6   4   3   10.30   13.00
   6   4   3   -7.70   10.60
   6   4   3    0.50   11.10
   5  -5  -3    1.60    5.10
   5  -5  -3   13.40   12.30
  -5   5   3    3.40    2.80
   4  -5  -3   35.50    5.10
   4  -5  -3   43.90    6.70
   4  -5  -3   41.10    9.70
  -4   5   3   31.90    3.80
   3  -5  -3  300.07   15.10
   3  -5  -3  260.77   12.30
   3  -5  -3  262.17   11.30
  -3   5   3  260.97   10.10
   2  -5  -3   16.00    3.50
   2  -5  -3   11.90    3.60
   2  -5  -3   13.50    4.10
  -2   5   3   14.10    2.40
   1  -5  -3   46.30    4.30
   1  -5  -3   45.60    5.40
  -1   5   3   42.70    3.30
   0  -5  -3  329.07   12.40
   0   5   3  342.07   11.60
   0   5   3  345.67   12.00
  -1  -5  -3  764.12   25.50
  -1  -5  -3  775.62   24.90
  -1  -5  -3  778.82   25.80
  -1  -5  -3  775.02   25.00
   1   5   3  765.02   25.20
   1   5   3  770.52   25.90
   1   5   3  754.22   24.10
  -2  -5  -3   -1.30    4.20
  -2  -5  -3    1.60    4.40
  -2  -5  -3    2.70    3.90
  -2  -5  -3    0.50    4.40
  -2  -5  -3    5.10    3.70
   2   5   3    1.50    5.00
   2   5   3   -0.40    2.60
   2   5   3    1.50    3.90
  -3  -5  -3  224.28   14.20
  -3  -5  -3  228.68   12.50
  -3  -5  -3  237.78   14.70
  -3  -5  -3  230.78   13.50
  -3  -5  -3  221.88   13.90
   3   5   3  208.98   13.10
   3   5   3  230.58   14.40
  -4  -5  -3  177.28   15.80
  -4  -5  -3  154.28   14.50
  -4  -5  -3  175.98   14.00
  -4  -5  -3  163.08   12.70
  -4  -5  -3  147.59   14.00
   4   5   3  166.28   14.00
   4   5   3  153.88   15.00
  -5  -5  -3   20.40   11.00
  -5  -5  -3   11.20    8.60
  -5  -5  -3   25.30   10.00
  -5  -5  -3   14.30    8.40
   5   5   3   13.90   10.40
   5   5   3   11.90   10.40
  -6  -5  -3   11.60   12.10
  -6  -5  -3   10.70   12.80
  -6  -5  -3   21.40   13.90
  -6  -5  -3   -2.30   15.90
  -6  -5  -3   -7.50   11.30
   6   5   3   13.10   14.40
   6   5   3   19.40   13.30
   6   5   3   -3.00    9.10
   6   5   3  -13.20   12.00
   4  -6  -3   17.10    5.90
   4  -6  -3   14.10    7.00
   4  -6  -3   -4.10   11.30
  -4   6   3   16.90    3.40
   3  -6  -3    8.90    4.90
   3  -6  -3   16.70    4.30
   3  -6  -3   15.30    7.70
  -3   6   3   23.10    3.20
   2  -6  -3   70.19    6.30
   2  -6  -3   81.09    8.70
   2  -6  -3   83.39    7.80
  -2   6   3   72.39    4.80
   1  -6  -3   88.49    6.60
   1  -6  -3  108.29    7.70
  -1   6   3   91.29    5.20
   0   6   3    9.60    2.60
   0   6   3   13.10    2.90
  -1  -6  -3   19.90    4.80
  -1  -6  -3   29.00    4.70
  -1  -6  -3   25.80    5.90
   1   6   3   32.50    4.50
   1   6   3   18.10    4.30
  -2  -6  -3   14.10    5.50
  -2  -6  -3   12.30    4.70
  -2  -6  -3   15.80    5.50
  -2  -6  -3   14.70    5.80
  -2  -6  -3   18.40    6.90
   2   6   3   16.90    6.10
   2   6   3    8.00    5.00
   2   6   3   20.00    4.20
  -3  -6  -3  815.32   30.70
  -3  -6  -3  846.92   30.90
  -3  -6  -3  803.62   28.90
  -3  -6  -3  818.62   30.30
   3   6   3  701.33   32.10
   3   6   3  814.22   30.50
  -4  -6  -3    0.20    7.90
  -4  -6  -3    8.30    7.30
  -4  -6  -3    0.80    9.10
  -4  -6  -3   -6.30    8.50
  -4  -6  -3   -9.10    6.70
   4   6   3   -3.10    7.60
  -5  -6  -3  -13.50    8.70
  -5  -6  -3   -4.50   10.10
  -5  -6  -3    6.60   10.70
  -5  -6  -3   12.60   12.10
  -5  -6  -3    0.30   11.40
   5   6   3    3.10   11.10
   3  -7  -3  275.87   15.10
   3  -7  -3  288.37   18.40
   3  -7  -3  272.87   13.30
  -3   7   3  264.87   11.30
   2  -7  -3    8.40    4.50
   2  -7  -3    0.80    5.90
   2  -7  -3   24.80    6.00
  -2   7   3   13.80    2.70
   1  -7  -3  141.49   10.20
   1  -7  -3  134.29    9.30
   1  -7  -3  135.89    8.70
  -1   7   3  132.79    7.20
   0   7   3  133.79    7.10
   0   7   3  144.69    7.90
  -1  -7  -3    7.20    5.20
  -1  -7  -3   24.40    6.30
  -1  -7  -3   13.80    4.90
   1   7   3    7.70    5.20
   1   7   3   13.30    3.90
   1   7   3    7.70    3.50
  -2  -7  -3  613.34   23.80
  -2  -7  -3  625.94   25.50
  -2  -7  -3  597.54   22.80
  -2  -7  -3  593.64   24.60
  -2  -7  -3  596.04   24.20
   2   7   3  606.54   21.10
   2   7   3  609.24   23.40
   2   7   3  641.24   25.40
  -3  -7  -3    1.60    8.90
  -3  -7  -3   13.10    7.60
  -3  -7  -3    5.40    6.20
  -3  -7  -3   -1.70    7.50
  -3  -7  -3    6.60    8.20
   3   7   3    7.30    8.90
   3   7   3   -2.30    6.90
   3   7   3    6.00    4.70
  -4  -7  -3  173.98   16.70
  -4  -7  -3  160.78   16.10
  -4  -7  -3  159.88   19.80
  -4  -7  -3  162.88   18.80
  -4  -7  -3  163.38   18.50
   4   7   3  188.38   19.20
   4   7   3  148.39   16.00
  -5  -7  -3   11.00   13.50
  -5  -7  -3   30.60   11.10
  -5  -7  -3   58.59   15.30
  -5  -7  -3   39.00   14.60
   5   7   3   33.70   11.90
   5   7   3   30.50   13.60
   2  -8  -3  330.37   15.60
   2  -8  -3  308.47   16.90
  -2   8   3  312.37   13.10
   1  -8  -3  161.38   12.40
   1  -8  -3  161.48   10.70
  -1   8   3  155.28    8.70
   0   8   3   22.00    4.30
  -1  -8  -3  138.99   11.00
  -1  -8  -3  136.99   13.80
  -1  -8  -3  155.18   12.40
   1   8   3  151.98    8.80
  -2  -8  -3  111.59   12.80
  -2  -8  -3  117.39   17.90
  -2  -8  -3  139.09   15.10
  -2  -8  -3  111.39   15.80
  -2  -8  -3  121.89   13.40
   2   8   3  136.89   13.10
   2   8   3  111.89   10.10
   2   8   3  105.79   12.50
   2   8   3  132.09   10.50
  -3  -8  -3   69.19   13.30
  -3  -8  -3   65.59   11.40
  -3  -8  -3   70.39   12.20
  -3  -8  -3   45.70   10.40
  -3  -8  -3   57.69    9.20
   3   8   3   59.29    9.80
   3   8   3   47.00   12.20
   3   8   3   64.29    7.70
  -4  -8  -3   21.60   12.90
  -4  -8  -3   55.59   14.60
  -4  -8  -3   34.50   11.40
   4   8   3   51.69   11.90
   4   8   3   41.30   13.00
   4   8   3   54.79    8.80
   0  -9  -3   17.00    7.80
   1   9   3   71.29    9.20
   2   8  -4   50.69   13.10
   2   8  -4   43.00    8.00
   2   8  -4   29.60   10.30
   2   8  -4   51.19   10.20
  -2  -8   4   84.79   14.90
  -2  -8   4   53.89   11.40
  -2  -8   4   52.79    6.90
  -2  -8   4   66.69    9.50
  -2  -8   4   51.19    8.60
   1   8  -4   63.39    9.70
   1   8  -4   59.89   12.30
   1   8  -4   63.99    7.40
   1   8  -4   76.29    8.80
  -1  -8   4   81.19   11.50
  -1  -8   4   86.19   13.70
  -1  -8   4   83.69   10.20
  -1  -8   4   82.59   12.20
  -1  -8   4   63.99   10.70
   0   8  -4   17.90    7.90
   0   8  -4   16.90    4.20
   0  -8   4   20.90    7.70
   0  -8   4   15.20    4.70
   0  -8   4   41.60   10.20
   1  -8   4   20.80    7.90
   4   7  -4   12.10   14.20
   4   7  -4    9.30   10.50
   4   7  -4    3.40   11.50
   4   7  -4    3.30   11.70
  -4  -7   4    6.20    7.50
  -4  -7   4    9.30    8.00
  -4  -7   4   -5.30   12.80
  -4  -7   4   13.30   10.20
  -4  -7   4    5.70   12.30
   3   7  -4   10.90    7.80
   3   7  -4   15.10    8.00
   3   7  -4   10.90    9.40
   3   7  -4   -4.00   10.80
  -3  -7   4    1.60    8.00
  -3  -7   4   14.60   10.00
  -3  -7   4   22.40   11.20
  -3  -7   4    7.50    6.20
   2   7  -4   29.40   10.40
   2   7  -4   42.50    8.70
   2   7  -4   44.40    7.20
   2   7  -4   37.70    8.20
  -2  -7   4   42.80    9.40
  -2  -7   4   43.20   10.70
  -2  -7   4   55.19    8.20
   1   7  -4   13.30    6.60
   1   7  -4   17.60    9.00
   1   7  -4    1.00    5.90
   1   7  -4   14.90    5.00
  -1  -7   4   11.70    4.40
  -1  -7   4   15.10    4.90
  -1  -7   4   12.00    7.70
  -1  -7   4   11.70    8.70
  -1  -7   4   14.00    5.70
   0   7  -4   10.50    7.70
   0   7  -4    2.50    3.40
   0   7  -4   -1.90    5.90
   0  -7   4    7.60    3.50
   0  -7   4   16.60    7.10
   0  -7   4    1.50    5.00
  -1   7  -4    8.20    3.70
   1  -7   4    9.40    3.60
   1  -7   4    8.10    7.30
   1  -7   4    5.70    5.90
  -2   7  -4    3.30    3.70
   2  -7   4   -9.90    6.40
   5   6  -4  -10.80   11.50
   5   6  -4    2.90   12.30
   5   6  -4   19.30   14.30
   5   6  -4    2.30   11.30
   5   6  -4    1.90   13.70
  -5  -6   4   -7.60   13.10
  -5  -6   4  -26.70   14.90
  -5  -6   4  -24.70   13.00
  -5  -6   4   -1.30   10.90
  -5  -6   4    0.10    8.80
   4   6  -4   19.20    8.80
   4   6  -4   19.50    9.20
   4   6  -4    3.40   10.40
   4   6  -4   16.80   11.30
   4   6  -4   17.80    9.30
  -4  -6   4   19.10   11.20
  -4  -6   4   23.70    8.90
  -4  -6   4   19.30   10.60
  -4  -6   4   25.10    7.20
  -4  -6   4   21.00    6.80
   3   6  -4  108.29   13.50
   3   6  -4  121.29   13.00
   3   6  -4  127.79   16.40
   3   6  -4  123.29   11.90
   3   6  -4  112.29   12.60
  -3  -6   4  129.99   12.90
  -3  -6   4  125.79   10.60
  -3  -6   4  117.09    9.60
  -3  -6   4  145.39   16.70
  -3  -6   4  110.49   14.80
   2   6  -4    7.20    5.80
   2   6  -4    5.40    7.30
   2   6  -4    4.40    5.80
   2   6  -4    5.10    5.10
  -2  -6   4   -4.90    3.90
  -2  -6   4   -1.40    4.70
  -2  -6   4    6.30    7.10
  -2  -6   4    6.00    6.90
   1   6  -4   34.50    5.10
   1   6  -4   35.70    6.20
   1   6  -4   26.60    7.40
   1   6  -4   29.00    6.60
  -1  -6   4   17.10    8.10
  -1  -6   4   31.30    8.10
  -1  -6   4   32.00    5.10
  -1  -6   4   28.30    4.20
  -1  -6   4   28.70    4.60
   0   6  -4  177.28    9.20
   0   6  -4  174.38   10.60
   0   6  -4  172.78    8.30
   0   6  -4  178.08   12.60
   0  -6   4  175.38    8.00
   0  -6   4  183.88   11.70
  -1   6  -4  409.36   15.60
  -1   6  -4  415.06   13.90
  -1   6  -4  401.56   14.90
   1  -6   4  401.56   14.00
   1  -6   4  407.16   16.50
   1  -6   4  391.06   16.50
  -2   6  -4   51.49    5.10
   2  -6   4   48.60    7.50
  -3   6  -4   -2.10    2.90
   3  -6   4    3.50    6.50
   3  -6   4    0.00    3.40
   5   5  -4  114.99   15.90
   5   5  -4  124.99   17.80
   5   5  -4  133.29   17.30
   5   5  -4  158.98   17.10
   5   5  -4  160.38   20.30
  -5  -5   4   64.79   25.80
  -5  -5   4  110.09   17.10
  -5  -5   4   92.89   15.20
  -5  -5   4  134.79   14.80
   4   5  -4   25.50    7.80
   4   5  -4   38.80    8.50
   4   5  -4   23.10    8.30
   4   5  -4   37.60    9.80
   4   5  -4   27.20   15.70
  -4  -5   4   45.00   10.70
  -4  -5   4   40.80   10.20
  -4  -5   4   43.60    6.90
  -4  -5   4   27.40    6.30
   3   5  -4   15.40    6.50
   3   5  -4    7.80    7.10
   3   5  -4    3.00    5.80
   3   5  -4    8.70    6.30
  -3  -5   4    6.10    4.60
  -3  -5   4    5.70    7.30
  -3  -5   4    8.70    5.80
  -3  -5   4   10.20    4.10
   2   5  -4  205.28   11.10
   2   5  -4  192.68   12.00
   2   5  -4  209.88   11.60
   2   5  -4  206.88   13.80
  -2  -5   4  202.48   10.20
  -2  -5   4  223.98   13.20
  -2  -5   4  186.98   11.20
  -2  -5   4  209.28   13.80
   1   5  -4   87.09    7.20
   1   5  -4   92.19    7.90
   1   5  -4   96.39    8.10
   1   5  -4   86.59    9.60
  -1  -5   4  106.79    7.30
  -1  -5   4   95.79    6.30
  -1  -5   4   98.59    9.50
  -1  -5   4   81.59    7.10
  -1  -5   4   95.79    9.60
   0   5  -4   20.30    3.50
   0   5  -4   21.80    4.90
   0   5  -4   19.00    3.00
   0  -5   4   17.60    3.40
   0  -5   4   25.00    3.00
   0  -5   4   25.70    4.80
   0  -5   4   26.40    5.50
   0  -5   4   19.90    4.00
  -1   5  -4 1712.73   50.39
  -1   5  -4 1724.23   49.60
  -1   5  -4 1713.13   51.09
  -1   5  -4 1715.43   49.80
  -1   5  -4 1626.64   50.19
   1  -5   4 1668.53   50.69
   1  -5   4 1628.14   49.80
   1  -5   4 1708.33   51.59
   1  -5   4 1715.33   49.60
  -2   5  -4    0.30    3.10
  -2   5  -4    1.00    2.60
  -2   5  -4    4.30    2.40
   2  -5   4    0.00    2.00
   2  -5   4    1.00    4.10
   2  -5   4    3.20    3.20
  -3   5  -4    4.00    5.00
  -3   5  -4    9.90    2.80
   3  -5   4   10.00    4.70
  -4   5  -4   30.30    3.90
  -4   5  -4   36.40    8.50
   4  -5   4   42.50    8.40
   6   4  -4   11.50   12.00
   6   4  -4    6.60   13.60
   6   4  -4   11.70   12.80
   6   4  -4   12.70   11.50
   6   4  -4   29.50   16.10
  -6  -4   4   -3.70   14.30
  -6  -4   4    1.10    8.10
  -6  -4   4   22.20   16.80
  -6  -4   4   -0.30   10.90
  -6  -4   4    3.10    9.50
   5   4  -4  926.51   37.80
   5   4  -4  937.71   38.90
   5   4  -4  884.41   37.90
   5   4  -4  957.40   36.60
   5   4  -4  971.00   35.70
  -5  -4   4  970.00   34.70
  -5  -4   4  966.10   39.40
  -5  -4   4  912.21   37.40
  -5  -4   4  958.70   35.60
   4   4  -4    4.70    5.70
   4   4  -4    9.00    7.80
   4   4  -4    2.90    6.40
   4   4  -4   -5.30    7.00
   4   4  -4   11.30    6.20
  -4  -4   4    3.00    5.00
  -4  -4   4    0.40    5.50
  -4  -4   4   11.50    8.50
  -4  -4   4    0.00    4.60
  -4  -4   4    7.90    6.90
   3   4  -4   10.00    4.70
   3   4  -4    1.70    5.80
   3   4  -4   -2.30    4.80
   3   4  -4    5.30    5.20
   3   4  -4    8.00    4.80
  -3  -4   4    8.80    5.80
  -3  -4   4   13.10    6.30
  -3  -4   4    5.40    3.70
  -3  -4   4    7.80    4.90
  -3  -4   4    4.00    3.50
   2   4  -4   54.29    7.50
   2   4  -4   78.29    7.80
   2   4  -4   56.09    7.10
   2   4  -4   59.19    8.90
   2   4  -4   58.79    6.90
  -2  -4   4   73.39    8.50
  -2  -4   4   57.99    7.00
  -2  -4   4   69.39    5.80
  -2  -4   4   61.59    5.10
  -2  -4   4   55.39    8.70
   1   4  -4   46.50    5.60
   1   4  -4   53.19    6.00
   1   4  -4   48.40    6.80
   1   4  -4   51.09    6.00
  -1  -4   4   52.89    4.70
  -1  -4   4   48.30    5.70
  -1  -4   4   58.99    7.20
  -1  -4   4   49.40    5.30
   0   4  -4  351.56   12.50
   0   4  -4  361.86   13.90
   0   4  -4  346.47   12.70
   0   4  -4  375.16   13.40
   0  -4   4  354.36   13.70
   0  -4   4  373.16   14.40
   0  -4   4  360.86   13.20
   0  -4   4  374.06   12.20
   0  -4   4  371.26   12.70
  -1   4  -4   78.99    5.20
  -1   4  -4   81.29    4.30
  -1   4  -4   78.59    4.80
  -1   4  -4   92.89    6.40
  -1   4  -4   81.09    4.50
   1  -4   4   72.19    6.70
   1  -4   4   83.39    6.00
   1  -4   4   84.99    5.30
   1  -4   4   76.29    5.80
   1  -4   4   87.29    4.80
  -2   4  -4   18.30    2.70
  -2   4  -4    9.90    3.90
  -2   4  -4   16.00    2.70
  -2   4  -4   10.50    2.50
   2  -4   4   17.40    3.30
   2  -4   4   16.20    3.50
   2  -4   4   13.60    3.10
  -3   4  -4  534.65   17.00
  -3   4  -4  528.95   17.30
  -3   4  -4  564.44   18.80
   3  -4   4  463.05   18.10
   3  -4   4  542.45   18.70
  -4   4  -4  379.46   16.00
  -4   4  -4  387.86   13.60
  -4   4  -4  407.66   17.40
  -4   4  -4  380.76   13.30
   4  -4   4  377.56   17.40
   4  -4   4  386.06   20.30
   4  -4   4  374.96   13.90
  -5   4  -4    8.10    7.10
  -5   4  -4    5.30    2.90
  -5   4  -4   11.70    7.10
   5  -4   4    3.70   10.50
   5  -4   4   -4.30   12.20
   5  -4   4    9.70    4.20
   6   3  -4  130.69   18.20
   6   3  -4  121.09   20.30
   6   3  -4  116.79   16.90
   6   3  -4  159.18   18.00
   6   3  -4  133.59   22.40
  -6  -3   4  152.58   17.40
  -6  -3   4  104.49   14.60
  -6  -3   4  118.49   16.10
  -6  -3   4  128.49   16.10
  -6  -3   4  129.79   19.10
   5   3  -4   23.00   10.00
   5   3  -4   24.20   10.20
   5   3  -4   13.90    8.70
   5   3  -4   19.90    7.90
  -5  -3   4   25.70    7.10
  -5  -3   4   12.40    8.90
  -5  -3   4   20.00    6.90
  -5  -3   4   13.90    9.90
  -5  -3   4   16.20   10.00
   4   3  -4  264.17   14.40
   4   3  -4  255.07   16.20
   4   3  -4  283.17   16.00
   4   3  -4  269.27   14.40
   4   3  -4  254.17   15.40
  -4  -3   4  273.17   13.60
  -4  -3   4  273.97   18.00
  -4  -3   4  285.97   15.90
  -4  -3   4  251.97   12.90
  -4  -3   4  256.97   14.40
   3   3  -4   65.09    7.80
   3   3  -4   59.39    8.60
   3   3  -4   52.19    8.80
   3   3  -4   54.19    8.20
   3   3  -4   60.99    7.80
  -3  -3   4   66.79    9.30
  -3  -3   4   50.79    6.00
  -3  -3   4   70.59   10.20
  -3  -3   4   50.99    7.30
  -3  -3   4   56.69    6.30
   2   3  -4  259.77   11.60
   2   3  -4  263.37   11.90
   2   3  -4  287.97   11.90
   2   3  -4  282.97   11.80
   2   3  -4  259.57   12.50
  -2  -3   4  263.77   10.50
  -2  -3   4  283.97   11.80
  -2  -3   4  268.37   10.90
  -2  -3   4  299.77   12.90
  -2  -3   4  276.27   12.90
   1   3  -4    0.50    2.60
   1   3  -4    3.10    2.50
   1   3  -4   -0.40    2.40
   1   3  -4   -1.00    2.90
  -1  -3   4   -2.70    2.00
  -1  -3   4    0.30    1.80
  -1  -3   4    0.00    2.90
  -1  -3   4   -2.90    3.10
   0   3  -4  457.65   14.90
   0   3  -4  459.35   15.20
   0   3  -4  443.86   15.00
   0   3  -4  457.95   15.70
   0  -3   4  463.35   15.50
   0  -3   4  469.75   15.00
   0  -3   4  467.85   14.60
   0  -3   4  467.05   15.90
   0  -3   4  447.36   15.20
  -1   3  -4 1963.30   56.99
  -1   3  -4 1969.90   58.09
  -1   3  -4 1946.01   57.19
  -1   3  -4 1953.40   57.49
  -1   3  -4 2083.89   57.09
   1  -3   4 2013.80   57.39
   1  -3   4 1917.61   56.99
   1  -3   4 1954.50   57.29
   1  -3   4 1947.91   57.39
   1  -3   4 1946.01   58.09
  -2   3  -4  255.27    9.40
  -2   3  -4  258.07   10.00
  -2   3  -4  248.68    8.90
  -2   3  -4  244.38    9.20
  -2   3  -4  254.37    8.80
  -2   3  -4  260.07   10.80
   2  -3   4  247.88    9.80
   2  -3   4  256.77   10.60
   2  -3   4  263.47    9.30
   2  -3   4  266.67    9.60
   2  -3   4  228.88   10.20
  -3   3  -4  110.39    6.40
  -3   3  -4  111.09    8.00
  -3   3  -4  104.49    7.60
  -3   3  -4  111.99    5.20
  -3   3  -4  119.49    6.50
  -3   3  -4  120.79    8.10
  -3   3  -4  107.89    5.70
   3  -3   4   92.99    9.70
   3  -3   4  120.49    6.70
   3  -3   4  103.39    7.70
   3  -3   4  121.69    6.00
   3  -3   4  122.19    8.10
  -4   3  -4  488.15   16.10
  -4   3  -4  507.65   19.60
  -4   3  -4  478.75   17.40
  -4   3  -4  450.05   16.20
  -4   3  -4  507.85   18.30
  -4   3  -4  508.85   19.50
  -4   3  -4  498.55   19.40
   4  -3   4  486.15   22.40
   4  -3   4  509.55   16.60
   4  -3   4  490.85   19.60
   4  -3   4  446.26   20.20
   4  -3   4  485.55   17.20
  -5   3  -4   79.29    8.90
  -5   3  -4  117.29   12.20
  -5   3  -4   70.59    7.20
  -5   3  -4   88.59    5.40
  -5   3  -4   76.89   12.50
   5  -3   4   96.59    7.40
   5  -3   4   70.89   10.50
   5  -3   4   83.79   13.90
   6   2  -4   -5.50   10.80
   6   2  -4   17.40    8.70
   6   2  -4    6.60   12.70
   6   2  -4   -4.30   10.10
   6   2  -4   14.40   11.50
  -6  -2   4   -2.70    8.50
  -6  -2   4   -2.70    7.60
  -6  -2   4   -3.00   13.70
  -6  -2   4    4.30    6.60
  -6  -2   4   -9.70   11.30
   5   2  -4  280.37   19.00
   5   2  -4  298.37   17.70
   5   2  -4  298.97   17.10
   5   2  -4  330.67   19.60
   5   2  -4  262.37   20.60
  -5  -2   4  280.87   19.10
  -5  -2   4  295.77   16.50
  -5  -2   4  297.87   20.60
  -5  -2   4  301.37   15.80
  -5  -2   4  291.97   15.30
   4   2  -4  190.68   13.30
   4   2  -4  183.48   13.50
   4   2  -4  169.78   12.30
   4   2  -4  182.28   11.40
   4   2  -4  174.48   11.50
  -4  -2   4  172.78   10.50
  -4  -2   4  194.08   13.30
  -4  -2   4  174.38    9.90
  -4  -2   4  184.58   14.50
  -4  -2   4  192.78   11.30
   3   2  -4  330.57   13.60
   3   2  -4  305.17   13.90
   3   2  -4  314.27   14.20
   3   2  -4  318.27   13.50
   3   2  -4  307.07   14.40
  -3  -2   4  304.07   12.80
  -3  -2   4  335.37   14.50
  -3  -2   4  338.87   15.30
  -3  -2   4  310.87   13.40
  -3  -2   4  302.27   12.50
   2   2  -4   -2.20    2.40
   2   2  -4    0.50    2.70
   2   2  -4    0.50    2.90
   2   2  -4   -0.90    2.90
   2   2  -4    0.30    2.60
  -2  -2   4    1.70    2.10
  -2  -2   4   -1.00    3.30
  -2  -2   4    1.50    2.10
  -2  -2   4   -2.80    3.10
  -2  -2   4    5.00    2.50
   1   2  -4  338.87   11.80
   1   2  -4  345.17   11.80
   1   2  -4  323.57   11.90
   1   2  -4  324.17   12.20
   1   2  -4  316.87   11.30
  -1  -2   4  332.87   12.20
  -1  -2   4  333.97   12.50
  -1  -2   4  327.07   11.70
   0   2  -4 1335.77   40.60
   0   2  -4 1396.16   41.10
   0   2  -4 1374.96   40.60
   0   2  -4 1367.96   40.60
   0  -2   4 1395.46   41.10
   0  -2   4 1364.86   40.60
   0  -2   4 1435.56   40.30
   0  -2   4 1346.37   40.60
   0  -2   4 1448.96   41.00
  -1   2  -4  252.87    8.60
  -1   2  -4  252.07    8.90
  -1   2  -4  255.97    9.50
  -1   2  -4  247.88    8.90
  -1   2  -4  226.98    8.90
  -1   2  -4  247.28    8.50
   1  -2   4  263.87    9.00
   1  -2   4  262.77    8.80
   1  -2   4  261.77    8.90
   1  -2   4  251.77    9.10
  -2   2  -4   78.39    5.30
  -2   2  -4   58.39    5.40
  -2   2  -4   75.99    4.40
  -2   2  -4   74.29    5.00
  -2   2  -4   63.29    4.10
  -2   2  -4   76.69    3.40
  -2   2  -4   72.29    4.60
   2  -2   4   72.89    4.40
   2  -2   4   69.39    4.60
   2  -2   4   72.29    4.00
   2  -2   4   68.99    5.60
   2  -2   4   72.09    5.20
  -3   2  -4  366.86   13.30
  -3   2  -4  370.76   14.10
  -3   2  -4  367.86   13.40
  -3   2  -4  382.36   14.90
  -3   2  -4  373.96   14.50
  -3   2  -4  360.66   11.90
   3  -2   4  363.36   14.70
   3  -2   4  380.46   12.60
   3  -2   4  362.86   13.00
   3  -2   4  352.56   14.00
   3  -2   4  355.46   16.10
  -4   2  -4   75.99    9.30
  -4   2  -4   69.39    4.10
  -4   2  -4   82.79    9.00
  -4   2  -4   76.79    7.50
  -4   2  -4   72.19    7.70
  -4   2  -4   70.99    7.80
   4  -2   4   78.09    5.70
   4  -2   4   81.09   12.80
   4  -2   4   56.09    8.00
   4  -2   4   74.59    9.70
   4  -2   4   66.69    6.90
  -5   2  -4    3.80    6.00
  -5   2  -4    3.50    5.50
  -5   2  -4   -2.00    6.00
  -5   2  -4    4.80    7.50
  -5   2  -4    8.30    2.30
  -5   2  -4    6.50    6.90
   5  -2   4    0.90   12.50
   5  -2   4    5.80    3.80
   5  -2   4    4.80    4.90
   5  -2   4   16.80   10.40
   5  -2   4    6.30    8.10
  -6   2  -4   24.80    8.60
  -6   2  -4   16.80    3.50
  -6   2  -4   24.60    6.10
  -6   2  -4   30.70   11.40
  -6   2  -4   28.20    9.30
  -6   2  -4   20.30   10.40
  -6   2  -4   24.80    8.40
   6  -2   4   16.80    7.70
   6  -2   4   -0.50   25.40
   6  -2   4   18.50    5.70
   6  -2   4   14.90   15.50
   6  -2   4   31.60   12.60
   6   1  -4   17.20   11.40
   6   1  -4   23.30   10.20
   6   1  -4   48.30   11.40
   6   1  -4   13.10   10.90
   6   1  -4   19.80    8.40
  -6  -1   4   13.40   11.60
  -6  -1   4   16.70    6.60
  -6  -1   4   17.60    8.60
  -6  -1   4   10.70   13.70
  -6  -1   4   16.60    6.20
  -6  -1   4   20.80    8.10
   5   1  -4   16.00    6.90
   5   1  -4   23.50    8.30
   5   1  -4    2.70    6.60
   5   1  -4   12.10    6.20
   5   1  -4   23.20    8.20
  -5  -1   4   13.60    8.90
  -5  -1   4   17.30    5.50
  -5  -1   4   24.40    7.70
  -5  -1   4   27.80    6.60
  -5  -1   4   17.40    6.40
   4   1  -4  114.29    9.20
   4   1  -4  107.19    8.80
   4   1  -4  114.69   10.10
   4   1  -4  121.09   10.90
   4   1  -4  116.89   10.80
  -4  -1   4  117.59    8.50
  -4  -1   4  114.89   10.70
  -4  -1   4  120.79   12.20
  -4  -1   4  110.59    7.70
  -4  -1   4  125.79    9.20
   3   1  -4  226.48   10.60
   3   1  -4  235.48   11.40
   3   1  -4  217.48   10.90
   3   1  -4  227.88   11.50
   3   1  -4  233.88   10.50
  -3  -1   4  233.98   12.20
  -3  -1   4  208.08    9.30
  -3  -1   4  244.18   11.50
  -3  -1   4  218.78   10.40
  -3  -1   4  224.88   10.00
   2   1  -4  269.77   11.20
   2   1  -4  281.07   10.60
   2   1  -4  275.37   10.90
   2   1  -4  269.57   10.60
   2   1  -4  273.57   11.10
  -2  -1   4  278.87   10.30
  -2  -1   4  282.07   10.70
  -2  -1   4  278.17   11.60
  -2  -1   4  273.57   11.30
  -2  -1   4  285.67   10.10
   1   1  -4   15.20    2.40
   1   1  -4   14.50    2.30
   1   1  -4   14.40    2.10
   1   1  -4   13.10    2.20
   1   1  -4   13.60    2.10
   1   1  -4   11.60    1.40
  -1  -1   4   15.20    2.50
  -1  -1   4   15.20    2.80
  -1  -1   4   15.70    2.70
  -1  -1   4   13.80    2.10
   0   1  -4  205.18    7.10
   0   1  -4  210.68    7.60
   0   1  -4  203.88    7.20
   0   1  -4  204.68    7.40
   0   1  -4  229.58    7.30
   0  -1   4  217.88    7.70
   0  -1   4  191.38    7.00
   0  -1   4  213.68    7.40
   0  -1   4  213.48    7.60
  -1   1  -4 1693.03   45.80
  -1   1  -4 1539.55   47.10
  -1   1  -4 1614.04   46.50
  -1   1  -4 1551.34   46.60
  -1   1  -4 1703.03   46.30
  -1   1  -4 1570.84   46.70
  -1   1  -4 1562.54   46.40
   1  -1   4 1627.34   46.50
   1  -1   4 1619.84   46.80
   1  -1   4 1585.24   46.30
   1  -1   4 1553.64   46.80
   1  -1   4 1595.44   46.50
  -2   1  -4    5.30    2.70
  -2   1  -4    2.60    2.30
  -2   1  -4    8.10    2.20
  -2   1  -4    3.80    1.00
  -2   1  -4    5.80    1.80
  -2   1  -4    5.00    2.00
  -2   1  -4    5.60    1.80
   2  -1   4    5.50    1.90
   2  -1   4    6.40    2.50
   2  -1   4    6.60    1.60
   2  -1   4    7.70    2.20
  -3   1  -4 1130.69   36.00
  -3   1  -4 1143.99   33.70
  -3   1  -4 1110.49   34.40
  -3   1  -4 1152.88   34.30
  -3   1  -4 1124.49   32.30
   3  -1   4 1062.69   35.20
   3  -1   4 1081.29   33.80
   3  -1   4 1063.99   36.00
   3  -1   4 1076.59   34.40
   3  -1   4 1088.89   33.30
  -4   1  -4  528.85   18.70
  -4   1  -4  550.64   19.60
  -4   1  -4  543.45   19.90
  -4   1  -4  530.75   19.30
  -4   1  -4  549.65   16.70
  -4   1  -4  534.65   20.70
  -4   1  -4  518.75   21.40
   4  -1   4  523.75   22.90
   4  -1   4  524.75   18.10
   4  -1   4  526.25   18.90
   4  -1   4  496.25   20.80
   4  -1   4  530.25   20.00
  -5   1  -4   62.59   11.00
  -5   1  -4   74.79   11.10
  -5   1  -4   95.39   12.00
  -5   1  -4   61.49    8.00
  -5   1  -4   59.89    8.90
  -5   1  -4   63.79    4.60
  -5   1  -4   72.59    9.00
   5  -1   4   68.39    8.60
   5  -1   4   57.79    9.40
   5  -1   4   85.79    7.50
   5  -1   4   68.49    9.20
  -6   1  -4   61.09    8.70
  -6   1  -4   67.89   11.00
  -6   1  -4   65.89    5.40
  -6   1  -4   63.59   12.00
  -6   1  -4   63.49    9.20
  -6   1  -4   70.79   11.90
  -6   1  -4   98.69   13.50
   6  -1   4   72.99   13.40
   6  -1   4   85.29   12.30
   6  -1   4   86.59   15.80
   6  -1   4   71.09    9.80
   6  -1   4   56.59    9.10
   6   0  -4    6.20   11.50
   6   0  -4   10.60   12.20
   6   0  -4   11.00    7.10
   6   0  -4    3.20    8.90
   6   0  -4   -0.90    9.70
  -6   0   4    3.70    5.80
  -6   0   4   14.60    7.60
  -6   0   4    4.00    2.80
  -6   0   4    9.50   12.30
  -6   0   4    1.20    5.90
  -6   0   4  -14.70   10.40
  -6   0   4    6.40    8.50
   5   0  -4  166.58   11.30
   5   0  -4  117.29   13.50
   5   0  -4  174.18   15.60
   5   0  -4  146.29   12.30
   5   0  -4  174.18   15.20
  -5   0   4  149.49   12.10
  -5   0   4  148.09   11.30
  -5   0   4  144.29    8.30
  -5   0   4  137.99   14.40
  -5   0   4  155.38    9.70
  -5   0   4  156.78   16.80
   4   0  -4   70.39    9.80
   4   0  -4   62.49    8.90
   4   0  -4   88.89    8.00
   4   0  -4   67.79    9.70
   4   0  -4   83.69    7.40
  -4   0   4   62.29    8.30
  -4   0   4   73.29    7.10
  -4   0   4   63.59    5.10
  -4   0   4   75.89    8.00
  -4   0   4   82.39    9.50
  -4   0   4   76.89    6.10
   3   0  -4  900.31   29.50
   3   0  -4  944.01   28.90
   3   0  -4  882.71   28.60
   3   0  -4  891.31   30.30
   3   0  -4  884.71   29.00
  -3   0   4  942.11   29.60
  -3   0   4  901.31   28.10
  -3   0   4  884.91   28.70
  -3   0   4  914.31   30.00
  -3   0   4  924.41   29.20
   2   0  -4  426.26   14.40
   2   0  -4  405.16   14.70
   2   0  -4  415.86   15.00
   2   0  -4  413.06   14.10
   2   0  -4  433.06   14.20
  -2   0   4  432.66   14.20
  -2   0   4  428.26   13.70
  -2   0   4  426.76   14.70
  -2   0   4  415.36   15.00
  -2   0   4  421.36   14.30
   1   0  -4  582.94   17.80
   1   0  -4  546.85   17.30
   1   0  -4  605.94   18.20
   1   0  -4  603.14   17.80
   1   0  -4  566.64   18.10
   1   0  -4  553.14   17.80
  -1   0   4  575.54   17.80
  -1   0   4  605.84   18.20
  -1   0   4  584.44   17.50
  -1   0   4  584.34   18.30
   0   0  -4 2301.97   70.19
   0   0  -4 2455.85   70.59
   0   0  -4 2448.35   70.69
   0   0  -4 2411.96   70.69
   0   0  -4 2337.07   70.49
   0   0  -4 2592.14   70.59
   0   0   4 2538.75   70.79
   0   0   4 2452.25   70.69
   0   0   4 2386.26   70.39
   0   0   4 2663.73   70.59
   0   0   4 2609.34   70.69
  -1   0  -4  186.68    7.00
  -1   0  -4  187.28    7.10
  -1   0  -4  188.48    5.70
  -1   0  -4  191.68    6.70
  -1   0  -4  185.78    6.70
   1   0   4  189.18    6.60
   1   0   4  183.98    6.80
   1   0   4  182.18    7.30
   1   0   4  185.38    6.90
  -2   0  -4    7.30    2.10
  -2   0  -4    7.90    2.50
  -2   0  -4    5.60    1.00
  -2   0  -4    5.90    1.80
  -2   0  -4    4.70    2.70
  -2   0  -4    5.20    2.30
   2   0   4    4.10    2.20
   2   0   4    7.50    1.80
   2   0   4    6.10    2.10
   2   0   4    6.50    2.50
  -3   0  -4  357.36   15.20
  -3   0  -4  357.86   11.10
  -3   0  -4  365.96   13.60
  -3   0  -4  363.46   13.30
  -3   0  -4  363.06   14.10
   3   0   4  353.56   13.80
   3   0   4  323.77   14.50
   3   0   4  361.76   13.50
   3   0   4  358.46   12.80
   3   0   4  347.07   15.50
  -4   0  -4  277.47    9.40
  -4   0  -4  282.27   12.60
  -4   0  -4  261.57   13.70
  -4   0  -4  272.87   14.80
  -4   0  -4  289.67   13.80
  -4   0  -4  288.17   12.60
  -4   0  -4  279.97   12.70
   4   0   4  270.67   12.40
   4   0   4  248.88   14.20
   4   0   4  253.97   13.40
   4   0   4  252.87   15.90
   4   0   4  285.77   11.50
  -5   0  -4  874.01   32.70
  -5   0  -4  918.61   27.30
  -5   0  -4  826.02   44.20
  -5   0  -4  907.31   30.80
  -5   0  -4  879.81   31.30
  -5   0  -4  912.71   32.10
  -5   0  -4  906.51   30.80
   5   0   4  900.21   29.70
   5   0   4  903.71   30.80
   5   0   4  952.40   44.50
   5   0   4  857.11   32.30
   5   0   4  863.81   33.60
  -6   0  -4   50.09   10.40
  -6   0  -4   77.19   11.90
  -6   0  -4   50.69    9.00
  -6   0  -4   62.29   12.00
  -6   0  -4   47.30    4.80
  -6   0  -4   47.30    9.10
  -6   0  -4   67.59    9.90
   6   0   4   51.39    7.50
   6   0   4   51.29    8.50
   6   0   4   57.79   12.40
   6   0   4   53.29   14.20
   6   0   4   48.00   10.90
   6  -1  -4   35.70    7.70
   6  -1  -4   53.29   13.50
   6  -1  -4   33.60   10.00
   6  -1  -4   47.10   14.30
   6  -1  -4   28.20   10.00
  -6   1   4   63.49   13.30
  -6   1   4   37.10    6.70
  -6   1   4   25.60    6.30
  -6   1   4   35.30    8.30
  -6   1   4   33.40    4.40
  -6   1   4   27.40    8.60
  -6   1   4   23.10    9.00
   5  -1  -4  302.87   14.30
   5  -1  -4  253.67   15.40
   5  -1  -4  309.37   18.80
   5  -1  -4  274.37   15.30
   5  -1  -4  327.07   23.50
  -5   1   4  251.67   10.80
  -5   1   4  286.97   14.70
  -5   1   4  272.17   12.40
  -5   1   4  284.47   16.00
  -5   1   4  289.37   12.10
  -5   1   4  291.27   18.50
   4  -1  -4    2.90    5.20
   4  -1  -4    3.50    3.80
   4  -1  -4    6.80    5.30
   4  -1  -4    4.50    4.60
   4  -1  -4    4.80    4.10
  -4   1   4    4.30    3.60
  -4   1   4    1.60    1.70
  -4   1   4    4.30    2.80
  -4   1   4   -3.70    5.00
  -4   1   4   -5.00    5.50
  -4   1   4    5.20    2.90
   3  -1  -4  261.47   10.30
   3  -1  -4  249.38   10.50
   3  -1  -4  260.37   12.30
   3  -1  -4  279.47   11.40
   3  -1  -4  254.97   10.50
  -3   1   4  254.97   10.30
  -3   1   4  254.77   10.90
  -3   1   4  263.47    9.50
  -3   1   4  257.67   11.10
  -3   1   4  254.77    9.10
   2  -1  -4  670.83   21.70
   2  -1  -4  654.63   20.90
   2  -1  -4  653.23   20.30
   2  -1  -4  672.63   20.50
   2  -1  -4  659.23   20.50
  -2   1   4  674.73   19.90
  -2   1   4  677.23   20.40
  -2   1   4  616.64   21.10
   1  -1  -4 2154.78   59.89
   1  -1  -4 1937.61   59.69
   1  -1  -4 2151.38   59.59
   1  -1  -4 2057.09   59.59
  -1   1   4 2070.09   59.59
  -1   1   4 2094.99   59.29
  -1   1   4 2101.79   59.99
   0  -1  -4 1392.36   40.40
   0  -1  -4 1357.16   40.60
   0  -1  -4 1329.27   40.20
   0  -1  -4 1436.06   40.20
   0  -1  -4 1401.76   40.50
   0   1   4 1458.85   40.20
   0   1   4 1378.56   39.50
   0   1   4 1417.06   40.40
   0   1   4 1361.56   40.50
   0   1   4 1426.66   40.60
   0   1   4 1384.36   40.30
  -1  -1  -4 1614.94   44.70
  -1  -1  -4 1503.05   45.00
  -1  -1  -4 1543.95   44.90
  -1  -1  -4 1510.75   44.50
   1   1   4 1462.05   44.30
   1   1   4 1487.55   44.60
   1   1   4 1562.44   44.80
   1   1   4 1527.15   45.20
  -2  -1  -4 1499.55   44.90
  -2  -1  -4 1524.05   44.50
  -2  -1  -4 1473.25   44.50
  -2  -1  -4 1458.95   45.10
  -2  -1  -4 1441.26   45.80
   2   1   4 1486.85   44.70
   2   1   4 1549.14   44.20
   2   1   4 1472.55   45.30
   2   1   4 1515.35   44.70
  -3  -1  -4  336.57   13.00
  -3  -1  -4  335.67   13.00
  -3  -1  -4  325.67   13.70
  -3  -1  -4  334.97   14.70
  -3  -1  -4  301.37   10.70
  -3  -1  -4  324.27   13.70
   3   1   4  308.57   14.10
   3   1   4  324.07   13.40
   3   1   4  336.57   13.20
   3   1   4  335.07   12.40
  -4  -1  -4  554.74   21.60
  -4  -1  -4  522.15   21.50
  -4  -1  -4  534.75   22.30
  -4  -1  -4  553.84   20.80
  -4  -1  -4  583.04   17.30
  -4  -1  -4  563.24   20.70
   4   1   4  560.14   20.60
   4   1   4  536.35   21.20
   4   1   4  577.74   19.80
   4   1   4  535.75   22.80
   4   1   4  532.65   22.20
  -5  -1  -4   -0.50    7.20
  -5  -1  -4    9.60    6.90
  -5  -1  -4    5.00    7.20
  -5  -1  -4    4.90    6.60
  -5  -1  -4    1.90    2.20
   5   1   4    1.80    8.60
   5   1   4    3.10    5.60
   5   1   4   -5.00    7.10
   5   1   4    4.90    5.40
   5   1   4    8.40    8.20
  -6  -1  -4   21.60    3.40
  -6  -1  -4   18.00    9.60
  -6  -1  -4   28.60    9.80
  -6  -1  -4   35.30    8.90
  -6  -1  -4   27.50   11.40
  -6  -1  -4   28.30   10.50
  -6  -1  -4   27.70    7.80
   6   1   4   21.80    7.00
   6   1   4    3.10   11.80
   6   1   4   30.90   12.90
   6   1   4   19.00    7.70
   6   1   4   22.40   11.20
   6  -2  -4   -0.70    8.90
   6  -2  -4   14.70   13.80
  -6   2   4    4.20    5.50
  -6   2   4    4.60    3.00
  -6   2   4    9.80    6.60
  -6   2   4   -9.00    7.40
  -6   2   4    0.50    8.20
   5  -2  -4   17.40    8.70
   5  -2  -4   21.90    5.60
   5  -2  -4   16.60    6.60
  -5   2   4   21.50    4.30
  -5   2   4   18.90    5.00
  -5   2   4   13.90    6.40
  -5   2   4   17.80    6.00
  -5   2   4   13.40    3.00
   4  -2  -4   12.20    6.40
   4  -2  -4   17.20    4.10
   4  -2  -4   16.20    4.60
  -4   2   4   14.70    2.90
  -4   2   4   18.10    3.40
  -4   2   4   16.80    4.30
  -4   2   4   17.10    2.30
   3  -2  -4  323.47   14.20
   3  -2  -4  310.77   11.20
  -3   2   4  306.27   11.00
  -3   2   4  303.47   10.50
   2  -2  -4  809.12   25.60
   2  -2  -4  750.52   23.70
   2  -2  -4  786.52   24.40
  -2   2   4  830.92   23.70
   1  -2  -4    0.60    1.10
  -1   2   4    0.00    0.80
  -1   2   4    1.30    1.20
   0  -2  -4  274.77    8.90
   0  -2  -4  270.47    9.40
   0  -2  -4  245.78    9.00
   0  -2  -4  279.27    9.60
   0  -2  -4  279.47    9.10
   0   2   4  283.57    9.00
   0   2   4  278.37    9.50
   0   2   4  286.47    9.30
   0   2   4  282.27    8.30
   0   2   4  288.57    9.40
  -1  -2  -4  393.96   13.90
  -1  -2  -4  409.16   13.80
  -1  -2  -4  375.66   13.30
  -1  -2  -4  408.66   13.40
   1   2   4  414.56   13.70
   1   2   4  419.46   13.60
   1   2   4  405.86   13.10
   1   2   4  413.36   14.10
  -2  -2  -4 1833.42   54.69
  -2  -2  -4 1861.81   55.19
  -2  -2  -4 1764.62   55.79
  -2  -2  -4 1891.61   54.69
  -2  -2  -4 1835.42   55.39
   2   2   4 1831.72   55.59
   2   2   4 1833.22   54.89
   2   2   4 1799.42   54.19
   2   2   4 1907.01   55.09
  -3  -2  -4  101.99    7.70
  -3  -2  -4   88.49    8.60
  -3  -2  -4   88.49    8.20
  -3  -2  -4   85.29    8.00
  -3  -2  -4  101.09    7.20
   3   2   4  104.29    8.30
   3   2   4  108.39    6.90
   3   2   4   99.69    8.80
   3   2   4  115.69    7.80
  -4  -2  -4   19.20    5.70
  -4  -2  -4   11.40    4.90
  -4  -2  -4   11.90    5.90
  -4  -2  -4   14.20    5.10
  -4  -2  -4   17.40    5.10
   4   2   4   27.00    5.30
   4   2   4   20.40    4.80
   4   2   4   18.20    6.20
   4   2   4   15.80    6.70
   4   2   4   26.40    6.30
  -5  -2  -4   -9.10    6.70
  -5  -2  -4   -1.20    6.00
  -5  -2  -4    4.40    7.70
  -5  -2  -4   -1.80    6.20
  -5  -2  -4   -0.20    7.30
   5   2   4    4.80    5.10
   5   2   4    5.40    8.10
   5   2   4    3.70    6.10
   5   2   4   14.90    7.50
   5   2   4   17.50    8.20
  -6  -2  -4   99.49   13.00
  -6  -2  -4   97.79    6.40
  -6  -2  -4   94.49   17.30
  -6  -2  -4  113.89   15.30
  -6  -2  -4   92.79   13.00
  -6  -2  -4  118.79   17.30
   6   2   4   95.49   15.30
   6   2   4   86.69   13.40
   6   2   4  131.99   14.60
   6   2   4   89.59   13.20
   6   2   4   63.69   14.70
   6  -3  -4   46.10   16.00
  -6   3   4   11.10    3.10
  -6   3   4    7.40    8.30
   5  -3  -4   22.50   10.00
  -5   3   4   20.20    3.10
  -5   3   4   24.30    6.20
   4  -3  -4    4.80    6.40
  -4   3   4    3.00    1.80
   3  -3  -4   79.49    5.40
   3  -3  -4   87.99    5.60
   3  -3  -4   88.49    8.80
  -3   3   4   85.69    4.30
   2  -3  -4  567.84   18.50
   2  -3  -4  543.15   18.30
   2  -3  -4  599.94   19.80
  -2   3   4  599.64   17.70
   1  -3  -4  494.95   16.30
  -1   3   4  504.65   16.30
  -1   3   4  520.45   15.30
   0  -3  -4   47.10    3.20
   0  -3  -4   44.40    3.50
   0   3   4   46.70    3.30
   0   3   4   47.90    3.40
   0   3   4   48.30    2.60
   0   3   4   51.19    2.50
  -1  -3  -4   58.89    5.00
  -1  -3  -4   51.99    4.90
  -1  -3  -4   61.29    4.50
  -1  -3  -4   60.19    4.40
   1   3   4   60.79    4.70
   1   3   4   64.09    4.60
   1   3   4   56.59    3.90
   1   3   4   62.19    4.00
   1   3   4   54.49    5.30
  -2  -3  -4  107.99    7.80
  -2  -3  -4  129.49    8.30
  -2  -3  -4  117.99    7.00
  -2  -3  -4  103.79    7.70
  -2  -3  -4  119.79    7.40
   2   3   4  119.29    7.70
   2   3   4  119.49    7.50
   2   3   4  123.29    6.70
   2   3   4  111.19    8.10
  -3  -3  -4  442.86   18.10
  -3  -3  -4  434.86   18.60
  -3  -3  -4  448.26   17.30
  -3  -3  -4  456.15   17.70
  -3  -3  -4  442.76   18.40
   3   3   4  465.05   18.10
   3   3   4  451.05   17.80
   3   3   4  419.66   18.40
   3   3   4  462.25   16.80
  -4  -3  -4  293.07   16.60
  -4  -3  -4  297.07   16.40
  -4  -3  -4  290.77   15.50
  -4  -3  -4  297.47   16.10
  -4  -3  -4  322.77   14.80
   4   3   4  312.37   15.60
   4   3   4  303.77   16.90
   4   3   4  301.37   16.00
   4   3   4  304.67   14.00
  -5  -3  -4   69.49   10.00
  -5  -3  -4   74.39   11.00
  -5  -3  -4   79.79   11.60
  -5  -3  -4   66.69   10.40
  -5  -3  -4   67.39    9.00
   5   3   4   77.99   11.80
   5   3   4   70.99    8.40
   5   3   4   94.19   12.70
   5   3   4   71.19   10.20
  -6  -3  -4   57.89   12.50
  -6  -3  -4   51.99   10.10
  -6  -3  -4   83.49   14.40
  -6  -3  -4   59.69   12.40
  -6  -3  -4   75.39   12.30
   6   3   4   65.59    9.40
   6   3   4   99.89   16.50
   6   3   4   64.59   11.70
   6   3   4   82.39   16.10
   5  -4  -4   -2.90   11.10
   5  -4  -4   -1.00    4.90
  -5   4   4   -1.00    2.30
   4  -4  -4  351.36   18.90
   4  -4  -4  347.67   14.00
   4  -4  -4  342.47   14.50
  -4   4   4  337.67   12.40
   3  -4  -4    0.30    3.10
   3  -4  -4    5.20    2.70
   3  -4  -4    5.40    5.30
  -3   4   4    6.30    1.90
   2  -4  -4   19.30    3.10
   2  -4  -4   15.50    3.00
   2  -4  -4   20.70    4.00
  -2   4   4   16.90    2.10
   1  -4  -4  114.99    5.90
  -1   4   4  128.49    5.00
  -1   4   4  125.09    6.00
   0  -4  -4   74.99    4.90
   0   4   4   75.99    3.60
   0   4   4   73.79    4.50
  -1  -4  -4   89.19    6.90
  -1  -4  -4   92.29    6.30
  -1  -4  -4   97.49    7.00
  -1  -4  -4   83.69    7.00
   1   4   4  104.19    5.60
   1   4   4  100.79    7.40
   1   4   4   91.49    6.70
   1   4   4  108.09    6.50
  -2  -4  -4  104.99    7.50
  -2  -4  -4  116.49    8.60
  -2  -4  -4  117.99    8.70
  -2  -4  -4  114.99    8.50
  -2  -4  -4  114.79    8.00
   2   4   4  106.69    8.10
   2   4   4  101.49    9.00
   2   4   4  118.49    7.10
   2   4   4  115.69    8.30
  -3  -4  -4  422.36   17.10
  -3  -4  -4  401.36   18.50
  -3  -4  -4  403.96   18.30
  -3  -4  -4  413.56   18.60
  -3  -4  -4  431.46   17.60
   3   4   4  431.16   17.80
   3   4   4  435.36   18.10
   3   4   4  432.26   16.70
   3   4   4  441.76   18.80
  -4  -4  -4  757.92   29.40
  -4  -4  -4  764.32   29.20
  -4  -4  -4  786.32   28.40
  -4  -4  -4  752.92   29.10
  -4  -4  -4  711.23   27.60
   4   4   4  741.13   29.50
   4   4   4  743.53   28.70
   4   4   4  741.23   26.90
   4   4   4  751.22   28.50
  -5  -4  -4  239.58   16.30
  -5  -4  -4  211.38   17.40
  -5  -4  -4  233.48   18.20
  -5  -4  -4  217.78   17.90
  -5  -4  -4  249.08   19.70
   5   4   4  219.28   17.40
   5   4   4  221.38   17.10
   5   4   4  223.98   15.00
   5   4   4  215.68   20.20
  -6  -4  -4   11.90   10.50
  -6  -4  -4  -15.10   11.80
  -6  -4  -4   -5.20   13.30
  -6  -4  -4   -6.50   10.10
  -6  -4  -4   -6.30   12.10
   6   4   4    8.30   13.90
   6   4   4   14.30   11.10
   6   4   4    6.90    8.30
   6   4   4    1.60   13.90
   5  -5  -4   14.30    6.50
   5  -5  -4   19.50   13.00
  -5   5   4   15.80    3.70
   4  -5  -4   -5.90    4.30
   4  -5  -4  -12.40    8.50
   4  -5  -4    8.70    6.30
  -4   5   4    1.70    2.10
   3  -5  -4    7.80    6.00
   3  -5  -4   -3.70    3.50
  -3   5   4    7.00    2.10
   2  -5  -4   49.00    5.10
   2  -5  -4   48.10    7.00
   2  -5  -4   39.20    5.70
  -2   5   4   41.10    3.50
   1  -5  -4  674.93   22.40
  -1   5   4  707.23   21.40
   0  -5  -4   28.30    4.00
   0   5   4   25.50    2.80
   0   5   4   24.20    3.10
  -1  -5  -4  323.27   12.70
  -1  -5  -4  314.27   13.40
  -1  -5  -4  321.07   13.50
  -1  -5  -4  318.37   12.60
   1   5   4  313.87   11.70
   1   5   4  335.57   14.10
   1   5   4  312.27   12.80
   1   5   4  322.97   12.90
   1   5   4  315.27   11.80
  -2  -5  -4   89.29    9.30
  -2  -5  -4   99.69    9.20
  -2  -5  -4   99.69    8.50
  -2  -5  -4   90.49    7.80
  -2  -5  -4   75.79    8.80
   2   5   4   79.09    7.10
   2   5   4   81.69    6.30
   2   5   4   92.89    8.40
   2   5   4   86.09    9.00
   2   5   4   90.59    9.80
  -3  -5  -4  251.47   14.80
  -3  -5  -4  260.57   15.80
  -3  -5  -4  279.27   14.50
  -3  -5  -4  255.27   13.50
  -3  -5  -4  253.87   15.40
   3   5   4  273.27   13.10
   3   5   4  279.97   15.90
   3   5   4  265.67   14.40
   3   5   4  274.87   15.30
  -4  -5  -4  181.18   16.20
  -4  -5  -4  199.78   14.90
  -4  -5  -4  165.38   14.90
  -4  -5  -4  162.98   13.20
   4   5   4  163.98   16.40
   4   5   4  193.88   14.60
   4   5   4  165.38   12.50
   4   5   4  172.08   15.00
  -5  -5  -4   28.50   10.30
  -5  -5  -4   35.10   11.70
  -5  -5  -4   20.20   10.60
  -5  -5  -4   26.60   11.20
  -5  -5  -4   32.00    8.40
   5   5   4   22.40    9.50
   5   5   4   26.80   11.00
   5   5   4   17.50    7.90
   5   5   4   21.50   10.20
  -6  -5  -4   53.09   14.00
  -6  -5  -4   46.30   14.50
  -6  -5  -4   37.30   15.00
  -6  -5  -4   39.30   12.20
  -6  -5  -4   30.20   15.80
   6   5   4   40.60   13.90
   6   5   4   27.30   15.70
   6   5   4   43.40   10.90
   6   5   4   49.10   13.50
   4  -6  -4   -0.70    5.00
   4  -6  -4    8.80    6.90
   4  -6  -4   -6.30   10.00
  -4   6   4    6.70    2.90
   3  -6  -4   84.99    8.20
   3  -6  -4   90.79   13.00
   3  -6  -4   89.99    8.90
  -3   6   4   83.29    5.40
   2  -6  -4   60.09    6.40
   2  -6  -4   58.89    8.90
   2  -6  -4   65.29    7.60
  -2   6   4   57.09    4.20
   1  -6  -4  121.89    7.80
   1  -6  -4  140.19    8.70
  -1   6   4  130.29    6.30
   0   6   4  708.23   22.80
   0   6   4  738.13   23.30
  -1  -6  -4  158.88    9.60
  -1  -6  -4  173.08    9.60
  -1  -6  -4  167.18   10.40
   1   6   4  166.68    8.00
   1   6   4  139.59    9.50
   1   6   4  156.38    7.90
  -2  -6  -4    4.30    4.80
  -2  -6  -4   -0.10    5.50
  -2  -6  -4    1.60    6.20
  -2  -6  -4    8.80    5.10
  -2  -6  -4    5.10    5.40
   2   6   4    4.40    5.40
   2   6   4    5.30    3.70
   2   6   4   11.10    6.30
   2   6   4    9.30    4.30
   2   6   4    4.50    5.20
  -3  -6  -4  554.74   23.90
  -3  -6  -4  508.55   21.90
  -3  -6  -4  517.55   23.30
  -3  -6  -4  545.45   24.20
  -3  -6  -4  577.64   23.10
   3   6   4  534.15   21.20
   3   6   4  533.55   23.20
   3   6   4  574.04   20.10
   3   6   4  539.35   24.00
   3   6   4  513.25   22.50
  -4  -6  -4   35.40    9.10
  -4  -6  -4   32.10    9.00
  -4  -6  -4   41.50    9.50
  -4  -6  -4   31.70   10.50
  -4  -6  -4   31.30    7.90
   4   6   4   24.00    7.30
   4   6   4   41.00   10.20
   4   6   4   26.40   10.20
   4   6   4   26.90    8.60
  -5  -6  -4   49.99   12.20
  -5  -6  -4   34.10   11.10
  -5  -6  -4   63.49   12.80
  -5  -6  -4   35.70   13.40
  -5  -6  -4   25.40   10.40
   5   6   4   24.20   10.70
   5   6   4   40.20   12.50
   5   6   4   28.90    9.10
   5   6   4   42.10   12.40
   3  -7  -4   91.79   11.80
   3  -7  -4   95.39    9.90
   3  -7  -4  117.39   15.40
  -3   7   4  100.39    6.30
   2  -7  -4   31.30    5.90
   2  -7  -4   32.00    5.70
   2  -7  -4   29.90    6.60
  -2   7   4   29.20    4.10
   1  -7  -4  210.98   11.20
   1  -7  -4  215.58   12.00
   1  -7  -4  194.88   10.90
  -1   7   4  201.28    9.00
   0   7   4   97.89    6.30
   0   7   4  102.89    7.10
  -1  -7  -4  189.38   11.40
  -1  -7  -4  199.78   11.20
   1   7   4  187.88   11.10
   1   7   4  177.68    9.40
   1   7   4  190.08    9.30
  -2  -7  -4   34.00    7.30
  -2  -7  -4   28.10    8.70
  -2  -7  -4   27.60    7.50
  -2  -7  -4   19.60    6.40
  -2  -7  -4   30.70    7.90
   2   7   4   20.00    7.30
   2   7   4   29.80    8.30
   2   7   4   29.30    5.00
   2   7   4   29.90    6.50
  -3  -7  -4   -3.40    6.80
  -3  -7  -4   10.40    7.70
  -3  -7  -4   -4.50    8.60
  -3  -7  -4   -2.60    8.50
  -3  -7  -4  -13.10    9.00
   3   7   4   -3.90    5.90
   3   7   4    7.40    5.40
   3   7   4  -12.50    7.00
   3   7   4    1.20    8.40
   3   7   4   -2.60    7.80
  -4  -7  -4   -5.00    8.40
  -4  -7  -4   -0.60   11.10
  -4  -7  -4   -0.10   10.30
  -4  -7  -4    3.20   11.90
  -4  -7  -4    8.70    9.90
   4   7   4   -1.50    9.70
   4   7   4    4.50   10.00
   4   7   4   -3.60    6.40
   4   7   4   -8.60    7.80
   4   7   4   -9.10    8.70
   2  -8  -4  124.39   12.50
   2  -8  -4   92.59   11.00
   2  -8  -4   81.99   10.30
  -2   8   4   98.39    7.00
   1  -8  -4   73.89    9.80
   1  -8  -4   81.69   11.00
   1  -8  -4   65.39   10.40
  -1   8   4   66.19    6.30
   0   8   4   17.00    4.30
   0   8   4   31.00    5.50
  -1  -8  -4    4.00    5.90
  -1  -8  -4   14.20    7.90
  -1  -8  -4    0.00    6.50
   1   8   4   -0.10    4.20
  -2  -8  -4   62.09   11.80
  -2  -8  -4   63.19    9.10
  -2  -8  -4   64.59   10.20
  -2  -8  -4   64.59    9.20
  -2  -8  -4   72.79   10.10
   2   8   4   65.19    9.00
   2   8   4   61.59    8.20
   2   8   4   67.29   10.30
   2   8   4   72.39   11.50
   2   8   4   63.79    7.00
  -3  -8  -4   69.69   11.10
  -3  -8  -4   66.89   11.80
  -3  -8  -4   62.49   11.60
  -3  -8  -4   73.89   13.30
  -3  -8  -4   63.09    9.70
   3   8   4   67.19    9.90
   3   8   4   62.09   12.10
   3   8   4   40.20   10.20
   3   8   4   62.59   10.00
   3   8   4   51.69   12.30
  -1  -9  -4   24.10   10.80
   1   9   4   18.80    5.90
   2   8  -5    4.50   13.60
   2   8  -5   -1.00    7.40
   2   8  -5   13.00   10.60
  -2  -8   5    6.90    8.00
  -2  -8   5    8.90    7.90
  -2  -8   5    8.00    6.40
  -2  -8   5   -6.80   11.70
  -2  -8   5    3.10   13.70
   1   8  -5   -2.50    5.40
   1   8  -5   -3.30    6.70
   1   8  -5   -6.30   11.70
  -1  -8   5    7.10   12.50
  -1  -8   5   -9.60    6.10
  -1  -8   5   -4.30    7.00
  -1  -8   5   22.30   10.90
  -1  -8   5   -2.60    4.20
   0   8  -5    0.20    3.90
   0   8  -5   -9.90    8.40
   0   8  -5   -1.10   11.40
   0  -8   5   -8.50    5.70
   0  -8   5    8.00    4.50
   0  -8   5   19.80   10.50
   0  -8   5   -3.10    7.50
   4   7  -5   28.70   11.60
   4   7  -5   21.10   12.90
   4   7  -5   29.30   11.40
   4   7  -5   16.40   15.80
  -4  -7   5   13.40   15.20
  -4  -7   5   40.20    8.20
  -4  -7   5   26.00   11.80
  -4  -7   5   29.40   14.00
  -4  -7   5   35.00    8.70
   3   7  -5   33.40    9.70
   3   7  -5   25.70   10.40
   3   7  -5   35.90    9.10
   3   7  -5   35.60   12.50
  -3  -7   5   41.00   12.20
  -3  -7   5   13.10   11.70
  -3  -7   5   32.50    9.30
  -3  -7   5   31.90    7.50
   2   7  -5   15.00   10.70
   2   7  -5   30.70    7.20
   2   7  -5   31.20    9.00
   2   7  -5   42.20    8.60
  -2  -7   5   34.60   10.30
  -2  -7   5   35.70    6.80
  -2  -7   5   28.80    5.50
  -2  -7   5   38.40    6.90
  -2  -7   5   35.30   10.80
   1   7  -5   47.20   10.90
   1   7  -5   34.80    5.70
   1   7  -5   44.30    6.90
   1   7  -5   45.70    8.80
  -1  -7   5   44.90   10.50
  -1  -7   5   46.80    6.80
  -1  -7   5   45.90    6.80
  -1  -7   5   38.20    6.20
  -1  -7   5   53.09    9.50
   0   7  -5   79.79    6.90
   0   7  -5   79.09   11.40
   0  -7   5   93.89   13.50
   0  -7   5   77.39   11.00
   0  -7   5   63.69    7.00
   0  -7   5   91.89   10.40
  -1   7  -5   51.19    7.30
  -1   7  -5   51.09    6.10
   1  -7   5   36.60    8.60
   1  -7   5   61.19    7.00
   1  -7   5   51.79    7.20
  -2   7  -5   13.00    4.30
   2  -7   5    3.40    7.50
   5   6  -5   41.80   16.20
   5   6  -5   41.70   13.80
  -5  -6   5   42.20   12.40
  -5  -6   5   13.90   16.00
   4   6  -5    7.60    9.80
   4   6  -5   24.80   12.60
   4   6  -5   -1.90    9.70
   4   6  -5   20.60   10.10
   4   6  -5    4.10    9.40
  -4  -6   5    0.30   10.40
  -4  -6   5   34.70   12.70
  -4  -6   5   19.40    6.90
  -4  -6   5   16.60    6.60
  -4  -6   5   -0.80    8.40
   3   6  -5  599.54   27.50
   3   6  -5  578.44   24.10
   3   6  -5  539.95   23.00
   3   6  -5  556.54   24.80
  -3  -6   5  528.95   21.50
  -3  -6   5  571.44   26.00
  -3  -6   5  546.75   20.10
  -3  -6   5  534.05   23.00
  -3  -6   5  553.34   26.60
   2   6  -5  594.94   23.30
   2   6  -5  625.24   24.10
   2   6  -5  610.44   26.80
   2   6  -5  660.53   25.10
  -2  -6   5  570.34   23.00
  -2  -6   5  628.64   25.70
  -2  -6   5  609.84   21.70
  -2  -6   5  653.33   26.70
   1   6  -5  459.05   20.50
   1   6  -5  430.16   18.60
   1   6  -5  410.06   16.50
   1   6  -5  415.56   17.10
  -1  -6   5  443.06   19.60
  -1  -6   5  405.96   15.50
  -1  -6   5  405.66   16.60
  -1  -6   5  438.66   17.20
  -1  -6   5  446.26   20.50
   0   6  -5  905.41   31.80
   0   6  -5  890.11   30.60
   0   6  -5  857.81   26.90
   0  -6   5  808.92   28.90
   0  -6   5  827.42   29.40
   0  -6   5  817.62   26.40
   0  -6   5  826.72   27.20
  -1   6  -5  183.88    8.50
  -1   6  -5  183.08   12.50
  -1   6  -5  181.28    8.80
  -1   6  -5  172.18   10.60
   1  -6   5  177.88    8.80
   1  -6   5  199.78   12.30
   1  -6   5  189.58   11.10
  -2   6  -5   21.40    3.80
  -2   6  -5   16.30    3.60
   2  -6   5   11.20    5.70
   2  -6   5   24.10    6.20
   2  -6   5   20.30    4.50
  -3   6  -5   44.50    5.10
   3  -6   5   47.30    5.00
   3  -6   5   53.39    8.70
   5   5  -5   13.10   13.70
   5   5  -5   51.39   14.10
   5   5  -5   36.40   11.90
   5   5  -5   26.90   10.60
   5   5  -5   30.00   11.40
  -5  -5   5   41.20   13.10
  -5  -5   5   29.40    8.50
  -5  -5   5   26.20    8.80
  -5  -5   5   48.70   11.20
  -5  -5   5   23.30   13.80
   4   5  -5   -0.70    8.10
   4   5  -5    2.60    9.40
   4   5  -5   -5.80    7.50
   4   5  -5    8.30    8.60
   4   5  -5   -9.20   10.00
  -4  -5   5    4.10    7.30
  -4  -5   5    4.30   10.60
  -4  -5   5   -1.70    5.30
  -4  -5   5  -10.50    8.30
  -4  -5   5   -1.50    5.50
   3   5  -5  130.79   11.80
   3   5  -5  117.49   11.30
   3   5  -5  101.69   11.70
   3   5  -5  103.99   14.20
   3   5  -5  105.09   12.20
  -3  -5   5  110.89   14.70
  -3  -5   5  122.59   13.40
  -3  -5   5  112.79    9.10
  -3  -5   5  121.99    8.60
  -3  -5   5   84.69   10.80
   2   5  -5  244.28   15.30
   2   5  -5  256.07   13.20
   2   5  -5  253.37   13.90
   2   5  -5  238.48   12.40
  -2  -5   5  241.18   11.20
  -2  -5   5  246.18   14.80
  -2  -5   5  232.68   12.10
  -2  -5   5  243.78   15.40
   1   5  -5  174.68    9.30
   1   5  -5  167.98    9.70
   1   5  -5  174.38   12.00
   1   5  -5  183.58   10.60
  -1  -5   5  185.78   12.30
  -1  -5   5  147.19   11.40
  -1  -5   5  178.18    9.10
  -1  -5   5  170.48    9.10
  -1  -5   5  163.08    8.30
   0   5  -5   28.70    5.00
   0   5  -5   25.40    3.40
   0   5  -5   26.30    5.20
   0   5  -5   27.00    4.10
   0  -5   5   37.00    4.00
   0  -5   5   24.90    3.70
   0  -5   5   28.00    5.40
   0  -5   5   26.00    4.50
   0  -5   5   36.20    6.30
  -1   5  -5  125.69    6.40
  -1   5  -5  134.09    9.50
  -1   5  -5  125.09    7.20
  -1   5  -5  128.79    6.60
  -1   5  -5  122.69    8.00
   1  -5   5  128.49    9.20
   1  -5   5  125.89    8.50
   1  -5   5  117.99    6.80
   1  -5   5  124.69    7.50
  -2   5  -5   45.40    4.60
  -2   5  -5   42.90    4.80
  -2   5  -5   39.50    5.00
   2  -5   5   35.00    5.50
   2  -5   5   40.70    4.60
   2  -5   5   41.00    5.60
  -3   5  -5  291.07   12.30
  -3   5  -5  290.67   11.60
  -3   5  -5  280.07   15.40
  -3   5  -5  274.27   11.20
   3  -5   5  303.67   14.80
   3  -5   5  280.77   12.60
  -4   5  -5   21.30    7.90
  -4   5  -5   14.30    3.80
   4  -5   5   24.40    5.50
   4  -5   5    8.20    7.80
   6   4  -5   58.69   14.00
   6   4  -5   40.10   16.90
   6   4  -5   69.69   13.50
   6   4  -5   39.90   14.20
   6   4  -5   48.20   17.20
  -6  -4   5   47.00   18.90
  -6  -4   5   44.70   10.90
  -6  -4   5   79.39   16.10
  -6  -4   5   34.90    9.80
  -6  -4   5   42.10   12.30
   5   4  -5   73.79   10.80
   5   4  -5   55.19   12.60
   5   4  -5   64.49   11.80
   5   4  -5   68.99   13.20
   5   4  -5   63.29   11.40
  -5  -4   5   59.19    9.20
  -5  -4   5   60.99   10.80
  -5  -4   5   69.69   12.30
  -5  -4   5   73.79   14.00
  -5  -4   5   55.09    8.50
   4   4  -5  398.06   32.00
   4   4  -5  487.25   22.80
   4   4  -5  499.05   21.90
   4   4  -5  523.05   21.50
   4   4  -5  410.86   29.70
  -4  -4   5  488.65   19.60
  -4  -4   5  484.45   19.40
  -4  -4   5  499.55   23.50
   3   4  -5  381.06   18.90
   3   4  -5  375.76   17.00
   3   4  -5  384.56   17.60
   3   4  -5  381.06   17.50
   3   4  -5  367.96   17.30
  -3  -4   5  378.06   16.80
  -3  -4   5  424.16   18.90
  -3  -4   5  386.86   19.80
  -3  -4   5  386.46   15.50
  -3  -4   5  389.16   15.10
   2   4  -5    4.60    4.10
   2   4  -5   16.90    4.70
   2   4  -5   14.00    3.90
   2   4  -5   11.70    4.70
   2   4  -5    3.90    5.00
  -2  -4   5   13.40    5.50
  -2  -4   5   14.00    5.70
  -2  -4   5    7.10    3.80
  -2  -4   5   12.90    3.30
  -2  -4   5   11.00    2.80
   1   4  -5   44.40    5.90
   1   4  -5   49.10    6.40
   1   4  -5   43.90    5.10
   1   4  -5   40.50    5.70
  -1  -4   5   46.20    5.00
  -1  -4   5   44.10    5.30
  -1  -4   5   55.49    7.70
  -1  -4   5   36.20    5.50
  -1  -4   5   40.10    4.60
   0   4  -5  255.47   10.30
   0   4  -5  263.17   11.00
   0   4  -5  258.37   11.90
   0   4  -5  250.47    9.80
   0  -4   5  257.57   10.20
   0  -4   5  263.27   10.60
   0  -4   5  264.97    9.60
   0  -4   5  267.77   12.10
   0  -4   5  258.47   11.40
  -1   4  -5    9.10    2.30
  -1   4  -5   11.80    3.30
  -1   4  -5    9.00    2.30
  -1   4  -5    6.50    2.50
   1  -4   5    8.60    3.20
   1  -4   5   10.70    2.90
   1  -4   5   10.00    3.50
   1  -4   5    4.40    4.00
   1  -4   5    9.00    2.30
  -2   4  -5   -1.70    2.60
  -2   4  -5   -1.90    2.90
  -2   4  -5    3.80    3.40
  -2   4  -5   -1.70    2.00
  -2   4  -5    3.50    2.40
   2  -4   5    0.60    3.70
   2  -4   5    9.00    3.80
   2  -4   5    0.70    3.10
   2  -4   5    0.20    3.10
   2  -4   5   -2.10    3.60
  -3   4  -5   51.09    4.50
  -3   4  -5   60.49    8.40
  -3   4  -5   54.89    5.20
  -3   4  -5   57.19    6.20
   3  -4   5   58.19    7.90
   3  -4   5   70.59    6.20
   3  -4   5   46.60    6.00
  -4   4  -5  113.19    7.00
  -4   4  -5  116.19   10.10
  -4   4  -5  117.19    6.40
  -4   4  -5  122.69   10.10
  -4   4  -5  141.39   11.60
   4  -4   5  152.08   12.60
   4  -4   5  119.19    8.00
  -5   4  -5   19.30    7.40
  -5   4  -5   21.60    4.70
  -5   4  -5   23.30    3.60
  -5   4  -5   32.20    9.10
  -5   4  -5   23.70    8.20
   5  -4   5   28.60   11.60
   5  -4   5   27.70    5.20
   6   3  -5   11.60   10.20
   6   3  -5   -0.40   12.40
   6   3  -5    7.30   14.20
   6   3  -5  -23.10   13.80
   6   3  -5   13.50   11.50
  -6  -3   5    8.50   12.60
  -6  -3   5    1.10    7.60
  -6  -3   5   -7.00    9.90
  -6  -3   5  -20.50   16.00
  -6  -3   5  -14.80    8.10
   5   3  -5    4.40    9.60
   5   3  -5   14.90    8.00
   5   3  -5    7.00    9.80
   5   3  -5    6.60    8.10
  -5  -3   5    1.10    7.30
  -5  -3   5   13.20    9.20
  -5  -3   5    2.90   16.70
  -5  -3   5    6.40    6.50
  -5  -3   5    1.50    5.70
   4   3  -5   -1.50    6.10
   4   3  -5    8.90    7.20
   4   3  -5    3.30    5.80
   4   3  -5    0.30    6.40
   4   3  -5    8.10    7.10
  -4  -3   5   -0.50    6.80
  -4  -3   5   -2.90    4.20
  -4  -3   5   -6.90    7.20
  -4  -3   5    6.50    5.30
  -4  -3   5   -1.60    4.20
   3   3  -5  241.68   12.80
   3   3  -5  255.77   13.40
   3   3  -5  261.77   14.80
   3   3  -5  248.58   13.10
   3   3  -5  275.07   13.70
  -3  -3   5  292.27   14.70
  -3  -3   5  262.17   12.80
  -3  -3   5  247.08   11.50
  -3  -3   5  270.37   11.70
  -3  -3   5  260.87   15.30
   2   3  -5 2278.07   67.19
   2   3  -5 2250.87   68.39
   2   3  -5 2259.87   67.49
   2   3  -5 2236.68   67.59
   2   3  -5 2159.18   66.89
  -2  -3   5 2254.37   65.89
  -2  -3   5 2333.07   68.09
  -2  -3   5 2282.97   68.69
  -2  -3   5 2257.57   66.49
  -2  -3   5 2270.07   67.19
   1   3  -5    0.00    3.00
   1   3  -5    2.40    2.70
   1   3  -5   -0.80    2.60
   1   3  -5   -3.50    2.30
  -1  -3   5    1.90    1.80
  -1  -3   5   -0.20    2.30
  -1  -3   5   -0.30    3.10
  -1  -3   5    1.50    2.00
  -1  -3   5    1.40    3.70
   0   3  -5  237.68    9.30
   0   3  -5  245.88    9.60
   0   3  -5  236.58   10.10
   0   3  -5  233.58    9.00
   0  -3   5  246.38    9.20
   0  -3   5  232.28    9.30
   0  -3   5  241.88    9.80
   0  -3   5  238.98    8.70
   0  -3   5  241.18   10.30
  -1   3  -5   24.50    2.70
  -1   3  -5   23.90    3.30
  -1   3  -5   22.90    3.50
  -1   3  -5   25.20    3.10
  -1   3  -5   25.10    3.60
  -1   3  -5   24.60    3.00
   1  -3   5   25.50    3.30
   1  -3   5   21.20    3.20
   1  -3   5   34.50    4.50
   1  -3   5   28.10    3.30
   1  -3   5   24.30    3.20
  -2   3  -5   43.10    3.40
  -2   3  -5   52.89    5.30
  -2   3  -5   41.40    5.70
  -2   3  -5   37.60    4.90
  -2   3  -5   44.70    4.10
   2  -3   5   55.89    5.30
   2  -3   5   45.80    5.30
   2  -3   5   37.10    5.70
   2  -3   5   45.00    4.50
   2  -3   5   38.80    4.70
  -3   3  -5   77.19    7.60
  -3   3  -5   78.69    4.30
  -3   3  -5   68.19    5.40
  -3   3  -5   80.39    6.50
  -3   3  -5   65.99    7.80
  -3   3  -5   73.99    6.20
  -3   3  -5   73.09    7.00
   3  -3   5   60.39    7.80
   3  -3   5   80.39    6.30
   3  -3   5   74.29    8.40
   3  -3   5   78.39    5.50
  -4   3  -5   -0.80    2.90
  -4   3  -5   -4.90    3.90
  -4   3  -5    4.20    4.50
  -4   3  -5    1.90    5.20
  -4   3  -5   -0.20    2.10
  -4   3  -5    3.80    4.60
   4  -3   5    0.00    2.80
   4  -3   5    3.90    4.00
   4  -3   5    3.70    6.50
   4  -3   5    3.00    5.80
  -5   3  -5  107.69   12.20
  -5   3  -5   91.29    8.10
  -5   3  -5  103.89    6.00
  -5   3  -5  120.89   12.80
  -5   3  -5  101.29   13.30
   5  -3   5  106.69   15.60
   5  -3   5   96.19    8.30
   5  -3   5   83.89   10.50
   5  -3   5  118.39   16.90
   5  -3   5   96.49   11.50
   6   2  -5    7.20   12.50
   6   2  -5   20.00   10.00
   6   2  -5   27.30   11.10
   6   2  -5   -0.30   13.00
  -6  -2   5   -9.50    7.10
  -6  -2   5  -11.60   25.10
  -6  -2   5   -2.10    7.60
  -6  -2   5    7.40    9.00
  -6  -2   5  -12.70   12.60
   5   2  -5  487.65   23.30
   5   2  -5  511.25   25.80
   5   2  -5  513.65   22.40
   5   2  -5  501.05   24.40
   5   2  -5  497.75   22.10
  -5  -2   5  497.15   24.10
  -5  -2   5  509.55   26.40
  -5  -2   5  476.25   21.80
  -5  -2   5  450.55   19.60
  -5  -2   5  491.25   21.00
   4   2  -5   31.60    6.10
   4   2  -5   34.10    7.70
   4   2  -5   34.60    6.00
   4   2  -5   26.90    6.60
   4   2  -5   29.90    6.80
  -4  -2   5   27.20    5.00
  -4  -2   5   29.80    6.10
  -4  -2   5   29.80    8.30
  -4  -2   5   23.50    4.30
  -4  -2   5   31.30    7.80
   3   2  -5   71.79    8.40
   3   2  -5   87.99    8.10
   3   2  -5   83.29    7.70
   3   2  -5   69.79    8.30
   3   2  -5   71.59    8.20
  -3  -2   5   76.29    6.30
  -3  -2   5   73.79    6.10
  -3  -2   5   72.89    7.40
  -3  -2   5   61.09    9.80
  -3  -2   5   85.09    9.00
   2   2  -5 1274.57   40.00
   2   2  -5 1331.77   39.80
   2   2  -5 1261.87   40.70
   2   2  -5 1316.87   40.00
   2   2  -5 1284.67   40.10
  -2  -2   5 1289.77   41.00
  -2  -2   5 1304.57   39.80
  -2  -2   5 1269.97   39.00
  -2  -2   5 1293.57   39.10
  -2  -2   5 1347.97   40.60
   1   2  -5  669.13   21.10
   1   2  -5  631.84   21.00
   1   2  -5  650.23   20.60
   1   2  -5  663.33   21.80
   1   2  -5  660.33   21.00
  -1  -2   5  678.53   21.60
  -1  -2   5  614.54   19.80
  -1  -2   5  669.03   21.00
  -1  -2   5  670.33   21.90
   0   2  -5  234.08    9.00
   0   2  -5  246.08    9.00
   0   2  -5  259.07    9.60
   0   2  -5  238.48    8.80
   0   2  -5  250.77    9.10
   0  -2   5  247.58    9.70
   0  -2   5  259.77    9.60
   0  -2   5  241.88    8.80
   0  -2   5  248.88    9.10
   0  -2   5  249.78    8.70
  -1   2  -5  106.19    5.70
  -1   2  -5  109.09    5.40
  -1   2  -5  109.39    4.90
  -1   2  -5  112.99    4.70
  -1   2  -5  109.19    5.00
  -1   2  -5  101.39    5.20
   1  -2   5  116.39    5.60
   1  -2   5  109.89    5.10
   1  -2   5  114.19    5.40
   1  -2   5  107.79    5.60
   1  -2   5  106.19    5.60
  -2   2  -5  104.89    5.50
  -2   2  -5  113.19    5.90
  -2   2  -5  106.09    6.80
  -2   2  -5  116.89    5.40
  -2   2  -5  112.19    4.70
  -2   2  -5  117.89    6.50
  -2   2  -5  108.79    6.40
   2  -2   5  110.09    6.00
   2  -2   5  110.09    6.60
   2  -2   5  112.89    5.40
   2  -2   5  111.39    5.80
   2  -2   5  101.69    6.90
  -3   2  -5   42.00    6.50
  -3   2  -5   53.29    6.20
  -3   2  -5   39.60    6.80
  -3   2  -5   43.70    5.10
  -3   2  -5   51.49    4.90
  -3   2  -5   45.40    5.50
  -3   2  -5   50.79    3.20
   3  -2   5   49.99    7.30
   3  -2   5   54.89    5.20
   3  -2   5   57.69    6.00
   3  -2   5   50.39    4.60
  -4   2  -5  671.53   22.70
  -4   2  -5  686.13   25.10
  -4   2  -5  656.53   20.60
  -4   2  -5  614.94   26.40
  -4   2  -5  647.84   21.80
  -4   2  -5  659.93   25.40
   4  -2   5  660.43   25.30
   4  -2   5  641.84   22.80
   4  -2   5  683.63   22.40
   4  -2   5  679.03   26.50
   4  -2   5  658.53   23.80
  -5   2  -5   82.59   10.80
  -5   2  -5   69.29   10.80
  -5   2  -5   72.99   15.60
  -5   2  -5   71.49    5.10
  -5   2  -5   63.59    9.90
  -5   2  -5  101.59   11.00
   5  -2   5   70.39   10.40
   5  -2   5   89.09    9.50
   5  -2   5   72.39    9.90
   5  -2   5   85.39    7.50
  -6   2  -5   11.00    8.80
  -6   2  -5   -8.10    9.50
  -6   2  -5    5.00   11.60
  -6   2  -5   -4.30    9.20
  -6   2  -5   -0.80    3.00
  -6   2  -5    8.50    8.70
   6  -2   5   -2.10    5.40
   6  -2   5    4.70   12.60
   6  -2   5   -1.60   15.00
   6  -2   5   -1.30    7.20
   6  -2   5  -18.40   11.10
   6   1  -5   12.20    8.70
   6   1  -5   -2.50   11.80
   6   1  -5   16.60   14.50
   6   1  -5   10.70    9.30
   6   1  -5   17.90   10.70
  -6  -1   5    1.20   13.80
  -6  -1   5   13.50   12.00
  -6  -1   5    2.10    8.50
  -6  -1   5    8.70    7.50
   5   1  -5   11.70    8.60
   5   1  -5    1.60    7.90
   5   1  -5    5.00    6.50
   5   1  -5    3.20    7.40
   5   1  -5   -0.60    6.20
  -5  -1   5   -3.10    8.10
  -5  -1   5    2.30    3.90
  -5  -1   5    3.50    5.30
  -5  -1   5  -13.60    8.80
  -5  -1   5   -5.40    6.00
  -5  -1   5   -0.50    4.70
   4   1  -5   13.30    5.70
   4   1  -5   17.80    5.10
   4   1  -5   20.00    6.20
   4   1  -5   17.90    6.80
   4   1  -5   10.00    4.70
  -4  -1   5   20.80    5.00
  -4  -1   5   17.90    4.10
  -4  -1   5   12.90    6.40
  -4  -1   5   22.60    7.20
  -4  -1   5   16.10    4.40
   3   1  -5  455.05   16.90
   3   1  -5  460.05   17.30
   3   1  -5  444.76   16.90
   3   1  -5  460.15   18.00
   3   1  -5  445.46   17.90
  -3  -1   5  453.45   15.90
  -3  -1   5  467.05   16.90
  -3  -1   5  457.35   18.60
  -3  -1   5  448.36   16.50
  -3  -1   5  461.45   17.90
   2   1  -5  158.28    7.90
   2   1  -5  161.28    7.50
   2   1  -5  169.78    7.80
   2   1  -5  154.58    8.20
   2   1  -5  149.39    8.10
  -2  -1   5  157.08    7.40
  -2  -1   5  161.58    8.50
  -2  -1   5  157.88    6.80
  -2  -1   5  171.48    9.00
   1   1  -5  248.78    8.50
   1   1  -5  270.47    9.80
   1   1  -5  251.67    9.70
   1   1  -5  272.67    9.70
   1   1  -5  279.27   10.30
   1   1  -5  283.57    9.80
  -1  -1   5  269.97    9.70
  -1  -1   5  267.37    9.20
  -1  -1   5  263.57   10.40
  -1  -1   5  282.37   10.40
   0   1  -5  282.37    9.70
   0   1  -5  280.87    9.50
   0   1  -5  267.47    9.20
   0   1  -5  283.47    9.50
   0   1  -5  284.77    9.90
   0  -1   5  278.37    9.70
   0  -1   5  293.87    9.90
   0  -1   5  292.17   10.00
   0  -1   5  263.17    9.20
  -1   1  -5 3296.17   85.79
  -1   1  -5 2851.61   86.69
  -1   1  -5 2894.71   86.39
  -1   1  -5 2971.50   86.69
  -1   1  -5 3129.99   86.39
  -1   1  -5 2941.91   86.59
   1  -1   5 2933.01   86.49
   1  -1   5 3036.40   86.39
   1  -1   5 3089.89   86.59
   1  -1   5 3034.20   86.99
  -2   1  -5  202.18    8.10
  -2   1  -5  203.18    8.90
  -2   1  -5  198.88    8.50
  -2   1  -5  206.18    7.90
  -2   1  -5  205.18    8.30
  -2   1  -5  185.88    9.80
  -2   1  -5  209.58    6.70
   2  -1   5  189.68    9.10
   2  -1   5  210.68    7.80
   2  -1   5  213.98    8.20
   2  -1   5  194.18    8.30
  -3   1  -5   58.79    6.90
  -3   1  -5   57.19    5.60
  -3   1  -5   53.39    5.20
  -3   1  -5   44.80    5.00
  -3   1  -5   58.09    6.20
  -3   1  -5   48.80    5.90
  -3   1  -5   54.99    3.00
   3  -1   5   46.50    6.40
   3  -1   5   40.20    5.10
   3  -1   5   57.59    7.40
   3  -1   5   58.29    4.50
  -4   1  -5 1042.40   33.70
  -4   1  -5 1019.20   30.70
  -4   1  -5 1082.29   36.20
  -4   1  -5 1085.29   35.00
  -4   1  -5 1025.70   32.70
  -4   1  -5 1042.10   33.70
  -4   1  -5 1047.50   33.70
   4  -1   5 1006.90   34.30
   4  -1   5 1035.60   32.30
   4  -1   5 1018.40   33.00
   4  -1   5 1057.29   36.90
   4  -1   5  951.50   35.30
  -5   1  -5    8.10    7.60
  -5   1  -5    8.50    2.30
  -5   1  -5   15.00    6.30
  -5   1  -5   18.60   12.90
  -5   1  -5   14.80    5.70
  -5   1  -5   10.10    5.00
  -5   1  -5    7.20    6.00
   5  -1   5    2.20    8.40
   5  -1   5   14.30    3.90
   5  -1   5    5.70    4.80
   5  -1   5   14.90   10.60
   5  -1   5   10.70    7.80
  -6   1  -5   -1.40    6.80
  -6   1  -5  -10.90   10.90
  -6   1  -5    3.60    9.10
  -6   1  -5   26.00    8.00
  -6   1  -5    2.50    8.20
  -6   1  -5    8.10    9.70
  -6   1  -5    1.40    2.80
   6  -1   5    0.80   12.60
   6  -1   5    8.90   13.90
   6  -1   5  -11.90    6.70
   6  -1   5   -3.80    5.10
   6   0  -5   40.10   12.30
   6   0  -5   15.00    9.20
   6   0  -5   20.30   12.80
   6   0  -5    1.30   10.60
   6   0  -5    7.50    7.80
  -6   0   5   -5.20    5.70
  -6   0   5   -2.70    5.40
  -6   0   5    6.00    9.10
  -6   0   5    5.70    7.80
  -6   0   5    6.20   10.90
  -6   0   5  -18.00   12.70
  -6   0   5    0.80    2.80
   5   0  -5  269.47   18.40
   5   0  -5  288.17   18.60
   5   0  -5  252.97   16.10
   5   0  -5  267.37   14.40
  -5   0   5  268.47   11.20
  -5   0   5  248.68   14.10
  -5   0   5  264.67   19.10
  -5   0   5  271.97   16.90
  -5   0   5  264.27   15.10
  -5   0   5  245.08   12.40
   4   0  -5    3.50    5.40
   4   0  -5    5.10    5.00
   4   0  -5    3.40    4.20
   4   0  -5    7.20    4.80
   4   0  -5    3.70    4.00
  -4   0   5    6.80    4.50
  -4   0   5    1.30    5.30
  -4   0   5   -1.10    3.30
  -4   0   5    1.90    2.90
  -4   0   5    3.00    6.20
   3   0  -5    0.80    3.30
   3   0  -5   -0.10    2.90
   3   0  -5   -1.10    3.80
   3   0  -5   -1.00    3.50
   3   0  -5    1.10    3.60
  -3   0   5   -0.30    2.50
  -3   0   5   -1.30    4.40
  -3   0   5    4.60    3.90
  -3   0   5    1.30    2.00
  -3   0   5    0.60    2.70
   2   0  -5 1711.53   51.79
   2   0  -5 1721.03   51.39
   2   0  -5 1716.73   52.09
   2   0  -5 1744.63   51.29
   2   0  -5 1740.83   51.19
  -2   0   5 1729.83   51.29
  -2   0   5 1736.63   50.69
  -2   0   5 1788.92   51.89
  -2   0   5 1762.22   52.19
   1   0  -5 1613.94   48.10
   1   0  -5 1634.94   48.00
   1   0  -5 1537.45   47.50
   1   0  -5 1669.93   48.00
   1   0  -5 1666.33   48.50
  -1   0   5 1693.73   48.40
  -1   0   5 1685.33   48.60
  -1   0   5 1694.53   47.70
  -1   0   5 1654.03   48.10
   0   0  -5  171.18    6.60
   0   0  -5  172.08    6.20
   0   0  -5  171.28    6.40
   0   0  -5  181.98    6.80
   0   0  -5  193.08    6.50
   0   0   5  179.88    6.30
   0   0   5  183.08    6.90
   0   0   5  194.68    6.60
   0   0   5  189.78    6.80
   0   0   5  183.88    6.80
  -1   0  -5    0.70    1.10
  -1   0  -5    2.90    1.40
  -1   0  -5    3.20    0.80
  -1   0  -5    1.00    1.30
  -1   0  -5    0.10    1.50
   1   0   5    0.50    1.70
   1   0   5    0.60    1.20
   1   0   5    0.90    1.30
   1   0   5    1.50    1.30
  -2   0  -5 2292.17   67.99
  -2   0  -5 2239.08   66.39
  -2   0  -5 2203.98   66.89
  -2   0  -5 2260.77   66.29
  -2   0  -5 2326.97   66.09
  -2   0  -5 2341.47   64.39
   2   0   5 2282.97   67.19
   2   0   5 2231.98   65.79
   2   0   5 2281.47   66.59
   2   0   5 2242.18   66.19
  -3   0  -5   54.49    5.60
  -3   0  -5   60.19    6.50
  -3   0  -5   52.79    2.80
  -3   0  -5   62.99    7.90
  -3   0  -5   58.39    5.70
   3   0   5   42.70    6.40
   3   0   5   54.89    4.80
   3   0   5   39.10    5.20
   3   0   5   51.09    7.50
  -4   0  -5  633.54   22.10
  -4   0  -5  596.74   21.40
  -4   0  -5  634.64   24.60
  -4   0  -5  612.84   23.10
  -4   0  -5  639.04   22.50
  -4   0  -5  604.04   22.10
  -4   0  -5  622.64   18.60
   4   0   5  596.34   20.80
   4   0   5  550.64   23.60
   4   0   5  626.74   25.20
   4   0   5  593.04   21.50
   4   0   5  578.64   22.50
  -5   0  -5   72.19   10.30
  -5   0  -5   79.19    4.80
  -5   0  -5   69.89    9.90
  -5   0  -5   83.09   10.50
  -5   0  -5   96.09   12.10
  -5   0  -5   73.09   10.10
  -5   0  -5   72.79    9.60
   5   0   5   96.19    8.40
   5   0   5  100.49   12.80
   5   0   5   93.49   14.90
   5   0   5   98.29   13.30
   5   0   5   75.39    8.90
  -6   0  -5   15.60    7.70
  -6   0  -5    8.90    3.00
  -6   0  -5    3.00   10.50
  -6   0  -5   12.80   10.90
  -6   0  -5   20.70    8.40
  -6   0  -5   31.30   10.60
  -6   0  -5    9.70    8.10
   6   0   5   34.20   13.00
   6   0   5   12.60   11.50
   6   0   5   11.60   13.80
   6   0   5   10.50    6.90
   6   0   5   13.70    6.30
   6  -1  -5   70.89    9.00
   6  -1  -5   28.40    9.90
   6  -1  -5   66.89   14.90
   6  -1  -5   49.90   10.70
  -6   1   5   53.39   10.00
  -6   1   5   41.20   13.70
  -6   1   5   47.00    7.10
  -6   1   5   56.39   10.80
  -6   1   5   42.00    8.70
  -6   1   5   50.69    5.00
  -6   1   5   37.00    6.40
   5  -1  -5   91.49   12.00
   5  -1  -5  106.79   15.60
   5  -1  -5   96.09   14.60
   5  -1  -5   91.89   12.60
   5  -1  -5  114.59   10.40
  -5   1   5   87.59    5.70
  -5   1   5  103.39   11.50
  -5   1   5  102.69   13.00
  -5   1   5  100.79    7.70
  -5   1   5  105.79   15.70
  -5   1   5   90.79    7.90
  -5   1   5   96.99   10.30
   4  -1  -5  144.69    9.80
   4  -1  -5  132.99    9.90
   4  -1  -5  153.48    9.00
   4  -1  -5  156.58   11.60
   4  -1  -5  135.69   11.90
  -4   1   5  126.99   12.00
  -4   1   5  135.89    6.80
  -4   1   5  132.89    7.20
  -4   1   5  137.49    9.30
  -4   1   5  142.39    9.20
  -4   1   5  133.89    6.20
  -4   1   5  126.29   10.10
   3  -1  -5   55.79    6.90
   3  -1  -5   45.80    5.20
   3  -1  -5   53.49    5.60
   3  -1  -5   51.29    6.00
   3  -1  -5   41.20    5.90
  -3   1   5   46.40    7.80
  -3   1   5   45.50    5.00
  -3   1   5   39.00    3.80
   2  -1  -5  854.31   27.30
   2  -1  -5  829.62   25.90
   2  -1  -5  818.12   25.90
   2  -1  -5  850.31   26.50
   2  -1  -5  870.21   26.10
  -2   1   5  856.71   25.40
  -2   1   5  891.31   27.00
  -2   1   5  854.21   25.90
   1  -1  -5  137.09    5.30
   1  -1  -5  146.79    5.50
   1  -1  -5  135.49    5.50
   1  -1  -5  140.39    5.80
   1  -1  -5  129.19    5.40
  -1   1   5  143.09    5.50
  -1   1   5  136.89    5.40
  -1   1   5  137.09    5.10
  -1   1   5  130.19    6.00
  -1   1   5  141.39    6.10
   0  -1  -5 1586.74   44.00
   0  -1  -5 1502.05   44.50
   0  -1  -5 1454.95   44.20
   0  -1  -5 1492.85   44.20
   0  -1  -5 1431.56   44.00
   0   1   5 1520.05   44.50
   0   1   5 1579.24   44.20
   0   1   5 1552.24   44.20
   0   1   5 1502.05   44.20
   0   1   5 1578.34   44.10
   0   1   5 1546.35   43.10
  -1  -1  -5  758.62   23.60
  -1  -1  -5  763.52   23.90
  -1  -1  -5  761.62   23.40
  -1  -1  -5  768.12   23.30
   1   1   5  774.42   23.50
   1   1   5  755.42   24.10
   1   1   5  783.92   23.70
   1   1   5  763.12   23.10
  -2  -1  -5 1391.06   44.60
  -2  -1  -5 1389.76   43.80
  -2  -1  -5 1458.65   40.90
  -2  -1  -5 1426.46   43.50
  -2  -1  -5 1439.46   43.20
  -2  -1  -5 1485.25   43.10
   2   1   5 1449.76   43.50
   2   1   5 1423.86   44.10
   2   1   5 1517.65   43.40
   2   1   5 1403.16   42.70
  -3  -1  -5  295.27   12.10
  -3  -1  -5  275.57   14.10
  -3  -1  -5  288.77   12.80
  -3  -1  -5  284.67   12.20
  -3  -1  -5  292.27    9.10
   3   1   5  284.37   11.20
   3   1   5  286.07   13.70
   3   1   5  287.77   12.00
   3   1   5  277.37   12.30
  -4  -1  -5   44.00    6.80
  -4  -1  -5   46.60    3.30
  -4  -1  -5   54.69    8.80
  -4  -1  -5   57.69    8.90
  -4  -1  -5   49.70    6.30
  -4  -1  -5   51.59    6.40
   4   1   5   54.99    6.40
   4   1   5   42.60    7.60
   4   1   5   47.80    7.40
   4   1   5   45.80    6.90
  -5  -1  -5   31.30    7.70
  -5  -1  -5   26.20    7.90
  -5  -1  -5   34.10    8.50
  -5  -1  -5   33.50    3.30
  -5  -1  -5   26.60    7.30
  -5  -1  -5   27.50    7.00
   5   1   5   36.30    8.90
   5   1   5   35.20    7.00
   5   1   5   35.30    9.00
   5   1   5   55.99    9.40
  -6  -1  -5   88.49   10.70
  -6  -1  -5  128.19   14.00
  -6  -1  -5   98.09   13.80
  -6  -1  -5  118.99   15.70
  -6  -1  -5  142.39   18.80
  -6  -1  -5  102.59   13.60
  -6  -1  -5   99.79    6.40
   6   1   5  110.89   14.00
   6   1   5  101.89   16.70
   6   1   5  155.28   22.30
   6   1   5  130.79   12.00
   6   1   5  103.59   13.30
   6  -2  -5    1.10    7.50
   6  -2  -5   12.50   14.80
   6  -2  -5   16.00    9.70
  -6   2   5    6.40    5.30
  -6   2   5   11.20    6.90
  -6   2   5   11.60    3.40
  -6   2   5   25.00    9.50
   5  -2  -5   21.70   10.00
   5  -2  -5   35.00    6.40
   5  -2  -5   30.60    6.90
  -5   2   5   43.80    7.10
  -5   2   5   33.20    3.70
  -5   2   5   30.10    5.40
  -5   2   5   31.50    4.60
   4  -2  -5   45.20    6.80
   4  -2  -5   45.80    5.20
   4  -2  -5   36.70    7.60
  -4   2   5   37.60    5.80
  -4   2   5   43.50    4.70
  -4   2   5   40.50    3.70
  -4   2   5   34.10    5.80
   3  -2  -5    3.70    2.20
   3  -2  -5    5.10    2.70
   3  -2  -5    3.80    4.10
   3  -2  -5    7.40    3.10
  -3   2   5    4.90    1.50
  -3   2   5    3.90    3.40
   2  -2  -5   47.60    3.20
   2  -2  -5   55.29    3.70
   2  -2  -5   48.30    3.70
   2  -2  -5   49.20    5.30
   2  -2  -5   60.59    3.60
  -2   2   5   48.90    2.90
  -2   2   5   54.49    2.90
   1  -2  -5  987.40   28.30
   1  -2  -5  960.40   28.30
   1  -2  -5  931.01   29.10
  -1   2   5  931.61   29.10
  -1   2   5  999.90   28.10
  -1   2   5  988.70   28.70
  -1   2   5  981.30   28.30
   0  -2  -5  307.77   10.20
   0  -2  -5  296.87   10.40
   0  -2  -5  302.97   10.70
   0  -2  -5  305.17    9.90
   0  -2  -5  311.67   10.10
   0   2   5  302.97   10.40
   0   2   5  301.97   10.30
   0   2   5  318.07   10.10
   0   2   5  309.57   10.70
   0   2   5  312.17    9.10
  -1  -2  -5   99.29    6.00
  -1  -2  -5  110.89    5.40
  -1  -2  -5  119.19    5.60
  -1  -2  -5  110.79    5.90
   1   2   5  110.09    4.90
   1   2   5  116.09    5.70
   1   2   5  116.09    6.30
   1   2   5  108.09    5.40
   1   2   5  112.39    5.50
  -2  -2  -5 1783.82   55.49
  -2  -2  -5 1780.22   54.39
  -2  -2  -5 1880.11   53.99
   2   2   5 1841.52   54.39
   2   2   5 1771.82   54.99
   2   2   5 1801.62   53.49
   2   2   5 1832.82   54.19
  -3  -2  -5  154.08   10.80
  -3  -2  -5  168.48    9.20
  -3  -2  -5  169.08    9.60
  -3  -2  -5  178.18   10.50
  -3  -2  -5  175.68   10.10
   3   2   5  167.88   10.70
   3   2   5  177.08    9.60
   3   2   5  185.48   10.10
   3   2   5  171.68    8.60
  -4  -2  -5   65.89    8.50
  -4  -2  -5   60.69    9.10
  -4  -2  -5   64.69    8.30
  -4  -2  -5   80.49   10.40
  -4  -2  -5   54.29    7.80
   4   2   5   72.29    7.30
   4   2   5   66.29   11.00
   4   2   5   63.29    8.40
   4   2   5   58.69    7.70
  -5  -2  -5   31.80    7.90
  -5  -2  -5   38.60    9.20
  -5  -2  -5   24.00    9.10
  -5  -2  -5   47.70    8.60
  -5  -2  -5   37.40    3.70
  -5  -2  -5   37.40    9.50
   5   2   5   43.70   10.20
   5   2   5   34.90    9.20
   5   2   5   36.90    6.30
   5   2   5   37.50    7.00
  -6  -2  -5    1.90    3.20
  -6  -2  -5    9.10   10.90
  -6  -2  -5    4.20   10.10
  -6  -2  -5    6.70    8.90
  -6  -2  -5   -6.70   10.80
  -6  -2  -5   15.30   11.80
   6   2   5   18.20   12.70
   6   2   5   -8.40   11.30
   6   2   5   13.50    8.20
   6   2   5   -4.20    6.60
   5  -3  -5  -11.40    8.90
  -5   3   5   13.70    3.00
   4  -3  -5    3.00    6.80
   4  -3  -5   -1.30    3.00
  -4   3   5   -1.50    1.70
   3  -3  -5   -8.20    4.40
   3  -3  -5   -0.80    1.90
   3  -3  -5    3.60    2.40
  -3   3   5    2.70    1.40
   2  -3  -5  132.99    7.80
   2  -3  -5  115.39    5.60
  -2   3   5  127.89    5.00
   1  -3  -5 2788.62   81.39
  -1   3   5 2786.42   81.29
  -1   3   5 2862.41   80.09
   0  -3  -5    1.60    1.70
   0  -3  -5    0.50    1.90
   0  -3  -5    5.30    1.70
   0  -3  -5    2.30    1.50
   0   3   5    2.00    1.60
   0   3   5    2.80    1.50
   0   3   5    1.80    1.10
   0   3   5    4.00    2.30
   0   3   5    2.90    0.90
   0   3   5    2.00    1.70
  -1  -3  -5  171.38    7.50
  -1  -3  -5  166.08    8.00
   1   3   5  173.88    7.50
   1   3   5  174.68    7.40
   1   3   5  170.48    6.90
   1   3   5  163.58    7.70
   1   3   5  173.48    8.50
  -2  -3  -5  889.71   30.00
  -2  -3  -5  892.81   29.20
  -2  -3  -5  901.61   29.80
  -2  -3  -5  906.21   30.70
  -2  -3  -5  933.11   29.20
   2   3   5  966.10   29.60
   2   3   5  918.01   28.60
   2   3   5  898.61   30.20
   2   3   5  915.51   29.60
  -3  -3  -5    3.80    3.40
  -3  -3  -5    1.50    4.20
  -3  -3  -5   -3.80    3.90
  -3  -3  -5   -2.10    4.70
  -3  -3  -5   -1.80    4.70
   3   3   5    5.10    5.10
   3   3   5   -1.80    3.10
   3   3   5    0.40    4.40
   3   3   5    2.50    3.80
  -4  -3  -5  140.09   11.70
  -4  -3  -5  127.99   11.10
  -4  -3  -5  141.89   12.40
  -4  -3  -5  160.58   13.00
  -4  -3  -5  161.98   13.10
   4   3   5  154.68   12.40
   4   3   5  146.89   10.10
   4   3   5  158.68   11.70
   4   3   5  130.09   13.30
  -5  -3  -5   49.50    9.20
  -5  -3  -5   48.50    8.60
  -5  -3  -5   51.69    8.30
  -5  -3  -5   47.10    9.70
   5   3   5   69.09   15.60
   5   3   5   82.39   12.30
   5   3   5   64.49   10.50
   5   3   5   48.10    7.40
  -6  -3  -5   12.20   11.00
  -6  -3  -5   13.30   11.70
  -6  -3  -5   10.00   11.00
  -6  -3  -5   21.40    9.80
  -6  -3  -5   19.00   13.40
   6   3   5   28.70    9.10
   6   3   5   28.70   14.10
   6   3   5   15.20    7.90
   6   3   5   11.30   12.00
   5  -4  -5    0.90   10.80
   5  -4  -5    2.60    5.10
  -5   4   5    6.40    2.40
   4  -4  -5  181.08   15.40
   4  -4  -5  163.28    9.90
   4  -4  -5  160.08    9.30
  -4   4   5  167.18    7.40
   3  -4  -5   57.09    9.00
   3  -4  -5   48.30    5.10
   3  -4  -5   50.19    5.30
  -3   4   5   53.99    3.70
   2  -4  -5   25.60    3.50
   2  -4  -5   31.30    4.70
   2  -4  -5   31.40    4.10
  -2   4   5   29.80    2.80
   1  -4  -5    9.00    2.50
  -1   4   5   11.20    2.80
  -1   4   5   11.10    1.70
   0  -4  -5 1123.89   32.90
   0  -4  -5 1075.69   33.70
   0  -4  -5 1071.19   32.40
   0   4   5 1125.39   32.10
   0   4   5 1068.49   31.90
   0   4   5 1101.79   33.20
   0   4   5 1097.09   33.10
  -1  -4  -5 1128.89   34.60
  -1  -4  -5 1120.29   34.70
  -1  -4  -5 1143.79   34.30
  -1  -4  -5 1091.99   35.30
   1   4   5 1105.89   35.30
   1   4   5 1125.99   34.40
   1   4   5 1162.18   35.00
   1   4   5 1097.49   34.30
  -2  -4  -5  123.79    9.30
  -2  -4  -5  139.09    8.60
  -2  -4  -5  129.59    9.50
  -2  -4  -5  138.39    9.40
  -2  -4  -5  137.19    8.40
   2   4   5  139.39    9.10
   2   4   5  146.39    8.60
   2   4   5  146.89    7.80
   2   4   5  132.59    9.70
  -3  -4  -5   15.30    5.60
  -3  -4  -5   13.20    5.50
  -3  -4  -5   10.60    5.00
  -3  -4  -5   10.80    4.70
  -3  -4  -5   13.30    5.20
   3   4   5   15.20    4.40
   3   4   5   11.20    5.60
   3   4   5   12.60    5.30
   3   4   5   14.70    5.50
  -4  -4  -5 1241.78   43.70
  -4  -4  -5 1206.98   47.30
  -4  -4  -5 1307.97   43.70
  -4  -4  -5 1290.37   42.30
  -4  -4  -5 1207.48   41.60
   4   4   5 1262.27   42.50
   4   4   5 1280.67   41.00
   4   4   5 1240.68   44.20
   4   4   5 1275.27   42.80
  -5  -4  -5  119.79   13.80
  -5  -4  -5  111.09   15.40
  -5  -4  -5   93.49   13.50
  -5  -4  -5  115.29   16.60
  -5  -4  -5  101.19   17.10
   5   4   5  101.09   12.30
   5   4   5  146.69   18.50
   5   4   5  109.29   14.90
   5   4   5   91.29   11.60
  -6  -4  -5   19.50   10.70
  -6  -4  -5   30.00   13.80
  -6  -4  -5   20.90   12.60
  -6  -4  -5   18.50   11.60
  -6  -4  -5   14.00   18.10
   6   4   5   19.50   13.70
   6   4   5   41.20   11.30
   6   4   5   20.90   15.90
   6   4   5   13.90    9.00
   5  -5  -5   10.00   13.60
   5  -5  -5   18.90    6.60
  -5   5   5   12.80    3.20
   4  -5  -5   70.19    9.10
   4  -5  -5   45.70   10.60
   4  -5  -5   37.50    6.00
  -4   5   5   41.80    4.30
   3  -5  -5  146.59    8.70
   3  -5  -5  143.89    9.00
   3  -5  -5  145.69   12.70
  -3   5   5  145.59    6.70
   2  -5  -5   30.70    4.20
   2  -5  -5   28.20    4.30
   2  -5  -5   23.10    5.20
  -2   5   5   28.00    3.00
   1  -5  -5   11.50    2.80
  -1   5   5   11.50    1.90
  -1   5   5    7.60    2.70
   0  -5  -5   42.40    4.90
   0   5   5   43.20    3.30
   0   5   5   41.70    4.30
  -1  -5  -5    2.70    3.40
  -1  -5  -5   13.20    3.60
  -1  -5  -5    7.50    4.10
  -1  -5  -5    9.10    4.20
   1   5   5   16.40    3.90
   1   5   5    8.90    2.90
   1   5   5    5.90    2.20
   1   5   5   13.40    4.80
   1   5   5   11.80    3.50
  -2  -5  -5  676.63   25.90
  -2  -5  -5  719.63   25.30
  -2  -5  -5  709.93   24.60
  -2  -5  -5  693.13   24.50
  -2  -5  -5  673.73   25.80
   2   5   5  722.93   25.10
   2   5   5  731.33   26.10
   2   5   5  713.03   23.80
   2   5   5  719.13   24.90
   2   5   5  726.93   23.80
  -3  -5  -5  140.29   12.40
  -3  -5  -5  150.58   12.90
  -3  -5  -5  137.99   12.60
  -3  -5  -5  153.68   12.10
  -3  -5  -5  148.69   11.10
   3   5   5  148.19   12.20
   3   5   5  169.08   12.50
   3   5   5  163.58   10.50
   3   5   5  179.98   13.40
  -4  -5  -5  474.25   21.80
  -4  -5  -5  451.45   20.90
  -4  -5  -5  458.55   22.60
  -4  -5  -5  430.26   22.30
  -4  -5  -5  463.05   22.90
   4   5   5  439.36   23.00
   4   5   5  451.55   23.50
   4   5   5  477.55   22.10
   4   5   5  467.85   19.70
  -5  -5  -5  -10.70   10.60
  -5  -5  -5    3.60   10.60
  -5  -5  -5   20.30   10.70
  -5  -5  -5   18.80    9.20
  -5  -5  -5   17.00    8.60
   5   5   5   19.40    9.40
   5   5   5    7.20   11.20
   5   5   5   20.30    9.80
   5   5   5   19.00    7.70
   4  -6  -5   78.09   10.30
   4  -6  -5   73.99   13.40
   4  -6  -5   88.79   13.10
  -4   6   5   68.59    5.60
   3  -6  -5    7.10    4.90
   3  -6  -5    2.50    7.10
  -3   6   5    2.60    2.50
   2  -6  -5  133.29    9.10
   2  -6  -5  129.19   10.70
   2  -6  -5  149.39    9.40
  -2   6   5  138.29    6.50
   1  -6  -5  116.39    8.00
  -1   6   5  116.59    5.80
   0   6   5    6.30    2.50
   0   6   5    7.30    2.90
  -1  -6  -5  105.99    8.50
  -1  -6  -5   99.09    8.20
   1   6   5  102.99    8.80
   1   6   5  102.49    6.70
   1   6   5   97.29    6.30
  -2  -6  -5  104.69   11.20
  -2  -6  -5   85.19   10.90
  -2  -6  -5   73.19   12.10
  -2  -6  -5   87.19    9.00
  -2  -6  -5   88.69   10.90
   2   6   5   98.49   11.90
   2   6   5   98.99   10.10
   2   6   5   84.19    8.10
   2   6   5   90.59    7.60
  -3  -6  -5  714.13   27.20
  -3  -6  -5  703.43   29.10
  -3  -6  -5  729.83   27.60
  -3  -6  -5  735.43   28.60
  -3  -6  -5  689.23   28.70
   3   6   5  751.32   26.40
   3   6   5  766.62   28.20
   3   6   5  741.23   28.10
   3   6   5  736.83   29.70
  -4  -6  -5   98.49   12.40
  -4  -6  -5  104.59   16.00
  -4  -6  -5   92.99   13.60
  -4  -6  -5  124.29   16.50
  -4  -6  -5  115.29   12.60
   4   6   5  101.19   12.40
   4   6   5   98.89   15.40
   4   6   5  100.69   13.30
   4   6   5  115.89   15.20
  -5  -6  -5   -4.20   11.10
  -5  -6  -5  -13.30   11.10
  -5  -6  -5   21.10   10.80
  -5  -6  -5   18.20   10.20
  -5  -6  -5   -4.30   12.50
   5   6   5   10.20   12.60
   5   6   5  -22.10   10.70
   5   6   5   -6.50   10.30
   5   6   5    9.50    8.50
   3  -7  -5  133.09   12.20
   3  -7  -5   90.79   10.70
   3  -7  -5  116.89   17.00
  -3   7   5  108.39    6.50
   2  -7  -5  126.99    9.40
   2  -7  -5  125.89   11.80
   2  -7  -5  128.59   11.10
  -2   7   5  118.59    6.80
   1  -7  -5   34.60    6.00
   1  -7  -5   62.69    9.30
  -1   7   5   40.90    4.70
   0   7   5  131.39    8.10
   0   7   5  127.29    7.10
  -1  -7  -5   20.00    5.50
  -1  -7  -5   27.50    5.50
   1   7   5   13.70    5.60
   1   7   5   22.70    4.40
   1   7   5   17.60    3.60
  -2  -7  -5  707.63   27.20
  -2  -7  -5  694.63   27.60
  -2  -7  -5  711.33   27.30
  -2  -7  -5  686.13   25.70
  -2  -7  -5  693.03   25.70
   2   7   5  669.13   26.00
   2   7   5  688.03   28.10
   2   7   5  622.84   25.40
   2   7   5  725.13   26.30
  -3  -7  -5   33.70   10.50
  -3  -7  -5   32.40   10.40
  -3  -7  -5   40.10    9.60
  -3  -7  -5   35.50    8.70
  -3  -7  -5   44.50    7.80
   3   7   5   32.90    9.00
   3   7   5   42.00   10.40
   3   7   5   46.30    9.30
   3   7   5   47.30    7.20
   3   7   5   48.70    7.60
  -4  -7  -5   19.00   10.80
  -4  -7  -5   -3.80   10.80
  -4  -7  -5    5.00    9.00
  -4  -7  -5   -0.70   11.40
  -4  -7  -5   -2.40   10.00
   4   7   5   15.20   10.30
   4   7   5    5.80    7.80
   4   7   5    0.20   10.90
   4   7   5   12.80   10.00
   4   7   5   10.70    7.80
   2  -8  -5   18.40    7.90
   2  -8  -5   31.20    7.50
   2  -8  -5   26.40    8.50
  -2   8   5   23.20    4.00
   1  -8  -5    1.80    5.90
   1  -8  -5   14.70    6.00
   1  -8  -5   -5.40    6.10
  -1   8   5    5.70    3.70
   0   8   5   20.60    4.20
   0   8   5   20.90    5.20
  -1  -8  -5   41.90    7.50
  -1  -8  -5   45.10    7.30
   1   8   5   49.00    7.30
  -2  -8  -5    9.30   10.00
  -2  -8  -5   -3.70   14.30
  -2  -8  -5   -4.40    7.20
  -2  -8  -5    6.10    7.60
  -2  -8  -5    0.20    8.70
   2   8   5    4.90    4.80
   2   8   5   24.50    8.00
   2   8   5    9.00    9.30
   2   8   5    4.60    7.90
   2   8   5    6.40    5.40
  -3  -8  -5  448.26   25.90
  -3  -8  -5  435.56   22.60
  -3  -8  -5  475.25   25.80
  -3  -8  -5  422.06   26.70
  -3  -8  -5  420.36   22.90
   3   8   5  385.46   22.00
   3   8   5  457.65   19.20
   3   8   5  484.35   23.90
   3   8   5  490.85   26.60
   3   8   5  434.56   21.10
   3   7  -6   91.89   13.30
   3   7  -6  105.79   16.10
   3   7  -6  147.19   23.00
   3   7  -6   91.29   11.60
  -3  -7   6   81.39   15.20
  -3  -7   6  126.39   11.90
  -3  -7   6   84.39   11.00
  -3  -7   6  106.69   14.60
   2   7  -6   78.89   13.30
   2   7  -6   61.69    9.30
   2   7  -6   89.49   11.70
   2   7  -6   85.99    9.00
  -2  -7   6   86.99   12.30
  -2  -7   6   67.79    9.70
  -2  -7   6   56.29   13.50
  -2  -7   6   76.79   11.50
  -2  -7   6   89.99   11.80
   1   7  -6    7.80    5.90
   1   7  -6    0.60    4.80
   1   7  -6   10.80    8.80
   1   7  -6   11.00   10.30
  -1  -7   6    3.10    5.30
  -1  -7   6    2.00    3.90
  -1  -7   6    3.80    9.50
  -1  -7   6   -9.40   10.40
  -1  -7   6    4.00    5.80
   0   7  -6   46.60   10.80
   0   7  -6   46.70    6.30
   0   7  -6   37.80    4.90
   0  -7   6   45.50    5.30
   0  -7   6   38.90    7.10
   0  -7   6   46.00   11.00
   0  -7   6   40.10    6.10
   0  -7   6   26.90   10.00
  -1   7  -6   10.20    3.80
  -1   7  -6    9.80    6.90
   1  -7   6   -1.10    8.60
   1  -7   6   13.80    6.50
   1  -7   6   11.90    4.60
  -2   7  -6   -0.40    3.50
  -2   7  -6  -17.00    6.90
  -2   7  -6    8.70    5.00
   2  -7   6    0.20    6.00
   2  -7   6    3.30    7.40
   2  -7   6    1.50    8.80
   4   6  -6   58.89   14.00
   4   6  -6   50.49   12.00
   4   6  -6   41.10   11.20
   4   6  -6   63.19   10.70
   4   6  -6   46.90   11.70
  -4  -6   6   26.30   13.00
  -4  -6   6   33.00    9.90
  -4  -6   6   62.19   14.70
  -4  -6   6   33.90    8.10
  -4  -6   6   43.20    7.80
   3   6  -6   11.90    8.30
   3   6  -6   14.80    8.30
   3   6  -6   19.60    7.90
   3   6  -6    8.00   13.90
  -3  -6   6   22.10   10.00
  -3  -6   6    5.80    7.80
  -3  -6   6   13.30    5.60
  -3  -6   6   20.30   10.70
   2   6  -6   -2.80    5.90
   2   6  -6   -5.40    8.80
   2   6  -6   -2.10    5.90
   2   6  -6    8.30    7.80
  -2  -6   6    1.20    4.10
  -2  -6   6    2.80    5.20
  -2  -6   6    8.20    5.30
  -2  -6   6    3.80    8.50
  -2  -6   6  -11.40    8.30
   1   6  -6  136.99   14.90
   1   6  -6  140.19    9.50
   1   6  -6  140.99    9.90
   1   6  -6  163.08   12.90
  -1  -6   6  149.29   14.30
  -1  -6   6  134.99    8.40
  -1  -6   6  140.79   10.00
  -1  -6   6  154.68   14.70
   0   6  -6  129.59   13.40
   0   6  -6  170.08   11.90
   0   6  -6  137.79    9.30
   0   6  -6  144.39    8.00
   0  -6   6  144.69   10.30
   0  -6   6  138.49    7.90
   0  -6   6  147.59   12.70
   0  -6   6  167.08   14.70
   0  -6   6  143.69    9.40
  -1   6  -6  133.19    7.60
  -1   6  -6  139.39   12.50
  -1   6  -6  125.79   10.20
   1  -6   6  130.39    8.20
   1  -6   6  120.69   11.80
   1  -6   6  131.79    9.30
   1  -6   6  157.38   14.20
   1  -6   6  139.89   10.70
  -2   6  -6   13.20    3.60
  -2   6  -6   20.50    3.90
  -2   6  -6   14.60    5.70
   2  -6   6   26.00    6.40
   2  -6   6   18.80    6.00
   2  -6   6   14.10    4.80
  -3   6  -6  117.49    7.90
  -3   6  -6  123.09   10.30
   3  -6   6   98.09   12.00
   3  -6   6  142.19   13.40
   5   5  -6  103.69   14.70
   5   5  -6  116.99   15.50
   5   5  -6   99.19   14.00
   5   5  -6  104.79   15.90
   5   5  -6  145.89   22.30
  -5  -5   6  145.59   14.70
  -5  -5   6   85.09   16.40
  -5  -5   6  102.79   13.40
  -5  -5   6  111.89   14.60
  -5  -5   6   91.09   16.80
   4   5  -6   52.09   10.50
   4   5  -6   49.70    9.40
   4   5  -6   64.19   12.40
   4   5  -6   48.20    9.90
   4   5  -6   63.09   10.50
  -4  -5   6   55.59    7.50
  -4  -5   6   68.39   10.00
  -4  -5   6   60.49   22.70
  -4  -5   6   57.39    7.60
  -4  -5   6   68.19   12.90
   3   5  -6    4.70    7.30
   3   5  -6    6.40    7.50
   3   5  -6    1.60    7.70
   3   5  -6    4.80    6.00
   3   5  -6    6.80    6.40
  -3  -5   6    9.30    4.30
  -3  -5   6   15.30    8.30
  -3  -5   6    7.60    8.70
  -3  -5   6    3.50    4.60
  -3  -5   6    3.60    5.40
   2   5  -6  659.13   26.10
   2   5  -6  659.03   24.60
   2   5  -6  647.54   24.70
   2   5  -6  630.34   23.30
  -2  -5   6  648.64   22.20
  -2  -5   6  625.24   23.10
  -2  -5   6  607.84   22.00
  -2  -5   6  654.33   25.90
  -2  -5   6  644.04   28.20
   1   5  -6   86.29    7.80
   1   5  -6   95.09   10.90
   1   5  -6  105.49    9.50
   1   5  -6   92.89    7.60
  -1  -5   6   93.49    7.50
  -1  -5   6   90.59   10.50
  -1  -5   6  116.99   11.70
  -1  -5   6   92.89    7.80
  -1  -5   6   97.09    6.40
   0   5  -6  456.05   16.20
   0   5  -6  484.05   18.80
   0   5  -6  459.45   16.70
   0   5  -6  468.05   18.10
   0  -5   6  448.46   18.30
   0  -5   6  475.15   19.50
   0  -5   6  468.15   17.50
   0  -5   6  453.75   15.80
   0  -5   6  456.85   16.70
  -1   5  -6   32.20    4.40
  -1   5  -6   26.80    3.80
  -1   5  -6   23.80    5.90
  -1   5  -6   24.60    3.60
   1  -5   6   22.50    6.30
   1  -5   6   19.80    3.40
   1  -5   6   25.20    5.70
   1  -5   6   23.70    4.90
   1  -5   6   21.30    4.40
  -2   5  -6  281.07   11.70
  -2   5  -6  321.77   12.10
  -2   5  -6  288.67   12.40
  -2   5  -6  318.17   14.10
   2  -5   6  299.87   13.80
   2  -5   6  324.57   14.80
   2  -5   6  295.67   13.70
   2  -5   6  302.67   12.80
  -3   5  -6    2.70    3.90
  -3   5  -6   -8.40    5.80
  -3   5  -6    0.20    2.80
  -3   5  -6   -2.20    4.10
   3  -5   6   -1.80    5.00
   3  -5   6    9.00    5.60
   3  -5   6   -4.10    5.70
  -4   5  -6    7.10    4.90
  -4   5  -6   11.30    3.60
  -4   5  -6    0.10    7.70
   4  -5   6   16.50    5.80
   4  -5   6    3.30    8.90
   5   4  -6   47.80   10.90
   5   4  -6   48.20   12.80
   5   4  -6   57.89   10.90
   5   4  -6   60.99   12.10
   5   4  -6   59.59   13.60
  -5  -4   6   61.59    8.60
  -5  -4   6   48.30   12.70
  -5  -4   6   60.49   10.20
  -5  -4   6   62.59    9.30
  -5  -4   6   77.49   15.40
   4   4  -6   59.79    9.00
   4   4  -6   53.79    9.20
   4   4  -6   56.09    9.70
   4   4  -6   55.59   10.30
   4   4  -6   64.49   11.30
  -4  -4   6   63.59   10.50
  -4  -4   6   61.89    8.80
  -4  -4   6   59.59   11.40
  -4  -4   6   89.19    9.50
  -4  -4   6   73.79    9.50
   3   4  -6  380.46   16.60
   3   4  -6  375.06   17.60
   3   4  -6  346.27   17.30
   3   4  -6  353.96   19.10
   3   4  -6  360.96   17.10
  -3  -4   6  359.26   14.50
  -3  -4   6  347.37   16.30
  -3  -4   6  393.46   18.90
  -3  -4   6  363.16   15.10
  -3  -4   6  348.17   19.40
   2   4  -6  103.99    9.10
   2   4  -6   88.39   10.50
   2   4  -6  103.39    8.80
   2   4  -6   95.99    8.90
   2   4  -6   91.89    9.10
  -2  -4   6  106.59    7.00
  -2  -4   6  105.89    8.20
  -2  -4   6   82.49   10.60
  -2  -4   6   93.49   10.90
   1   4  -6   90.19    7.20
   1   4  -6   99.29    9.00
   1   4  -6  100.99    7.00
   1   4  -6  106.09    8.20
  -1  -4   6  100.29    6.40
  -1  -4   6  106.89    9.50
  -1  -4   6  120.29   10.30
  -1  -4   6  101.89    6.20
  -1  -4   6  101.19    7.20
   0   4  -6  254.27    9.90
   0   4  -6  237.48   11.00
   0   4  -6  242.48   10.20
   0   4  -6  243.68   11.90
   0  -4   6  258.77   11.80
   0  -4   6  240.98   10.40
   0  -4   6  250.97   10.30
   0  -4   6  255.87   12.40
   0  -4   6  238.18    9.50
  -1   4  -6   51.69    4.40
  -1   4  -6   36.60    5.10
  -1   4  -6   50.99    4.30
  -1   4  -6   60.79    6.00
  -1   4  -6   52.79    6.80
   1  -4   6   45.00    7.50
   1  -4   6   43.80    4.60
   1  -4   6   41.30    6.00
   1  -4   6   50.09    5.60
   1  -4   6   43.60    5.80
  -2   4  -6  302.57   11.60
  -2   4  -6  327.97   12.10
  -2   4  -6  314.57   14.10
  -2   4  -6  324.27   13.30
  -2   4  -6  325.47   13.20
   2  -4   6  310.37   13.60
   2  -4   6  341.67   13.50
   2  -4   6  312.37   13.50
   2  -4   6  310.37   12.80
   2  -4   6  331.77   14.10
  -3   4  -6  137.79   10.60
  -3   4  -6  120.49    6.70
  -3   4  -6  124.39    8.20
  -3   4  -6  121.79    7.20
   3  -4   6  136.29    8.20
   3  -4   6  122.89   10.30
   3  -4   6  125.99   11.20
  -4   4  -6    3.60    2.70
  -4   4  -6   13.40    3.70
  -4   4  -6    6.30    6.60
  -4   4  -6   12.30    5.40
   4  -4   6    6.40    4.50
   4  -4   6    4.10    5.70
   4  -4   6    1.40    7.50
   4  -4   6    6.20    8.30
   6   3  -6  372.36   30.00
   6   3  -6  380.76   30.00
   6   3  -6  343.57   24.60
   6   3  -6  348.57   25.10
   6   3  -6  395.06   26.80
  -6  -3   6  380.06   23.70
  -6  -3   6  352.36   29.20
  -6  -3   6  375.46   21.50
  -6  -3   6  349.27   32.30
  -6  -3   6  346.07   20.10
   5   3  -6   -1.50    8.40
   5   3  -6   12.40   10.80
   5   3  -6    7.50    9.50
   5   3  -6    6.30    7.80
   5   3  -6   10.70    9.70
  -5  -3   6    7.10    9.70
  -5  -3   6    3.70    5.90
  -5  -3   6    2.00    6.30
  -5  -3   6    9.50    7.50
  -5  -3   6   10.30   12.50
   4   3  -6  506.45   21.80
   4   3  -6  509.65   21.60
   4   3  -6  471.25   23.90
   4   3  -6  496.85   21.50
   4   3  -6  530.25   23.20
  -4  -3   6  502.15   19.30
  -4  -3   6  477.05   23.50
  -4  -3   6  507.15   23.10
  -4  -3   6  503.85   24.50
  -4  -3   6  515.75   19.80
   3   3  -6   36.30    7.10
   3   3  -6   31.60    5.90
   3   3  -6   34.40    5.40
   3   3  -6   34.80    6.40
   3   3  -6   41.00    6.60
  -3  -3   6   28.20    5.50
  -3  -3   6   31.70    5.10
  -3  -3   6   31.90    7.30
  -3  -3   6   35.50    7.00
  -3  -3   6   28.70    5.20
   2   3  -6   35.60    5.30
   2   3  -6   29.40    5.00
   2   3  -6   28.20    4.90
   2   3  -6   29.40    5.60
   2   3  -6   33.50    5.00
  -2  -3   6   32.20    6.00
  -2  -3   6   47.10    7.00
  -2  -3   6   35.70    4.80
  -2  -3   6   40.90    4.90
   1   3  -6  297.37   12.30
   1   3  -6  325.97   12.80
   1   3  -6  317.57   13.50
   1   3  -6  304.07   11.60
   1   3  -6  301.97   12.20
  -1  -3   6  315.17   11.20
  -1  -3   6  308.17   12.20
  -1  -3   6  320.17   11.50
  -1  -3   6  329.97   14.20
  -1  -3   6  328.67   13.50
   0   3  -6  157.58    7.70
   0   3  -6  150.88    7.30
   0   3  -6  138.19    6.80
   0   3  -6  154.08    8.40
   0  -3   6  155.98    7.40
   0  -3   6  163.18    7.30
   0  -3   6  160.18    6.80
   0  -3   6  143.49    8.60
   0  -3   6  169.68    8.40
  -1   3  -6   44.50    5.40
  -1   3  -6   50.29    4.10
  -1   3  -6   54.29    4.50
  -1   3  -6   49.50    4.80
  -1   3  -6   59.79    5.60
  -1   3  -6   56.19    3.80
   1  -3   6   48.10    5.10
   1  -3   6   66.79    5.80
   1  -3   6   48.20    4.30
   1  -3   6   53.49    5.10
   1  -3   6   55.79    5.20
  -2   3  -6    6.80    2.10
  -2   3  -6   10.50    3.20
  -2   3  -6    8.40    3.80
  -2   3  -6    5.80    2.60
  -2   3  -6    4.70    2.20
  -2   3  -6    5.60    3.10
   2  -3   6    7.20    2.90
   2  -3   6    8.30    3.00
   2  -3   6    6.00    3.10
   2  -3   6    7.90    3.50
   2  -3   6    8.80    3.30
  -3   3  -6  246.98    9.00
  -3   3  -6  237.08   11.60
  -3   3  -6  203.28   10.30
  -3   3  -6  246.48   12.50
  -3   3  -6  234.68   10.50
  -3   3  -6  220.08   12.10
  -3   3  -6  221.28   12.10
   3  -3   6  238.88   10.70
   3  -3   6  237.58   12.70
   3  -3   6  228.98   10.80
   3  -3   6  243.48   11.40
  -4   3  -6    0.60    2.20
  -4   3  -6    2.90    4.60
  -4   3  -6    3.70    5.60
  -4   3  -6    3.90    5.20
   4  -3   6    1.00    4.60
   4  -3   6    4.30    3.30
   4  -3   6    2.00    7.50
   4  -3   6   -5.00    9.30
  -5   3  -6   33.70    8.50
  -5   3  -6   43.20    4.90
  -5   3  -6   43.90   10.70
  -5   3  -6   25.90    5.00
  -5   3  -6   36.10    8.00
   5  -3   6   14.00   10.60
   5  -3   6   28.10   11.00
   5  -3   6   48.30    5.80
   6   2  -6   -8.60    9.80
   6   2  -6    5.30   11.90
   6   2  -6   -7.40   10.80
   6   2  -6   -2.40   13.40
   6   2  -6    0.90   13.00
  -6  -2   6   -1.50    7.00
  -6  -2   6    0.20    6.20
  -6  -2   6    9.20   13.40
  -6  -2   6  -11.40    8.00
  -6  -2   6  -25.80   16.00
  -6  -2   6   15.10    9.50
   5   2  -6   70.29    9.70
   5   2  -6   94.09   14.80
   5   2  -6  112.39   17.10
   5   2  -6   95.19   12.30
   5   2  -6   67.89    9.90
  -5  -2   6   98.39   12.70
  -5  -2   6   83.29   11.30
  -5  -2   6   85.39   13.60
  -5  -2   6   92.69    9.90
  -5  -2   6   84.59   11.70
   4   2  -6  426.06   21.90
   4   2  -6  433.16   19.30
   4   2  -6  414.36   18.70
   4   2  -6  420.76   20.40
   4   2  -6  421.36   18.80
  -4  -2   6  464.55   22.10
  -4  -2   6  427.66   18.80
  -4  -2   6  433.96   16.80
  -4  -2   6  442.56   20.40
  -4  -2   6  430.56   17.60
   3   2  -6   -4.10    4.50
   3   2  -6    3.30    4.40
   3   2  -6    0.60    3.90
   3   2  -6   -3.10    4.60
   3   2  -6   -9.00    3.70
  -3  -2   6   -6.50    3.60
  -3  -2   6   -2.80    2.60
  -3  -2   6   -5.00    5.10
  -3  -2   6   -0.90    2.90
  -3  -2   6    1.90    5.30
   2   2  -6   45.10    5.90
   2   2  -6   36.70    5.00
   2   2  -6   37.60    5.70
   2   2  -6   35.00    5.20
   2   2  -6   48.10    6.30
  -2  -2   6   42.90    5.30
  -2  -2   6   46.60    4.60
  -2  -2   6   46.50    6.00
  -2  -2   6   56.89    8.10
   1   2  -6   28.10    4.40
   1   2  -6   45.90    4.90
   1   2  -6   33.10    4.40
   1   2  -6   39.20    4.30
   1   2  -6   40.50    5.50
  -1  -2   6   40.90    5.10
  -1  -2   6   46.90    5.80
  -1  -2   6   43.00    3.70
  -1  -2   6   39.00    3.10
  -1  -2   6   37.90    4.30
   0   2  -6   17.00    2.60
   0   2  -6   17.20    3.20
   0   2  -6   20.80    2.90
   0   2  -6   17.20    2.60
   0   2  -6   21.80    3.10
   0  -2   6   17.70    2.50
   0  -2   6   21.90    2.90
   0  -2   6   19.50    2.30
   0  -2   6   20.60    3.50
   0  -2   6   27.20    3.30
  -1   2  -6  248.78    9.70
  -1   2  -6  256.47    9.90
  -1   2  -6  254.27    9.30
  -1   2  -6  255.27    9.90
  -1   2  -6  247.08    9.20
  -1   2  -6  260.17    8.90
   1  -2   6  241.98    9.90
   1  -2   6  263.37    9.50
   1  -2   6  253.17   10.00
   1  -2   6  263.27    9.70
   1  -2   6  255.17   10.00
  -2   2  -6  711.23   22.80
  -2   2  -6  716.73   22.30
  -2   2  -6  698.33   22.70
  -2   2  -6  751.42   23.60
  -2   2  -6  760.62   21.70
  -2   2  -6  706.83   23.40
  -2   2  -6  686.83   24.00
   2  -2   6  721.23   22.80
   2  -2   6  703.43   22.40
   2  -2   6  715.63   23.80
   2  -2   6  708.23   23.10
  -3   2  -6  260.37   10.90
  -3   2  -6  248.38    8.80
  -3   2  -6  250.37   11.00
  -3   2  -6  245.58   12.10
  -3   2  -6  243.48   10.10
  -3   2  -6  250.17   11.70
  -3   2  -6  233.18   13.00
   3  -2   6  252.17   11.50
   3  -2   6  255.47   10.00
   3  -2   6  252.17   12.90
   3  -2   6  267.57   10.60
  -4   2  -6   -5.10    4.30
  -4   2  -6    6.80    6.00
  -4   2  -6   -1.60    1.90
  -4   2  -6    4.70    3.90
  -4   2  -6    0.10    4.50
   4  -2   6   -6.10    5.30
   4  -2   6    0.10    2.90
   4  -2   6   -4.10    6.80
   4  -2   6   -1.30    3.80
  -5   2  -6   10.80    9.20
  -5   2  -6    3.00    2.50
  -5   2  -6    6.80    5.00
  -5   2  -6    3.70    8.40
  -5   2  -6   -0.20    6.60
  -5   2  -6    5.20    7.10
  -5   2  -6    8.00    6.70
   5  -2   6    3.20    8.90
   5  -2   6    7.50    8.30
   5  -2   6   -2.10    4.10
   5  -2   6    4.30    5.50
   6   1  -6   27.80   10.40
   6   1  -6   25.70   12.00
   6   1  -6   53.69   15.40
   6   1  -6   27.50    9.60
   6   1  -6   13.70   13.00
  -6  -1   6   25.00    7.30
  -6  -1   6   28.40   12.40
  -6  -1   6   30.90   10.10
  -6  -1   6   21.40    8.90
  -6  -1   6   10.40   15.50
   5   1  -6   24.10    7.70
   5   1  -6   25.00    9.80
   5   1  -6   33.70    8.40
   5   1  -6   11.10    6.70
   5   1  -6   16.00    8.40
  -5  -1   6   15.80    6.10
  -5  -1   6   27.90    6.90
  -5  -1   6   21.70    5.20
  -5  -1   6   20.60   10.20
  -5  -1   6   23.00    9.10
   4   1  -6   23.00    6.10
   4   1  -6   31.60    7.00
   4   1  -6   30.20    6.60
   4   1  -6   35.00    7.70
   4   1  -6   40.70    6.00
  -4  -1   6   32.50    5.80
  -4  -1   6   41.50    6.30
  -4  -1   6   40.50    5.80
  -4  -1   6   37.50    8.00
  -4  -1   6   35.10    7.10
   3   1  -6   52.59    6.40
   3   1  -6   62.19    7.20
   3   1  -6   51.09    6.70
   3   1  -6   48.30    7.80
   3   1  -6   43.70    6.10
  -3  -1   6   47.30    5.70
  -3  -1   6   43.30    6.00
  -3  -1   6   40.70    5.10
  -3  -1   6   45.60    6.90
  -3  -1   6   48.90    6.70
   2   1  -6  285.27   12.20
   2   1  -6  301.37   11.70
   2   1  -6  311.77   11.90
   2   1  -6  279.87   10.00
   2   1  -6  291.27   12.20
   2   1  -6  296.37   12.00
  -2  -1   6  296.47   11.40
  -2  -1   6  306.27   13.20
  -2  -1   6  304.17   12.60
   1   1  -6   23.20    3.60
   1   1  -6   21.90    2.90
   1   1  -6   29.10    3.70
   1   1  -6   23.00    3.30
   1   1  -6   30.50    4.40
   1   1  -6   22.80    2.30
  -1  -1   6   27.20    3.70
  -1  -1   6   25.00    3.90
  -1  -1   6   23.10    3.30
  -1  -1   6   25.60    2.80
   0   1  -6  572.04   17.40
   0   1  -6  524.25   17.00
   0   1  -6  559.44   17.90
   0   1  -6  544.95   17.60
   0   1  -6  543.65   17.30
   0  -1   6  533.65   16.40
   0  -1   6  532.85   17.10
   0  -1   6  552.74   17.80
   0  -1   6  586.14   17.40
   0  -1   6  553.34   17.60
   0  -1   6  565.34   17.90
  -1   1  -6 1079.99   32.80
  -1   1  -6 1063.49   33.20
  -1   1  -6 1101.89   33.10
  -1   1  -6 1108.29   33.10
  -1   1  -6 1151.78   32.10
  -1   1  -6 1111.79   32.70
   1  -1   6 1132.69   33.00
   1  -1   6 1071.19   33.00
   1  -1   6 1104.69   33.10
   1  -1   6 1076.19   33.50
  -2   1  -6   72.19    5.70
  -2   1  -6   76.09    5.20
  -2   1  -6   73.59    3.40
  -2   1  -6   62.89    5.20
  -2   1  -6   72.19    4.70
  -2   1  -6   70.89    4.80
  -2   1  -6   67.49    6.60
   2  -1   6   70.79    6.50
   2  -1   6   60.49    5.30
   2  -1   6   68.79    4.40
   2  -1   6   71.29    4.90
  -3   1  -6   83.79    6.80
  -3   1  -6   89.99    8.80
  -3   1  -6   75.19    3.70
  -3   1  -6   75.19    7.50
  -3   1  -6   79.79    6.70
  -3   1  -6   81.49    5.80
  -3   1  -6   69.39    6.10
   3  -1   6   75.99    8.20
   3  -1   6   80.29    5.40
   3  -1   6   84.19    6.10
   3  -1   6   73.79    6.80
  -4   1  -6  137.29   12.30
  -4   1  -6  150.78   10.40
  -4   1  -6  142.89    8.80
  -4   1  -6  166.58   10.30
  -4   1  -6  162.08    6.40
   4  -1   6  157.58   11.80
   4  -1   6  168.28    8.40
   4  -1   6  155.48   13.40
   4  -1   6  165.88   11.20
  -5   1  -6  171.98   15.60
  -5   1  -6  187.78    7.70
  -5   1  -6  198.28   13.80
  -5   1  -6  167.18   11.40
  -5   1  -6  202.98   13.10
  -5   1  -6  207.28   16.70
  -5   1  -6  175.18   13.50
   5  -1   6  175.58   11.70
   5  -1   6  214.08   16.20
   5  -1   6  180.28   17.20
   5  -1   6  187.38   10.60
  -6   1  -6   59.89   11.90
  -6   1  -6   33.70   10.00
  -6   1  -6   33.70    7.90
  -6   1  -6   50.89   11.00
  -6   1  -6   50.59   12.70
  -6   1  -6   55.09    5.00
   6  -1   6   50.29   13.00
   6  -1   6   44.90    7.40
   6  -1   6   46.60   14.30
   6  -1   6   40.00    8.90
   6   0  -6   65.39   14.50
   6   0  -6   89.29   15.00
   6   0  -6   71.59   10.30
   6   0  -6   68.89   11.70
  -6   0   6   65.29   10.20
  -6   0   6   60.29   12.90
  -6   0   6   58.39   10.70
  -6   0   6   59.49    7.60
  -6   0   6   60.79    5.70
  -6   0   6   69.69   15.50
   5   0  -6   26.50    7.70
   5   0  -6   30.80    7.50
   5   0  -6   37.50    7.10
   5   0  -6   46.50   10.60
   5   0  -6   34.70    9.60
  -5   0   6   34.60    8.80
  -5   0   6   41.70    5.70
  -5   0   6   42.70    7.40
  -5   0   6   24.00    7.10
  -5   0   6   32.70   10.00
   4   0  -6  203.68   11.30
   4   0  -6  188.78   11.20
   4   0  -6  190.28   11.70
   4   0  -6  196.48   13.70
   4   0  -6  199.98   13.30
  -4   0   6  179.28   11.00
  -4   0   6  206.18   13.10
  -4   0   6  216.08   14.70
  -4   0   6  186.98    9.20
  -4   0   6  186.68   10.50
   3   0  -6   34.10    4.40
   3   0  -6   39.90    6.30
   3   0  -6   32.10    5.30
   3   0  -6   34.10    5.60
   3   0  -6   40.60    5.80
  -3   0   6   32.80    4.20
  -3   0   6   27.30    4.00
  -3   0   6   28.70    5.70
  -3   0   6   32.70    6.00
   2   0  -6    0.40    1.40
   2   0  -6    3.40    2.30
   2   0  -6    5.10    2.70
   2   0  -6   -0.20    2.70
   2   0  -6    2.20    2.60
   2   0  -6    4.10    2.30
  -2   0   6    0.60    1.80
  -2   0   6    1.90    3.50
  -2   0   6    1.30    3.60
  -2   0   6    5.30    2.10
   1   0  -6   72.49    4.90
   1   0  -6   66.79    4.20
   1   0  -6   72.29    3.70
   1   0  -6   68.09    4.30
   1   0  -6   65.39    4.10
  -1   0   6   80.99    5.20
  -1   0   6   73.19    5.30
  -1   0   6   73.79    3.70
  -1   0   6   73.09    4.20
   0   0  -6  334.17   11.40
   0   0  -6  333.47   11.10
   0   0  -6  334.77   11.00
   0   0  -6  314.97   10.60
   0   0  -6  315.37   11.20
   0   0   6  350.46   11.50
   0   0   6  338.97   11.50
   0   0   6  345.17   11.50
   0   0   6  334.37   10.80
   0   0   6  348.47   11.20
  -1   0  -6  387.96   13.10
  -1   0  -6  396.26   13.40
  -1   0  -6  401.86   13.00
  -1   0  -6  375.86   13.50
  -1   0  -6  388.76   13.30
   1   0   6  404.76   13.20
   1   0   6  404.56   13.00
   1   0   6  392.06   13.80
   1   0   6  406.86   13.40
  -2   0  -6   -0.20    2.20
  -2   0  -6    1.20    2.10
  -2   0  -6    1.50    0.90
  -2   0  -6    1.20    2.40
  -2   0  -6    0.70    1.80
  -2   0  -6    1.00    2.70
  -2   0  -6    2.60    3.10
   2   0   6    0.80    2.20
   2   0   6    3.10    2.90
   2   0   6    1.70    1.80
   2   0   6    1.90    2.10
  -3   0  -6   48.00    5.30
  -3   0  -6   41.00    3.20
  -3   0  -6   48.60    7.00
  -3   0  -6   53.09    6.00
  -3   0  -6   55.39    6.90
  -3   0  -6   59.99    6.40
  -3   0  -6   54.39    5.50
   3   0   6   38.90    5.60
   3   0   6   42.20    5.50
   3   0   6   44.50    5.40
   3   0   6   54.79    4.80
  -4   0  -6  584.04   20.60
  -4   0  -6  573.54   22.40
  -4   0  -6  571.34   21.30
  -4   0  -6  547.85   21.10
  -4   0  -6  579.24   21.70
  -4   0  -6  601.54   23.70
  -4   0  -6  570.54   17.50
   4   0   6  537.15   23.40
   4   0   6  558.34   20.50
   4   0   6  543.25   21.90
  -5   0  -6   -6.80    7.10
  -5   0  -6   -2.60    7.10
  -5   0  -6   -4.20    5.50
  -5   0  -6    4.90    2.30
  -5   0  -6    4.80    5.80
  -5   0  -6    6.40    5.90
  -5   0  -6   -9.30    8.00
   5   0   6   -0.10    4.80
   5   0   6   11.90    9.30
   5   0   6   -1.20    8.10
   5   0   6    5.70    4.40
  -6   0  -6    6.70   10.50
  -6   0  -6   -9.00    8.20
  -6   0  -6   -5.70    7.50
  -6   0  -6    8.50    3.00
  -6   0  -6    3.80   11.20
  -6   0  -6    7.90    8.60
  -6   0  -6   18.30   12.00
   6   0   6   12.20   13.80
   6   0   6    6.90    6.30
   6   0   6    2.20   11.50
   6  -1  -6   60.19   10.70
   6  -1  -6   61.09   11.60
   6  -1  -6   75.19    9.80
   6  -1  -6   95.09   15.60
  -6   1   6   64.09   10.50
  -6   1   6   58.49   14.70
  -6   1   6   70.49    5.90
  -6   1   6   55.59    7.10
  -6   1   6   70.19   12.20
   5  -1  -6   25.80    6.70
   5  -1  -6   19.40    7.00
   5  -1  -6   28.70    9.60
   5  -1  -6   13.60    9.00
  -5   1   6   19.50    6.30
  -5   1   6   19.70    3.10
  -5   1   6   17.30    9.40
  -5   1   6   13.60    3.80
  -5   1   6   12.60    8.10
   4  -1  -6   33.50    7.60
   4  -1  -6   50.39    8.20
   4  -1  -6   35.90    5.50
   4  -1  -6   36.90    6.90
  -4   1   6   32.90    5.00
  -4   1   6   23.70    7.50
  -4   1   6   30.60    3.50
  -4   1   6   35.50    5.10
   3  -1  -6    4.40    2.90
   3  -1  -6    5.30    3.60
   3  -1  -6    4.20    3.10
   3  -1  -6    0.10    3.70
   3  -1  -6    2.90    3.60
   3  -1  -6   -0.90    1.80
  -3   1   6   -1.30    2.10
  -3   1   6    4.60    4.90
  -3   1   6    0.60    2.80
   2  -1  -6 3792.22  109.69
   2  -1  -6 3881.21  111.19
   2  -1  -6 4011.80  110.49
   2  -1  -6 3972.40  109.89
   2  -1  -6 3679.43  109.59
   2  -1  -6 3739.43  109.59
  -2   1   6 3378.06  110.69
  -2   1   6 3815.52  109.09
  -2   1   6 3928.11  109.69
  -2   1   6 4091.69  110.89
   1  -1  -6  374.16   12.80
   1  -1  -6  378.96   12.60
   1  -1  -6  387.36   12.50
   1  -1  -6  375.56   12.50
   1  -1  -6  365.46   12.30
  -1   1   6  386.86   12.60
  -1   1   6  387.86   13.20
  -1   1   6  389.36   12.20
  -1   1   6  408.86   13.20
  -1   1   6  368.26   12.50
   0  -1  -6    1.30    1.40
   0  -1  -6    2.20    1.20
   0  -1  -6    3.90    1.60
   0  -1  -6    1.90    1.40
   0  -1  -6    2.20    1.40
   0   1   6    3.10    1.20
   0   1   6    5.50    1.90
   0   1   6    3.40    1.50
   0   1   6    2.50    1.40
   0   1   6   -1.90    1.50
  -1  -1  -6   13.60    2.60
  -1  -1  -6   15.20    2.50
  -1  -1  -6   13.20    2.10
  -1  -1  -6   12.50    2.10
   1   1   6   15.20    2.50
   1   1   6   13.50    2.30
   1   1   6   19.60    2.70
   1   1   6   17.00    3.00
   1   1   6   15.00    2.10
  -2  -1  -6  341.67   13.90
  -2  -1  -6  365.86   13.20
  -2  -1  -6  356.06   14.90
  -2  -1  -6  358.16   10.50
  -2  -1  -6  366.46   13.00
  -2  -1  -6  355.36   13.50
   2   1   6  360.36   13.50
   2   1   6  362.46   13.10
   2   1   6  379.36   12.70
   2   1   6  356.06   14.20
  -3  -1  -6  196.18    9.50
  -3  -1  -6  176.98   11.50
  -3  -1  -6  196.78   10.40
  -3  -1  -6  182.28    6.10
   3   1   6  187.48    9.40
   3   1   6  165.48    9.80
   3   1   6  185.68    8.60
   3   1   6  174.38   11.30
  -4  -1  -6  619.04   22.40
  -4  -1  -6  617.64   22.80
  -4  -1  -6  648.24   25.60
  -4  -1  -6  612.74   23.90
  -4  -1  -6  629.64   23.60
  -4  -1  -6  620.54   18.70
   4   1   6  576.74   24.80
   4   1   6  588.04   23.50
   4   1   6  589.24   22.20
   4   1   6  644.24   21.70
  -5  -1  -6  282.97   10.30
  -5  -1  -6  277.67   19.20
  -5  -1  -6  325.37   16.00
  -5  -1  -6  293.07   16.50
  -5  -1  -6  314.77   17.90
  -5  -1  -6  267.27   17.90
   5   1   6  303.67   20.30
   5   1   6  276.17   14.70
   5   1   6  278.97   13.80
   5   1   6  304.37   18.60
  -6  -1  -6   -9.50   11.10
  -6  -1  -6    3.20    8.20
  -6  -1  -6    9.20   11.20
  -6  -1  -6   12.00    9.20
  -6  -1  -6    5.40    2.90
  -6  -1  -6   17.00    8.90
   6   1   6   15.80    6.80
   6   1   6   12.70   14.40
   6   1   6  -18.80   11.10
   6  -2  -6   -2.00    7.70
   6  -2  -6   -6.70   13.40
   6  -2  -6  -13.20    8.90
  -6   2   6   -0.30    2.80
  -6   2   6    7.20   10.10
  -6   2   6   -7.40    6.80
  -6   2   6   12.70    5.40
   5  -2  -6   49.70    7.30
   5  -2  -6   66.19   12.10
  -5   2   6   71.59    9.40
  -5   2   6   62.29    6.60
  -5   2   6   66.59    5.00
   4  -2  -6  246.98   11.50
   4  -2  -6  216.48   13.10
  -4   2   6  241.08    9.20
  -4   2   6  233.38   12.60
  -4   2   6  233.48    9.80
   3  -2  -6  202.58    9.10
   3  -2  -6  205.88   11.60
   3  -2  -6  207.28    8.70
   3  -2  -6  206.08    8.70
  -3   2   6  182.18    9.70
  -3   2   6  206.88    7.50
  -3   2   6  199.78    7.60
   2  -2  -6 7623.34  217.88
   2  -2  -6 7636.64  215.78
   2  -2  -6 7771.72  216.08
   2  -2  -6 7631.64  216.58
   2  -2  -6 7365.46  216.58
  -2   2   6 7849.21  216.58
  -2   2   6 7632.54  215.58
  -2   2   6 7493.65  215.38
   1  -2  -6   10.00    1.80
   1  -2  -6    5.90    1.70
   1  -2  -6    7.70    1.60
   1  -2  -6    6.80    2.00
   1  -2  -6    8.70    2.00
  -1   2   6    6.80    2.10
  -1   2   6    7.00    1.80
  -1   2   6    7.70    1.60
  -1   2   6    8.00    1.30
  -1   2   6   11.80    2.30
  -1   2   6    9.10    2.00
   0  -2  -6   36.10    3.50
   0  -2  -6   30.00    2.70
   0  -2  -6   33.80    3.00
   0  -2  -6   33.00    3.30
   0  -2  -6   36.40    3.50
   0   2   6   35.40    3.10
   0   2   6   34.90    1.70
   0   2   6   34.70    3.00
   0   2   6   35.10    3.10
   0   2   6   33.90    3.80
   0   2   6   33.60    3.30
  -1  -2  -6  901.81   28.50
  -1  -2  -6  892.81   28.00
  -1  -2  -6  919.51   27.70
  -1  -2  -6  896.01   27.80
   1   2   6  901.61   28.70
   1   2   6  905.91   28.20
   1   2   6  929.01   27.80
   1   2   6  884.11   27.90
   1   2   6  927.71   27.40
  -2  -2  -6   19.60    4.30
  -2  -2  -6   18.60    3.50
  -2  -2  -6   21.90    3.90
  -2  -2  -6   17.50    3.00
   2   2   6   18.20    3.50
   2   2   6   19.00    4.20
   2   2   6   19.40    3.80
   2   2   6   25.00    3.20
  -3  -2  -6   87.99    8.60
  -3  -2  -6   80.19    8.40
  -3  -2  -6   85.09    8.80
  -3  -2  -6   87.89    3.60
  -3  -2  -6   90.39    7.70
  -3  -2  -6   84.19    7.10
   3   2   6   61.99    6.80
   3   2   6   88.39    8.00
   3   2   6   88.29    6.50
   3   2   6   72.69    9.50
  -4  -2  -6  132.79   10.50
  -4  -2  -6  117.69   11.80
  -4  -2  -6  125.19   12.20
  -4  -2  -6  129.99   12.00
  -4  -2  -6  120.69    5.30
  -4  -2  -6  121.79   10.30
   4   2   6  129.69    8.80
   4   2   6  116.39   11.60
   4   2   6  121.79   10.00
   4   2   6  118.89   12.80
  -5  -2  -6  364.16   12.40
  -5  -2  -6  374.46   18.60
  -5  -2  -6  360.26   20.00
  -5  -2  -6  350.46   20.40
  -5  -2  -6  377.96   20.10
   5   2   6  360.96   18.00
   5   2   6  367.76   20.70
   5   2   6  360.46   22.20
   5   2   6  341.47   19.60
  -6  -2  -6   39.70   12.30
  -6  -2  -6   57.79   13.00
  -6  -2  -6   43.80   10.30
  -6  -2  -6   62.49    5.40
  -6  -2  -6   67.79   11.60
  -6  -2  -6   63.89   13.30
   6   2   6   82.09   13.50
   6   2   6   56.89    9.50
   6   2   6   54.99    8.70
   6   2   6   81.59   14.90
   5  -3  -6   25.80    5.70
   5  -3  -6   30.90   11.60
  -5   3   6   39.60    4.30
   4  -3  -6    5.30    3.30
   4  -3  -6   10.80    7.90
  -4   3   6   11.70    2.60
   3  -3  -6  111.89    9.60
   3  -3  -6   92.29    6.40
   3  -3  -6  105.99    5.80
  -3   3   6  103.49    5.00
   2  -3  -6   76.79    5.10
   2  -3  -6   71.09    4.40
   2  -3  -6   74.69    7.00
  -2   3   6   77.49    3.80
   1  -3  -6 1276.07   37.00
   1  -3  -6 1250.67   38.30
   1  -3  -6 1312.07   36.90
  -1   3   6 1243.08   38.10
  -1   3   6 1263.17   36.70
   0  -3  -6  356.96   11.50
   0  -3  -6  327.67   12.40
   0  -3  -6  346.67   12.70
   0  -3  -6  342.17   11.80
   0  -3  -6  349.96   11.80
   0   3   6  346.97   12.70
   0   3   6  336.87   11.40
   0   3   6  352.66   12.20
   0   3   6  357.46   10.70
   0   3   6  362.56   12.20
   0   3   6  359.86   11.70
  -1  -3  -6  222.88    9.00
  -1  -3  -6  219.68    9.90
  -1  -3  -6  220.28    8.90
  -1  -3  -6  219.78    9.40
   1   3   6  212.08    8.90
   1   3   6  221.28    9.50
   1   3   6  214.58   10.10
   1   3   6  224.28    8.40
   1   3   6  217.48    9.00
  -2  -3  -6   24.70    4.10
  -2  -3  -6   15.60    4.20
  -2  -3  -6   23.20    3.70
   2   3   6   28.10    4.80
   2   3   6   18.80    3.10
   2   3   6   19.40    4.10
   2   3   6   23.70    4.10
  -3  -3  -6   22.00    5.50
  -3  -3  -6   13.80    5.30
  -3  -3  -6   16.30    4.30
  -3  -3  -6   23.60    5.10
  -3  -3  -6   15.60    5.20
   3   3   6   27.50    4.90
   3   3   6   23.90    5.30
   3   3   6   18.10    3.90
   3   3   6   22.90    5.50
  -4  -3  -6  144.79   11.90
  -4  -3  -6  123.29   12.80
  -4  -3  -6  142.69   11.90
  -4  -3  -6  144.99   13.40
  -4  -3  -6  149.29   14.00
   4   3   6  147.79   13.90
   4   3   6  158.28   11.80
   4   3   6  164.18   13.10
   4   3   6  154.08   10.20
  -5  -3  -6    7.60    7.70
  -5  -3  -6   -5.60    6.50
  -5  -3  -6    5.00    9.00
  -5  -3  -6   19.10    9.20
  -5  -3  -6    1.70    8.10
   5   3   6   -1.50    5.50
   5   3   6    5.10    7.00
   5   3   6    3.40   10.40
  -6  -3  -6   17.20    9.70
  -6  -3  -6    9.30   12.40
  -6  -3  -6   -4.40   12.20
  -6  -3  -6   16.20   11.30
  -6  -3  -6   10.80   12.80
  -6  -3  -6    8.30    3.50
   6   3   6   29.60    9.50
   6   3   6    5.80    7.70
   6   3   6   25.90   14.10
   6   3   6   -9.20   12.20
   5  -4  -6    4.40    5.10
   5  -4  -6   -7.00   11.30
  -5   4   6    3.90    2.60
   4  -4  -6    3.60    3.90
   4  -4  -6    5.90    7.80
   4  -4  -6   -7.00    4.10
  -4   4   6    1.30    2.00
   3  -4  -6   19.10    3.90
   3  -4  -6   25.10    5.80
  -3   4   6   24.20    2.80
   2  -4  -6   58.39    7.40
   2  -4  -6   52.79    5.10
   2  -4  -6   52.69    4.80
  -2   4   6   61.59    3.50
   1  -4  -6    4.20    2.30
  -1   4   6    5.00    2.30
  -1   4   6    8.30    1.70
   0  -4  -6  202.18    7.90
   0  -4  -6  208.98    9.20
   0   4   6  214.98    8.80
   0   4   6  203.88    7.40
   0   4   6  215.98    8.60
   0   4   6  211.18    7.30
  -1  -4  -6   56.09    6.70
  -1  -4  -6   59.19    5.30
  -1  -4  -6   63.39    6.10
  -1  -4  -6   68.49    5.70
   1   4   6   47.50    5.70
   1   4   6   45.80    5.10
   1   4   6   60.99    5.90
   1   4   6   60.09    4.70
   1   4   6   57.19    4.40
  -2  -4  -6   99.19    7.80
  -2  -4  -6   88.69    8.90
  -2  -4  -6  105.49    8.60
  -2  -4  -6   95.29    7.50
   2   4   6   96.69    8.50
   2   4   6   96.39    7.80
   2   4   6  105.49    6.60
   2   4   6   85.09    8.70
   2   4   6   92.49    6.70
  -3  -4  -6   58.69    7.90
  -3  -4  -6   49.70    6.60
  -3  -4  -6   42.90   10.70
  -3  -4  -6   57.79    8.30
  -3  -4  -6   58.69    9.80
   3   4   6   60.49    7.30
   3   4   6   70.99    9.60
   3   4   6   71.49    8.60
   3   4   6   70.39   10.40
  -4  -4  -6   -4.10    7.10
  -4  -4  -6   -0.60    9.00
  -4  -4  -6   -9.90    6.80
  -4  -4  -6   -9.10    6.10
  -4  -4  -6    2.00    6.50
   4   4   6   -2.40    6.80
   4   4   6    7.40    4.90
   4   4   6   13.20    9.00
   4   4   6    8.40    5.90
  -5  -4  -6  194.08   19.70
  -5  -4  -6  238.68   18.30
  -5  -4  -6  216.58   16.70
  -5  -4  -6  227.78   18.10
  -5  -4  -6  200.68   20.00
   5   4   6  227.48   15.10
   5   4   6  270.47   19.50
   5   4   6  259.87   17.20
   5   4   6  227.18   20.90
  -6  -4  -6   48.90   12.00
  -6  -4  -6   34.50   14.80
  -6  -4  -6   42.90   14.20
  -6  -4  -6   47.50   14.40
  -6  -4  -6   25.40   12.70
   6   4   6   65.29   17.30
   6   4   6   49.60    9.70
   6   4   6   49.60   11.40
   6   4   6   32.80   14.10
   4  -5  -6   75.09    9.20
   4  -5  -6   60.49   11.40
   4  -5  -6   58.99    8.70
  -4   5   6   51.09    4.70
   3  -5  -6   11.90    4.30
   3  -5  -6   14.10    6.70
   3  -5  -6   20.40    4.60
  -3   5   6   11.30    2.50
   2  -5  -6   56.19    8.30
   2  -5  -6   47.80    6.20
   2  -5  -6   51.09    5.70
  -2   5   6   47.50    3.70
   1  -5  -6  107.29    7.00
  -1   5   6  112.69    5.10
  -1   5   6  120.39    7.00
   0  -5  -6  190.18    7.90
   0  -5  -6  194.78    9.40
   0   5   6  199.08    8.70
   0   5   6  193.88    7.40
  -1  -5  -6   10.20    4.00
  -1  -5  -6    2.70    3.30
  -1  -5  -6    4.80    3.20
  -1  -5  -6    0.60    4.10
   1   5   6    2.10    3.40
   1   5   6    4.00    4.70
   1   5   6   11.00    4.30
   1   5   6    6.00    2.70
   1   5   6    3.50    2.50
  -2  -5  -6    4.30    4.60
  -2  -5  -6   11.00    5.20
  -2  -5  -6    9.00    4.50
  -2  -5  -6   10.70    5.30
   2   5   6   19.30    5.70
   2   5   6   11.90    4.60
   2   5   6   14.30    3.60
   2   5   6   18.80    4.40
   2   5   6    9.10    5.10
  -3  -5  -6  210.58   13.10
  -3  -5  -6  219.98   15.30
  -3  -5  -6  226.78   13.90
  -3  -5  -6  217.58   15.10
   3   5   6  240.38   15.00
   3   5   6  240.38   12.20
   3   5   6  251.07   14.00
  -4  -5  -6   56.59   10.20
  -4  -5  -6   61.59   10.30
  -4  -5  -6   55.09   10.60
  -4  -5  -6   54.09    8.80
   4   5   6   60.29    8.00
   4   5   6   56.79   10.40
   4   5   6   75.69   10.90
   4   5   6   53.09    9.20
  -5  -5  -6    2.20    9.40
  -5  -5  -6    3.20   10.90
  -5  -5  -6    4.40    9.70
  -5  -5  -6    1.10    9.10
  -5  -5  -6   -7.10   10.50
   5   5   6  -19.40   10.60
   5   5   6   13.30   12.00
   5   5   6    3.20    8.90
   5   5   6    4.00    7.50
   4  -6  -6  194.48   14.10
   4  -6  -6  152.48   12.40
   4  -6  -6  158.28   20.70
  -4   6   6  147.99    8.20
   3  -6  -6   17.20    6.20
   3  -6  -6    6.90    7.90
   3  -6  -6   16.40    5.20
  -3   6   6   15.30    3.10
   2  -6  -6    5.30    3.70
   2  -6  -6   11.90    5.70
   2  -6  -6    4.80    4.40
  -2   6   6    1.60    1.90
   1  -6  -6  111.49    8.10
  -1   6   6  103.19    5.60
   0   6   6  175.88    8.60
   0   6   6  169.58    7.50
  -1  -6  -6   33.20    4.80
  -1  -6  -6   25.40    5.10
   1   6   6   25.50    5.90
   1   6   6   23.20    3.30
   1   6   6   28.10    4.20
  -2  -6  -6   64.89    9.00
  -2  -6  -6   67.39    9.00
  -2  -6  -6   69.89    9.70
  -2  -6  -6   46.30   12.80
  -2  -6  -6   70.99    7.80
   2   6   6   69.59    9.50
   2   6   6   50.89    7.60
   2   6   6   69.29    7.50
   2   6   6   59.89    7.10
   2   6   6   74.39   14.20
  -3  -6  -6   47.90   11.10
  -3  -6  -6   61.59    8.40
  -3  -6  -6   80.49   13.20
  -3  -6  -6   47.30    8.20
  -3  -6  -6   66.19    9.80
   3   6   6   60.99    7.30
   3   6   6   61.29    9.20
   3   6   6   64.69    7.50
   3   6   6   72.29   11.30
   3   6   6   68.69   10.20
  -4  -6  -6  101.79   13.50
  -4  -6  -6   94.59   13.50
  -4  -6  -6  102.09   15.00
  -4  -6  -6   95.39   13.20
  -4  -6  -6  104.59   16.90
   4   6   6  124.29   14.90
   4   6   6   89.69   12.60
   4   6   6   80.99   13.20
   4   6   6  101.69   12.00
  -5  -6  -6   18.60   12.90
  -5  -6  -6    4.00   11.40
  -5  -6  -6   22.50   11.60
  -5  -6  -6   13.90   12.80
  -5  -6  -6   19.20   10.30
   5   6   6    7.70   14.10
   5   6   6   28.00   11.20
   5   6   6   32.80   12.50
   5   6   6    4.80    9.30
   3  -7  -6   24.30   10.00
   3  -7  -6   22.90    7.00
   3  -7  -6   28.40    7.50
  -3   7   6   27.10    4.10
   2  -7  -6   61.49   12.80
   2  -7  -6   56.99    7.60
   2  -7  -6   60.89    7.40
  -2   7   6   57.29    5.10
   1  -7  -6   13.20    5.20
   1  -7  -6   -5.60    4.50
  -1   7   6    4.80    3.00
   0   7   6    7.80    3.30
   0   7   6    7.90    3.90
  -1  -7  -6   96.09   10.10
  -1  -7  -6   92.69    9.20
   1   7   6   94.99    7.60
   1   7   6   78.79    6.60
   1   7   6   71.69   10.30
  -2  -7  -6  334.07   16.40
  -2  -7  -6  321.87   16.50
  -2  -7  -6  326.77   18.30
  -2  -7  -6  334.17   19.10
  -2  -7  -6  313.27   19.70
   2   7   6  351.26   20.30
   2   7   6  329.67   16.50
   2   7   6  315.97   14.10
   2   7   6  301.87   17.10
  -3  -7  -6   -6.30    9.10
  -3  -7  -6    7.60    8.00
  -3  -7  -6   -5.70    7.30
  -3  -7  -6   -9.60    9.00
  -3  -7  -6   -0.90    8.80
   3   7   6    2.10    9.90
   3   7   6   15.70    7.90
   3   7   6   -9.50    8.20
   3   7   6   13.50    6.40
   3   7   6    3.00    5.90
  -4  -7  -6  -10.90   11.40
  -4  -7  -6   -9.70    9.60
  -4  -7  -6    5.90    9.50
  -4  -7  -6   15.70   12.10
  -4  -7  -6    4.30   11.40
   4   7   6   17.70   10.10
   4   7   6   -2.70    7.70
   4   7   6    4.10   12.30
   4   7   6   -8.80    7.10
   4   7   6   -7.20   10.10
   1  -8  -6  101.09   14.30
   1  -8  -6   93.59   12.30
   1  -8  -6   92.19   11.30
  -1   8   6   77.59    6.80
   0   8   6    2.80    4.00
   0   8   6    4.50    4.80
  -1  -8  -6  322.57   16.00
  -1  -8  -6  351.76   17.10
   1   8   6  321.47   14.40
  -2  -8  -6   -1.50    9.50
  -2  -8  -6   12.50    8.50
  -2  -8  -6   -1.00    7.60
  -2  -8  -6    8.00   10.00
   2   8   6   -3.10   10.60
   2   8   6   -6.50    4.60
   2   8   6   -0.70    5.10
   2   8   6   -3.80    8.10
  -3  -8  -6  303.17   23.00
  -3  -8  -6  248.58   18.80
  -3  -8  -6  266.07   22.20
  -3  -8  -6  238.38   19.20
  -3  -8  -6  194.98   23.20
   3   8   6  276.97   15.20
   3   8   6  296.37   19.50
   3   8   6  286.97   16.70
   3   8   6  201.88   18.40
   3   8   6  243.68   22.80
   3   7  -7   62.29   10.90
   3   7  -7   84.19   13.90
   3   7  -7   40.00   15.40
   3   7  -7   69.19   10.60
  -3  -7   7   64.19   15.80
  -3  -7   7   66.39    9.40
  -3  -7   7   53.79   13.90
  -3  -7   7   75.89   10.70
  -3  -7   7   68.69    8.70
   2   7  -7   95.09   15.50
   2   7  -7   76.89    9.30
   2   7  -7   82.59   12.90
   2   7  -7   88.79   10.70
  -2  -7   7  147.69   20.30
  -2  -7   7   83.39   10.30
  -2  -7   7   76.99    9.10
  -2  -7   7   75.39    9.80
  -2  -7   7   94.59   14.60
   1   7  -7    4.80    5.20
   1   7  -7    4.60   11.00
   1   7  -7   -1.00    9.40
   1   7  -7   13.80    6.60
  -1  -7   7   21.20    7.10
  -1  -7   7   19.50    4.80
  -1  -7   7   18.50   11.50
  -1  -7   7   20.70   11.10
  -1  -7   7   10.80    6.20
   0   7  -7   23.30   11.40
   0   7  -7   30.80    4.80
   0   7  -7   17.30    8.90
   0   7  -7   28.20    6.30
   0  -7   7   32.50    7.30
   0  -7   7   23.50    6.10
   0  -7   7    2.30    9.40
   0  -7   7   39.60   12.10
   0  -7   7   25.00    5.30
  -1   7  -7   20.70    4.60
  -1   7  -7    7.50    7.90
  -1   7  -7    4.70   10.50
  -1   7  -7   15.90    6.20
   1  -7   7    0.20    7.70
   1  -7   7    7.50    5.00
   1  -7   7   54.29   12.20
   1  -7   7   17.50    9.40
   4   6  -7   26.10   12.00
   4   6  -7   19.80   11.00
   4   6  -7    7.20   10.30
   4   6  -7    8.60   12.00
   4   6  -7   27.40   14.40
  -4  -6   7   -0.40    9.40
  -4  -6   7   18.70    7.90
  -4  -6   7   28.90   14.60
  -4  -6   7   22.20   14.00
   3   6  -7   21.10   10.40
   3   6  -7   11.90   11.60
   3   6  -7   34.80    8.80
   3   6  -7   23.00    8.80
  -3  -6   7   29.70   11.70
  -3  -6   7   30.60    6.30
  -3  -6   7   48.60   12.30
  -3  -6   7   22.30    7.90
   2   6  -7   27.50    6.80
   2   6  -7    2.30    6.40
   2   6  -7   20.30    8.90
   2   6  -7   16.40   10.20
  -2  -6   7   14.10    6.30
  -2  -6   7    3.00   10.00
  -2  -6   7    8.10   10.00
  -2  -6   7   16.80    4.90
   1   6  -7    6.40    7.30
   1   6  -7    4.40    4.80
   1   6  -7  -10.40    8.60
   1   6  -7    3.10    5.20
  -1  -6   7    5.60    4.80
  -1  -6   7    3.60    5.10
  -1  -6   7   11.60    8.90
  -1  -6   7    6.80    8.00
  -1  -6   7    5.80    3.90
   0   6  -7    5.50    3.60
   0   6  -7   10.90    6.40
   0   6  -7   -6.70    7.30
   0   6  -7    9.40    4.50
   0  -6   7    1.00    4.60
   0  -6   7    4.90    3.60
   0  -6   7   13.80    5.50
   0  -6   7   14.10    7.70
   0  -6   7   14.20    8.70
  -1   6  -7   12.80    3.80
  -1   6  -7   13.70    7.50
  -1   6  -7   11.60    5.00
   1  -6   7    5.70    7.00
   1  -6   7    6.70    3.90
   1  -6   7   15.70    6.20
   1  -6   7    1.10    8.60
   1  -6   7   19.10    5.40
  -2   6  -7    4.00    3.60
  -2   6  -7    9.00    4.00
  -2   6  -7   -6.00    7.80
  -2   6  -7   -2.90    5.90
   2  -6   7   -2.10    5.20
   2  -6   7    2.00    7.60
   2  -6   7   -0.30    6.60
  -3   6  -7   15.10    6.40
  -3   6  -7   -0.10    5.80
  -3   6  -7   20.10    4.50
   3  -6   7   26.40    8.30
   3  -6   7    1.20    7.90
   3  -6   7   11.30    8.20
   5   5  -7   -5.50   13.70
   5   5  -7   -1.60   14.70
   5   5  -7   15.20   12.70
   5   5  -7    9.00   11.70
   5   5  -7    3.30   11.80
  -5  -5   7  -13.60    7.60
  -5  -5   7  -12.30   10.40
  -5  -5   7   -8.90   13.70
  -5  -5   7    9.50    8.80
  -5  -5   7   -1.50   15.60
   4   5  -7   63.29   11.80
   4   5  -7   71.99   10.20
   4   5  -7   69.79   11.00
   4   5  -7   65.09   13.80
   4   5  -7   78.49   11.30
  -4  -5   7   73.99   14.00
  -4  -5   7   64.19   13.40
  -4  -5   7   71.89   10.10
  -4  -5   7   76.39   10.90
  -4  -5   7   72.69   10.70
   3   5  -7    7.90    7.30
   3   5  -7  -11.90    7.30
   3   5  -7    1.50    7.50
   3   5  -7   11.50    8.30
  -3  -5   7    1.80    9.70
  -3  -5   7   25.30   15.50
  -3  -5   7    8.90    4.90
   2   5  -7   31.00    7.40
   2   5  -7   29.60    9.10
   2   5  -7   26.30    6.20
  -2  -5   7   32.60    5.10
  -2  -5   7   34.00    5.00
  -2  -5   7   28.80    8.80
  -2  -5   7   33.00    5.90
  -2  -5   7   24.20   12.50
   1   5  -7  141.09    9.30
   1   5  -7  159.78   11.60
   1   5  -7  157.08   13.00
  -1  -5   7  156.68    8.20
  -1  -5   7  176.88   14.00
  -1  -5   7  142.69    9.60
  -1  -5   7  156.08    9.40
   0   5  -7  637.24   21.50
   0   5  -7  667.23   22.40
   0   5  -7  666.43   23.50
   0   5  -7  644.94   24.50
   0  -5   7  617.84   21.10
   0  -5   7  622.44   22.00
   0  -5   7  674.23   26.30
   0  -5   7  658.53   22.70
   0  -5   7  619.94   23.90
  -1   5  -7  124.29    8.60
  -1   5  -7  141.69    9.80
  -1   5  -7  135.59   11.60
  -1   5  -7  140.59    7.70
   1  -5   7  129.29   10.60
   1  -5   7  122.49   12.20
   1  -5   7  122.99   10.40
   1  -5   7  125.09    7.60
   1  -5   7  121.59    9.20
  -2   5  -7   -8.40    6.60
  -2   5  -7   -1.70    2.90
  -2   5  -7    2.20    3.40
  -2   5  -7    1.50    5.60
   2  -5   7    3.90    4.90
   2  -5   7   -7.60    6.30
   2  -5   7    2.10    5.90
   2  -5   7    5.00    5.10
  -3   5  -7   11.90    5.00
  -3   5  -7   17.70    7.60
  -3   5  -7   26.40    5.20
  -3   5  -7   18.50    3.90
  -3   5  -7    8.90    7.50
   3  -5   7   13.50    6.80
   3  -5   7   20.10    7.70
   3  -5   7   20.60    6.40
   3  -5   7   14.20    6.40
  -4   5  -7   -5.30    5.60
  -4   5  -7  -20.60    8.80
   5   4  -7   49.99   13.40
   5   4  -7   52.59   13.80
   5   4  -7   38.70   10.50
   5   4  -7   47.90   11.60
   5   4  -7   31.60   11.40
  -5  -4   7   30.20    8.00
  -5  -4   7   45.20   10.60
  -5  -4   7   56.09    8.90
  -5  -4   7   55.49   16.00
  -5  -4   7   36.50   13.80
   4   4  -7   11.80    8.80
   4   4  -7   15.60    7.80
   4   4  -7    7.90    9.90
   4   4  -7   -4.90    8.80
   4   4  -7   11.70    8.50
  -4  -4   7   -5.80    5.00
  -4  -4   7    4.90   10.50
  -4  -4   7    5.40    6.90
  -4  -4   7   -5.00    5.20
  -4  -4   7   -1.30    9.50
   3   4  -7  107.29   13.30
   3   4  -7  118.89   12.60
   3   4  -7   83.59   10.70
   3   4  -7   90.09   14.50
   3   4  -7  102.39   12.10
  -3  -4   7  101.49   14.20
  -3  -4   7  117.99    8.50
  -3  -4   7   90.99   10.20
  -3  -4   7   86.79   15.30
   2   4  -7    1.90    5.50
   2   4  -7    4.80    5.00
   2   4  -7   -2.10    4.60
   2   4  -7    1.60    4.60
   2   4  -7   -4.90    5.60
  -2  -4   7    6.30    2.90
  -2  -4   7    4.70    3.50
  -2  -4   7    5.60    6.10
  -2  -4   7    2.70    3.70
  -2  -4   7   -4.90    5.80
   1   4  -7   15.80    5.30
   1   4  -7   12.00    3.90
   1   4  -7   13.20    4.20
   1   4  -7   23.90    5.20
  -1  -4   7   22.40    5.90
  -1  -4   7   22.40    3.40
  -1  -4   7   13.70    3.80
  -1  -4   7   15.40    6.60
  -1  -4   7   18.50    3.50
   0   4  -7 1889.01   56.39
   0   4  -7 1813.22   55.39
   0   4  -7 1817.72   54.89
   0   4  -7 1837.12   54.69
   0  -4   7 1843.22   56.49
   0  -4   7 1863.11   56.09
   0  -4   7 1808.12   54.19
   0  -4   7 1779.42   54.79
   0  -4   7 1895.41   55.29
  -1   4  -7    0.30    3.30
  -1   4  -7    6.40    4.00
  -1   4  -7    2.50    2.50
  -1   4  -7    5.40    4.50
   1  -4   7    2.60    3.40
   1  -4   7   -1.70    2.70
   1  -4   7   -1.40    4.20
   1  -4   7    4.80    3.70
   1  -4   7   -4.60    4.70
  -2   4  -7   11.20    3.10
  -2   4  -7   16.10    4.10
  -2   4  -7   12.20    3.10
  -2   4  -7    6.70    4.70
   2  -4   7   20.20    6.10
   2  -4   7   13.10    4.80
   2  -4   7    6.10    4.30
   2  -4   7   13.60    3.60
  -3   4  -7   75.39    7.90
  -3   4  -7   93.09    9.40
  -3   4  -7   86.49   11.40
  -3   4  -7   98.29   10.60
  -3   4  -7   95.69    6.00
   3  -4   7  108.09    8.40
   3  -4   7  108.99   10.00
   3  -4   7   85.59   11.80
   3  -4   7  103.59   12.80
  -4   4  -7    3.50    8.30
  -4   4  -7   10.90    5.50
  -4   4  -7    0.50    3.40
  -4   4  -7   12.40    7.40
  -4   4  -7   12.90    4.00
   4  -4   7    4.80    8.50
   4  -4   7    0.60    8.80
   4  -4   7    5.20    5.20
   5   3  -7    2.50    8.80
   5   3  -7   -0.70    9.80
   5   3  -7   -0.40    9.80
   5   3  -7   13.60   13.30
   5   3  -7    4.20    8.80
  -5  -3   7   -9.90    7.90
  -5  -3   7  -14.80   11.20
  -5  -3   7    9.50   12.60
  -5  -3   7   -0.40    6.80
  -5  -3   7    0.20    6.10
   4   3  -7    2.20    6.60
   4   3  -7    7.20    6.60
   4   3  -7    8.90    7.30
   4   3  -7   11.60    8.80
   4   3  -7   -3.70    7.80
  -4  -3   7    6.70    9.20
  -4  -3   7   -0.20    4.30
  -4  -3   7   13.70    8.50
  -4  -3   7   -3.60    4.40
  -4  -3   7   -2.50    5.70
   3   3  -7   45.90    6.80
   3   3  -7   55.49    8.60
   3   3  -7   56.49    8.00
   3   3  -7   52.89    7.20
   3   3  -7   57.79    9.60
  -3  -3   7   59.39    6.90
  -3  -3   7   49.20    6.40
  -3  -3   7   59.49    8.70
  -3  -3   7   55.09    8.90
   2   3  -7    1.40    4.10
   2   3  -7    9.50    4.20
   2   3  -7    3.30    4.60
   2   3  -7    8.00    4.20
   2   3  -7    1.60    3.90
  -2  -3   7    1.70    5.60
  -2  -3   7    3.70    3.20
  -2  -3   7    7.00    5.80
  -2  -3   7    7.70    3.50
  -2  -3   7    5.50    2.30
   1   3  -7  344.17   13.40
   1   3  -7  363.26   14.50
   1   3  -7  339.27   13.50
   1   3  -7  365.36   15.30
   1   3  -7  359.86   13.40
  -1  -3   7  356.46   15.00
  -1  -3   7  366.66   13.70
  -1  -3   7  357.56   12.80
  -1  -3   7  366.76   15.70
  -1  -3   7  357.96   12.60
   0   3  -7  373.76   13.60
   0   3  -7  389.76   14.40
   0   3  -7  394.86   15.00
   0   3  -7  399.06   14.10
   0  -3   7  380.26   15.20
   0  -3   7  391.56   14.80
   0  -3   7  378.06   13.90
   0  -3   7  384.76   14.00
   0  -3   7  375.96   13.30
  -1   3  -7  130.79    7.20
  -1   3  -7  120.39    7.20
  -1   3  -7  130.59    6.50
  -1   3  -7  130.79    7.90
  -1   3  -7  127.69    7.90
   1  -3   7  130.39    7.70
   1  -3   7  135.29    7.70
   1  -3   7  129.99    7.60
   1  -3   7  129.29    6.70
   1  -3   7  142.39    8.10
  -2   3  -7 1072.59   33.80
  -2   3  -7 1052.99   33.30
  -2   3  -7 1058.79   31.70
  -2   3  -7 1062.59   32.80
  -2   3  -7 1023.30   32.00
  -2   3  -7 1046.80   32.50
   2  -3   7 1015.80   33.60
   2  -3   7 1012.50   32.80
   2  -3   7 1035.90   32.50
   2  -3   7 1059.99   32.90
   2  -3   7 1072.59   34.00
  -3   3  -7  504.45   19.90
  -3   3  -7  513.05   17.70
  -3   3  -7  537.55   18.90
  -3   3  -7  550.44   20.30
  -3   3  -7  527.15   17.10
  -3   3  -7  508.35   18.70
   3  -3   7  501.95   19.40
   3  -3   7  520.45   18.20
   3  -3   7  556.24   23.50
   3  -3   7  523.85   21.10
  -4   3  -7    4.80    5.20
  -4   3  -7    7.60    4.90
  -4   3  -7    1.60    2.50
  -4   3  -7    3.20    3.80
  -4   3  -7    5.20    6.20
  -4   3  -7   -5.00    7.10
  -4   3  -7    0.50    5.80
   4  -3   7   -2.00    8.00
   4  -3   7   -1.10    6.40
   4  -3   7    0.50    3.60
   4  -3   7    6.50    4.70
  -5   3  -7   34.10   11.70
  -5   3  -7   30.50    8.30
  -5   3  -7   23.80    7.70
  -5   3  -7   31.70    8.40
  -5   3  -7   24.40    3.70
  -5   3  -7   26.20   10.70
   5  -3   7    6.20   10.00
   5  -3   7   36.80    5.80
   5  -3   7    9.90   11.80
   6   2  -7  -18.20   11.80
   6   2  -7   17.40   16.80
   6   2  -7   13.60   11.60
   6   2  -7   -5.90   12.00
   6   2  -7   25.50   13.70
  -6  -2   7   -0.40    9.90
  -6  -2   7   11.40    7.60
  -6  -2   7   12.10    9.80
  -6  -2   7   -5.10   16.30
   5   2  -7  207.08   19.80
   5   2  -7  167.58   17.20
   5   2  -7  164.98   18.30
   5   2  -7  196.78   16.30
   5   2  -7  182.18   15.20
  -5  -2   7  185.88   18.80
  -5  -2   7  158.68   12.40
  -5  -2   7  163.88   14.60
  -5  -2   7  215.78   22.50
  -5  -2   7  168.38   13.30
   4   2  -7   23.20    8.10
   4   2  -7   36.00    7.40
   4   2  -7   29.60    7.00
   4   2  -7   29.00    6.30
   4   2  -7   30.10    7.80
  -4  -2   7   27.50    8.50
  -4  -2   7   35.20    9.30
  -4  -2   7   33.30    5.80
  -4  -2   7   24.70    6.20
  -4  -2   7   22.50    5.00
   3   2  -7  101.49    9.40
   3   2  -7   87.49    9.70
   3   2  -7  102.29    9.00
   3   2  -7  101.19   10.40
   3   2  -7   92.69   10.50
  -3  -2   7  109.89    7.10
  -3  -2   7  106.79   11.40
  -3  -2   7  117.49   12.50
  -3  -2   7   91.59    8.10
   2   2  -7    1.80    3.80
   2   2  -7   -0.10    1.60
   2   2  -7    1.80    3.80
   2   2  -7    2.50    3.40
   2   2  -7    3.20    3.70
   2   2  -7    1.00    3.20
  -2  -2   7   -1.40    4.70
  -2  -2   7    2.20    2.50
  -2  -2   7   -2.10    4.20
  -2  -2   7    3.50    2.80
   1   2  -7  454.25   15.90
   1   2  -7  466.75   16.10
   1   2  -7  471.45   16.60
   1   2  -7  487.75   17.40
   1   2  -7  457.45   16.20
  -1  -2   7  469.95   17.60
  -1  -2   7  457.45   14.90
  -1  -2   7  477.35   17.40
  -1  -2   7  467.55   16.30
  -1  -2   7  486.05   15.60
   0   2  -7 1180.68   36.30
   0   2  -7 1156.38   36.50
   0   2  -7 1217.78   37.10
   0   2  -7 1201.68   36.50
   0   2  -7 1184.08   36.10
   0  -2   7 1259.07   36.30
   0  -2   7 1262.47   37.10
   0  -2   7 1229.48   37.30
   0  -2   7 1205.08   36.60
   0  -2   7 1171.88   36.10
  -1   2  -7  182.88    8.40
  -1   2  -7  171.18    8.20
  -1   2  -7  181.18    8.10
  -1   2  -7  182.88    7.70
  -1   2  -7  173.38    7.40
   1  -2   7  177.18    7.80
   1  -2   7  172.98    8.30
   1  -2   7  171.08    8.40
   1  -2   7  184.38    8.50
   1  -2   7  186.38    8.20
  -2   2  -7   99.49    5.60
  -2   2  -7   95.99    4.70
  -2   2  -7   94.09    6.90
  -2   2  -7   93.79    5.90
  -2   2  -7  100.69    7.00
  -2   2  -7   83.89    6.40
  -2   2  -7   77.29    7.80
   2  -2   7   95.29    6.00
   2  -2   7   91.39    6.40
   2  -2   7   83.29    7.50
   2  -2   7   95.69    6.50
  -3   2  -7  482.05   17.10
  -3   2  -7  518.25   16.10
  -3   2  -7  509.65   18.10
  -3   2  -7  482.05   19.30
  -3   2  -7  499.35   18.00
  -3   2  -7  495.35   19.60
  -3   2  -7  514.45   18.80
   3  -2   7  503.15   20.10
   3  -2   7  493.05   18.70
   3  -2   7  495.25   17.60
   3  -2   7  511.85   17.20
  -4   2  -7   83.69   11.60
  -4   2  -7   71.39   11.60
  -4   2  -7   75.49    9.30
  -4   2  -7   67.79    8.80
  -4   2  -7   76.09    4.60
  -4   2  -7   84.09    7.50
   4  -2   7   79.69   10.50
   4  -2   7   74.29    8.00
   4  -2   7   92.39   13.50
   4  -2   7   97.09    7.10
  -5   2  -7    4.80    6.60
  -5   2  -7    0.60    8.80
  -5   2  -7    4.30    2.60
  -5   2  -7   -7.00    7.00
  -5   2  -7   16.70    7.40
  -5   2  -7   10.60    9.10
  -5   2  -7   10.10    5.60
   5  -2   7    0.90    6.00
   5  -2   7  -21.70   10.40
   5  -2   7   -4.60    8.60
   5  -2   7    6.30    4.80
   6   1  -7   97.69   16.20
   6   1  -7  110.69   18.80
   6   1  -7   87.09   13.50
   6   1  -7   63.99   12.00
   6   1  -7   85.79   12.40
  -6  -1   7   76.49    8.90
  -6  -1   7   71.19   15.80
  -6  -1   7   63.59   17.30
  -6  -1   7   79.49   10.90
  -6  -1   7   86.29   12.10
   5   1  -7   41.20    8.00
   5   1  -7   55.29   10.10
   5   1  -7   53.69   11.40
   5   1  -7   63.29    8.60
   5   1  -7   61.09   10.00
  -5  -1   7   63.59   12.90
  -5  -1   7   52.09    8.40
  -5  -1   7   43.70    7.90
  -5  -1   7   42.30    6.60
  -5  -1   7   47.80   10.30
   4   1  -7   50.59    8.50
   4   1  -7   70.59   10.20
   4   1  -7   36.00   12.30
   4   1  -7   64.19    9.00
   4   1  -7   68.29   10.40
  -4  -1   7   49.10    6.60
  -4  -1   7   47.40    9.50
  -4  -1   7   60.79    9.10
   3   1  -7    7.90    4.10
   3   1  -7    7.90    4.90
   3   1  -7    8.00    4.60
   3   1  -7    3.40    4.80
   3   1  -7    3.40    4.10
  -3  -1   7    4.30    3.60
  -3  -1   7   13.70    3.20
  -3  -1   7    8.90    5.90
  -3  -1   7    6.50    6.10
   2   1  -7   95.29    4.90
   2   1  -7  113.49    7.30
   2   1  -7  111.69    7.40
   2   1  -7  101.49    6.70
   2   1  -7  109.99    7.90
   2   1  -7   86.39    6.80
  -2  -1   7  108.59    6.40
  -2  -1   7  102.99    5.90
  -2  -1   7  109.29    8.50
  -2  -1   7  119.69    9.30
   1   1  -7  382.86   13.50
   1   1  -7  371.76   12.10
   1   1  -7  358.26   13.30
   1   1  -7  375.96   14.00
   1   1  -7  367.66   13.30
   1   1  -7  369.46   13.20
  -1  -1   7  377.06   13.30
  -1  -1   7  389.16   14.20
  -1  -1   7  396.46   12.80
  -1  -1   7  383.56   14.40
   0   1  -7   49.70    4.60
   0   1  -7   46.30    3.60
   0   1  -7   55.49    4.20
   0   1  -7   45.00    3.70
   0   1  -7   44.70    4.10
   0  -1   7   53.89    4.80
   0  -1   7   48.40    4.40
   0  -1   7   46.90    2.80
   0  -1   7   50.69    3.80
  -1   1  -7    6.50    2.20
  -1   1  -7    3.90    1.90
  -1   1  -7    1.40    2.20
  -1   1  -7    6.50    2.30
  -1   1  -7    7.80    2.00
   1  -1   7    4.50    2.50
   1  -1   7    4.20    2.60
   1  -1   7    8.10    2.10
   1  -1   7    6.00    2.30
  -2   1  -7  717.43   23.50
  -2   1  -7  721.93   23.80
  -2   1  -7  757.62   23.10
  -2   1  -7  735.63   24.30
  -2   1  -7  731.23   22.60
  -2   1  -7  718.13   25.20
  -2   1  -7  745.53   23.50
   2  -1   7  698.83   24.50
   2  -1   7  718.93   23.90
   2  -1   7  744.03   23.10
   2  -1   7  735.93   23.30
  -3   1  -7   56.79    6.00
  -3   1  -7   45.60    6.10
  -3   1  -7   48.90    6.30
  -3   1  -7   55.39    6.40
  -3   1  -7   55.19    8.70
  -3   1  -7   53.29    3.30
  -3   1  -7   53.19    5.80
   3  -1   7   52.59    6.80
   3  -1   7   56.59    5.60
   3  -1   7   48.40    8.20
   3  -1   7   54.69    6.00
  -4   1  -7   37.00    3.50
  -4   1  -7   35.00    5.10
  -4   1  -7   56.19    8.40
  -4   1  -7   37.60    6.00
  -4   1  -7   39.60    8.00
   4  -1   7   36.80    8.60
   4  -1   7   49.40    7.20
   4  -1   7   44.20    6.30
   4  -1   7   31.20    6.60
  -5   1  -7   16.40    2.80
  -5   1  -7   35.60    7.80
  -5   1  -7   14.00    8.50
  -5   1  -7   27.70    7.30
  -5   1  -7   13.90    9.50
  -5   1  -7   39.10    7.20
  -5   1  -7   24.30    5.90
   5  -1   7   25.60    6.10
   5  -1   7   18.70    4.90
   5  -1   7   10.90    9.80
   5  -1   7   20.00    8.90
   6   0  -7   13.50   10.90
   6   0  -7   10.20   14.30
   6   0  -7    4.70   14.10
   6   0  -7   -9.20    9.20
   6   0  -7   24.90   10.20
  -6   0   7   -5.40    5.90
  -6   0   7    7.60   12.20
  -6   0   7   -2.80    8.40
  -6   0   7   -8.00   15.20
   5   0  -7    2.30    9.00
   5   0  -7    4.00    9.00
   5   0  -7   11.70    7.60
   5   0  -7   -1.00    6.40
   5   0  -7   -4.10    6.60
  -5   0   7   15.40    9.10
  -5   0   7    5.30    5.90
  -5   0   7   16.70   10.30
  -5   0   7    1.20    4.10
   4   0  -7    0.20    6.60
   4   0  -7    8.20    7.10
   4   0  -7   -2.30    7.60
   4   0  -7   11.80    4.60
   4   0  -7    5.80    5.40
  -4   0   7    3.90    7.20
  -4   0   7    4.70    6.70
  -4   0   7   -1.70    4.50
  -4   0   7    5.00    4.20
   3   0  -7    8.40    3.60
   3   0  -7    3.20    4.20
   3   0  -7    5.90    2.50
   3   0  -7   12.00    4.30
   3   0  -7    5.10    4.70
   3   0  -7    6.90    3.90
  -3   0   7    3.70    5.40
  -3   0   7    7.80    3.10
  -3   0   7    7.10    2.60
  -3   0   7    2.20    5.00
   2   0  -7   34.70    4.60
   2   0  -7   23.90    3.70
   2   0  -7   26.10    3.40
   2   0  -7   27.40    3.30
   2   0  -7   34.70    5.00
   2   0  -7   32.80    5.40
  -2   0   7   30.60    5.20
  -2   0   7   29.30    4.90
  -2   0   7   25.50    3.40
  -2   0   7   33.00    4.10
   1   0  -7  510.45   16.70
   1   0  -7  521.25   16.90
   1   0  -7  535.25   17.60
   1   0  -7  498.85   16.90
   1   0  -7  505.75   16.50
  -1   0   7  532.85   17.90
  -1   0   7  514.95   16.90
  -1   0   7  540.65   17.70
  -1   0   7  516.55   16.50
   0   0  -7  539.75   17.30
   0   0  -7  534.25   17.50
   0   0  -7  552.24   17.80
   0   0  -7  542.45   17.20
   0   0  -7  516.45   16.70
   0   0   7  534.15   16.90
   0   0   7  564.74   17.70
   0   0   7  568.04   17.90
   0   0   7  567.74   17.50
   0   0   7  543.25   17.80
  -1   0  -7   56.19    4.00
  -1   0  -7   58.19    4.70
  -1   0  -7   44.50    3.70
  -1   0  -7   51.69    4.50
  -1   0  -7   52.79    4.40
   1   0   7   43.80    4.90
   1   0   7   52.79    4.20
   1   0   7   50.19    4.20
   1   0   7   52.29    3.90
   1   0   7   57.89    4.40
  -2   0  -7 1072.79   32.40
  -2   0  -7 1085.09   33.10
  -2   0  -7 1048.50   32.90
  -2   0  -7 1118.79   30.60
  -2   0  -7 1053.49   32.80
  -2   0  -7 1018.40   33.60
  -2   0  -7 1046.40   34.60
   2   0   7 1018.90   33.90
   2   0   7 1094.99   32.80
   2   0   7 1059.99   32.30
   2   0   7 1043.90   33.10
  -3   0  -7  883.71   28.70
  -3   0  -7  907.01   28.90
  -3   0  -7  883.61   28.00
  -3   0  -7  877.81   26.40
  -3   0  -7  856.11   29.60
  -3   0  -7  873.41   31.20
  -3   0  -7  872.41   28.70
   3   0   7  882.31   28.30
   3   0   7  847.12   29.10
   3   0   7  867.41   27.60
   3   0   7  870.11   30.20
  -4   0  -7  292.07   14.10
  -4   0  -7  289.17   14.00
  -4   0  -7  284.47   16.50
  -4   0  -7  270.97    9.40
  -4   0  -7  272.27   12.90
   4   0   7  274.37   16.70
   4   0   7  282.47   12.20
   4   0   7  256.37   14.20
  -5   0  -7   79.89   11.00
  -5   0  -7   86.59   12.00
  -5   0  -7   79.89    5.00
  -5   0  -7   78.49   11.00
  -5   0  -7   93.79   12.90
  -5   0  -7   81.79    9.50
  -5   0  -7   99.39   10.90
   5   0   7   94.39    8.80
   5   0   7   80.69   12.10
   5   0   7   92.49   11.00
   5   0   7   82.49   10.40
  -6   0  -7   -8.90    8.10
  -6   0  -7    1.70    2.80
  -6   0  -7   -3.50   11.50
  -6   0  -7    8.30   12.80
  -6   0  -7    4.10   11.90
  -6   0  -7   -3.40    9.40
  -6   0  -7  -18.40    9.30
   6   0   7  -10.00    6.30
   6   0   7  -12.00    7.60
   6   0   7    3.30   12.80
   6  -1  -7   49.40   15.50
   6  -1  -7   44.30   11.40
   6  -1  -7   27.60   12.40
   6  -1  -7   57.19   16.40
   6  -1  -7   47.90   10.20
  -6   1   7   34.40   15.20
  -6   1   7   45.60   12.30
  -6   1   7   43.20    6.40
  -6   1   7   28.20    4.10
  -6   1   7   17.20    9.50
   5  -1  -7    9.80    9.60
   5  -1  -7    5.80    9.00
   5  -1  -7    3.70    9.10
   5  -1  -7    2.00    6.10
   5  -1  -7   14.80    7.40
  -5   1   7    1.00    5.90
  -5   1   7    1.10    2.70
  -5   1   7   13.60    9.10
  -5   1   7    7.90    3.90
  -5   1   7   -7.10    9.90
   4  -1  -7  326.87   18.50
   4  -1  -7  327.57   16.60
   4  -1  -7  294.17   14.60
  -4   1   7  266.87   12.30
  -4   1   7  289.47   12.90
   3  -1  -7   23.90    5.30
   3  -1  -7   22.10    5.10
   3  -1  -7   24.50    3.90
   3  -1  -7   14.00    3.90
   3  -1  -7   22.90    3.30
   3  -1  -7   21.40    4.00
  -3   1   7   22.40    5.60
  -3   1   7   24.40    3.00
  -3   1   7   25.30    3.70
  -3   1   7   11.80    7.40
   2  -1  -7   33.80    4.40
   2  -1  -7   32.30    4.40
   2  -1  -7   31.90    4.60
   2  -1  -7   29.10    4.60
   2  -1  -7   30.40    3.40
   2  -1  -7   27.40    3.90
  -2   1   7   29.40    5.00
  -2   1   7   33.60    4.00
  -2   1   7   33.90    4.70
  -2   1   7   32.60    3.10
   1  -1  -7  304.77   10.70
   1  -1  -7  313.57   11.00
   1  -1  -7  320.37   10.90
   1  -1  -7  317.97   11.40
   1  -1  -7  297.47   10.80
  -1   1   7  303.67   10.50
  -1   1   7  316.27   11.80
  -1   1   7  306.07   10.80
  -1   1   7  332.67   11.70
  -1   1   7  305.77   11.00
   0  -1  -7   31.10    3.00
   0  -1  -7   30.10    3.50
   0  -1  -7   31.60    3.60
   0  -1  -7   31.80    3.00
   0  -1  -7   32.80    3.40
   0   1   7   32.70    3.10
   0   1   7   34.10    3.10
   0   1   7   36.50    3.70
   0   1   7   40.70    4.00
   0   1   7   25.00    3.90
  -1  -1  -7   43.30    4.10
  -1  -1  -7   45.00    4.10
  -1  -1  -7   36.80    3.50
  -1  -1  -7   41.70    4.40
   1   1   7   41.50    3.60
   1   1   7   36.40    5.00
   1   1   7   39.00    4.20
   1   1   7   38.40    3.60
   1   1   7   46.10    4.20
  -2  -1  -7    6.50    2.60
  -2  -1  -7    2.20    3.10
  -2  -1  -7    1.20    3.00
  -2  -1  -7   -0.80    2.50
   2   1   7    6.60    2.80
   2   1   7    3.00    2.90
   2   1   7    3.10    2.10
   2   1   7    1.40    3.40
  -3  -1  -7  438.96   18.90
  -3  -1  -7  431.56   18.00
  -3  -1  -7  434.86   13.10
  -3  -1  -7  446.56   17.30
  -3  -1  -7  441.06   16.80
  -3  -1  -7  465.75   16.60
   3   1   7  434.26   18.50
   3   1   7  439.16   15.70
   3   1   7  429.66   16.50
   3   1   7  443.86   17.50
  -4  -1  -7 1298.07   42.10
  -4  -1  -7 1321.47   41.30
  -4  -1  -7 1359.46   45.10
  -4  -1  -7 1289.17   43.80
  -4  -1  -7 1285.07   42.30
  -4  -1  -7 1284.97   37.50
   4   1   7 1292.27   42.20
   4   1   7 1213.58   43.90
   4   1   7 1270.57   40.40
   4   1   7 1299.37   42.70
  -5  -1  -7   43.20    8.60
  -5  -1  -7   47.20    9.90
  -5  -1  -7   44.50    3.90
  -5  -1  -7   35.60    7.40
  -5  -1  -7   59.39    9.00
  -5  -1  -7   42.10    8.30
  -5  -1  -7   30.90    9.50
   5   1   7   28.30    9.60
   5   1   7   36.70    7.30
   5   1   7   52.79    6.70
   5   1   7   44.60   10.40
  -6  -1  -7  -13.40   11.50
  -6  -1  -7  -16.30    9.50
  -6  -1  -7   -2.40   12.30
  -6  -1  -7   -5.00    9.30
  -6  -1  -7    2.20    2.80
  -6  -1  -7    1.60    8.50
  -6  -1  -7    0.80   11.40
   6   1   7    8.70   14.30
   6   1   7   -6.70    6.50
   6   1   7   38.00   14.30
   6   1   7  -14.30    7.10
   5  -2  -7   22.00    5.30
   5  -2  -7   19.50    9.90
   5  -2  -7   20.80    6.90
   5  -2  -7   12.40    6.40
  -5   2   7   17.10    8.20
  -5   2   7   11.20    3.90
  -5   2   7   12.10    3.20
   4  -2  -7   63.29    8.20
   4  -2  -7   48.90    8.80
   4  -2  -7   48.70    6.10
   4  -2  -7   52.79    7.70
  -4   2   7   47.20    6.70
  -4   2   7   51.69    4.70
  -4   2   7   53.89    4.10
   3  -2  -7  405.46   14.60
   3  -2  -7  379.56   13.80
   3  -2  -7  379.86   14.10
   3  -2  -7  416.76   17.10
  -3   2   7  384.06   15.30
  -3   2   7  384.56   13.00
  -3   2   7  390.96   12.90
   2  -2  -7 1111.79   35.40
   2  -2  -7 1096.69   33.20
   2  -2  -7 1139.99   33.60
   2  -2  -7 1091.79   34.00
  -2   2   7 1136.49   34.30
  -2   2   7 1120.59   32.90
  -2   2   7 1100.49   32.80
   1  -2  -7  327.77   11.70
   1  -2  -7  355.16   12.40
   1  -2  -7  347.47   12.10
   1  -2  -7  361.66   11.60
  -1   2   7  350.26   12.30
  -1   2   7  354.86   11.60
  -1   2   7  346.57   12.00
  -1   2   7  317.77   11.10
  -1   2   7  348.37   12.10
   0  -2  -7  359.36   12.90
   0  -2  -7  352.06   12.60
   0  -2  -7  365.46   12.00
   0  -2  -7  365.06   12.30
   0  -2  -7  343.37   12.10
   0   2   7  363.46   13.00
   0   2   7  354.66   10.70
   0   2   7  359.76   12.40
   0   2   7  381.66   12.20
   0   2   7  363.96   12.50
   0   2   7  376.66   12.40
  -1  -2  -7  522.25   17.40
  -1  -2  -7  506.65   18.10
  -1  -2  -7  532.75   17.00
  -1  -2  -7  479.15   17.00
   1   2   7  526.05   16.70
   1   2   7  535.15   17.70
   1   2   7  522.25   17.30
   1   2   7  530.15   17.20
   1   2   7  512.85   18.30
  -2  -2  -7  126.59    8.20
  -2  -2  -7  120.99    7.10
  -2  -2  -7  130.39    8.80
  -2  -2  -7  143.39    7.60
   2   2   7  131.49    7.50
   2   2   7  137.99    9.10
   2   2   7  141.09    8.60
   2   2   7  142.89    6.90
  -3  -2  -7  414.86   12.60
  -3  -2  -7  433.66   17.40
  -3  -2  -7  431.66   16.40
  -3  -2  -7  424.66   18.90
   3   2   7  414.26   17.20
   3   2   7  416.26   18.40
   3   2   7  442.06   15.80
   3   2   7  408.46   16.40
  -4  -2  -7   10.40    6.40
  -4  -2  -7    1.50    1.70
  -4  -2  -7   -0.40    5.50
  -4  -2  -7    8.60    5.10
  -4  -2  -7    1.60    6.60
  -4  -2  -7    2.20    4.80
   4   2   7   -0.60    6.80
   4   2   7   -8.80    4.10
   4   2   7    1.00    6.60
   4   2   7   -0.70    3.90
  -5  -2  -7    6.40    7.30
  -5  -2  -7   -9.30    8.00
  -5  -2  -7   -2.70    2.20
  -5  -2  -7  -14.20    8.20
  -5  -2  -7    8.60   12.10
  -5  -2  -7   12.30    7.50
   5   2   7   -9.40    5.10
   5   2   7    1.40    8.50
   5   2   7    6.20   11.50
   5   2   7   -1.40    6.00
  -6  -2  -7   31.50   10.60
  -6  -2  -7   28.60   13.20
  -6  -2  -7  -16.10   11.70
  -6  -2  -7   18.20    3.50
  -6  -2  -7   23.10   12.30
  -6  -2  -7    7.60   10.80
   6   2   7   12.80    8.50
   6   2   7   -5.20   12.90
   6   2   7   11.10   15.00
   6   2   7   20.90    7.60
   5  -3  -7   10.90    4.80
   5  -3  -7   -8.60   10.80
  -5   3   7   11.80    3.00
   4  -3  -7   37.70    8.70
   4  -3  -7   17.80    4.80
  -4   3   7   24.70    3.20
   3  -3  -7  291.57   11.90
   3  -3  -7  304.37   14.90
  -3   3   7  288.17   10.40
   2  -3  -7   24.70    3.50
   2  -3  -7   24.70    4.80
   2  -3  -7   29.20    3.30
   2  -3  -7   33.20    4.20
  -2   3   7   26.70    2.60
   1  -3  -7  250.87    9.60
   1  -3  -7  248.38    9.00
   1  -3  -7  256.77   10.20
   1  -3  -7  257.97    9.00
  -1   3   7  258.17    8.40
  -1   3   7  252.47    9.30
  -1   3   7  260.87    9.50
   0  -3  -7   36.80    5.30
   0  -3  -7   41.10    4.20
   0  -3  -7   35.30    4.60
   0  -3  -7   46.30    3.80
   0  -3  -7   48.90    4.60
   0   3   7   44.90    4.00
   0   3   7   44.70    4.20
   0   3   7   46.60    2.40
   0   3   7   40.70    5.20
   0   3   7   37.80    4.20
  -1  -3  -7  591.14   19.00
  -1  -3  -7  574.84   19.30
  -1  -3  -7  575.24   19.30
  -1  -3  -7  565.94   20.10
   1   3   7  574.84   18.50
   1   3   7  588.84   19.80
   1   3   7  579.24   19.00
   1   3   7  576.64   20.30
   1   3   7  583.24   19.30
  -2  -3  -7   18.70    3.70
  -2  -3  -7   21.20    4.50
   2   3   7   21.40    3.30
   2   3   7   15.20    4.10
   2   3   7   19.80    5.10
   2   3   7   14.10    3.90
  -3  -3  -7   84.39    9.80
  -3  -3  -7  108.59    9.00
  -3  -3  -7   93.79   10.30
  -3  -3  -7  108.99    8.60
  -3  -3  -7  110.29   10.00
   3   3   7   68.19   10.30
   3   3   7   91.79    9.50
   3   3   7   85.09    8.40
   3   3   7   93.99    7.20
  -4  -3  -7   17.00    5.90
  -4  -3  -7   18.60    7.30
  -4  -3  -7   16.60    6.00
  -4  -3  -7   11.90    7.20
  -4  -3  -7   -2.80    6.80
   4   3   7   14.10    5.00
   4   3   7    8.90    6.90
   4   3   7    8.50    5.50
   4   3   7   14.50    7.70
  -5  -3  -7  204.58   16.30
  -5  -3  -7  184.78    7.80
  -5  -3  -7  158.18   19.70
  -5  -3  -7  178.18   17.70
  -5  -3  -7  196.68   17.70
  -5  -3  -7  210.78   18.20
   5   3   7  221.18   19.10
   5   3   7  198.78   15.30
   5   3   7  184.08   20.10
   5   3   7  177.78   13.00
  -6  -3  -7   49.30   12.00
  -6  -3  -7   25.10   12.20
  -6  -3  -7   39.50   14.40
  -6  -3  -7   20.30   13.00
  -6  -3  -7   27.20    4.20
  -6  -3  -7   32.10   14.20
   6   3   7   34.40    8.70
   6   3   7   45.50   14.10
   6   3   7   21.70    9.50
   6   3   7   31.50   14.80
   5  -4  -7   -3.80   12.70
   5  -4  -7   -8.20    5.90
  -5   4   7    3.40    3.00
   4  -4  -7   41.80    9.80
   4  -4  -7   40.70    5.60
  -4   4   7   41.20    4.30
   3  -4  -7   72.89    6.40
   3  -4  -7   86.99   12.30
   3  -4  -7   87.59    7.00
  -3   4   7   91.89    4.90
   2  -4  -7   84.29    6.10
   2  -4  -7   72.19    5.50
   2  -4  -7   83.49    8.30
  -2   4   7   81.49    4.20
   1  -4  -7   -3.80    2.10
  -1   4   7   -0.10    2.40
  -1   4   7    0.40    1.40
   0  -4  -7   15.50    3.50
   0  -4  -7   15.10    2.90
   0  -4  -7   17.30    2.60
   0  -4  -7   14.50    3.10
   0   4   7   15.40    1.90
   0   4   7   14.00    2.20
   0   4   7   10.70    3.20
   0   4   7   15.60    2.80
  -1  -4  -7   42.80    5.10
  -1  -4  -7   45.20    6.00
   1   4   7   36.60    5.20
   1   4   7   44.70    6.20
   1   4   7   44.80    7.10
   1   4   7   46.40    4.40
   1   4   7   39.40    4.50
  -2  -4  -7  597.34   20.70
  -2  -4  -7  598.64   21.20
  -2  -4  -7  549.65   22.00
  -2  -4  -7  598.24   21.50
   2   4   7  606.34   20.70
   2   4   7  573.14   21.50
   2   4   7  587.54   20.70
   2   4   7  566.94   22.40
   2   4   7  618.94   20.10
  -3  -4  -7  644.84   25.90
  -3  -4  -7  648.74   24.40
  -3  -4  -7  671.13   24.90
  -3  -4  -7  688.23   24.10
  -3  -4  -7  634.64   26.40
   3   4   7  631.14   22.70
   3   4   7  627.04   25.50
   3   4   7  666.73   24.10
   3   4   7  667.33   24.90
  -4  -4  -7   32.90    7.70
  -4  -4  -7   15.50    8.10
  -4  -4  -7   27.60    8.40
  -4  -4  -7   16.70    7.10
  -4  -4  -7    8.50    8.40
   4   4   7   32.90    6.10
   4   4   7   21.30    8.80
   4   4   7   19.10    8.40
   4   4   7   19.00    6.50
  -5  -4  -7   46.70   11.30
  -5  -4  -7   46.50   12.10
  -5  -4  -7   46.60   10.60
  -5  -4  -7   30.00    9.60
  -5  -4  -7   33.20   11.40
   5   4   7   38.00    7.90
   5   4   7   35.50   13.30
   5   4   7   39.60    9.50
   4  -5  -7    1.70   10.30
   4  -5  -7    3.60    5.30
   4  -5  -7    2.60    5.00
  -4   5   7    0.30    2.20
   3  -5  -7    2.50    4.20
   3  -5  -7   -4.50    3.80
   3  -5  -7    6.80    6.60
  -3   5   7    2.90    2.00
   2  -5  -7   62.39    6.70
   2  -5  -7   63.89    9.20
   2  -5  -7   56.79    6.50
  -2   5   7   61.49    4.10
   1  -5  -7   68.39    6.60
  -1   5   7   81.79    6.20
  -1   5   7   72.69    4.10
   0  -5  -7   -1.20    3.20
   0  -5  -7    0.30    2.80
   0  -5  -7    0.80    2.40
   0   5   7    4.00    2.70
   0   5   7   -0.90    1.80
   0   5   7    2.50    4.00
   0   5   7    0.80    1.90
  -1  -5  -7   36.60    6.20
  -1  -5  -7   33.10    4.40
  -1  -5  -7   45.10    7.00
   1   5   7   37.60    5.40
   1   5   7   32.90    4.20
   1   5   7   26.60    5.30
   1   5   7   40.60    4.90
   1   5   7   38.20    6.40
  -2  -5  -7  577.74   20.70
  -2  -5  -7  558.14   21.40
  -2  -5  -7  553.34   21.20
  -2  -5  -7  527.55   22.40
   2   5   7  572.14   20.80
   2   5   7  546.95   22.40
   2   5   7  574.74   19.70
   2   5   7  585.04   20.40
   2   5   7  568.94   21.80
  -3  -5  -7  447.56   21.20
  -3  -5  -7  466.45   20.30
  -3  -5  -7  488.45   21.20
  -3  -5  -7  460.15   21.60
   3   5   7  509.75   20.30
   3   5   7  493.15   18.60
   3   5   7  485.35   18.90
   3   5   7  452.45   26.70
   3   5   7  484.15   22.00
  -4  -5  -7  119.09   14.30
  -4  -5  -7  158.78   16.00
  -4  -5  -7   98.89   16.80
  -4  -5  -7  105.89   13.70
  -4  -5  -7  149.09   16.80
   4   5   7  153.48   13.90
   4   5   7  132.59   16.80
   4   5   7  142.89   17.50
   4   5   7  146.59   11.70
  -5  -5  -7   13.00   11.00
  -5  -5  -7    3.00   11.90
  -5  -5  -7    4.60   10.80
  -5  -5  -7   -3.60    9.70
  -5  -5  -7  -17.70   12.10
   5   5   7   18.50   12.80
   5   5   7   11.20    7.70
   5   5   7   -8.40   11.50
   5   5   7    3.80    9.00
   3  -6  -7    5.10    5.10
   3  -6  -7   -0.50    4.60
   3  -6  -7    4.60    7.40
  -3   6   7   -1.50    2.40
   2  -6  -7  109.59    9.40
   2  -6  -7  110.39    8.70
  -2   6   7  116.59    5.90
   1  -6  -7    1.70    4.50
  -1   6   7    7.40    3.80
  -1   6   7    7.20    2.40
   0   6   7  174.18   12.90
   0   6   7  212.28    8.20
  -1  -6  -7   36.70    6.10
  -1  -6  -7   42.20    5.90
  -1  -6  -7   32.50    4.80
  -1  -6  -7   32.80    6.90
   1   6   7   50.49    6.80
   1   6   7   35.80    5.70
   1   6   7   36.80    5.20
   1   6   7   34.70    3.80
  -2  -6  -7   24.20    5.60
  -2  -6  -7   15.00    5.90
  -2  -6  -7   24.90    7.30
  -2  -6  -7   26.30    7.40
   2   6   7   24.40    5.50
   2   6   7   22.80    4.60
   2   6   7   33.90    7.10
   2   6   7   27.10    8.10
   2   6   7   13.90    5.70
  -3  -6  -7   66.49   10.20
  -3  -6  -7   62.59    9.70
  -3  -6  -7   76.79   11.50
  -3  -6  -7   65.29    8.90
  -3  -6  -7   72.99   10.90
   3   6   7   68.99   10.50
   3   6   7   74.99    9.50
   3   6   7   67.09    9.70
   3   6   7   84.19   11.80
   3   6   7   80.79    9.80
  -4  -6  -7   56.89   10.80
  -4  -6  -7   47.40    9.90
  -4  -6  -7   41.50   11.70
  -4  -6  -7   38.70   12.00
  -4  -6  -7   42.50   10.20
   4   6   7   44.20   10.80
   4   6   7   50.69    9.80
   4   6   7   50.89    8.20
   4   6   7   48.20   12.30
  -5  -6  -7   62.19   14.80
  -5  -6  -7   68.79   13.10
  -5  -6  -7   72.69   13.70
  -5  -6  -7   73.59   15.60
  -5  -6  -7   81.99   14.90
   5   6   7   42.00   10.20
   5   6   7   65.69   14.00
   5   6   7   46.80   16.20
   5   6   7   66.09   12.30
   3  -7  -7   36.20    7.70
   3  -7  -7   30.60   11.00
   3  -7  -7   29.30    7.80
  -3   7   7   24.10    3.80
   2  -7  -7    5.40    5.20
   2  -7  -7    6.30    6.10
   2  -7  -7    3.80    6.80
  -2   7   7    4.60    2.80
   1  -7  -7  268.17   13.80
   1  -7  -7  277.97   14.10
  -1   7   7  254.87   10.50
   0   7   7   50.09    7.10
   0   7   7   40.40    4.70
  -1  -7  -7   24.60    5.40
  -1  -7  -7   27.70    6.80
   1   7   7   20.60    3.60
   1   7   7   32.10    7.40
   1   7   7   22.50    4.80
  -2  -7  -7  496.15   23.10
  -2  -7  -7  480.45   24.10
  -2  -7  -7  496.35   20.90
  -2  -7  -7  478.75   20.10
  -2  -7  -7  505.05   22.30
   2   7   7  488.15   19.00
   2   7   7  475.35   24.30
   2   7   7  455.75   20.10
   2   7   7  472.05   21.50
  -3  -7  -7   21.60    8.10
  -3  -7  -7   29.70   10.70
  -3  -7  -7   17.00    9.90
  -3  -7  -7    7.30   10.20
  -3  -7  -7   21.50    8.70
   3   7   7   20.10    6.50
   3   7   7   21.30    8.80
   3   7   7   31.40    7.00
   3   7   7   39.70    9.10
   3   7   7   13.90   11.20
  -4  -7  -7    9.90   10.20
  -4  -7  -7   19.80   10.20
  -4  -7  -7  -18.50   12.00
  -4  -7  -7   -3.10   11.80
   4   7   7    9.20    8.10
   4   7   7    9.60   12.50
   4   7   7   32.70   11.50
   4   7   7    5.20    8.30
   1  -8  -7   12.80    7.00
   1  -8  -7   26.90    7.50
  -1   8   7   23.20    4.60
   0   8   7   75.59    9.10
   0   8   7   65.59    6.60
  -1  -8  -7   56.49    9.00
  -1  -8  -7   37.40    6.70
   1   8   7   60.19    7.60
  -2  -8  -7   19.60   10.60
  -2  -8  -7   14.90   10.40
  -2  -8  -7    5.90    8.50
  -2  -8  -7   22.80    7.80
   2   8   7    3.00    5.30
   2   8   7   -9.90    8.90
   2   8   7    0.60    7.70
   2   8   7   -0.90    5.00
   2   8   7   -7.20   11.20
  -3  -8  -7    7.40   12.40
  -3  -8  -7    5.90   11.90
  -3  -8  -7   -6.70   10.10
  -3  -8  -7    2.50    9.80
  -3  -8  -7   -5.60   11.20
   3   8   7    0.80    7.30
   3   8   7   10.90    9.90
   3   8   7   10.80    7.30
   3   8   7    7.60   12.70
   3   8   7   -6.00   10.10
   2   7  -8  -10.70    7.70
   2   7  -8   -9.20    7.40
   2   7  -8    7.10   14.90
   2   7  -8   10.90   11.90
  -2  -7   8  -29.30   13.80
  -2  -7   8   40.60   13.50
  -2  -7   8    6.50    7.50
  -2  -7   8   -6.40    5.60
  -2  -7   8    1.70    7.60
   1   7  -8  -10.60    6.80
   1   7  -8   -1.80    5.50
   1   7  -8    0.00   12.30
   1   7  -8    2.40   10.40
  -1  -7   8   10.70   12.70
  -1  -7   8    4.70    5.00
  -1  -7   8   14.30   12.10
  -1  -7   8  -11.60    7.00
  -1  -7   8    0.30    6.60
   0   7  -8  -14.10   11.70
   0   7  -8    1.70    4.70
   0   7  -8    8.90    6.50
   0   7  -8    2.00    9.20
   0  -7   8   10.00   12.50
   0  -7   8   -0.20    4.90
   0  -7   8    3.90   10.70
   0  -7   8    7.40    7.60
   0  -7   8    3.10    6.50
   3   6  -8   49.80   14.00
   3   6  -8   64.79   13.00
   3   6  -8   58.39   10.10
   3   6  -8   61.19   10.10
  -3  -6   8   59.69    9.00
  -3  -6   8   83.89   14.30
  -3  -6   8   68.39    8.10
  -3  -6   8   45.40    9.70
  -3  -6   8   85.09   13.60
   2   6  -8   80.09   10.90
   2   6  -8   72.59    8.80
   2   6  -8   68.79    8.70
   2   6  -8   78.29   13.00
  -2  -6   8   85.99    9.30
  -2  -6   8   55.19    7.90
  -2  -6   8   74.79   11.20
  -2  -6   8   88.79   13.00
  -2  -6   8   79.59   13.10
   1   6  -8  103.59   12.90
   1   6  -8  106.89    9.50
   1   6  -8  110.59   10.40
   1   6  -8  129.59   14.20
  -1  -6   8  139.39   17.10
  -1  -6   8  111.99   12.50
  -1  -6   8  104.99   10.90
  -1  -6   8  128.69    8.80
  -1  -6   8  119.09   10.90
   0   6  -8   56.69    6.80
   0   6  -8   66.49    9.10
   0   6  -8   67.39   10.60
   0   6  -8   89.09   12.40
   0  -6   8   58.29    7.70
   0  -6   8   67.59    9.80
   0  -6   8   76.69   10.70
   0  -6   8   62.29    7.20
   0  -6   8   83.19   11.50
  -1   6  -8   61.09    7.40
  -1   6  -8   62.49    8.60
  -1   6  -8   69.39   10.20
  -1   6  -8   72.09    9.50
   1  -6   8   48.40   10.80
   1  -6   8   61.49    7.70
   1  -6   8   57.99    8.40
   1  -6   8   45.50    8.80
   1  -6   8   71.19   10.60
  -2   6  -8  302.57   16.10
  -2   6  -8  289.77   19.20
   2  -6   8  325.77   17.40
   2  -6   8  284.77   15.60
   2  -6   8  288.17   17.70
   2  -6   8  347.57   18.30
   4   5  -8  304.17   20.90
   4   5  -8  343.97   26.80
   4   5  -8  322.17   20.60
   4   5  -8  293.37   25.70
   4   5  -8  262.07   21.90
  -4  -5   8  345.87   25.70
  -4  -5   8  346.17   27.40
  -4  -5   8  323.37   19.40
   3   5  -8  521.45   22.70
   3   5  -8  519.45   23.00
   3   5  -8  493.15   23.40
   3   5  -8  538.45   25.20
   3   5  -8  549.65   27.50
  -3  -5   8  570.64   27.10
  -3  -5   8  531.05   19.70
  -3  -5   8  528.45   28.00
  -3  -5   8  554.94   20.90
  -3  -5   8  522.25   22.00
   2   5  -8  322.37   16.00
   2   5  -8  359.16   20.40
   2   5  -8  339.77   17.90
   2   5  -8  337.37   16.40
  -2  -5   8  322.27   19.70
  -2  -5   8  321.47   14.10
  -2  -5   8  350.46   14.60
  -2  -5   8  335.47   16.00
  -2  -5   8  350.26   20.80
   1   5  -8  621.64   23.00
   1   5  -8  646.94   26.30
   1   5  -8  637.14   22.70
   1   5  -8  675.93   25.00
  -1  -5   8  688.43   22.90
  -1  -5   8  641.44   23.10
  -1  -5   8  673.43   27.00
  -1  -5   8  633.14   21.80
  -1  -5   8  628.64   25.90
   0   5  -8   49.90    7.90
   0   5  -8   46.30    6.10
   0   5  -8   49.70    7.10
   0   5  -8   46.00    7.30
   0  -5   8   40.90    7.90
   0  -5   8   51.89    8.80
   0  -5   8   41.70    5.80
   0  -5   8   40.80    6.10
   0  -5   8   50.99    6.40
  -1   5  -8   56.29    6.90
  -1   5  -8   53.49    6.40
  -1   5  -8   71.79   11.00
  -1   5  -8   55.59    8.00
   1  -5   8   53.59    7.40
   1  -5   8   73.79    9.00
   1  -5   8   59.79    6.80
   1  -5   8   64.49    8.90
   1  -5   8   61.69    9.40
  -2   5  -8   29.40    4.30
  -2   5  -8   42.70    7.00
  -2   5  -8   29.90    6.30
  -2   5  -8   33.50    4.60
  -2   5  -8   33.90    7.30
   2  -5   8   37.20    6.70
   2  -5   8   27.70    7.20
   2  -5   8   29.20    5.10
   2  -5   8   27.00    7.80
   2  -5   8   27.40    6.60
  -3   5  -8   40.00    8.20
  -3   5  -8   25.30    6.00
  -3   5  -8   18.40    8.90
  -3   5  -8   28.20    6.20
  -3   5  -8   29.60    4.80
   3  -5   8   18.40    8.70
   3  -5   8   27.20    7.70
   3  -5   8   24.80    7.40
   3  -5   8   21.60    7.70
   5   4  -8  -10.10   13.50
   5   4  -8  -10.30   19.10
   5   4  -8   21.40   11.90
   5   4  -8   -2.90   11.50
   5   4  -8  -13.90   13.80
  -5  -4   8   -9.70   13.60
  -5  -4   8   -5.20    6.70
  -5  -4   8    8.00   15.40
  -5  -4   8   -3.10    9.20
   4   4  -8  134.39   20.40
   4   4  -8  157.48   20.00
   4   4  -8  114.29   12.10
   4   4  -8  125.09   19.40
   4   4  -8  128.49   15.70
  -4  -4   8  155.38   19.20
  -4  -4   8  104.89   13.60
  -4  -4   8  159.88   21.50
   3   4  -8   78.69   11.70
   3   4  -8   70.49   11.20
   3   4  -8   62.29    8.10
   3   4  -8   98.69   12.60
   3   4  -8   57.49    8.80
  -3  -4   8   81.99   11.10
  -3  -4   8   76.29    8.40
  -3  -4   8   71.89   11.20
  -3  -4   8   63.19    9.90
  -3  -4   8   80.19    7.40
   2   4  -8   22.60    5.20
   2   4  -8   11.00    5.90
   2   4  -8   26.00    6.40
   2   4  -8   24.40    7.40
  -2  -4   8   19.70   10.20
  -2  -4   8   20.20    4.30
  -2  -4   8   13.50    3.90
  -2  -4   8   17.40    7.30
  -2  -4   8   15.80    4.80
   1   4  -8   30.90    5.00
   1   4  -8   35.10    6.00
   1   4  -8   24.00    4.50
   1   4  -8   36.80    6.70
  -1  -4   8   28.30    7.80
  -1  -4   8   30.20    4.80
  -1  -4   8   43.10    5.30
  -1  -4   8   39.20    7.40
  -1  -4   8   33.70    4.50
   0   4  -8  255.97   11.50
   0   4  -8  254.57   13.50
   0   4  -8  250.07   12.50
   0   4  -8  251.37   10.60
   0  -4   8  257.37   13.80
   0  -4   8  261.97   11.60
   0  -4   8  234.68   11.40
   0  -4   8  243.08   13.20
   0  -4   8  254.17   10.60
  -1   4  -8   -2.90    6.30
  -1   4  -8    1.20    4.30
  -1   4  -8    9.80    5.30
   1  -4   8    6.90    4.10
   1  -4   8    4.00    3.20
   1  -4   8    2.10    4.00
  -2   4  -8  233.98   11.40
  -2   4  -8  226.28   13.10
  -2   4  -8  219.78   12.60
  -2   4  -8  276.87   12.80
  -2   4  -8  233.98    9.90
  -2   4  -8  240.58   10.80
   2  -4   8  231.58   11.40
   2  -4   8  227.18   12.70
   2  -4   8  246.38   12.50
   2  -4   8  203.58   11.70
   2  -4   8  243.88   13.10
  -3   4  -8   17.60    6.50
  -3   4  -8    8.50    4.80
  -3   4  -8    5.30    7.00
  -3   4  -8   13.50    5.80
  -3   4  -8   11.60    3.40
  -3   4  -8    9.20    4.60
   3  -4   8   12.70    6.00
   3  -4   8    5.80    5.40
   3  -4   8   -0.80    5.30
   3  -4   8    4.50    7.10
  -4   4  -8   30.10    4.70
  -4   4  -8   27.70    9.60
  -4   4  -8   29.80    7.00
  -4   4  -8   19.90    7.60
  -4   4  -8   29.10    7.30
   4  -4   8   30.90    6.20
   4  -4   8   29.80   10.50
   4  -4   8   35.70   10.60
   4  -4   8   30.80    8.30
   5   3  -8  194.18   19.80
   5   3  -8  198.98   17.60
   5   3  -8  177.58   22.60
   5   3  -8  157.78   19.10
   5   3  -8  218.58   23.30
  -5  -3   8  191.68   26.30
  -5  -3   8  160.38   15.90
  -5  -3   8  141.39   13.10
  -5  -3   8  127.39   16.50
   4   3  -8  173.88   24.90
   4   3  -8  184.38   27.90
   4   3  -8  162.58   14.50
   4   3  -8  155.78   17.60
   4   3  -8  152.48   15.10
  -4  -3   8  178.98   20.70
  -4  -3   8  137.19   12.80
  -4  -3   8  114.39   15.20
  -4  -3   8  182.88   17.70
   3   3  -8   17.50    6.20
   3   3  -8   14.50    2.90
   3   3  -8   10.90    6.50
   3   3  -8    6.40    7.30
   3   3  -8    5.90    6.30
   3   3  -8    1.40    5.40
  -3  -3   8   18.70    8.10
  -3  -3   8   13.20    5.00
  -3  -3   8    7.20    8.40
  -3  -3   8   12.40    4.00
   2   3  -8   54.69    8.40
   2   3  -8   51.49    6.40
   2   3  -8   59.09    7.70
   2   3  -8   73.59    8.50
   2   3  -8   55.89    6.30
  -2  -3   8   50.69    4.90
  -2  -3   8   71.69    8.70
  -2  -3   8   46.30    6.90
  -2  -3   8   63.89    8.60
  -2  -3   8   58.69    5.90
   1   3  -8   85.19    6.80
   1   3  -8   75.69    6.50
   1   3  -8   81.59    7.00
   1   3  -8   75.39    9.10
   1   3  -8   90.99    8.20
  -1  -3   8   93.89    5.80
  -1  -3   8   96.59    9.30
  -1  -3   8   83.99    6.80
  -1  -3   8   90.59   10.10
  -1  -3   8   98.19    6.00
   0   3  -8   25.40    4.20
   0   3  -8   29.70    5.10
   0   3  -8   25.60    3.40
   0   3  -8   27.30    4.30
   0  -3   8   21.10    4.80
   0  -3   8   24.10    3.70
   0  -3   8   24.00    3.60
   0  -3   8   25.60    4.20
   0  -3   8   26.90    5.40
  -1   3  -8    1.80    3.50
  -1   3  -8   -2.20    3.60
  -1   3  -8    3.20    2.50
  -1   3  -8    0.50    3.10
  -1   3  -8   -1.00    3.20
   1  -3   8    6.40    4.00
   1  -3   8   -2.30    2.70
   1  -3   8   -0.50    3.40
   1  -3   8    0.50    3.50
   1  -3   8    3.00    4.10
  -2   3  -8   23.40    3.50
  -2   3  -8   27.10    4.10
  -2   3  -8   23.20    5.30
  -2   3  -8   26.30    5.00
  -2   3  -8   24.60    4.90
  -2   3  -8   22.50    3.60
   2  -3   8   22.90    5.40
   2  -3   8   28.60    4.60
   2  -3   8   32.90    5.30
   2  -3   8   29.50    4.40
  -3   3  -8  160.78   12.10
  -3   3  -8  199.98   10.50
  -3   3  -8  180.48    8.00
  -3   3  -8  188.28   11.90
  -3   3  -8  172.48   12.80
  -3   3  -8  177.98   10.70
  -3   3  -8  181.78    9.10
   3  -3   8  177.98   13.60
   3  -3   8  175.28    9.80
   3  -3   8  185.18   10.60
   3  -3   8  175.08   11.00
  -4   3  -8   88.09   11.90
  -4   3  -8   82.09   10.60
  -4   3  -8   71.69    9.70
  -4   3  -8   90.99    5.90
  -4   3  -8   97.39   10.20
  -4   3  -8   94.09   12.40
  -4   3  -8   85.89    8.00
   4  -3   8   85.39    8.50
   4  -3   8  117.49   15.70
   4  -3   8   70.99   10.20
   4  -3   8   77.89    9.70
   5   2  -8   34.50   11.10
   5   2  -8   25.80    9.50
   5   2  -8   22.50    8.90
   5   2  -8   21.70   11.60
  -5  -2   8   18.00    6.10
  -5  -2   8    6.50   11.60
  -5  -2   8   20.00    7.90
  -5  -2   8   23.40   20.50
   4   2  -8   49.70    8.50
   4   2  -8   57.39    9.50
   4   2  -8   60.09   13.90
   4   2  -8   47.40    7.90
  -4  -2   8   45.20    6.30
  -4  -2   8   43.80    7.20
  -4  -2   8   60.59   10.40
  -4  -2   8   39.00   10.60
   3   2  -8  782.32   28.50
   3   2  -8  760.32   27.70
   3   2  -8  765.22   28.90
   3   2  -8  788.92   27.00
   3   2  -8  779.32   27.40
   3   2  -8  755.32   24.30
  -3  -2   8  804.22   25.90
  -3  -2   8  795.52   30.10
  -3  -2   8  749.42   26.50
  -3  -2   8  821.02   29.50
   2   2  -8    4.10    4.10
   2   2  -8    6.40    2.10
   2   2  -8   -4.30    3.50
   2   2  -8    5.70    4.20
   2   2  -8    2.20    4.60
   2   2  -8   -3.60    3.60
  -2  -2   8    1.20    3.30
  -2  -2   8   -5.40    4.70
  -2  -2   8    5.30    2.60
  -2  -2   8    8.60    5.80
   1   2  -8  179.38    8.60
   1   2  -8  177.38   10.00
   1   2  -8  172.98    8.70
   1   2  -8  186.28    9.30
   1   2  -8  173.28    8.50
  -1  -2   8  191.08   10.40
  -1  -2   8  181.78    8.70
  -1  -2   8  175.08    7.20
  -1  -2   8  174.28   10.60
  -1  -2   8  179.88    7.80
   0   2  -8    5.00    3.40
   0   2  -8   11.50    3.10
   0   2  -8    7.80    2.90
   0   2  -8    3.90    2.70
   0   2  -8    8.70    2.80
   0  -2   8    7.60    3.80
   0  -2   8    8.30    3.10
   0  -2   8    7.00    2.70
   0  -2   8    8.30    3.70
   0  -2   8    9.80    2.80
  -1   2  -8  108.49    6.50
  -1   2  -8  108.39    6.90
  -1   2  -8  108.99    6.40
  -1   2  -8  106.59    7.10
  -1   2  -8  105.29    6.20
   1  -2   8  113.69    7.20
   1  -2   8  107.79    7.30
   1  -2   8  108.69    6.30
   1  -2   8   94.59    7.30
   1  -2   8   95.39    5.00
  -2   2  -8   80.39    7.10
  -2   2  -8   75.79    6.70
  -2   2  -8   95.29    7.40
  -2   2  -8   66.39    8.30
  -2   2  -8   73.09    5.70
  -2   2  -8   77.69    6.00
  -2   2  -8   85.29    4.70
   2  -2   8   80.69    8.40
   2  -2   8   85.79    6.50
   2  -2   8   79.29    6.80
   2  -2   8   87.49    7.00
  -3   2  -8   23.10    6.10
  -3   2  -8   18.80    3.90
  -3   2  -8    5.00    6.20
  -3   2  -8   15.80    7.00
  -3   2  -8   11.90    2.70
  -3   2  -8   19.90    4.40
   3  -2   8    6.50    6.20
   3  -2   8   19.20    4.80
   3  -2   8    8.60    4.90
  -4   2  -8  141.09    9.50
  -4   2  -8  165.98   13.80
  -4   2  -8  159.58    7.10
  -4   2  -8  149.69   11.70
  -4   2  -8  176.68   11.70
  -4   2  -8  145.39   11.10
  -4   2  -8  142.29   13.90
   4  -2   8  149.19    9.90
   4  -2   8  144.69   15.60
   4  -2   8  161.98    9.30
   4  -2   8  157.78   13.30
  -5   2  -8   16.40    5.70
  -5   2  -8   31.90   10.90
  -5   2  -8   16.60    8.30
  -5   2  -8   13.10    7.60
  -5   2  -8   22.50   10.90
  -5   2  -8   21.50    3.40
  -5   2  -8   26.00    8.20
   5  -2   8   15.60    6.40
   5  -2   8    6.80   12.40
   5  -2   8   14.10    5.20
   5  -2   8   36.20   10.70
   5   1  -8   50.39    8.80
   5   1  -8   55.89   11.90
   5   1  -8   43.30    9.50
   5   1  -8   23.80    8.80
   5   1  -8   32.60   11.40
  -5  -1   8   31.50   11.20
  -5  -1   8   37.60   12.50
  -5  -1   8   43.00    6.30
  -5  -1   8   22.50    7.40
   4   1  -8   -6.20    6.80
   4   1  -8    1.00    6.20
   4   1  -8    2.80    6.20
   4   1  -8   -2.00    5.90
   4   1  -8   -1.40    7.50
  -4  -1   8   -1.30    3.70
  -4  -1   8   -5.60    4.80
  -4  -1   8   10.10    8.10
  -4  -1   8   -9.80    8.20
   3   1  -8  321.17   15.70
   3   1  -8  330.27   14.70
   3   1  -8  321.97   13.80
   3   1  -8  315.17   16.00
   3   1  -8  310.27   11.70
   3   1  -8  329.87   14.40
  -3  -1   8  314.47   13.50
  -3  -1   8  309.07   12.50
  -3  -1   8  339.27   17.20
  -3  -1   8  313.97   16.20
   2   1  -8  318.87   12.60
   2   1  -8  308.67   12.80
   2   1  -8  312.07   13.50
   2   1  -8  320.47   11.10
   2   1  -8  325.17   13.30
   2   1  -8  318.27   13.90
  -2  -1   8  304.57   14.40
  -2  -1   8  314.47   12.50
  -2  -1   8  326.37   15.10
  -2  -1   8  323.37   11.80
   1   1  -8  130.09    6.90
   1   1  -8  120.69    6.60
   1   1  -8  123.49    7.90
   1   1  -8  128.79    5.80
   1   1  -8  138.39    7.40
   1   1  -8  133.89    7.30
  -1  -1   8  138.09    8.30
  -1  -1   8  138.09    7.00
  -1  -1   8  120.69    8.40
  -1  -1   8  142.29    6.50
   0   1  -8   27.60    3.20
   0   1  -8   26.70    3.80
   0   1  -8   32.00    4.40
   0   1  -8   31.10    4.90
   0   1  -8   25.30    3.60
   0  -1   8   29.20    3.80
   0  -1   8   25.20    2.60
   0  -1   8   32.20    4.10
   0  -1   8   35.30    4.60
  -1   1  -8    4.90    2.90
  -1   1  -8   11.20    2.40
  -1   1  -8   10.10    2.60
  -1   1  -8    5.70    2.30
  -1   1  -8    7.80    2.50
   1  -1   8    8.90    3.10
   1  -1   8    7.30    3.10
   1  -1   8    7.40    2.20
   1  -1   8    9.50    2.40
   1  -1   8   12.20    3.20
  -2   1  -8   63.29    6.20
  -2   1  -8   58.29    5.40
  -2   1  -8   70.59    7.70
  -2   1  -8   62.79    5.70
  -2   1  -8   80.89    6.30
  -2   1  -8   74.99    6.80
  -2   1  -8   62.49    6.20
   2  -1   8   68.69    5.60
   2  -1   8   67.99    6.30
   2  -1   8   55.49    6.40
   2  -1   8   69.69    5.90
  -3   1  -8  732.83   21.60
  -3   1  -8  736.03   23.50
  -3   1  -8  666.73   25.30
  -3   1  -8  712.03   27.20
  -3   1  -8  727.93   24.70
  -3   1  -8  718.33   24.50
  -3   1  -8  694.03   24.20
   3  -1   8  726.33   23.40
   3  -1   8  686.43   26.10
   3  -1   8  701.03   24.90
   3  -1   8  714.63   23.80
  -4   1  -8   39.50    5.50
  -4   1  -8   39.90    3.60
  -4   1  -8   40.00    7.60
  -4   1  -8   45.90    8.30
  -4   1  -8   40.10    6.10
  -4   1  -8   50.19    6.90
  -4   1  -8   48.00    6.40
   4  -1   8   41.50    5.70
   4  -1   8   44.40    5.30
   4  -1   8   40.70    8.80
   4  -1   8   38.00    7.10
  -5   1  -8   21.00    7.90
  -5   1  -8   10.00    7.60
  -5   1  -8   -0.20   10.00
  -5   1  -8    9.00    6.20
  -5   1  -8    5.50    2.80
  -5   1  -8   32.40    7.90
  -5   1  -8  -10.00    8.90
   5  -1   8    7.60    5.30
   5  -1   8   -2.90   11.40
   5  -1   8    6.10    6.20
   5  -1   8    4.30    9.30
   5   0  -8    7.20    8.40
   5   0  -8   -1.90    7.10
   5   0  -8   -6.60    9.60
   5   0  -8    0.80    7.70
   5   0  -8   17.50   10.40
  -5   0   8   -0.40   11.50
  -5   0   8   -8.50    6.30
  -5   0   8   -0.60    4.30
  -5   0   8    3.10    9.30
   4   0  -8  153.48   14.20
   4   0  -8  155.08   13.90
   4   0  -8  141.29   11.40
   4   0  -8  147.89   11.40
   4   0  -8  138.19    8.20
   4   0  -8  130.19   10.80
  -4   0   8  119.69    8.00
  -4   0   8  160.28   13.80
  -4   0   8  131.69    9.40
  -4   0   8  136.59   15.70
   3   0  -8  173.58    8.10
   3   0  -8  157.78   11.50
   3   0  -8  174.58   11.80
   3   0  -8  177.98    9.50
   3   0  -8  151.78    9.60
   3   0  -8  193.48   10.40
  -3   0   8  175.48    9.00
  -3   0   8  209.98   13.60
  -3   0   8  161.28    7.70
  -3   0   8  161.78   11.80
   2   0  -8  319.87   11.30
   2   0  -8  307.57   13.30
   2   0  -8  307.07   13.20
   2   0  -8  301.47   11.90
   2   0  -8  310.87   12.10
   2   0  -8  323.87   12.70
  -2   0   8  314.07   12.00
  -2   0   8  319.77   13.90
  -2   0   8  315.67   14.50
  -2   0   8  321.57   11.20
   1   0  -8  196.78    7.80
   1   0  -8  201.48    8.30
   1   0  -8  201.28    8.60
   1   0  -8  197.28    8.50
   1   0  -8  195.58    9.20
  -1   0   8  191.88    8.40
  -1   0   8  218.68    9.80
  -1   0   8  204.88    8.10
  -1   0   8  206.28   10.00
   0   0  -8  949.71   29.10
   0   0  -8 1001.70   29.80
   0   0  -8  989.30   30.30
   0   0  -8  963.90   29.80
   0   0  -8  936.51   30.10
   0   0   8  948.01   30.30
   0   0   8 1009.30   30.30
   0   0   8  967.60   29.30
   0   0   8 1015.20   30.00
   0   0   8 1024.20   30.50
  -1   0  -8   32.10    3.60
  -1   0  -8   31.50    4.00
  -1   0  -8   33.40    3.90
  -1   0  -8   40.40    4.60
  -1   0  -8   38.30    4.70
   1   0   8   32.30    5.10
   1   0   8   32.50    4.30
   1   0   8   35.90    4.50
   1   0   8   35.10    3.80
   1   0   8   36.00    4.60
  -2   0  -8   17.20    2.00
  -2   0  -8   13.20    3.30
  -2   0  -8   19.00    4.50
  -2   0  -8   14.50    3.10
  -2   0  -8   12.40    3.60
  -2   0  -8   18.40    4.40
  -2   0  -8   14.80    3.60
   2   0   8    7.20    4.20
   2   0   8   13.40    3.40
   2   0   8   14.90    3.00
   2   0   8   13.40    3.50
  -3   0  -8  403.46   18.80
  -3   0  -8  415.26   16.20
  -3   0  -8  412.66   12.70
  -3   0  -8  393.56   17.20
  -3   0  -8  418.36   16.40
  -3   0  -8  416.86   16.20
  -3   0  -8  417.86   15.50
   3   0   8  414.86   15.60
   3   0   8  405.46   16.70
   3   0   8  416.86   15.10
   3   0   8  401.76   18.00
  -4   0  -8    3.00    5.10
  -4   0  -8    1.70    2.00
  -4   0  -8   -2.10    4.30
  -4   0  -8    1.20    5.10
  -4   0  -8    8.20    7.10
   4   0   8   -1.50    4.30
   4   0   8   -8.10    7.10
   4   0   8   -1.80    5.60
   4   0   8   -2.80    4.00
  -5   0  -8    0.40    2.40
  -5   0  -8   -2.30    8.00
  -5   0  -8   -6.90    6.70
  -5   0  -8   -8.60    6.00
  -5   0  -8  -13.50    9.50
  -5   0  -8   -6.90    7.50
  -5   0  -8    0.60    7.10
   5   0   8    0.50    4.80
   5   0   8   -1.90    5.60
   5   0   8  -14.90   10.50
   5   0   8   -0.50    9.40
   5  -1  -8    1.20    4.80
   5  -1  -8    0.90    6.60
   5  -1  -8   -8.50    9.40
   5  -1  -8   -0.10   10.80
   5  -1  -8   -5.70    7.30
   5  -1  -8    5.30    7.80
  -5   1   8   -5.20    3.70
  -5   1   8    4.00   11.50
  -5   1   8    3.40    5.80
  -5   1   8   -0.40    2.10
   4  -1  -8    0.80    5.10
   4  -1  -8    1.10    7.60
   4  -1  -8    0.00    4.70
   4  -1  -8    4.70    3.70
   4  -1  -8    3.30    7.30
   4  -1  -8    2.60    5.40
  -4   1   8   -1.40    7.70
  -4   1   8    3.80    4.50
  -4   1   8   -4.30    2.80
  -4   1   8    8.30   11.20
   3  -1  -8  637.04   21.50
   3  -1  -8  620.84   23.30
   3  -1  -8  615.04   20.80
   3  -1  -8  577.84   20.50
   3  -1  -8  617.04   22.50
   3  -1  -8  608.94   20.40
  -3   1   8  626.04   20.60
  -3   1   8  613.64   22.90
  -3   1   8  592.44   19.50
   2  -1  -8  158.28    7.40
   2  -1  -8  159.18    8.20
   2  -1  -8  167.28    8.90
   2  -1  -8  152.08    7.70
   2  -1  -8  165.68    9.30
   2  -1  -8  163.78    7.60
  -2   1   8  166.18    7.60
  -2   1   8  156.28    6.80
  -2   1   8  160.88   10.30
  -2   1   8  162.88    9.50
   1  -1  -8   22.70    3.30
   1  -1  -8   23.70    3.10
   1  -1  -8   18.30    2.60
   1  -1  -8   23.10    3.50
   1  -1  -8   30.20    3.90
  -1   1   8   30.80    4.00
  -1   1   8   26.50    3.30
  -1   1   8   26.00    3.80
  -1   1   8   24.00    3.00
  -1   1   8   36.30    5.60
   0  -1  -8   -0.70    1.70
   0  -1  -8    3.30    1.80
   0  -1  -8   -0.20    2.10
   0  -1  -8   -2.40    2.20
   0   1   8    1.40    2.60
   0   1   8    0.70    1.80
   0   1   8    1.90    2.20
   0   1   8   -2.80    2.20
   0   1   8    3.00    1.90
  -1  -1  -8 2283.27   66.79
  -1  -1  -8 2322.37   66.39
  -1  -1  -8 2310.47   66.79
  -1  -1  -8 2228.08   67.29
   1   1   8 2299.17   67.09
   1   1   8 2281.37   66.59
   1   1   8 2252.47   66.59
   1   1   8 2265.97   67.59
   1   1   8 2254.57   66.29
  -2  -1  -8   85.09    7.80
  -2  -1  -8   98.29    6.90
  -2  -1  -8   90.29    6.20
  -2  -1  -8   88.29    6.20
   2   1   8   89.79    5.70
   2   1   8   84.29    7.90
   2   1   8   92.89    7.00
   2   1   8   89.29    6.50
  -3  -1  -8  463.65   20.40
  -3  -1  -8  481.45   17.90
  -3  -1  -8  469.25   18.20
  -3  -1  -8  441.46   19.00
  -3  -1  -8  478.25   17.30
  -3  -1  -8  460.25   13.90
   3   1   8  460.95   18.70
   3   1   8  469.35   20.00
   3   1   8  486.55   16.90
   3   1   8  472.75   17.60
  -4  -1  -8  191.58    7.10
  -4  -1  -8  203.58   18.60
  -4  -1  -8  192.78   11.70
  -4  -1  -8  211.08   12.80
  -4  -1  -8  205.38   13.00
   4   1   8  205.98   16.10
   4   1   8  193.48   11.40
   4   1   8  205.58   13.60
   4   1   8  199.28   10.60
  -5  -1  -8   98.59   12.00
  -5  -1  -8   96.09   15.30
  -5  -1  -8   90.19    5.00
  -5  -1  -8  101.59   13.40
  -5  -1  -8  103.49   12.80
  -5  -1  -8   90.59   15.00
   5   1   8  118.89   16.80
   5   1   8   86.59    9.70
   5   1   8   70.19   10.90
  -6  -1  -8   11.70    3.20
  -6  -1  -8   13.00   11.40
  -6  -1  -8    3.30    9.10
  -6  -1  -8   11.30   13.00
  -6  -1  -8    5.50   13.00
  -6  -1  -8    4.40   10.70
   6   1   8    5.20    8.20
   6   1   8   10.00    6.90
   6   1   8    5.70   15.20
   6   1   8   16.20   14.90
   5  -2  -8   56.89    8.40
   5  -2  -8   42.10   12.10
   5  -2  -8   26.40    7.10
   5  -2  -8   46.90    8.20
   5  -2  -8   40.50    7.60
  -5   2   8   42.70    6.20
  -5   2   8   57.09    9.90
  -5   2   8   55.29    5.10
   4  -2  -8   30.60    8.40
   4  -2  -8   40.60    5.70
   4  -2  -8   31.10    6.10
   4  -2  -8   35.40    5.00
  -4   2   8   24.30    7.10
  -4   2   8   32.00    4.50
  -4   2   8   32.20    3.60
   3  -2  -8  286.67   14.10
   3  -2  -8  275.07   10.90
   3  -2  -8  264.07   11.10
   3  -2  -8  282.07   11.70
  -3   2   8  253.77   13.00
  -3   2   8  260.57    9.60
  -3   2   8  268.97   10.80
  -3   2   8  244.48    9.60
   2  -2  -8   63.19    5.70
   2  -2  -8   69.69    5.40
   2  -2  -8   69.09    7.20
   2  -2  -8   69.49    5.40
   2  -2  -8   68.39    6.50
   2  -2  -8   66.69    5.20
  -2   2   8   70.39    8.10
  -2   2   8   75.29    5.30
  -2   2   8   74.09    4.40
  -2   2   8   77.09    7.30
  -2   2   8   72.79    3.80
   1  -2  -8  554.94   18.70
   1  -2  -8  599.34   19.10
   1  -2  -8  576.84   19.20
   1  -2  -8  563.24   18.30
   1  -2  -8  588.24   18.40
  -1   2   8  579.84   18.40
  -1   2   8  596.74   19.20
  -1   2   8  589.24   18.90
  -1   2   8  592.64   17.60
  -1   2   8  587.84   19.20
  -1   2   8  568.84   19.00
   0  -2  -8  579.54   18.90
   0  -2  -8  588.34   19.90
   0  -2  -8  613.74   18.80
   0  -2  -8  596.64   19.20
   0  -2  -8  575.74   19.50
   0   2   8  603.04   19.40
   0   2   8  583.14   19.20
   0   2   8  611.04   19.10
   0   2   8  587.24   19.90
   0   2   8  591.44   17.20
   0   2   8  608.24   19.30
  -1  -2  -8  411.96   13.90
  -1  -2  -8  389.66   14.10
  -1  -2  -8  398.06   15.20
  -1  -2  -8  383.06   14.20
   1   2   8  400.26   13.60
   1   2   8  397.66   14.20
   1   2   8  389.66   15.20
   1   2   8  407.76   14.10
   1   2   8  388.56   14.50
  -2  -2  -8  234.08   10.70
  -2  -2  -8  245.18   11.00
  -2  -2  -8  235.48   11.90
  -2  -2  -8  251.97   10.50
   2   2   8  218.58   12.00
   2   2   8  260.27   10.80
   2   2   8  235.08    9.80
   2   2   8  241.48   11.30
  -3  -2  -8    6.00    4.80
  -3  -2  -8    7.40    4.10
  -3  -2  -8    9.20    5.60
   3   2   8    3.80    3.20
   3   2   8    3.20    4.50
   3   2   8    9.90    6.30
   3   2   8    3.20    4.00
  -4  -2  -8   45.00   11.10
  -4  -2  -8   52.39    9.50
  -4  -2  -8   67.59    9.70
  -4  -2  -8   40.20    6.70
  -4  -2  -8   44.30    7.50
  -4  -2  -8   45.50    4.40
   4   2   8   37.40    9.20
   4   2   8   43.10    5.60
   4   2   8   40.90    9.40
   4   2   8   44.50    8.10
  -5  -2  -8   69.59    4.40
  -5  -2  -8   70.59    9.70
  -5  -2  -8   77.39   11.10
  -5  -2  -8   70.29   10.00
  -5  -2  -8   67.09   11.60
  -5  -2  -8   58.19   11.40
   5   2   8   55.79   11.70
   5   2   8   80.39   12.70
   5   2   8   63.49    9.10
   5   2   8   83.09   10.40
  -6  -2  -8  -17.80   13.50
  -6  -2  -8  -23.40   10.90
  -6  -2  -8  -12.20   10.70
  -6  -2  -8   -0.30    2.90
  -6  -2  -8    0.90   11.90
  -6  -2  -8   28.00   13.70
   6   2   8  -16.90    7.90
   6   2   8    2.40   15.30
   6   2   8   14.00   14.50
   6   2   8   -0.30    7.50
   5  -3  -8   20.00   12.30
   5  -3  -8   11.40    5.00
  -5   3   8    9.00    3.00
   4  -3  -8   -2.70    3.80
   4  -3  -8   -2.80    3.60
   4  -3  -8    4.30    7.80
  -4   3   8   -1.10    2.30
   3  -3  -8   -1.30    3.20
   3  -3  -8    1.10    4.00
   3  -3  -8    3.00    2.90
  -3   3   8    1.30    1.90
   2  -3  -8  418.66   15.30
   2  -3  -8  427.86   14.50
   2  -3  -8  428.86   17.00
   2  -3  -8  422.16   14.00
  -2   3   8  427.46   13.50
  -2   3   8  418.96   15.40
  -2   3   8  414.86   13.90
   1  -3  -8   34.40    3.60
   1  -3  -8   33.00    4.00
   1  -3  -8   30.10    4.70
   1  -3  -8   38.40    4.40
  -1   3   8   37.80    4.70
  -1   3   8   35.50    4.30
  -1   3   8   34.30    4.00
  -1   3   8   32.70    2.50
  -1   3   8   31.00    3.80
   0  -3  -8    1.20    2.50
   0  -3  -8    5.00    2.70
   0  -3  -8    1.80    2.10
   0  -3  -8    6.90    3.10
   0  -3  -8    2.20    2.10
   0   3   8    5.40    2.30
   0   3   8    3.80    1.10
   0   3   8    0.20    2.20
   0   3   8    2.20    2.50
   0   3   8   -3.60    3.10
   0   3   8    0.80    2.20
  -1  -3  -8  600.24   22.10
  -1  -3  -8  614.64   21.20
  -1  -3  -8  648.54   21.20
  -1  -3  -8  654.13   20.70
   1   3   8  631.84   22.40
   1   3   8  652.43   20.90
   1   3   8  652.93   21.70
   1   3   8  650.23   20.40
   1   3   8  641.24   21.20
  -2  -3  -8  157.78    8.60
  -2  -3  -8  154.58    9.40
  -2  -3  -8  156.58   10.90
  -2  -3  -8  150.88    8.80
   2   3   8  173.98   11.10
   2   3   8  154.38    8.80
   2   3   8  143.39    9.80
   2   3   8  159.48    8.00
   2   3   8  165.88    8.70
  -3  -3  -8   55.19    6.70
  -3  -3  -8   46.00    6.10
  -3  -3  -8   69.89   10.30
  -3  -3  -8   65.19    9.20
  -3  -3  -8   75.29   10.60
   3   3   8   60.69    7.20
   3   3   8   63.79    8.80
   3   3   8   51.39    6.40
   3   3   8   64.89    6.80
  -4  -3  -8   64.79    4.30
  -4  -3  -8   63.19   10.30
  -4  -3  -8   77.99   11.20
  -4  -3  -8  104.69   13.10
  -4  -3  -8   78.79   10.80
   4   3   8   78.69   11.40
   4   3   8   88.79    9.10
   4   3   8   99.09   13.40
  -5  -3  -8   -0.90    8.80
  -5  -3  -8   14.70    9.80
  -5  -3  -8  -12.70   10.40
  -5  -3  -8   12.40    8.70
  -5  -3  -8   29.60   10.30
   5   3   8   19.00   11.50
   5   3   8   13.20   10.30
   4  -4  -8    7.90    9.60
   4  -4  -8   10.50    5.00
  -4   4   8    9.30    2.60
   3  -4  -8   37.00    7.40
   3  -4  -8   43.50    5.80
  -3   4   8   32.00    3.60
   2  -4  -8  835.02   27.80
   2  -4  -8  785.62   26.30
   2  -4  -8  758.62   24.70
  -2   4   8  793.12   24.10
   1  -4  -8   37.60    5.20
   1  -4  -8   42.50    4.70
   1  -4  -8   29.60    3.70
  -1   4   8   29.60    3.80
  -1   4   8   35.40    3.80
  -1   4   8   36.90    2.90
  -1   4   8   33.50    4.70
   0  -4  -8  183.98    8.80
   0  -4  -8  200.58    8.50
   0  -4  -8  191.88    8.00
   0  -4  -8  172.58    9.80
   0  -4  -8  197.48    9.60
   0   4   8  201.78   10.20
   0   4   8  182.98    7.70
   0   4   8  199.68    9.20
   0   4   8  189.48    8.30
   0   4   8  192.88    7.00
   0   4   8  193.08    8.80
  -1  -4  -8  339.37   15.10
  -1  -4  -8  358.76   13.70
  -1  -4  -8  346.67   13.60
  -1  -4  -8  340.27   12.80
   1   4   8  331.27   13.80
   1   4   8  345.57   13.20
   1   4   8  341.87   12.40
   1   4   8  351.46   15.50
   1   4   8  342.07   13.30
  -2  -4  -8    2.50    4.10
  -2  -4  -8    5.30    5.10
  -2  -4  -8    8.30    4.70
  -2  -4  -8    2.30    3.90
   2   4   8   11.50    3.90
   2   4   8    9.70    5.90
   2   4   8    3.00    2.90
   2   4   8   -2.90    3.30
   2   4   8    2.50    4.60
  -3  -4  -8  167.58   11.90
  -3  -4  -8  190.08   11.70
  -3  -4  -8  154.78   13.70
   3   4   8  178.08   11.60
   3   4   8  186.88   10.40
   3   4   8  196.48   13.60
  -4  -4  -8   22.10    7.10
  -4  -4  -8    9.40    7.30
  -4  -4  -8   11.20    7.70
  -4  -4  -8    5.40    8.50
   4   4   8   21.50    9.40
   4   4   8    9.60    8.80
   4   4   8   15.00    5.30
  -5  -4  -8  -13.60    9.40
  -5  -4  -8   26.40   10.70
  -5  -4  -8    0.90    2.90
  -5  -4  -8   17.10   11.30
  -5  -4  -8    4.30   10.70
  -5  -4  -8   -2.00    9.20
   5   4   8   10.50   10.60
   5   4   8   -4.60    6.50
   5   4   8   22.70   12.50
   5   4   8   -2.90    7.70
   4  -5  -8    7.30    5.30
   4  -5  -8    9.20    6.10
   4  -5  -8   18.40   11.10
  -4   5   8    4.60    2.60
   3  -5  -8   11.00    4.20
   3  -5  -8   18.00    8.00
   3  -5  -8   20.50    4.90
  -3   5   8   13.60    2.70
   2  -5  -8    0.30    3.60
   2  -5  -8    4.90    3.90
  -2   5   8   -0.80    1.90
   1  -5  -8  117.69   12.30
  -1   5   8  158.08    6.20
   0  -5  -8  341.27   12.20
   0   5   8  339.77   11.90
   0   5   8  354.16   13.40
   0   5   8  349.57   11.50
   0   5   8  340.67   13.90
  -1  -5  -8  142.29    9.10
  -1  -5  -8  126.99   10.60
  -1  -5  -8  129.09    7.70
  -1  -5  -8  138.69    9.10
   1   5   8  133.49    8.30
   1   5   8  141.29    9.70
   1   5   8  104.89   11.30
   1   5   8  132.29    8.00
  -2  -5  -8   27.60    6.80
  -2  -5  -8   35.30    7.90
  -2  -5  -8   26.20    5.40
  -2  -5  -8   26.50    5.50
   2   5   8   31.00    4.40
   2   5   8   21.70    8.10
   2   5   8   17.30    8.80
   2   5   8   21.20    5.30
  -3  -5  -8  802.12   29.60
  -3  -5  -8  780.42   31.70
  -3  -5  -8  823.12   28.60
  -3  -5  -8  776.02   29.20
  -3  -5  -8  730.73   30.90
   3   5   8  801.02   28.50
   3   5   8  785.42   27.70
   3   5   8  786.52   30.00
   3   5   8  751.22   30.70
   3   5   8  818.62   27.30
  -4  -5  -8  101.79   14.80
  -4  -5  -8   98.49   16.70
  -4  -5  -8  160.18   17.10
  -4  -5  -8  153.88   15.00
   4   5   8  134.49   17.40
   4   5   8  149.09   12.10
   4   5   8  133.79   18.30
  -5  -5  -8    6.00   13.40
  -5  -5  -8   16.10   12.30
  -5  -5  -8   18.90   10.70
  -5  -5  -8   17.70   10.50
  -5  -5  -8   23.20   12.20
   5   5   8    3.50    7.90
   5   5   8    5.80    9.30
   5   5   8   40.10   13.10
   5   5   8   10.60   13.30
   3  -6  -8   25.30    6.00
   3  -6  -8   31.60    6.70
   3  -6  -8   30.80    9.50
  -3   6   8   24.00    3.80
   2  -6  -8    5.30    6.30
   2  -6  -8   -5.30    4.90
   2  -6  -8   -0.50    4.30
  -2   6   8    0.20    2.20
   1  -6  -8   -9.50    4.20
  -1   6   8   -0.40    2.30
  -1   6   8    1.20    3.50
   0  -6  -8    4.40    3.10
   0   6   8    1.90    2.60
   0   6   8   -0.90    3.60
  -1  -6  -8  133.59   12.80
  -1  -6  -8  158.88    9.10
  -1  -6  -8  177.08   12.20
  -1  -6  -8  146.89   11.30
   1   6   8  171.38   12.20
   1   6   8  156.28    9.20
   1   6   8  151.88    7.70
   1   6   8  148.39    9.50
  -2  -6  -8  218.98   13.80
  -2  -6  -8  209.68   11.90
  -2  -6  -8  209.98   15.40
  -2  -6  -8  193.78   13.30
   2   6   8  223.08   11.40
   2   6   8  204.68   10.80
   2   6   8  214.88   16.10
   2   6   8  187.28   14.50
   2   6   8  175.98   12.20
  -3  -6  -8  137.69   15.00
  -3  -6  -8  150.08   16.50
  -3  -6  -8  109.79   13.60
  -3  -6  -8  131.99   13.50
  -3  -6  -8  146.49   17.20
   3   6   8  156.28   11.70
   3   6   8  156.28   17.80
   3   6   8  138.79   11.10
   3   6   8  113.59   12.70
   3   6   8  124.79   16.40
  -4  -6  -8    8.70   10.00
  -4  -6  -8   24.10   10.10
  -4  -6  -8   20.60   14.00
  -4  -6  -8  -10.20   10.70
  -4  -6  -8   15.70    9.00
   4   6   8   30.90   10.30
   4   6   8   26.70   11.70
   4   6   8   20.30   11.90
   4   6   8   13.60    7.00
   4   6   8   17.40    7.40
   2  -7  -8   80.69   11.30
   2  -7  -8   69.99   10.10
   2  -7  -8   73.19    8.40
  -2   7   8   70.49    5.70
   1  -7  -8   26.60    6.30
  -1   7   8   27.70    4.00
   0   7   8   29.50    5.40
   0   7   8   31.00    4.20
  -1  -7  -8   98.19   11.50
  -1  -7  -8   85.79    8.60
   1   7   8   86.99    6.60
   1   7   8   74.29    8.50
   1   7   8   66.39    8.90
  -2  -7  -8  389.46   17.90
  -2  -7  -8  456.15   20.80
  -2  -7  -8  412.86   19.90
  -2  -7  -8  399.46   22.40
   2   7   8  396.36   18.80
   2   7   8  379.86   20.30
   2   7   8  444.16   23.50
   2   7   8  423.66   17.50
  -3  -7  -8   62.09   10.10
  -3  -7  -8   71.29   12.70
  -3  -7  -8   87.99   10.30
  -3  -7  -8   57.19   12.90
  -3  -7  -8   74.99   12.10
   3   7   8   75.69   13.50
   3   7   8   48.10   11.10
   3   7   8   58.59    8.00
   3   7   8   52.29    9.60
   3   7   8   70.09    9.10
  -4  -7  -8  -12.70   14.10
  -4  -7  -8   17.70   11.20
  -4  -7  -8   12.20   12.40
  -4  -7  -8   10.70   10.70
  -4  -7  -8    7.80   12.70
   4   7   8    8.40   12.10
   4   7   8   22.30    8.40
   4   7   8   13.90    8.60
   4   7   8   11.30   10.00
   4   7   8   -3.20   13.40
   1  -8  -8   58.89    9.40
   1  -8  -8   91.99   13.30
  -1   8   8   69.09    6.90
   0   8   8   45.60    7.40
   0   8   8   34.60    5.20
  -1  -8  -8  222.58   16.60
  -1  -8  -8  203.88   12.60
   1   8   8  214.98   12.70
  -2  -8  -8   52.89    8.80
  -2  -8  -8   65.49   10.90
  -2  -8  -8   44.00   12.20
  -2  -8  -8   48.80   12.40
  -2  -8  -8   46.10   10.70
   2   8   8   37.30    9.50
   2   8   8   54.89    6.20
   2   8   8   31.10   11.00
   2   8   8   50.99    7.90
   3   6  -9    8.10    9.40
   3   6  -9   43.80   14.70
   3   6  -9   27.50   10.70
   3   6  -9   38.00   13.50
  -3  -6   9   30.90   15.70
  -3  -6   9   45.50   15.50
  -3  -6   9   34.40    8.20
  -3  -6   9   34.20    8.30
  -3  -6   9   27.30    9.60
   2   6  -9   22.30    7.20
   2   6  -9   20.20   12.20
   2   6  -9   19.50    6.90
   2   6  -9   38.10   10.80
  -2  -6   9   15.70    7.10
  -2  -6   9   26.30   12.30
  -2  -6   9   44.90   13.00
  -2  -6   9   18.90    5.80
  -2  -6   9   25.80    7.00
   1   6  -9   83.49    9.70
   1   6  -9   77.29   11.00
   1   6  -9   72.79   12.90
   1   6  -9   69.59    8.30
  -1  -6   9   95.29    9.00
  -1  -6   9   94.89   11.40
  -1  -6   9   96.39   11.50
  -1  -6   9   62.09   12.30
  -1  -6   9  117.89   19.20
   0   6  -9   -4.50    9.00
   0   6  -9   -6.20    4.30
   0   6  -9    4.90    6.00
   0   6  -9    6.50    8.40
   0  -6   9    1.40    4.70
   0  -6   9    2.80    9.40
   0  -6   9    2.80    5.80
   0  -6   9   -3.70   10.50
   0  -6   9   -7.60    6.40
  -1   6  -9    1.90    8.10
  -1   6  -9   20.40    6.40
  -1   6  -9    6.20    9.70
  -1   6  -9   11.60    4.80
   1  -6   9    5.70    7.60
   1  -6   9   -3.20    6.90
   1  -6   9   -4.00    8.80
   1  -6   9   -3.70   11.40
   1  -6   9    2.30    4.70
   4   5  -9   14.20   11.00
   4   5  -9   13.60   15.80
   4   5  -9   19.20   14.30
   4   5  -9   29.30   11.60
   4   5  -9   55.19   14.00
  -4  -5   9   53.59   15.30
  -4  -5   9   10.30   15.90
  -4  -5   9   38.20    6.90
  -4  -5   9   27.90    7.60
  -4  -5   9   22.10    8.80
   3   5  -9    1.60   10.90
   3   5  -9  -13.60    8.60
   3   5  -9    0.20    9.80
   3   5  -9    4.50    7.90
  -3  -5   9    3.80    5.10
  -3  -5   9   -2.40   11.50
  -3  -5   9    3.40   11.50
  -3  -5   9    3.00    7.10
  -3  -5   9   -0.10    5.50
   2   5  -9   26.00    8.60
   2   5  -9   12.90    6.10
   2   5  -9   23.80    7.30
  -2  -5   9   29.50   10.40
  -2  -5   9   25.50    5.30
  -2  -5   9   24.30    5.50
  -2  -5   9   14.90   10.10
   1   5  -9   72.19    8.50
   1   5  -9   80.89    9.00
   1   5  -9   82.39   12.30
   1   5  -9   71.19   10.20
  -1  -5   9   72.99   10.50
  -1  -5   9   97.29    9.20
  -1  -5   9   78.49    7.70
  -1  -5   9  111.19   16.00
  -1  -5   9   81.19    9.70
   0   5  -9  205.58   10.40
   0   5  -9  205.78   11.40
   0   5  -9  202.28   15.90
   0   5  -9  219.58   14.10
   0  -5   9  178.28   10.20
   0  -5   9  206.78   16.00
   0  -5   9  187.88   15.10
   0  -5   9  189.48   11.90
  -1   5  -9   41.10    8.30
  -1   5  -9   37.00    6.40
  -1   5  -9   37.90    4.90
  -1   5  -9   32.70    6.80
   1  -5   9   30.20    6.30
   1  -5   9   30.30    4.80
   1  -5   9   34.00    7.40
   1  -5   9   40.30    8.90
   1  -5   9   37.30    6.70
  -2   5  -9  139.99   12.10
  -2   5  -9  146.69   14.20
  -2   5  -9  140.39    9.60
  -2   5  -9  163.28   13.00
   2  -5   9  140.39   13.80
   2  -5   9  145.49   13.20
   2  -5   9  126.89   14.90
   2  -5   9  128.09   10.90
   2  -5   9  110.19   12.90
  -3   5  -9    6.30    9.70
  -3   5  -9    9.60    4.50
  -3   5  -9    5.00    8.50
  -3   5  -9    6.90    9.00
  -3   5  -9   -8.50    5.80
   3  -5   9   -1.70    9.40
   3  -5   9   -1.60    9.60
   3  -5   9   -3.10    6.90
   3  -5   9  -11.70    7.60
   4   4  -9   25.80   12.70
   4   4  -9   17.00   12.20
   4   4  -9   27.80    4.80
   4   4  -9   31.60   10.90
   4   4  -9   33.10    9.70
   4   4  -9   36.90   12.70
  -4  -4   9   34.60   13.20
  -4  -4   9   20.90   13.50
  -4  -4   9   24.70    7.90
   3   4  -9  368.86   20.10
   3   4  -9  395.16   18.50
   3   4  -9  363.46   22.30
   3   4  -9  344.37   18.20
   3   4  -9  400.46   20.20
  -3  -4   9  397.36   23.90
  -3  -4   9  423.66   23.10
  -3  -4   9  387.66   17.80
  -3  -4   9  368.76   14.40
  -3  -4   9  374.66   16.30
   2   4  -9   11.80    6.20
   2   4  -9   -7.00    5.00
   2   4  -9   -5.40    4.70
   2   4  -9   -7.60    5.80
  -2  -4   9    4.50    3.70
  -2  -4   9   -3.90    3.60
  -2  -4   9    5.80    7.60
  -2  -4   9   -0.10    4.50
  -2  -4   9    0.10    8.40
   1   4  -9  193.28   10.60
   1   4  -9  209.38   13.00
   1   4  -9  213.68   14.20
   1   4  -9  197.48   10.80
  -1  -4   9  197.48   11.10
  -1  -4   9  209.28   14.10
  -1  -4   9  197.28   10.00
  -1  -4   9  204.58   10.20
  -1  -4   9  200.78   14.80
   0   4  -9    0.30    3.70
   0   4  -9    6.50    5.90
   0   4  -9   -1.10    5.00
   0  -4   9   -0.30    6.10
   0  -4   9    1.90    4.20
   0  -4   9   -4.20    4.10
   0  -4   9    4.10    3.40
  -1   4  -9  355.76   15.10
  -1   4  -9  411.86   17.10
  -1   4  -9  391.56   14.30
  -1   4  -9  348.67   15.40
   1  -4   9  337.57   14.10
   1  -4   9  355.16   16.80
   1  -4   9  348.87   15.80
   1  -4   9  340.07   16.40
   1  -4   9  359.56   15.50
  -2   4  -9   31.20    4.40
  -2   4  -9   42.60    6.10
  -2   4  -9   29.30    6.70
  -2   4  -9   42.50    6.80
  -2   4  -9   22.80    6.40
   2  -4   9   36.00    7.00
   2  -4   9   33.30    7.20
   2  -4   9   28.20    5.60
   2  -4   9   28.40    6.40
   2  -4   9   23.40    6.30
  -3   4  -9   -8.40    6.60
  -3   4  -9   -0.60    8.00
  -3   4  -9    2.70    5.50
  -3   4  -9    8.60    6.90
  -3   4  -9   -3.20    4.90
  -3   4  -9    6.20    4.00
   3  -4   9   -3.80    7.80
   3  -4   9    7.70    7.10
   3  -4   9   15.50    5.90
   3  -4   9   -6.90    6.10
  -4   4  -9    9.10    8.30
  -4   4  -9   14.40    8.50
  -4   4  -9   -5.70   10.30
   4  -4   9   -3.50    8.30
   4  -4   9   27.20   11.00
   5   3  -9   64.19   12.00
   5   3  -9   61.09   13.20
   5   3  -9   62.59   11.80
   5   3  -9   89.49   15.70
   5   3  -9   56.79   15.00
  -5  -3   9   87.59   17.70
  -5  -3   9  104.39   12.60
  -5  -3   9   74.09   15.70
  -5  -3   9   69.19   11.20
   4   3  -9  257.37   18.50
   4   3  -9  234.58   10.90
   4   3  -9  233.08   20.40
   4   3  -9  227.68   19.10
   4   3  -9  213.58   16.40
   4   3  -9  232.98   17.40
  -4  -3   9  237.78   23.40
  -4  -3   9  230.38   14.90
  -4  -3   9  249.18   20.70
   3   3  -9    3.90    3.00
   3   3  -9   -8.50    7.70
   3   3  -9   -0.80    6.80
   3   3  -9   10.60    6.30
   3   3  -9    5.80    6.90
   3   3  -9  -16.90   10.50
  -3  -3   9    3.90    4.70
  -3  -3   9    2.10    8.50
  -3  -3   9    3.80    4.20
   2   3  -9   33.50    5.80
   2   3  -9   32.80    7.10
   2   3  -9   49.90    6.90
   2   3  -9   41.30    6.70
   2   3  -9   44.70    6.20
  -2  -3   9   45.60    8.30
  -2  -3   9   43.50    6.00
  -2  -3   9   44.00    8.90
  -2  -3   9   42.10    5.70
   1   3  -9   98.69   10.40
   1   3  -9   93.29    7.30
   1   3  -9  103.09    7.60
   1   3  -9  105.39    8.30
   1   3  -9   91.49    9.10
  -1  -3   9  109.79    8.10
  -1  -3   9  101.29    6.60
  -1  -3   9  115.49    7.00
  -1  -3   9   84.89   11.00
  -1  -3   9  132.49   11.10
   0   3  -9   60.09    6.40
   0   3  -9   61.39    5.80
   0   3  -9   81.09    8.80
   0   3  -9   63.19    7.50
   0  -3   9   58.99    8.90
   0  -3   9   55.39    7.20
   0  -3   9   61.19    8.50
   0  -3   9   58.09    6.00
   0  -3   9   79.09    6.50
  -1   3  -9  107.29    8.70
  -1   3  -9  108.79    9.50
  -1   3  -9  105.49    9.30
  -1   3  -9  105.59    8.00
  -1   3  -9  109.59    7.00
   1  -3   9  105.29    9.70
   1  -3   9  100.99    8.20
   1  -3   9  104.89    9.00
   1  -3   9   93.69    7.00
   1  -3   9   97.49    8.80
  -2   3  -9  250.87   11.00
  -2   3  -9  244.48   12.90
  -2   3  -9  224.68   10.90
  -2   3  -9  215.38    9.40
  -2   3  -9  223.78   11.90
  -2   3  -9  230.88   12.40
   2  -3   9  226.28   13.20
   2  -3   9  243.38   12.40
   2  -3   9  233.68   11.80
   2  -3   9  223.18   11.70
  -3   3  -9   17.80    5.60
  -3   3  -9    7.70    5.70
  -3   3  -9   14.90    3.50
  -3   3  -9   10.40    4.40
  -3   3  -9   16.80    5.80
  -3   3  -9    7.30    7.20
  -3   3  -9   10.10    6.70
   3  -3   9   12.70    5.00
   3  -3   9   16.20    7.50
   3  -3   9    8.80    5.40
   3  -3   9   15.70    5.70
  -4   3  -9   60.39   10.30
  -4   3  -9   55.99    8.00
  -4   3  -9   57.59    5.90
  -4   3  -9   53.59    7.50
  -4   3  -9   61.39    9.10
  -4   3  -9   53.99    9.90
  -4   3  -9   37.80    6.20
   4  -3   9   56.89    9.30
   4  -3   9   69.29   11.20
   4  -3   9   52.59    6.90
   4  -3   9   67.29   11.20
   5   2  -9  320.57   25.00
   5   2  -9  313.37   21.60
   5   2  -9  301.07   24.20
   5   2  -9  311.57   20.70
   5   2  -9  305.97   21.20
  -5  -2   9  329.47   25.20
  -5  -2   9  282.77   18.10
  -5  -2   9  366.26   28.70
   4   2  -9   20.30    7.50
   4   2  -9   26.90    8.30
   4   2  -9   20.50    7.70
   4   2  -9   25.00    9.80
   4   2  -9   22.00    9.40
   4   2  -9   22.30    4.70
  -4  -2   9   22.80    6.10
  -4  -2   9    2.00   11.30
  -4  -2   9   38.10   10.40
  -4  -2   9   16.40    5.20
   3   2  -9    7.60    3.00
   3   2  -9   10.00    5.40
   3   2  -9    9.40    6.00
   3   2  -9   -8.80    6.40
   3   2  -9    1.80    6.40
   3   2  -9  -10.70    4.90
  -3  -2   9    0.70    3.90
  -3  -2   9  -11.60    7.50
  -3  -2   9    9.00    7.90
  -3  -2   9    5.80    4.60
   2   2  -9   75.69    4.90
   2   2  -9   65.29    8.90
   2   2  -9   68.89    7.50
   2   2  -9   78.79    7.40
   2   2  -9   91.39    9.10
   2   2  -9   84.59    9.60
  -2  -2   9   68.49    6.00
  -2  -2   9   75.79   11.60
  -2  -2   9   62.99    7.10
  -2  -2   9   74.49   10.40
   1   2  -9   20.00    4.00
   1   2  -9   14.00    3.60
   1   2  -9   13.80    4.40
   1   2  -9   14.90    3.90
   1   2  -9   19.00    5.10
  -1  -2   9   19.90    3.30
  -1  -2   9   19.80    3.00
  -1  -2   9   15.30    5.60
  -1  -2   9   22.30    5.30
  -1  -2   9   20.90    3.80
   0   2  -9  177.98   10.00
   0   2  -9  179.28    9.00
   0   2  -9  177.88    8.50
   0   2  -9  164.98    8.20
   0   2  -9  172.18    8.20
   0  -2   9  184.88   10.20
   0  -2   9  172.58    8.30
   0  -2   9  177.78    9.10
   0  -2   9  170.88   10.20
  -1   2  -9   29.60    3.90
  -1   2  -9   30.50    4.50
  -1   2  -9   24.70    3.90
  -1   2  -9   29.50    4.90
  -1   2  -9   27.20    4.30
   1  -2   9   27.30    4.80
   1  -2   9   26.10    3.50
   1  -2   9   28.20    3.80
   1  -2   9   34.10    5.10
   1  -2   9   33.40    5.10
  -2   2  -9  461.55   16.90
  -2   2  -9  497.75   17.80
  -2   2  -9  505.55   18.50
  -2   2  -9  506.85   19.00
  -2   2  -9  486.55   18.10
  -2   2  -9  473.75   19.40
   2  -2   9  474.65   19.50
   2  -2   9  497.45   18.20
   2  -2   9  499.55   18.00
   2  -2   9  495.75   18.40
  -3   2  -9    2.30    4.70
  -3   2  -9   -3.70    4.80
  -3   2  -9   -0.40    4.30
  -3   2  -9   -8.30    6.20
  -3   2  -9    8.10    3.70
  -3   2  -9    1.80    2.70
  -3   2  -9   14.40    6.50
   3  -2   9    2.20    4.10
   3  -2   9   -3.50    6.40
   3  -2   9   -0.80    4.20
  -4   2  -9   65.59   10.70
  -4   2  -9   58.69    8.40
  -4   2  -9   49.30    7.80
  -4   2  -9   47.20   10.20
  -4   2  -9   63.19    9.90
  -4   2  -9   46.60    7.30
  -4   2  -9   52.09    5.10
   4  -2   9   51.09    6.30
   4  -2   9   49.60    9.70
   4  -2   9   54.89    7.00
   4  -2   9   45.90    8.90
  -5   2  -9  129.19   15.10
  -5   2  -9  133.89   11.90
  -5   2  -9  148.89   19.60
  -5   2  -9  125.59   15.30
  -5   2  -9  126.49    7.40
  -5   2  -9  108.79   15.70
   5  -2   9  108.69   16.50
   5  -2   9  126.39   11.20
   5  -2   9  157.58   19.20
   5  -2   9  129.99   12.40
   5   1  -9   85.09   13.90
   5   1  -9   93.79   11.60
   5   1  -9   79.99   13.70
   5   1  -9   72.49   10.90
   5   1  -9   93.49    9.70
   5   1  -9  104.09   16.80
  -5  -1   9   93.79   14.10
  -5  -1   9   76.09   12.10
  -5  -1   9   86.79   15.60
  -5  -1   9   78.09    9.70
   4   1  -9    8.70    7.10
   4   1  -9    5.90    7.90
   4   1  -9   10.50    7.00
   4   1  -9    5.40    4.00
   4   1  -9   11.50    6.40
   4   1  -9    6.10    8.40
  -4  -1   9   12.40    5.60
  -4  -1   9   18.30    9.60
  -4  -1   9    3.70    4.00
  -4  -1   9   -7.20    9.80
   3   1  -9   47.80    5.50
   3   1  -9   82.79    9.70
   3   1  -9   48.00    6.50
   3   1  -9   60.39    8.00
   3   1  -9   85.09   11.10
  -3  -1   9   65.29    5.90
  -3  -1   9   56.39    9.00
  -3  -1   9   94.09   13.80
  -3  -1   9   53.79    8.60
   2   1  -9    8.20    3.30
   2   1  -9   13.50    4.50
   2   1  -9   16.10    4.90
   2   1  -9   14.60    2.90
   2   1  -9   12.00    5.00
   2   1  -9   10.50    3.70
  -2  -1   9   11.50    5.60
  -2  -1   9   15.80    2.90
  -2  -1   9   19.10    6.30
  -2  -1   9   11.40    3.50
   1   1  -9   22.50    3.00
   1   1  -9   26.80    3.80
   1   1  -9   26.40    4.10
   1   1  -9   25.10    4.60
   1   1  -9   17.10    3.50
  -1  -1   9   27.40    3.40
  -1  -1   9   23.20    5.30
  -1  -1   9   21.40    4.80
  -1  -1   9   23.50    3.90
   0   1  -9    3.00    2.10
   0   1  -9    2.20    3.20
   0   1  -9    1.60    2.30
   0   1  -9    4.50    2.60
   0   1  -9    1.70    2.60
   0  -1   9   10.00    3.40
   0  -1   9    0.90    2.20
   0  -1   9   -0.10    3.20
   0  -1   9    0.60    3.10
   0  -1   9    0.90    1.70
  -1   1  -9  445.46   15.50
  -1   1  -9  449.16   15.80
  -1   1  -9  453.85   15.80
  -1   1  -9  459.15   16.40
  -1   1  -9  432.06   16.20
   1  -1   9  442.46   15.00
   1  -1   9  487.05   16.40
   1  -1   9  447.26   16.90
   1  -1   9  456.45   16.40
   1  -1   9  448.36   16.00
  -2   1  -9  356.76   14.90
  -2   1  -9  360.16   14.00
  -2   1  -9  357.96   16.00
  -2   1  -9  363.56   13.50
  -2   1  -9  373.16   14.40
  -2   1  -9  352.36   14.10
   2  -1   9  345.67   14.40
   2  -1   9  347.37   13.80
   2  -1   9  332.17   15.50
   2  -1   9  366.36   13.80
  -3   1  -9    4.50    4.90
  -3   1  -9    6.90    4.00
  -3   1  -9    4.60    4.40
  -3   1  -9    3.80    2.30
  -3   1  -9   -8.90    6.20
  -3   1  -9   -1.40    5.80
  -3   1  -9    3.00    3.70
   3  -1   9   -0.10    3.80
   3  -1   9    7.40    6.10
   3  -1   9    1.40    4.70
   3  -1   9    7.50    3.70
  -4   1  -9   10.20    2.90
  -4   1  -9   13.50    6.00
  -4   1  -9   15.50    8.00
  -4   1  -9   11.10    5.80
  -4   1  -9   11.60    5.80
  -4   1  -9    9.30    5.10
  -4   1  -9    3.30    7.10
   4  -1   9   10.50    4.90
   4  -1   9    8.80    8.50
   4  -1   9   10.60    4.80
   4  -1   9   10.40    7.10
  -5   1  -9   48.30    5.00
  -5   1  -9   58.49    9.90
  -5   1  -9   38.30   11.60
  -5   1  -9   51.29   11.50
  -5   1  -9   45.80    7.40
  -5   1  -9   53.39    9.20
  -5   1  -9   69.69   10.10
   5  -1   9   70.99   12.30
   5  -1   9   38.10   13.70
   5  -1   9   73.29   10.10
   5  -1   9   58.89    8.00
   5   0  -9   10.90   11.30
   5   0  -9   31.80    9.10
   5   0  -9   21.90    8.40
   5   0  -9   29.10    8.60
   5   0  -9   22.20    5.90
   5   0  -9   35.60   11.90
  -5   0   9    7.10   11.30
  -5   0   9   13.90   13.00
  -5   0   9   19.10    6.80
  -5   0   9   21.40    5.00
   4   0  -9   23.40    6.00
   4   0  -9   20.30    6.70
   4   0  -9    7.30    6.10
   4   0  -9   17.50    8.10
   4   0  -9   22.90    8.00
  -4   0   9   18.50    3.90
  -4   0   9   22.30    8.60
  -4   0   9   10.70    9.50
  -4   0   9   16.00    4.80
   3   0  -9  111.39    6.70
   3   0  -9   97.69   10.60
   3   0  -9  133.19    9.70
   3   0  -9   97.99    8.40
   3   0  -9   98.79    8.10
   3   0  -9  101.99   10.20
  -3   0   9  140.59   13.80
  -3   0   9   95.59    6.20
  -3   0   9   93.29    7.40
  -3   0   9  113.99   12.50
   2   0  -9   47.40    6.00
   2   0  -9   46.70    4.60
   2   0  -9   52.09    7.10
   2   0  -9   45.40    7.20
   2   0  -9   34.40    5.90
   2   0  -9   37.10    5.50
  -2   0   9   50.59    4.50
  -2   0   9   42.10    6.20
  -2   0   9   57.89    5.60
  -2   0   9   52.09    7.00
   1   0  -9  152.88    7.30
   1   0  -9  158.48    7.20
   1   0  -9  153.48    7.80
   1   0  -9  148.59    8.70
   1   0  -9  153.18    7.80
  -1   0   9  152.48    7.20
  -1   0   9  148.79    7.80
  -1   0   9  153.48    9.60
  -1   0   9  156.68    9.30
   0   0  -9  614.14   21.00
   0   0  -9  643.24   20.70
   0   0  -9  627.94   20.60
   0   0  -9  621.34   19.80
   0   0  -9  657.03   21.40
   0   0   9  639.24   20.00
   0   0   9  634.24   21.40
   0   0   9  652.13   21.40
   0   0   9  657.83   21.60
   0   0   9  660.43   20.90
  -1   0  -9   69.39    5.10
  -1   0  -9   67.89    6.10
  -1   0  -9   57.69    5.30
  -1   0  -9   64.39    5.00
  -1   0  -9   59.09    5.70
   1   0   9   54.19    5.40
   1   0   9   59.29    5.70
   1   0   9   59.49    6.60
   1   0   9   69.39    5.90
   1   0   9   54.59    4.90
  -2   0  -9   33.70    4.90
  -2   0  -9   42.30    7.10
  -2   0  -9   38.90    5.40
  -2   0  -9   35.20    4.70
  -2   0  -9   34.00    4.60
   2   0   9   33.10    4.50
   2   0   9   34.30    5.90
   2   0   9   30.90    4.70
   2   0   9   39.90    5.20
  -3   0  -9  237.38    8.10
  -3   0  -9  237.28   11.20
  -3   0  -9  217.48   13.00
  -3   0  -9  248.98   12.00
  -3   0  -9  234.08   12.20
  -3   0  -9  239.58   15.20
  -3   0  -9  230.88   12.30
   3   0   9  246.78   11.00
   3   0   9  242.68   11.40
   3   0   9  230.08   14.30
   3   0   9  248.98   12.90
  -4   0  -9  235.38   14.00
  -4   0  -9  244.08   13.80
  -4   0  -9  257.47   14.10
  -4   0  -9  233.48   16.20
  -4   0  -9  244.48   12.70
  -4   0  -9  241.98    8.50
   4   0   9  219.18   15.40
   4   0   9  245.98   12.00
   4   0   9  227.78   12.60
   4   0   9  251.17   18.00
  -5   0  -9   47.40   11.10
  -5   0  -9   55.79    8.90
  -5   0  -9   40.30   10.60
  -5   0  -9   52.39    4.50
  -5   0  -9   59.99    9.60
  -5   0  -9   54.29    7.90
   5   0   9   72.79   10.90
   5   0   9   50.09    7.30
   5   0   9   49.60   10.70
   5  -1  -9   72.49    8.50
   5  -1  -9   35.60    8.70
   5  -1  -9   70.79   13.10
   5  -1  -9   60.29    9.50
   5  -1  -9   63.99    9.00
   5  -1  -9   73.29   12.90
  -5   1   9   62.19    8.10
  -5   1   9   50.39   13.80
  -5   1   9   52.59    5.60
  -5   1   9   55.09    5.30
   4  -1  -9    8.50    5.40
   4  -1  -9    3.00    5.60
   4  -1  -9   19.50    4.50
   4  -1  -9   15.40    8.60
   4  -1  -9   17.70    6.20
   4  -1  -9   28.20    8.50
  -4   1   9   14.70    4.70
  -4   1   9   34.20    8.20
  -4   1   9    6.60    9.70
  -4   1   9    8.70    3.30
   3  -1  -9   28.10    4.80
   3  -1  -9   24.40    4.90
   3  -1  -9   35.20    5.30
   3  -1  -9   25.70    6.40
   3  -1  -9   19.80    5.50
   3  -1  -9   18.20    4.10
  -3   1   9   31.90    4.40
  -3   1   9   28.60    4.30
  -3   1   9   45.30    8.00
  -3   1   9   24.60    6.70
   2  -1  -9   31.70    4.50
   2  -1  -9   26.20    4.90
   2  -1  -9   16.10    4.30
   2  -1  -9   24.20    3.50
   2  -1  -9   19.30    4.00
   2  -1  -9   20.10    3.90
  -2   1   9   27.00    6.10
  -2   1   9   31.80    5.60
  -2   1   9   31.90    4.90
  -2   1   9   30.20    3.40
   1  -1  -9   90.09    6.50
   1  -1  -9   91.99    5.90
   1  -1  -9   91.19    6.00
   1  -1  -9   87.29    5.40
   1  -1  -9   99.59    6.00
  -1   1   9   95.99    7.80
  -1   1   9   99.09    5.50
  -1   1   9   97.59    5.60
  -1   1   9  103.09    6.30
  -1   1   9  101.79    7.50
   0  -1  -9  101.39    6.30
   0  -1  -9   92.49    5.40
   0  -1  -9   94.09    5.50
   0  -1  -9   95.59    6.10
   0   1   9  104.99    6.40
   0   1   9  108.49    6.80
   0   1   9   98.59    5.70
   0   1   9   90.99    6.60
   0   1   9   98.79    5.50
  -1  -1  -9    2.60    2.40
  -1  -1  -9    3.70    2.70
  -1  -1  -9    1.20    2.60
  -1  -1  -9    6.80    3.20
   1   1   9    0.90    2.80
   1   1   9    4.20    2.90
   1   1   9   -1.30    2.20
   1   1   9    0.30    2.50
   1   1   9   -2.50    3.20
  -2  -1  -9   37.00    4.30
  -2  -1  -9   42.70    5.60
  -2  -1  -9   41.80    6.40
  -2  -1  -9   29.90    5.70
   2   1   9   43.10    5.80
   2   1   9   44.40    6.20
   2   1   9   32.20    4.90
   2   1   9   36.90    5.30
  -3  -1  -9  404.16   15.80
  -3  -1  -9  404.36   18.10
  -3  -1  -9  432.26   17.00
  -3  -1  -9  401.66   19.60
  -3  -1  -9  395.66   16.60
   3   1   9  419.56   19.10
   3   1   9  406.36   17.70
   3   1   9  408.56   15.50
   3   1   9  402.86   16.10
  -4  -1  -9   -8.20    7.60
  -4  -1  -9   10.10    6.30
  -4  -1  -9   -5.40    5.00
   4   1   9    5.90    6.70
   4   1   9    5.30    4.30
   4   1   9    1.90    5.00
   4   1   9    7.30    8.40
  -5  -1  -9    8.20   10.30
  -5  -1  -9   10.30    2.50
  -5  -1  -9    5.40    8.30
  -5  -1  -9   13.50    8.90
  -5  -1  -9    9.90    9.60
  -5  -1  -9    2.60    8.00
  -5  -1  -9   -4.60    6.60
   5   1   9    6.00    5.60
   5   1   9   15.90   10.60
   5   1   9   -2.50   11.70
   5   1   9   -1.60    6.30
   5  -2  -9   -7.50    7.30
   5  -2  -9   -3.40   12.00
   5  -2  -9    4.70    5.40
   5  -2  -9    7.40    6.80
  -5   2   9    1.90    3.10
  -5   2   9    9.00    3.70
  -5   2   9    2.70   10.20
   4  -2  -9   11.20    8.30
   4  -2  -9   23.40    5.00
   4  -2  -9    6.30    4.90
   4  -2  -9   19.90    4.80
   4  -2  -9   22.20    5.90
  -4   2   9    8.10    7.30
  -4   2   9   13.90    3.20
  -4   2   9    8.00    2.70
  -4   2   9   15.20    8.90
   3  -2  -9 1049.59   32.70
   3  -2  -9 1058.19   36.80
   3  -2  -9 1065.39   33.90
   3  -2  -9 1115.29   35.20
   3  -2  -9 1125.69   34.40
  -3   2   9 1090.59   32.90
  -3   2   9 1076.59   34.80
  -3   2   9  920.71   32.60
  -3   2   9 1039.90   31.90
   2  -2  -9   86.89    6.70
   2  -2  -9   97.39    8.40
   2  -2  -9   78.19    5.60
   2  -2  -9   88.29    6.30
   2  -2  -9   90.49    7.60
   2  -2  -9   88.99    6.20
  -2   2   9   85.99    4.40
  -2   2   9   99.09    6.40
  -2   2   9   87.69    9.50
  -2   2   9   85.99    5.20
   1  -2  -9   78.69    5.50
   1  -2  -9   78.49    5.90
   1  -2  -9   69.29    4.80
   1  -2  -9   72.19    5.30
   1  -2  -9   74.39    6.10
  -1   2   9   68.49    4.70
  -1   2   9   75.09    5.30
  -1   2   9   73.69    3.50
  -1   2   9   70.39    6.60
  -1   2   9   84.39    6.80
  -1   2   9   61.49    5.70
   0  -2  -9   41.90    4.10
   0  -2  -9   41.20    5.40
   0  -2  -9   38.40    4.70
   0  -2  -9   34.90    4.10
   0   2   9   47.00    4.50
   0   2   9   41.80    5.20
   0   2   9   34.90    2.10
   0   2   9   35.30    4.50
   0   2   9   31.30    4.70
   0   2   9   44.90    5.40
  -1  -2  -9   58.59    5.40
  -1  -2  -9   56.79    5.80
  -1  -2  -9   64.19    5.40
  -1  -2  -9   74.19    7.20
   1   2   9   58.29    6.10
   1   2   9   66.39    5.20
   1   2   9   49.20    6.90
   1   2   9   59.79    5.20
   1   2   9   69.19    5.80
  -2  -2  -9   48.30    6.50
  -2  -2  -9   52.09    5.90
  -2  -2  -9   60.19    6.70
  -2  -2  -9   43.50    6.20
   2   2   9   41.90    5.80
   2   2   9   40.50    5.10
   2   2   9   38.30    5.20
   2   2   9   46.30    5.60
   2   2   9   47.30    6.40
  -3  -2  -9  433.96   20.50
  -3  -2  -9  431.16   17.50
  -3  -2  -9  428.56   16.70
  -3  -2  -9  439.46   18.00
  -3  -2  -9  425.46   19.30
   3   2   9  419.96   19.80
   3   2   9  396.96   18.20
   3   2   9  435.96   16.20
   3   2   9  413.46   16.90
  -4  -2  -9  464.65   22.50
  -4  -2  -9  447.76   23.30
  -4  -2  -9  464.05   19.10
  -4  -2  -9  458.65   20.40
  -4  -2  -9  436.66   13.70
  -4  -2  -9  429.56   23.70
   4   2   9  471.35   18.10
   4   2   9  459.75   25.40
   4   2   9  463.85   19.20
   4   2   9  440.36   21.40
  -5  -2  -9    2.70    2.60
  -5  -2  -9   -9.40    7.60
  -5  -2  -9   -2.20    8.80
  -5  -2  -9   -5.10    8.40
  -5  -2  -9   30.20   11.80
  -5  -2  -9    9.00   10.20
   5   2   9   14.40   11.30
   5   2   9   -5.60    6.60
   5   2   9   -5.70   11.50
   5   2   9    0.60    5.50
   5  -3  -9   68.39    8.40
   5  -3  -9   72.49   15.40
   5  -3  -9   88.39   10.80
  -5   3   9   66.59    5.60
   4  -3  -9   67.09    8.40
   4  -3  -9   79.39   11.80
   4  -3  -9   71.29    7.90
   4  -3  -9   70.09   10.30
  -4   3   9   68.49    5.10
   3  -3  -9 1489.05   45.20
   3  -3  -9 1476.05   48.40
   3  -3  -9 1534.95   44.20
  -3   3   9 1469.25   45.90
  -3   3   9 1455.35   43.90
   2  -3  -9   18.60    3.60
   2  -3  -9   18.20    3.60
   2  -3  -9   20.00    3.30
   2  -3  -9   23.50    5.60
  -2   3   9   22.30    3.00
  -2   3   9   16.60    5.00
  -2   3   9   15.70    5.50
  -2   3   9    9.60    3.90
  -2   3   9   17.10    2.40
   1  -3  -9    8.90    2.90
   1  -3  -9   13.40    3.60
   1  -3  -9   16.60    3.70
   1  -3  -9   15.80    2.90
   1  -3  -9   19.00    3.60
  -1   3   9   14.20    3.10
  -1   3   9    9.60    3.70
  -1   3   9   10.60    2.60
  -1   3   9   15.50    3.70
  -1   3   9   17.60    2.00
   0  -3  -9  146.19    6.90
   0  -3  -9  136.09    7.10
   0  -3  -9  151.78    8.80
   0  -3  -9  157.58    7.70
   0   3   9  147.19    7.90
   0   3   9  142.99    8.90
   0   3   9  155.28    7.40
   0   3   9  136.09    5.00
   0   3   9  147.49    7.40
   0   3   9  144.89    7.70
  -1  -3  -9   22.60    3.80
  -1  -3  -9   19.30    5.00
  -1  -3  -9   25.70    3.70
  -1  -3  -9   24.50    4.10
   1   3   9   25.30    4.40
   1   3   9   22.80    3.40
   1   3   9   22.80    5.00
   1   3   9   24.00    3.80
   1   3   9   26.20    3.50
  -2  -3  -9   23.60    5.80
  -2  -3  -9   24.80    4.90
  -2  -3  -9   21.20    4.50
  -2  -3  -9   16.40    4.20
   2   3   9   18.80    5.30
   2   3   9   24.40    4.60
   2   3   9   17.90    3.70
   2   3   9   22.40    5.50
   2   3   9   16.30    4.00
  -3  -3  -9  150.38   13.00
  -3  -3  -9  164.78   10.40
   3   3   9  162.58    9.30
   3   3   9  136.69   10.50
   3   3   9  159.48   12.00
   3   3   9  147.89   17.60
  -4  -3  -9  296.07   19.70
  -4  -3  -9  312.37   18.00
  -4  -3  -9  321.17   17.30
  -4  -3  -9  292.47   19.50
  -4  -3  -9  319.77   16.20
   4   3   9  287.67   20.60
   4   3   9  296.67   18.10
   4   3   9  289.27   15.60
   4   3   9  299.97   14.40
  -5  -3  -9   41.80   11.10
  -5  -3  -9   24.40    9.90
  -5  -3  -9   60.19   12.80
  -5  -3  -9   29.00    9.40
  -5  -3  -9   37.00    3.30
  -5  -3  -9   38.70   11.80
   5   3   9   39.20    7.90
   5   3   9   40.60   13.50
   5   3   9   37.90   16.60
   5   3   9   15.20    8.10
   4  -4  -9   44.30   11.20
   4  -4  -9   52.79    7.20
  -4   4   9   45.50    4.70
   3  -4  -9   17.60    7.50
   3  -4  -9    9.00    4.20
  -3   4   9   10.60    2.60
   2  -4  -9  588.44   21.40
  -2   4   9  633.14   19.10
   1  -4  -9   47.60    4.60
   1  -4  -9   56.69    6.60
   1  -4  -9   58.49    5.60
  -1   4   9   50.29    6.20
  -1   4   9   55.49    5.60
  -1   4   9   50.29    5.70
  -1   4   9   57.89    3.40
   0  -4  -9   69.29    5.90
   0  -4  -9   49.20    6.40
   0  -4  -9   49.10    6.10
   0  -4  -9   54.59    5.10
   0   4   9   61.69    6.20
   0   4   9   55.89    6.20
   0   4   9   61.29    8.10
   0   4   9   65.69    6.20
   0   4   9   53.79    5.50
  -1  -4  -9   42.20    5.20
  -1  -4  -9   45.80    6.60
  -1  -4  -9   49.80    8.30
  -1  -4  -9   37.40    4.90
   1   4   9   31.80    4.40
   1   4   9   34.80    5.10
   1   4   9   38.20    6.20
   1   4   9   25.40    4.90
   1   4   9   36.00    6.30
  -2  -4  -9    0.90    4.00
  -2  -4  -9    2.80    4.60
   2   4   9   -0.60    3.80
   2   4   9    5.10    4.80
   2   4   9    6.90    3.90
   2   4   9    7.30    3.10
   2   4   9    7.30    6.20
  -3  -4  -9   38.60    6.70
  -3  -4  -9   47.20    7.30
  -3  -4  -9   43.10    7.40
  -3  -4  -9   53.09    8.80
  -3  -4  -9   50.39    9.20
   3   4   9   40.00    6.40
   3   4   9   48.10    8.20
   3   4   9   48.50    9.30
   3   4   9   43.70    6.60
   3   4   9   50.79    6.00
  -4  -4  -9   57.79    9.40
  -4  -4  -9   65.69    9.60
  -4  -4  -9   49.70   10.60
  -4  -4  -9   35.30   10.70
  -4  -4  -9   51.49    3.90
  -4  -4  -9   51.29    9.20
   4   4   9   58.09    7.50
   4   4   9   53.39   11.70
   4   4   9   37.20   10.60
   4   4   9   53.19    8.40
  -5  -4  -9   29.70   11.40
  -5  -4  -9  -14.60   12.10
  -5  -4  -9    1.00   11.90
  -5  -4  -9    7.90    9.80
  -5  -4  -9    7.90    3.10
  -5  -4  -9   13.30   11.70
   5   4   9    2.90   13.40
   5   4   9   -1.90   12.40
   5   4   9   11.00    8.70
   5   4   9    3.40    9.30
   4  -5  -9   11.80   12.70
   4  -5  -9    1.10    5.90
  -4   5   9    3.70    2.80
   3  -5  -9    9.20    4.70
   3  -5  -9   10.10    8.80
   3  -5  -9    2.00    4.50
  -3   5   9   15.80    2.90
   2  -5  -9   -1.00    3.90
   2  -5  -9    1.40    3.80
   2  -5  -9   12.80    6.20
  -2   5   9    3.70    2.20
   1  -5  -9   92.69    8.00
  -1   5   9   99.09    7.50
  -1   5   9   92.89    4.90
   0  -5  -9   49.70    7.50
   0   5   9   66.59    6.60
   0   5   9   65.49    4.30
   0   5   9   60.59    5.40
  -1  -5  -9   24.80    4.20
  -1  -5  -9   24.70    5.10
   1   5   9   28.70    7.40
   1   5   9   20.90    4.70
   1   5   9   23.30    5.50
   1   5   9   22.00    4.40
  -2  -5  -9   23.20    5.00
  -2  -5  -9   20.90    5.90
  -2  -5  -9   10.40    6.90
  -2  -5  -9   23.00    6.10
   2   5   9   32.50    6.80
   2   5   9   12.30    4.90
   2   5   9   18.50    5.20
   2   5   9    8.10    6.90
   2   5   9   15.80    4.30
  -3  -5  -9    1.20    5.80
  -3  -5  -9    6.30    7.20
  -3  -5  -9   15.20    8.80
  -3  -5  -9   -7.60    6.60
  -3  -5  -9   -5.10    8.70
   3   5   9   -0.40    4.40
   3   5   9  -11.60    7.80
   3   5   9   -0.70    8.30
   3   5   9   -3.70    4.70
  -4  -5  -9  121.89   16.00
  -4  -5  -9  110.89   17.10
  -4  -5  -9  139.59   14.80
  -4  -5  -9  104.29   14.20
   4   5   9  114.79   13.30
   4   5   9  135.89   12.30
   4   5   9  105.39   13.50
   4   5   9  138.29   18.80
  -5  -5  -9  102.39   16.70
  -5  -5  -9   99.59   14.50
  -5  -5  -9  113.09   16.70
   5   5   9  109.09   18.50
   5   5   9  108.29   16.20
   5   5   9  116.59   15.30
   5   5   9   97.29   12.90
   3  -6  -9   15.10    9.50
   3  -6  -9   17.60    6.00
   3  -6  -9   17.20    7.00
  -3   6   9   16.10    3.50
   2  -6  -9  133.39   13.90
   2  -6  -9  125.49   10.40
   2  -6  -9  117.79   10.40
  -2   6   9  117.99    6.50
   1  -6  -9   58.19    9.30
  -1   6   9   57.19    7.60
  -1   6   9   43.50    4.40
   0  -6  -9   19.90    5.20
   0  -6  -9   28.50    4.20
   0   6   9   25.80    6.50
   0   6   9   28.60    3.60
   0   6   9   26.20    4.50
  -1  -6  -9   -4.40    7.30
  -1  -6  -9    9.20    5.20
  -1  -6  -9   -1.50    3.70
  -1  -6  -9    1.00    5.70
   1   6   9    3.80    7.70
   1   6   9   -7.50    4.50
   1   6   9   18.40    7.00
   1   6   9   -4.30    3.60
   1   6   9    0.60    2.80
  -2  -6  -9  167.48   13.40
  -2  -6  -9  164.48   11.10
  -2  -6  -9  179.28   13.50
  -2  -6  -9  138.19   16.10
   2   6   9  157.68   10.10
   2   6   9  209.48   16.50
   2   6   9  150.28   12.10
   2   6   9  171.68   14.40
   2   6   9  177.08   11.30
  -3  -6  -9   -2.20    7.60
  -3  -6  -9   29.70   10.50
  -3  -6  -9    1.00    6.90
  -3  -6  -9    9.20   10.00
  -3  -6  -9    7.80    8.40
   3   6   9    8.50    5.80
   3   6   9   -0.20    9.10
   3   6   9    0.10    5.30
   3   6   9   -3.30    6.90
   3   6   9   23.20   10.30
  -4  -6  -9   16.60    9.70
  -4  -6  -9   13.30   10.80
  -4  -6  -9    5.00   13.10
  -4  -6  -9    7.60   12.00
   4   6   9  -12.50    7.90
   4   6   9    1.90   12.80
   4   6   9    3.50    7.00
   4   6   9   27.20   12.60
   2  -7  -9   16.70    7.00
   2  -7  -9   28.20    9.60
   2  -7  -9   26.50    7.20
  -2   7   9   27.80    3.90
   1  -7  -9   26.80    7.60
  -1   7   9   17.70    3.60
   0   7   9    7.20    4.80
   0   7   9   12.80    3.80
  -1  -7  -9   -4.40    4.50
  -1  -7  -9   12.30    7.60
   1   7   9    9.00    3.80
   1   7   9   11.40    7.90
   1   7   9    3.70    4.80
  -2  -7  -9   -2.80    8.00
  -2  -7  -9   -8.10    9.70
  -2  -7  -9    5.60    6.20
  -2  -7  -9   -5.90    7.50
   2   7   9   -1.30    5.30
   2   7   9    1.60    8.90
   2   7   9   -7.90    7.10
   2   7   9   18.30   10.40
  -3  -7  -9   92.59   14.30
  -3  -7  -9  123.19   14.40
  -3  -7  -9  121.79   20.60
  -3  -7  -9   98.09   12.20
  -3  -7  -9  148.19   18.60
   3   7   9   97.69   12.10
   3   7   9   86.69   12.90
   3   7   9  137.99   21.60
   3   7   9   95.49   11.30
   3   7   9  102.59   12.70
   0   8   9   92.29    7.70
   0   8   9  110.39   11.30
  -1  -8  -9  102.79   10.80
  -1  -8  -9  115.59   15.80
   1   8   9  110.09    8.50
   1   8   9  113.89   11.20
   1   8   9   73.19   11.10
   2   8   9  -18.10    8.50
   2   6 -10  -13.60   14.10
   2   6 -10   -0.10   11.70
   2   6 -10    7.20    7.80
   2   6 -10    6.60    7.80
  -2  -6  10   22.20    6.30
  -2  -6  10    0.60    8.00
  -2  -6  10   20.10    7.20
  -2  -6  10   15.60   14.20
  -2  -6  10   14.80   14.40
   1   6 -10   34.20   10.90
   1   6 -10   17.40   13.20
   1   6 -10   10.60    6.80
  -1  -6  10   17.70   12.00
  -1  -6  10   22.00    6.20
  -1  -6  10   25.80    7.70
  -1  -6  10   39.50   13.30
  -1  -6  10    8.20    7.20
   0   6 -10   10.50    6.00
   0   6 -10    6.60    5.10
   0   6 -10   17.80    9.80
   0   6 -10    4.50   11.00
   0  -6  10    9.40    5.50
   0  -6  10   19.40   11.00
   0  -6  10   18.00    7.20
   0  -6  10    5.80    7.50
   0  -6  10   22.00   12.80
  -1   6 -10   23.60    7.20
  -1   6 -10   12.40    9.70
  -1   6 -10   16.90   12.10
   1  -6  10    4.30    8.50
   1  -6  10   10.60   12.70
   3   5 -10   16.20   11.40
   3   5 -10   21.50   13.40
   3   5 -10   23.40   11.50
   3   5 -10    2.40    8.90
   3   5 -10    4.10    8.40
  -3  -5  10   11.90    7.90
  -3  -5  10   20.70   13.20
  -3  -5  10   30.20    6.90
  -3  -5  10   36.20   14.00
  -3  -5  10   12.20    6.10
   2   5 -10   31.10    9.60
   2   5 -10   20.30    7.20
   2   5 -10   20.80   11.00
   2   5 -10   19.40    6.70
  -2  -5  10   -0.30   11.60
  -2  -5  10   34.30    5.50
  -2  -5  10   13.50    7.10
  -2  -5  10   29.00    6.00
  -2  -5  10   46.10   12.80
   1   5 -10   -3.60    5.20
   1   5 -10   -0.40    5.30
   1   5 -10    6.00    8.20
   1   5 -10   -1.80    9.00
  -1  -5  10    4.50    5.90
  -1  -5  10    2.70    9.90
  -1  -5  10    0.40    5.40
  -1  -5  10    7.10    9.40
  -1  -5  10    2.50    4.50
   0   5 -10    1.00    9.30
   0   5 -10    6.30    4.90
   0   5 -10    1.30    4.40
   0   5 -10    9.40    7.50
   0  -5  10   -1.80    8.00
   0  -5  10   -6.50    5.50
   0  -5  10    5.10    9.10
   0  -5  10   -2.70    6.00
   0  -5  10   -1.00    4.70
  -1   5 -10    8.20    4.60
  -1   5 -10   11.80    6.00
  -1   5 -10    7.80    7.30
  -1   5 -10   13.70    8.70
   1  -5  10   -4.80    5.90
   1  -5  10   12.00    8.90
   1  -5  10  -13.30    7.50
   1  -5  10    5.40    6.10
   1  -5  10   -4.30    4.60
  -2   5 -10   37.50    8.50
  -2   5 -10   29.50    8.20
  -2   5 -10   17.50    9.40
  -2   5 -10   26.40    5.60
   2  -5  10   21.00    8.70
   2  -5  10   17.80    8.80
   2  -5  10   18.80   10.00
   2  -5  10   29.10    8.80
   2  -5  10   19.60    6.50
   4   4 -10   -8.50    9.30
   4   4 -10   23.50   10.30
   4   4 -10   12.20   12.10
   4   4 -10   27.00   13.00
   4   4 -10   -2.50   13.10
   4   4 -10    8.80    4.90
  -4  -4  10   -6.20   14.90
  -4  -4  10    1.60    7.80
  -4  -4  10   11.30   15.50
  -4  -4  10    8.40    6.50
   3   4 -10   14.00    9.70
   3   4 -10    0.40   10.80
   3   4 -10  -12.80    7.10
   3   4 -10   -5.00    8.70
   3   4 -10   -2.90    8.70
  -3  -4  10   -2.80   11.60
  -3  -4  10   -3.10    6.60
  -3  -4  10   15.80    5.20
   2   4 -10  189.38   15.00
   2   4 -10  117.59   15.40
   2   4 -10  119.49   14.80
   2   4 -10  130.49   11.00
   2   4 -10  162.08   13.30
  -2  -4  10  158.28    9.40
  -2  -4  10  166.88    9.80
  -2  -4  10  139.29   11.60
  -2  -4  10  168.18   18.80
   1   4 -10  712.93   26.10
   1   4 -10  665.13   24.30
   1   4 -10  692.93   24.20
   1   4 -10  701.83   27.70
  -1  -4  10  686.43   28.00
  -1  -4  10  583.94   29.50
  -1  -4  10  718.73   23.50
  -1  -4  10  697.23   23.50
  -1  -4  10  692.53   24.60
   0   4 -10  132.99   11.80
   0   4 -10  157.58   13.40
   0   4 -10  122.49    8.80
   0   4 -10  137.89    9.50
   0  -4  10  156.48   10.50
   0  -4  10  131.29    8.90
   0  -4  10  149.88   12.90
   0  -4  10  110.49   10.70
   0  -4  10  148.59   13.80
  -1   4 -10    7.90    4.70
  -1   4 -10    9.70    6.80
  -1   4 -10    0.00    5.70
  -1   4 -10   -0.90    3.80
   1  -4  10    0.70    4.10
   1  -4  10   -2.80    6.10
   1  -4  10   -4.90    6.40
   1  -4  10   -5.80    6.70
   1  -4  10   -2.00    5.50
  -2   4 -10   12.30    6.20
  -2   4 -10   -0.70    4.40
  -2   4 -10    8.80    7.00
  -2   4 -10   -8.10    6.60
  -2   4 -10    4.30    5.70
   2  -4  10   -1.20    5.20
   2  -4  10  -10.10    6.60
   2  -4  10   -2.20    6.60
   2  -4  10   -3.70    6.50
  -3   4 -10  -10.30    5.60
  -3   4 -10   -4.30    8.10
  -3   4 -10   -0.50    6.10
  -3   4 -10  -13.30    8.90
  -3   4 -10   -0.10    4.10
  -3   4 -10   14.90    7.90
   3  -4  10   11.20    8.30
   3  -4  10  -10.20    6.90
   3  -4  10   -8.40    9.00
   3  -4  10    1.60    6.60
   4   3 -10   20.10    9.70
   4   3 -10    7.40    9.10
   4   3 -10   34.10    9.10
   4   3 -10   10.90   11.50
   4   3 -10   19.10    4.90
   4   3 -10   34.30   11.90
  -4  -3  10    3.80   13.20
  -4  -3  10   54.89   13.20
  -4  -3  10   34.00    7.50
  -4  -3  10   16.10    6.00
   3   3 -10   20.60    9.30
   3   3 -10   12.50    6.90
   3   3 -10   26.90    7.60
   3   3 -10   36.90    9.10
   3   3 -10   35.00    4.40
   3   3 -10   22.60    9.20
  -3  -3  10   34.70    5.70
  -3  -3  10   28.30    6.30
  -3  -3  10   28.70   10.10
  -3  -3  10   19.40    9.90
   2   3 -10   53.19    8.20
   2   3 -10   57.59    8.00
   2   3 -10   49.50    6.60
   2   3 -10   26.20   12.30
   2   3 -10   44.80    6.30
  -2  -3  10   60.89    6.80
  -2  -3  10   56.89    9.40
  -2  -3  10   47.00   10.20
   1   3 -10  989.20   31.60
   1   3 -10  993.00   34.00
   1   3 -10  997.20   32.90
   1   3 -10  911.41   34.30
   1   3 -10  979.20   31.60
  -1  -3  10  996.90   32.10
  -1  -3  10  894.21   38.50
  -1  -3  10 1005.50   34.00
  -1  -3  10 1003.60   30.40
  -1  -3  10  981.70   31.10
   0   3 -10   27.10    4.40
   0   3 -10   29.70    5.50
   0   3 -10   15.50    4.40
   0   3 -10   24.80    4.60
   0   3 -10   29.90    6.60
   0  -3  10   16.10    6.70
   0  -3  10   26.70    4.40
   0  -3  10   19.60    6.30
   0  -3  10   23.40    4.50
   0  -3  10   26.70    5.20
  -1   3 -10  106.49    8.80
  -1   3 -10   92.59    8.20
  -1   3 -10  108.99   10.00
  -1   3 -10   93.59    9.20
   1  -3  10   91.89   10.20
   1  -3  10   96.79    7.80
   1  -3  10   90.09    9.80
   1  -3  10   92.39   13.70
  -2   3 -10  142.09   11.00
  -2   3 -10  132.89    9.60
  -2   3 -10  162.18   11.30
  -2   3 -10  142.19    9.10
  -2   3 -10  144.09   11.50
   2  -3  10  132.49   12.60
   2  -3  10  145.39   11.10
   2  -3  10  111.09   10.40
   2  -3  10  147.39   10.80
  -3   3 -10    8.50    3.50
  -3   3 -10    5.00    7.80
  -3   3 -10    4.30    4.70
  -3   3 -10    7.30    7.00
  -3   3 -10   13.80    6.50
  -3   3 -10   10.70    5.80
   3  -3  10   14.90    5.90
   3  -3  10   12.60    6.20
   3  -3  10    3.30    6.20
   3  -3  10    7.50    8.30
  -4   3 -10    5.10    5.70
  -4   3 -10    0.20    9.30
  -4   3 -10   -4.10    7.60
  -4   3 -10   -1.90    4.10
  -4   3 -10  -16.30    8.50
  -4   3 -10   -1.20    7.10
  -4   3 -10    2.10   10.10
   4  -3  10   14.80   11.00
   4  -3  10    0.10    6.90
   4  -3  10    0.20    6.00
   4  -3  10    8.20    9.30
   5   2 -10   -3.50   10.30
   5   2 -10    7.20   10.80
   5   2 -10    3.10    5.90
   5   2 -10  -11.60   13.10
   5   2 -10   18.50   12.00
   5   2 -10  -19.80   13.70
  -5  -2  10  -10.40    8.20
  -5  -2  10   -1.60    6.20
  -5  -2  10   12.70   14.00
  -5  -2  10   -3.20   16.80
   4   2 -10    4.50    7.90
   4   2 -10   21.20    8.80
   4   2 -10   14.00    5.00
   4   2 -10    6.70   10.40
   4   2 -10   12.20    9.90
   4   2 -10   18.40    8.20
  -4  -2  10    6.10   11.20
  -4  -2  10   14.30    6.50
  -4  -2  10   19.60    5.30
  -4  -2  10    9.80   14.30
   3   2 -10    5.60    6.50
   3   2 -10   -2.40    7.50
   3   2 -10    7.90    3.30
   3   2 -10    0.30    5.80
   3   2 -10   -9.00    5.20
   3   2 -10    7.80    7.10
  -3  -2  10   -0.60    4.60
  -3  -2  10   -1.50    8.70
  -3  -2  10   10.10    9.40
  -3  -2  10    7.00    3.90
   2   2 -10  155.98   10.10
   2   2 -10  144.59    9.70
   2   2 -10  177.78   13.40
   2   2 -10  168.18   11.80
   2   2 -10  163.48    7.50
   2   2 -10  170.28   11.80
  -2  -2  10  175.78    8.80
  -2  -2  10  154.78   10.10
  -2  -2  10  166.48   13.80
  -2  -2  10  166.18   15.30
   1   2 -10  399.66   17.30
   1   2 -10  389.56   15.00
   1   2 -10  389.26   15.40
   1   2 -10  391.36   15.60
   1   2 -10  395.16   16.20
  -1  -2  10  401.06   18.00
  -1  -2  10  404.46   14.70
  -1  -2  10  412.96   17.30
  -1  -2  10  389.56   15.60
   0   2 -10  184.88    9.60
   0   2 -10  166.58    9.10
   0   2 -10  166.78    8.60
   0   2 -10  169.78    8.60
   0   2 -10  184.18   11.10
   0  -2  10  167.78    8.60
   0  -2  10  177.28   10.10
   0  -2  10  171.08   11.30
   0  -2  10  169.68   11.20
  -1   2 -10  782.32   25.30
  -1   2 -10  733.13   25.60
  -1   2 -10  741.33   24.80
  -1   2 -10  770.52   25.00
  -1   2 -10  767.62   26.00
   1  -2  10  750.02   25.10
   1  -2  10  785.42   26.10
   1  -2  10  704.03   26.00
   1  -2  10  765.32   26.00
  -2   2 -10  527.75   19.50
  -2   2 -10  528.55   20.20
  -2   2 -10  483.75   18.10
  -2   2 -10  543.05   19.80
  -2   2 -10  496.35   20.70
  -2   2 -10  493.45   20.90
   2  -2  10  553.54   19.70
   2  -2  10  492.65   21.10
   2  -2  10  515.95   19.40
   2  -2  10  511.45   19.60
  -3   2 -10    5.00    3.20
  -3   2 -10    1.20    5.20
  -3   2 -10    4.40    7.70
  -3   2 -10   -7.00    6.70
  -3   2 -10   -1.20    4.70
  -3   2 -10    5.20    5.60
  -3   2 -10    2.90    4.20
   3  -2  10   12.00    5.40
   3  -2  10   -4.20    5.30
   3  -2  10   -1.40    7.50
   3  -2  10    4.20    4.50
  -4   2 -10   43.20    4.50
  -4   2 -10   35.30    8.40
  -4   2 -10   35.40    6.40
  -4   2 -10   55.19    8.20
  -4   2 -10   23.70    7.10
  -4   2 -10   37.60    9.40
  -4   2 -10   39.60   10.30
   4  -2  10   50.59    7.30
   4  -2  10   45.80    9.90
   4  -2  10   39.70    6.70
   4  -2  10   51.79   11.30
   5   1 -10    5.40   11.60
   5   1 -10    5.40    5.70
   5   1 -10   11.20   10.00
   5   1 -10    2.30   12.60
   5   1 -10    8.70   10.60
   5   1 -10    4.60   10.50
  -5  -1  10   15.40   12.90
  -5  -1  10   -1.60    7.20
  -5  -1  10    9.70   15.70
  -5  -1  10    5.00    5.60
   4   1 -10   43.00    9.20
   4   1 -10   35.90    7.70
   4   1 -10   22.00    9.60
   4   1 -10   18.80    7.70
   4   1 -10   30.80   10.00
   4   1 -10   41.40    6.10
  -4  -1  10   33.20   11.10
  -4  -1  10   26.20    6.10
  -4  -1  10   48.00   12.20
  -4  -1  10   31.10    5.00
   3   1 -10    1.20    3.20
   3   1 -10   -1.60    4.80
   3   1 -10   -4.30    5.00
   3   1 -10    2.80    6.90
  -3  -1  10   -7.50    3.80
  -3  -1  10   18.90    8.50
  -3  -1  10   -2.90    7.90
   2   1 -10  182.48   11.60
   2   1 -10  182.78   11.50
   2   1 -10  193.78    8.50
   2   1 -10  183.08   10.20
   2   1 -10  168.68   12.00
   2   1 -10  174.88    9.80
  -2  -1  10  190.08    9.80
  -2  -1  10  195.58   13.30
  -2  -1  10  201.38   14.60
  -2  -1  10  190.88    8.90
   1   1 -10  261.87   11.30
   1   1 -10  261.37   11.80
   1   1 -10  251.77   10.80
   1   1 -10  258.47   12.70
   1   1 -10  269.67   10.10
  -1  -1  10  232.88   11.20
  -1  -1  10  251.17   13.00
  -1  -1  10  256.57   10.60
  -1  -1  10  250.07   13.60
   0   1 -10   40.90    5.10
   0   1 -10   30.90    5.00
   0   1 -10   37.70    5.70
   0   1 -10   33.20    4.80
   0   1 -10   34.20    4.50
   0  -1  10   41.90    6.30
   0  -1  10   35.30    5.40
   0  -1  10   32.50    3.60
   0  -1  10   33.30    5.00
  -1   1 -10   47.50    5.50
  -1   1 -10   57.89    7.00
  -1   1 -10   56.39    6.60
  -1   1 -10   48.20    5.50
  -1   1 -10   59.59    6.30
   1  -1  10   57.99    4.70
   1  -1  10   59.39    7.60
   1  -1  10   53.09    7.00
   1  -1  10   68.89    7.30
   1  -1  10   58.59    6.10
  -2   1 -10  320.47   13.40
  -2   1 -10  285.37   13.10
  -2   1 -10  288.27   12.80
  -2   1 -10  294.97   12.00
  -2   1 -10  307.97   14.50
  -2   1 -10  301.67   15.40
   2  -1  10  294.97   12.80
   2  -1  10  258.27   14.80
   2  -1  10  300.57   13.30
   2  -1  10  291.07   13.40
  -3   1 -10    0.50    7.40
  -3   1 -10    9.20    4.70
  -3   1 -10    9.00    6.60
  -3   1 -10   14.00    5.80
  -3   1 -10   19.20    5.30
  -3   1 -10   14.90    3.20
  -3   1 -10   13.10    4.40
   3  -1  10    6.90    5.40
   3  -1  10   12.10    7.20
   3  -1  10   14.30    6.50
   3  -1  10   11.10    4.30
  -4   1 -10   -6.30    5.00
  -4   1 -10   11.50    7.60
  -4   1 -10    5.10   10.30
  -4   1 -10   -0.50    3.20
  -4   1 -10    5.00    6.40
  -4   1 -10    6.90    6.40
  -4   1 -10    0.30    6.60
   4  -1  10   -2.40    4.80
   4  -1  10    3.70    8.40
   4  -1  10   -0.80    4.60
   4  -1  10    0.30    9.30
  -5   1 -10   54.19   10.50
  -5   1 -10   42.20    4.80
  -5   1 -10   40.60   10.30
  -5   1 -10   30.00   12.70
  -5   1 -10   37.70    8.20
  -5   1 -10   55.29   11.00
   5  -1  10   44.70   14.70
   5  -1  10   46.20    7.20
   5  -1  10   67.79   12.40
   5  -1  10   41.00    8.20
   5   0 -10    1.60   12.30
   5   0 -10   16.20    9.60
   5   0 -10  -19.70   11.70
   5   0 -10    2.80    5.60
   5   0 -10    8.40    8.50
   5   0 -10  -12.60    8.70
  -5   0  10    6.50   12.20
  -5   0  10  -10.00    6.90
  -5   0  10   10.60   14.30
  -5   0  10   -4.80    4.60
   4   0 -10   -6.00    4.30
   4   0 -10   -1.80    9.50
   4   0 -10    4.10    7.00
   4   0 -10   -8.90    6.10
   4   0 -10   -2.20    6.10
   4   0 -10   -1.70    8.40
  -4   0  10    8.20   11.00
  -4   0  10   -9.20    4.60
  -4   0  10   -6.40    9.70
  -4   0  10   -4.20    5.30
   3   0 -10   38.80   12.40
   3   0 -10   48.60    6.00
   3   0 -10   30.60    5.10
   3   0 -10   19.00    6.80
   3   0 -10   34.10    6.00
   3   0 -10   37.10    6.70
  -3   0  10   37.30    5.20
  -3   0  10   35.80    8.30
  -3   0  10   48.10    9.20
  -3   0  10   35.40    5.10
   2   0 -10   14.00    3.40
   2   0 -10    4.30    3.80
   2   0 -10   15.10    4.90
   2   0 -10    3.60    5.10
   2   0 -10   12.70    4.80
   2   0 -10   13.90    3.70
  -2   0  10    8.90    3.10
  -2   0  10    1.90    6.80
  -2   0  10   11.00    5.90
  -2   0  10   11.70    3.60
   1   0 -10   25.50    4.80
   1   0 -10   25.40    4.10
   1   0 -10   19.70    3.60
   1   0 -10   19.80    4.10
   1   0 -10   25.90    3.90
  -1   0  10   17.50    5.20
  -1   0  10   29.40    5.60
  -1   0  10   21.10    3.90
  -1   0  10   23.10    3.50
   0   0 -10   10.70    2.60
   0   0 -10   11.00    3.10
   0   0 -10   14.20    3.80
   0   0 -10   14.20    3.30
   0   0 -10   10.00    3.30
   0   0  10    7.20    2.90
   0   0  10   16.80    4.20
   0   0  10   11.20    2.60
   0   0  10   12.40    4.00
   0   0  10    8.10    3.30
  -1   0 -10  866.11   27.00
  -1   0 -10  845.92   27.60
  -1   0 -10  848.22   26.90
  -1   0 -10  858.11   28.20
  -1   0 -10  823.82   27.20
   1   0  10  843.12   27.50
   1   0  10  850.91   28.60
   1   0  10  875.01   27.90
   1   0  10  857.51   27.50
   1   0  10  846.02   26.60
  -2   0 -10   12.90    3.90
  -2   0 -10    7.50    4.20
  -2   0 -10    7.70    3.40
  -2   0 -10   14.90    4.20
  -2   0 -10   21.30    5.00
   2   0  10    9.60    3.90
   2   0  10    2.40    4.00
   2   0  10    6.30    5.20
   2   0  10   12.00    3.70
  -3   0 -10   36.70    5.30
  -3   0 -10   41.50    7.00
  -3   0 -10   26.20    7.80
  -3   0 -10   37.40    7.40
  -3   0 -10   46.30    4.10
  -3   0 -10   36.30    5.80
  -3   0 -10   39.20    6.30
   3   0  10   37.40    7.70
   3   0  10   42.50    5.80
   3   0  10   49.00    5.80
   3   0  10   37.70    6.80
  -4   0 -10   33.30    7.20
  -4   0 -10   37.80    7.20
  -4   0 -10   29.00    9.90
  -4   0 -10   31.20    6.00
  -4   0 -10   29.60    3.40
  -4   0 -10   21.90    8.40
  -4   0 -10   20.80    6.90
   4   0  10   21.70   10.80
   4   0  10   29.30    5.90
   4   0  10   20.40    8.10
   4   0  10   25.00    5.90
  -5   0 -10   60.19   11.80
  -5   0 -10   79.79   10.80
  -5   0 -10   70.59   10.80
  -5   0 -10   69.59    8.90
  -5   0 -10   66.49   12.20
  -5   0 -10   53.69   10.70
  -5   0 -10   47.40    5.20
   5   0  10   48.60   15.50
   5   0  10   81.89   12.10
   5   0  10   82.59   13.40
   5   0  10   67.19    8.40
   5  -1 -10   15.50    8.30
   5  -1 -10   12.80   13.20
   5  -1 -10   -9.60    8.10
   5  -1 -10   -6.40    7.60
   5  -1 -10    2.20    5.80
   5  -1 -10   -5.30   12.60
  -5   1  10    8.00   14.00
  -5   1  10    3.20    2.90
  -5   1  10   -1.00    4.30
   4  -1 -10   14.80    9.40
   4  -1 -10    6.30    4.40
   4  -1 -10    5.90    5.70
   4  -1 -10   13.40    6.90
   4  -1 -10    3.20    8.80
   4  -1 -10    8.10    5.50
  -4   1  10   -0.30   10.10
  -4   1  10    4.20    5.20
  -4   1  10   12.80    3.30
  -4   1  10    9.40    9.10
   3  -1 -10   40.70    6.80
   3  -1 -10   42.70    6.10
   3  -1 -10   37.20    5.90
   3  -1 -10   45.60    7.70
   3  -1 -10   39.80    6.10
   3  -1 -10   44.10    5.40
  -3   1  10   49.10    8.60
  -3   1  10   45.00    6.90
  -3   1  10   38.30    5.10
  -3   1  10   47.40    8.90
   2  -1 -10  196.88   11.70
   2  -1 -10  208.28   10.40
   2  -1 -10  196.98    9.70
   2  -1 -10  192.68   10.80
   2  -1 -10  196.98    9.20
   2  -1 -10  206.38    9.50
  -2   1  10  199.38    9.40
  -2   1  10  212.98   12.60
  -2   1  10  209.38   13.60
  -2   1  10  194.28    8.70
   1  -1 -10  136.89    7.70
   1  -1 -10  126.39    6.80
   1  -1 -10  134.29    7.80
   1  -1 -10  137.89    8.50
   1  -1 -10  140.09    7.60
  -1   1  10  139.89    6.90
  -1   1  10  137.59    9.50
  -1   1  10  147.09    8.00
  -1   1  10  137.49    7.10
  -1   1  10  131.29    9.30
   0  -1 -10   76.39    5.30
   0  -1 -10   66.89    5.40
   0  -1 -10   90.49    6.70
   0  -1 -10   82.59    5.60
   0  -1 -10   85.19    6.50
   0   1  10   90.89    7.10
   0   1  10   89.79    7.30
   0   1  10   73.09    5.20
   0   1  10   76.99    6.90
   0   1  10   82.79    6.00
  -1  -1 -10  233.08   10.40
  -1  -1 -10  218.78    9.90
  -1  -1 -10  227.18   11.00
  -1  -1 -10  233.28    9.80
   1   1  10  221.58   10.50
   1   1  10  227.38   10.50
   1   1  10  221.78    9.50
   1   1  10  230.18   10.20
   1   1  10  209.38   11.40
  -2  -1 -10  619.64   21.80
  -2  -1 -10  569.04   21.50
  -2  -1 -10  640.54   21.20
  -2  -1 -10  612.34   23.20
   2   1  10  614.04   21.40
   2   1  10  663.93   21.20
   2   1  10  627.54   22.50
   2   1  10  633.74   21.50
   2   1  10  598.74   23.40
  -3  -1 -10  489.95   22.50
  -3  -1 -10  489.85   19.60
  -3  -1 -10  495.05   18.50
  -3  -1 -10  493.95   19.40
   3   1  10  503.45   18.40
   3   1  10  498.25   22.20
   3   1  10  487.55   20.50
  -4  -1 -10   80.39   11.80
  -4  -1 -10   73.69    4.60
  -4  -1 -10   71.49   11.70
  -4  -1 -10   92.69   11.60
  -4  -1 -10   95.29    9.90
   4   1  10   74.29    9.70
   4   1  10   61.49    9.70
   4   1  10   77.09   11.10
   4   1  10   73.39   12.00
  -5  -1 -10   -2.30    8.40
  -5  -1 -10   13.40    9.10
  -5  -1 -10    4.30    7.20
  -5  -1 -10    0.10   10.50
  -5  -1 -10    6.10    2.60
  -5  -1 -10   21.30   12.20
  -5  -1 -10    9.60    9.40
   5   1  10    0.60   10.80
   5   1  10    8.60    6.60
   5   1  10    6.90    6.70
   5   1  10  -22.30   12.80
   5  -2 -10   77.79   15.00
   5  -2 -10   94.29   11.90
   5  -2 -10   78.39   11.10
   5  -2 -10   76.29   10.60
  -5   2  10   82.49    6.00
  -5   2  10   63.79   12.50
  -5   2  10   84.19    7.90
  -5   2  10   88.29   11.60
   4  -2 -10    8.20    8.90
   4  -2 -10   -0.40    5.60
   4  -2 -10   -4.10    6.40
   4  -2 -10    0.50    9.50
   4  -2 -10    2.40    5.20
   4  -2 -10   -2.10    4.80
  -4   2  10   -5.50    3.30
  -4   2  10    4.00    4.90
  -4   2  10    1.30    2.70
  -4   2  10   -8.00    8.10
   3  -2 -10   -2.20    3.80
   3  -2 -10   -7.60    5.80
   3  -2 -10   -3.90    4.80
   3  -2 -10    2.00    5.50
   3  -2 -10    2.20    4.20
  -3   2  10   -0.70    2.20
  -3   2  10   -3.30    2.70
  -3   2  10    2.20    8.90
  -3   2  10   11.40    8.00
  -3   2  10   -1.20    4.00
   2  -2 -10    4.70    3.50
   2  -2 -10    6.50    4.90
   2  -2 -10    9.60    4.50
   2  -2 -10    5.70    3.80
   2  -2 -10    1.00    3.00
   2  -2 -10    4.40    2.90
  -2   2  10    7.00    2.80
  -2   2  10   14.30    3.70
  -2   2  10    8.40    2.00
  -2   2  10    5.70    6.40
  -2   2  10   13.40    5.70
   1  -2 -10   34.50    4.70
   1  -2 -10   39.30    4.60
   1  -2 -10   45.20    5.60
   1  -2 -10   39.60    6.10
   1  -2 -10   46.90    5.20
  -1   2  10   38.40    4.60
  -1   2  10   38.40    5.00
  -1   2  10   33.50    4.50
  -1   2  10   45.30    5.40
  -1   2  10   49.70    7.50
  -1   2  10   39.40    2.90
   0  -2 -10   25.10    4.20
   0  -2 -10   16.80    3.00
   0  -2 -10   16.30    3.10
   0  -2 -10   17.90    3.70
   0   2  10   16.30    1.50
   0   2  10   13.90    4.10
   0   2  10   23.30    4.30
   0   2  10   14.60    3.30
   0   2  10   21.90    4.10
   0   2  10   16.10    3.10
  -1  -2 -10    5.70    3.00
  -1  -2 -10    7.10    3.10
  -1  -2 -10   10.10    4.60
  -1  -2 -10    7.00    3.30
   1   2  10    6.80    2.80
   1   2  10    7.30    3.60
   1   2  10    6.40    3.10
   1   2  10   10.70    3.90
   1   2  10    2.30    4.20
  -2  -2 -10  302.17   12.40
  -2  -2 -10  268.27   12.70
  -2  -2 -10  289.37   13.00
  -2  -2 -10  265.77   14.40
   2   2  10  302.27   12.70
   2   2  10  301.57   12.20
   2   2  10  306.17   12.90
   2   2  10  280.77   15.00
   2   2  10  278.57   13.60
  -3  -2 -10  898.41   29.80
  -3  -2 -10  899.51   32.80
  -3  -2 -10  844.72   30.70
  -3  -2 -10  873.41   36.70
   3   2  10  891.11   31.90
   3   2  10  946.71   29.60
   3   2  10  907.41   30.30
  -4  -2 -10   12.50    6.10
  -4  -2 -10    4.90    9.00
  -4  -2 -10   27.60    7.70
  -4  -2 -10   21.70    7.60
   4   2  10   37.00   10.80
   4   2  10   17.30    5.20
   4   2  10   27.50    8.80
   4   2  10   18.40    6.50
  -5  -2 -10   -2.00    9.30
  -5  -2 -10   27.50   13.00
  -5  -2 -10   -5.50    9.40
  -5  -2 -10   -1.40    8.00
  -5  -2 -10    3.80    2.70
  -5  -2 -10    2.00   11.40
   5   2  10   -2.30   11.70
   5   2  10    0.70    6.00
   5   2  10   -9.80    7.20
   5   2  10   -8.20   12.60
   4  -3 -10  233.08   12.70
   4  -3 -10  216.68   11.20
   4  -3 -10  231.88   14.40
   4  -3 -10  240.58   19.80
  -4   3  10  206.78    9.10
  -4   3  10  162.68   15.30
   3  -3 -10  502.25   18.90
   3  -3 -10  497.45   22.10
   3  -3 -10  519.35   19.10
   3  -3 -10  513.25   17.60
  -3   3  10  516.55   16.70
  -3   3  10  495.45   17.10
  -3   3  10  513.15   20.20
   2  -3 -10  123.19    9.40
   2  -3 -10  122.29    7.70
   2  -3 -10  104.09    6.90
   2  -3 -10  100.89   10.30
   2  -3 -10  109.59    7.80
  -2   3  10  109.99    6.60
  -2   3  10  100.49    9.70
  -2   3  10  119.29    5.20
  -2   3  10  100.19    8.30
   1  -3 -10   74.69    7.20
   1  -3 -10   58.59    6.60
   1  -3 -10   72.99    7.10
   1  -3 -10   62.19    5.40
   1  -3 -10   66.89    5.60
  -1   3  10   53.89    7.40
  -1   3  10   64.09    3.60
  -1   3  10   63.09    5.90
  -1   3  10   65.89    5.80
   0  -3 -10  157.98    7.50
   0  -3 -10  154.08    8.10
   0  -3 -10  176.58    8.60
   0  -3 -10  177.78    9.90
   0   3  10  155.08    5.50
   0   3  10  184.88    8.70
   0   3  10  168.08    9.20
   0   3  10  166.48    8.30
   0   3  10  159.48    8.70
   0   3  10  152.18   10.10
  -1  -3 -10   -0.30    3.80
  -1  -3 -10    1.20    3.10
  -1  -3 -10    3.60    3.40
  -1  -3 -10   -2.50    4.70
   1   3  10    5.80    2.90
   1   3  10    9.20    4.90
   1   3  10    2.20    3.30
   1   3  10    3.10    3.90
   1   3  10    4.70    3.10
  -2  -3 -10  191.28   13.20
  -2  -3 -10  210.68   11.60
  -2  -3 -10  209.18   10.60
  -2  -3 -10  190.98   11.20
   2   3  10  208.48   10.70
   2   3  10  218.78   13.70
   2   3  10  211.88   10.00
   2   3  10  223.48   12.50
   2   3  10  212.88   11.20
  -3  -3 -10   -1.20    4.60
  -3  -3 -10   11.30    8.00
  -3  -3 -10   -5.50    5.40
   3   3  10   -4.20    4.80
   3   3  10    3.70    6.30
   3   3  10    1.20    3.80
   3   3  10   -2.00    7.50
  -4  -3 -10   63.29   11.20
  -4  -3 -10   67.99    9.70
  -4  -3 -10   65.29   11.70
  -4  -3 -10   63.59    8.40
  -4  -3 -10   71.79    9.60
   4   3  10   63.89    8.70
   4   3  10   50.29   11.60
   4   3  10   78.19   10.30
   4   3  10   45.60   11.30
  -5  -3 -10   -8.50   10.20
  -5  -3 -10   -1.00    8.80
  -5  -3 -10   25.10   13.30
  -5  -3 -10  -10.20   12.10
  -5  -3 -10  -10.90   10.20
   5   3  10   -5.40   13.70
   5   3  10   -2.60    8.50
   5   3  10    9.20    6.80
   5   3  10   -6.00   12.40
   4  -4 -10   86.19   14.50
   4  -4 -10   71.29   10.00
  -4   4  10   71.09    5.50
   3  -4 -10   28.70    5.30
   3  -4 -10   26.60    8.40
  -3   4  10   34.00    3.50
   2  -4 -10  115.49    8.20
   2  -4 -10  120.19    8.70
   2  -4 -10  131.89    7.50
   2  -4 -10  118.99   11.70
  -2   4  10  114.39    9.80
  -2   4  10  123.89    5.60
   1  -4 -10   10.10    4.60
   1  -4 -10    3.00    3.00
   1  -4 -10    6.80    3.40
   1  -4 -10   16.20    5.10
  -1   4  10    5.30    3.50
  -1   4  10    9.30    2.00
  -1   4  10    7.70    4.40
  -1   4  10   10.70    3.90
   0  -4 -10  129.79    8.10
   0  -4 -10  119.89    7.70
   0  -4 -10  140.89    8.20
   0  -4 -10  117.49   10.00
   0   4  10  110.99    9.90
   0   4  10  110.39    5.00
   0   4  10  134.49    8.70
   0   4  10  135.39   10.40
   0   4  10  134.39    7.80
  -1  -4 -10    2.10    3.80
  -1  -4 -10    2.50    3.40
  -1  -4 -10   -2.80    3.60
  -1  -4 -10   -3.20    5.60
   1   4  10    1.00    3.70
   1   4  10    5.70    4.00
   1   4  10    2.40    3.20
   1   4  10    3.00    4.60
   1   4  10    6.70    5.70
  -2  -4 -10  251.57   12.80
   2   4  10  228.88   10.90
   2   4  10  222.08   11.70
   2   4  10  226.58   12.20
   2   4  10  221.88   15.30
  -3  -4 -10   23.20    8.50
  -3  -4 -10   24.10    6.80
  -3  -4 -10   17.50    5.60
  -3  -4 -10   29.20    6.80
  -3  -4 -10   27.80    8.30
   3   4  10   22.90    5.30
   3   4  10   13.20    9.50
   3   4  10   23.40    5.90
   3   4  10   22.30    6.40
   3   4  10   18.00    7.70
  -4  -4 -10  185.28   18.40
  -4  -4 -10  177.98   16.90
  -4  -4 -10  175.88   14.70
  -4  -4 -10  174.08   16.00
  -4  -4 -10  167.28   19.20
   4   4  10  172.48   12.50
   4   4  10  157.68   14.40
   4   4  10  180.18   18.60
   4   4  10  146.49   19.60
  -5  -4 -10  -11.50   13.30
  -5  -4 -10   -0.80   10.40
  -5  -4 -10   24.60   12.10
  -5  -4 -10   20.90   11.80
  -5  -4 -10   28.20   13.50
   5   4  10   34.40   14.20
   5   4  10   31.90   15.30
   5   4  10    5.30    7.50
   3  -5 -10    9.30    9.20
   3  -5 -10    4.90    5.60
  -3   5  10   12.00    3.00
   2  -5 -10   13.90    7.10
   2  -5 -10    7.20    4.70
   2  -5 -10    4.80    4.30
  -2   5  10    3.00    2.40
   1  -5 -10    5.40    4.30
   1  -5 -10    4.20    3.40
   1  -5 -10    8.40    4.60
  -1   5  10    5.00    4.10
  -1   5  10    6.90    2.50
   0  -5 -10   15.80    3.30
   0  -5 -10   26.30    6.40
   0  -5 -10   14.00    4.90
   0   5  10    9.30    5.30
   0   5  10   11.40    3.90
   0   5  10   16.20    2.50
   0   5  10   17.40    3.80
   0   5  10   23.80    5.00
  -1  -5 -10  457.65   17.80
  -1  -5 -10  459.85   16.80
   1   5  10  484.85   16.60
   1   5  10  436.66   18.80
   1   5  10  476.95   20.90
   1   5  10  461.45   17.60
   1   5  10  466.35   17.70
  -2  -5 -10  514.85   22.90
  -2  -5 -10  526.15   20.50
  -2  -5 -10  492.45   19.00
  -2  -5 -10  490.35   20.70
   2   5  10  520.05   19.70
   2   5  10  511.25   18.40
   2   5  10  495.65   21.60
   2   5  10  440.86   23.50
   2   5  10  510.75   19.70
  -3  -5 -10    9.10    7.40
  -3  -5 -10    2.70    9.60
  -3  -5 -10    5.50    9.20
  -3  -5 -10   -3.50    7.00
  -3  -5 -10    5.50    6.40
   3   5  10   -1.80    8.90
   3   5  10   10.40    6.20
   3   5  10   -5.00    8.10
   3   5  10   -5.40    6.30
   3   5  10   -3.70    4.80
  -4  -5 -10   -5.10    7.90
  -4  -5 -10   -4.20    9.30
  -4  -5 -10    1.10   10.70
  -4  -5 -10    6.20    9.60
  -4  -5 -10  -21.70   11.50
   4   5  10  -10.70    7.60
   4   5  10    3.10    6.20
   4   5  10   11.40   11.70
   4   5  10    4.60    6.20
   4   5  10    0.90   11.20
   3  -6 -10   17.70   10.40
   3  -6 -10   15.90    6.10
   3  -6 -10   19.50    7.20
  -3   6  10   10.50    3.40
   2  -6 -10   31.40    6.60
   2  -6 -10   43.00    9.30
   2  -6 -10   47.20    8.10
  -2   6  10   44.90    4.40
   1  -6 -10   19.80    5.80
  -1   6  10   21.70    5.70
  -1   6  10   14.40    3.00
   0  -6 -10    9.30    3.80
   0  -6 -10    0.80    5.80
   0   6  10    2.20    3.10
   0   6  10    3.50    3.80
   0   6  10    6.40    4.10
   0   6  10   11.50    6.80
  -1  -6 -10  358.66   19.30
  -1  -6 -10  350.66   17.50
  -1  -6 -10  353.06   15.70
  -1  -6 -10  355.96   14.30
   1   6  10  343.27   13.30
   1   6  10  336.07   15.10
   1   6  10  349.17   17.40
   1   6  10  331.27   19.20
   1   6  10  353.26   15.30
  -2  -6 -10  149.69   11.50
  -2  -6 -10  167.78   14.10
  -2  -6 -10  154.58   14.30
  -2  -6 -10  164.78   17.50
   2   6  10  172.18   15.70
   2   6  10  199.98   11.70
   2   6  10  178.88   10.60
   2   6  10  160.28   12.70
   2   6  10  178.98   17.40
  -3  -6 -10   72.59   13.80
  -3  -6 -10  103.69   11.50
  -3  -6 -10   93.99   12.00
  -3  -6 -10   97.99   13.20
  -3  -6 -10  134.69   19.80
   3   6  10   93.49   10.90
   3   6  10  102.29   12.90
   3   6  10  107.69   12.40
   3   6  10   97.99   10.90
   3   6  10  115.99   19.20
  -4  -6 -10   -7.00   12.60
  -4  -6 -10  -18.40   10.90
  -4  -6 -10   -0.20    9.20
  -4  -6 -10   15.40   11.70
  -4  -6 -10    9.10   13.90
   4   6  10   -3.30    7.30
   4   6  10  -18.50   12.70
   4   6  10   -1.00   13.80
   4   6  10   11.30    8.50
   4   6  10  -13.70    9.20
   1  -7 -10   50.19    8.00
  -1   7  10   66.19    5.90
   0   7  10   16.50    4.20
   0   7  10   14.20    5.30
  -1  -7 -10   21.30    8.20
  -1  -7 -10   13.60    5.30
  -1  -7 -10   25.20    9.60
   1   7  10   11.20    6.50
   1   7  10   -0.90    5.60
   1   7  10   -5.00    8.50
   1   7  10   12.50    4.10
  -2  -7 -10   18.40   11.30
  -2  -7 -10   33.30    9.20
  -2  -7 -10   22.30    9.50
  -2  -7 -10   18.20    6.50
   2   7  10   31.20   10.40
   2   7  10   18.70    7.90
   2   7  10   26.50   11.80
   2   7  10   27.20    7.20
  -3  -7 -10   27.90    9.10
  -3  -7 -10   28.90   14.40
  -3  -7 -10   10.30   10.50
  -3  -7 -10   54.49   14.30
  -3  -7 -10   43.50   11.20
   3   7  10   36.60    8.50
   3   7  10   44.60   14.50
   3   7  10   35.40    7.20
   3   7  10   68.09   13.40
   3   7  10   24.30    9.40
   2   5 -11   91.99   10.00
   2   5 -11   83.69   14.50
   2   5 -11  131.99   18.50
   2   5 -11   96.09   12.10
  -2  -5  11  141.89   23.10
  -2  -5  11   96.89   13.00
  -2  -5  11   96.79   10.80
  -2  -5  11   75.89   11.30
  -2  -5  11   83.99   14.30
   1   5 -11   30.20   10.80
   1   5 -11   29.30    6.90
   1   5 -11   27.90    6.10
   1   5 -11   31.60    9.90
  -1  -5  11   34.20    6.40
  -1  -5  11   33.50    7.30
  -1  -5  11   48.70   12.40
  -1  -5  11   51.79   12.40
  -1  -5  11   25.20    7.50
   0   5 -11   95.79    9.40
   0   5 -11   77.19   21.50
   0   5 -11   94.59   10.70
   0   5 -11  120.79   15.10
   0  -5  11  113.59   17.00
   0  -5  11  106.39   17.80
   0  -5  11  125.09   12.20
   0  -5  11   81.79   10.20
  -1   5 -11  328.17   21.30
  -1   5 -11  321.17   15.20
  -1   5 -11  313.67   16.60
  -1   5 -11  282.57   18.50
   1  -5  11  294.67   18.30
   1  -5  11  294.07   15.20
   1  -5  11  305.07   19.30
   1  -5  11  339.57   20.80
   1  -5  11  316.17   18.00
   3   4 -11  114.79   13.40
   3   4 -11  112.59   14.00
   3   4 -11   94.09   10.70
   3   4 -11   98.09   14.10
   3   4 -11  109.39   14.90
  -3  -4  11   96.09   13.20
  -3  -4  11  105.69   15.50
  -3  -4  11  111.89   17.00
  -3  -4  11  128.59   11.00
   2   4 -11  306.47   18.60
   2   4 -11  278.07   20.30
   2   4 -11  271.47   15.10
   2   4 -11  269.47   17.30
   2   4 -11  262.77   15.30
  -2  -4  11  299.37   13.90
  -2  -4  11  291.17   13.00
  -2  -4  11  313.67   23.30
  -2  -4  11  286.97   21.40
  -2  -4  11  283.57   15.60
   1   4 -11   -1.80    5.20
   1   4 -11   -0.70    5.00
   1   4 -11    9.20    9.10
   1   4 -11   10.90    7.60
  -1  -4  11    0.10    9.20
  -1  -4  11    8.40    5.00
  -1  -4  11  -11.60    5.70
  -1  -4  11   -6.50    9.80
  -1  -4  11    2.40    4.40
   0   4 -11   83.19   13.40
   0   4 -11   58.89    7.10
   0   4 -11   62.89    8.90
   0   4 -11   55.89    7.60
   0  -4  11   53.99    7.50
   0  -4  11   58.59   10.40
   0  -4  11   59.99    9.30
   0  -4  11   39.90    5.90
   0  -4  11   56.89    7.10
  -1   4 -11    9.70    5.50
  -1   4 -11    9.60    4.90
  -1   4 -11   12.20    6.60
  -1   4 -11   13.90    7.90
   1  -4  11    4.30    6.70
   1  -4  11    8.60    8.00
   1  -4  11    4.10    7.90
   1  -4  11    6.40    4.80
  -2   4 -11   17.30    8.60
  -2   4 -11   23.20    6.70
  -2   4 -11   27.00    7.70
  -2   4 -11   23.80    5.80
  -2   4 -11   -3.80    7.80
   2  -4  11   15.20    8.90
   2  -4  11   19.90    7.30
   2  -4  11   20.00    8.60
   2  -4  11   18.80    8.80
   3  -4  11   29.60    9.80
   4   3 -11   -4.30   10.80
   4   3 -11   -1.10   12.60
   4   3 -11  -10.50   11.80
   4   3 -11    5.90    5.20
   4   3 -11  -15.10    9.60
  -4  -3  11    1.00    7.90
  -4  -3  11   10.50   14.80
  -4  -3  11  -10.20   15.50
  -4  -3  11    4.30    6.00
   3   3 -11   -2.20    7.10
   3   3 -11   11.30    9.80
   3   3 -11   -1.30    9.60
   3   3 -11    3.10    4.20
   3   3 -11   21.50    9.00
  -3  -3  11    4.90   11.80
  -3  -3  11   -7.70    5.50
  -3  -3  11  -20.20   11.20
  -3  -3  11    1.20    4.70
   2   3 -11    0.80    7.00
   2   3 -11    3.60    7.60
   2   3 -11    1.20    5.30
   2   3 -11   -1.60    4.90
   2   3 -11    4.90    7.10
  -2  -3  11    0.00    5.30
  -2  -3  11    4.10   10.10
  -2  -3  11   11.90    4.20
  -2  -3  11    8.50    9.40
   1   3 -11  235.38   14.20
   1   3 -11  221.18   11.70
   1   3 -11  238.58   12.80
   1   3 -11  251.17   12.10
  -1  -3  11  226.28   16.20
  -1  -3  11  212.48   16.50
  -1  -3  11  210.48   11.20
  -1  -3  11  228.78   10.90
   0   3 -11    3.80    4.40
   0   3 -11   12.00    5.80
   0   3 -11    8.10    6.50
   0   3 -11   10.40    4.80
   0  -3  11    3.90    7.00
   0  -3  11    7.00    4.10
   0  -3  11    9.20    5.40
   0  -3  11    7.30    7.10
  -1   3 -11  110.99   11.90
  -1   3 -11  118.79    9.20
  -1   3 -11   97.29   10.00
  -1   3 -11  112.19    9.80
  -1   3 -11  103.69    9.60
   1  -3  11   82.99   11.00
   1  -3  11   79.59   11.60
   1  -3  11   99.09   11.70
   1  -3  11   87.89    8.30
  -2   3 -11   -2.90    5.20
  -2   3 -11    0.50    4.70
  -2   3 -11    0.30    5.90
  -2   3 -11   13.30    6.10
  -2   3 -11    5.70    6.30
   2  -3  11   10.30    6.30
   2  -3  11   -1.40    6.60
   2  -3  11    5.40    7.60
   2  -3  11    5.20    5.50
  -3   3 -11   23.10    7.90
  -3   3 -11    0.20    6.40
  -3   3 -11    8.40    7.60
  -3   3 -11    5.00    8.90
  -3   3 -11    5.10    5.50
  -3   3 -11   14.90    7.90
   3  -3  11    5.90    7.10
   3  -3  11   12.80    6.80
   3  -3  11   11.80    7.50
   3  -3  11    3.50    9.30
   4   2 -11    7.40    8.60
   4   2 -11    2.30   11.90
   4   2 -11   -4.10    8.10
   4   2 -11   27.30   10.40
   4   2 -11    9.80    5.00
   4   2 -11    5.50   11.80
  -4  -2  11    1.80   13.40
  -4  -2  11    2.40    6.70
  -4  -2  11   10.90   13.40
  -4  -2  11    6.60    5.70
   3   2 -11   56.99    6.70
   3   2 -11   37.50    7.00
   3   2 -11   39.30    7.30
   3   2 -11   39.20    9.90
   3   2 -11   45.30   11.50
   3   2 -11   47.40    8.80
  -3  -2  11   58.29    7.20
  -3  -2  11   62.29   12.90
  -3  -2  11   36.50    7.80
  -3  -2  11   40.30   11.00
   2   2 -11   20.70    6.20
   2   2 -11   15.10    5.10
   2   2 -11   23.00    4.20
   2   2 -11   16.50    7.30
   2   2 -11   20.10    6.70
  -2  -2  11    6.90    8.10
  -2  -2  11   24.50    5.50
  -2  -2  11   28.00    4.60
  -2  -2  11   24.00   10.60
   1   2 -11   33.40    6.10
   1   2 -11   32.40    5.90
   1   2 -11   21.00    5.90
   1   2 -11   30.90    6.90
   1   2 -11   36.10    5.20
  -1  -2  11   29.40    4.50
  -1  -2  11   21.20    5.50
  -1  -2  11   28.80    6.90
  -1  -2  11   31.50    7.80
   0   2 -11   36.80    4.90
   0   2 -11   36.70    6.80
   0   2 -11   37.70    5.90
   0  -2  11   39.90    7.20
   0  -2  11   40.00    5.90
   0  -2  11   30.40    5.00
  -1   2 -11    0.70    5.20
  -1   2 -11   11.70    3.80
  -1   2 -11    7.60    4.60
  -1   2 -11    3.60    4.70
  -1   2 -11    4.50    4.30
   1  -2  11    5.80    2.60
   1  -2  11   12.80    5.60
   1  -2  11    9.00    3.90
   1  -2  11    0.80    5.20
   1  -2  11   10.90    5.30
  -2   2 -11  234.48   13.70
  -2   2 -11  216.48   11.90
  -2   2 -11  207.68   14.00
  -2   2 -11  209.68   12.80
  -2   2 -11  210.88   11.00
   2  -2  11  210.68   12.80
   2  -2  11  215.28   12.70
   2  -2  11  215.98   12.50
   2  -2  11  194.68   14.60
   2  -2  11  202.48    9.90
  -3   2 -11  163.78   13.20
  -3   2 -11  129.89   10.00
  -3   2 -11  134.99   15.00
  -3   2 -11  131.39   12.20
  -3   2 -11  156.88   11.90
  -3   2 -11  121.19   14.80
   3  -2  11  130.99   16.20
   3  -2  11  159.18   11.40
   3  -2  11  136.89   13.00
   3  -2  11  159.78   11.50
  -4   2 -11   61.59    7.70
  -4   2 -11   62.29   10.70
  -4   2 -11   56.09    8.90
  -4   2 -11   64.79    7.00
  -4   2 -11   50.99   11.00
  -4   2 -11   62.49   12.10
  -4   2 -11   65.29   10.00
   4  -2  11   78.79   11.30
   4  -2  11   65.49    8.90
   4  -2  11   58.39   10.90
   4   1 -11  199.78   20.00
   4   1 -11  215.18   19.90
   4   1 -11  212.08   11.50
   4   1 -11  204.68   17.50
   4   1 -11  200.58   14.50
   4   1 -11  189.38   14.70
  -4  -1  11  221.08   23.90
  -4  -1  11  194.98   11.00
  -4  -1  11  211.48   22.00
  -4  -1  11  189.98   13.20
   3   1 -11   15.30    4.20
   3   1 -11    6.20    5.50
   3   1 -11   14.30    5.70
   3   1 -11   11.20    7.70
   3   1 -11   17.80    7.20
   3   1 -11   12.80    8.00
  -3  -1  11   15.70   10.10
  -3  -1  11   15.20    4.00
  -3  -1  11    9.50    4.90
  -3  -1  11   30.30   10.70
   2   1 -11  109.19    8.30
   2   1 -11  110.29   10.70
   2   1 -11  110.19    7.10
   2   1 -11   90.79   11.60
   2   1 -11  122.79   10.60
  -2  -1  11  115.79    8.70
  -2  -1  11  107.49    7.60
  -2  -1  11   85.19   13.80
  -2  -1  11  104.69   12.90
   1   1 -11   28.80    5.80
   1   1 -11   27.60    4.80
   1   1 -11   23.00    5.00
   1   1 -11   31.40    5.70
   1   1 -11   22.10    4.10
  -1  -1  11   23.60    6.00
  -1  -1  11   23.20    4.10
  -1  -1  11   22.20    4.50
  -1  -1  11   22.40    6.60
   0   1 -11   71.09    6.20
   0   1 -11   56.39    7.10
   0   1 -11   76.29    7.30
   0   1 -11   67.89    8.60
   0   1 -11   64.29    6.50
   0  -1  11   66.89    6.50
   0  -1  11   83.79    9.20
   0  -1  11   77.59    8.10
   0  -1  11   76.69    4.90
   0  -1  11   70.99    7.70
  -1   1 -11   59.19    7.00
  -1   1 -11   49.70    6.40
  -1   1 -11   52.29    6.50
  -1   1 -11   71.19    7.50
  -1   1 -11   43.70    5.20
   1  -1  11   49.90    6.80
   1  -1  11   59.49    5.30
   1  -1  11   46.10    6.60
   1  -1  11   56.09    8.00
   1  -1  11   68.89    8.50
  -2   1 -11   65.49    9.60
  -2   1 -11   50.69    6.70
  -2   1 -11   52.99    6.50
  -2   1 -11   42.90    5.80
  -2   1 -11   51.29    8.00
  -2   1 -11   48.10    6.40
   2  -1  11   37.80    7.60
   2  -1  11   52.49    6.60
   2  -1  11   56.39    6.50
   2  -1  11   45.50    7.70
   2  -1  11   53.59    6.60
  -3   1 -11   88.09   13.70
  -3   1 -11  135.29   11.80
  -3   1 -11   98.49   13.40
  -3   1 -11  129.59   11.20
  -3   1 -11  121.59   10.70
  -3   1 -11  119.49    9.30
   3  -1  11  100.19   14.50
   3  -1  11   80.89   11.70
   3  -1  11  114.09    9.80
   3  -1  11   88.29    9.50
  -4   1 -11    8.90    4.10
  -4   1 -11    5.60    7.20
  -4   1 -11   11.30    6.10
  -4   1 -11    6.00    9.50
  -4   1 -11   12.20    7.80
  -4   1 -11   28.20   10.50
  -4   1 -11   23.50    8.40
   4  -1  11    9.00    9.20
   4  -1  11   19.90   11.10
   4  -1  11   11.90    5.70
   4  -1  11   20.10    6.30
   5   0 -11   -7.90   15.10
   5   0 -11    1.50    9.60
   5   0 -11    3.80    6.80
   5   0 -11   16.70   11.60
   5   0 -11   -1.10   13.80
  -5   0  11   -1.70   16.80
  -5   0  11    1.20    5.30
   4   0 -11   55.49   12.20
   4   0 -11   72.79   11.50
   4   0 -11   76.09    8.80
   4   0 -11   63.19    8.70
   4   0 -11   57.29    8.00
   4   0 -11   53.99    9.70
  -4   0  11   52.49   13.70
  -4   0  11   59.69    7.20
  -4   0  11   49.40    7.00
  -4   0  11   66.79   13.30
   3   0 -11  197.38   10.10
   3   0 -11  219.78   13.70
   3   0 -11  179.68   11.20
   3   0 -11  178.28   11.70
   3   0 -11  191.78   14.40
   3   0 -11  181.88   13.90
  -3   0  11  219.78   18.80
  -3   0  11  188.18    9.60
  -3   0  11  188.68   10.90
  -3   0  11  199.88   16.90
   2   0 -11   11.00    4.00
   2   0 -11   17.70    4.10
   2   0 -11   15.40    5.40
   2   0 -11   13.10    4.40
   2   0 -11   17.70    6.10
   2   0 -11    9.30    5.50
  -2   0  11   14.60    4.50
  -2   0  11   15.50    7.20
  -2   0  11   12.90    3.50
  -2   0  11   21.70    7.90
   1   0 -11   -0.70    3.40
   1   0 -11    4.50    3.40
   1   0 -11   -4.10    3.80
   1   0 -11    4.40    4.60
   1   0 -11    5.10    3.70
  -1   0  11    4.50    3.80
  -1   0  11    4.60    2.70
  -1   0  11    4.90    5.80
  -1   0  11    6.20    5.40
   0   0 -11   14.30    3.70
   0   0 -11   14.90    3.20
   0   0 -11   17.10    4.30
   0   0 -11   22.30    3.80
   0   0 -11   14.20    4.70
   0   0  11   16.90    5.10
   0   0  11    6.40    4.10
   0   0  11   16.20    2.90
   0   0  11   15.20    3.30
   0   0  11   29.80    5.40
  -1   0 -11   33.50    5.50
  -1   0 -11   29.80    4.30
  -1   0 -11   33.30    4.60
  -1   0 -11   25.60    4.10
  -1   0 -11   27.80    5.00
   1   0  11   36.80    5.40
   1   0  11   34.20    4.20
   1   0  11   31.50    5.30
   1   0  11   32.50    5.10
   1   0  11   28.20    5.60
  -2   0 -11  363.56   14.60
  -2   0 -11  362.36   15.30
  -2   0 -11  392.96   15.50
  -2   0 -11  377.76   15.50
   2   0  11  336.87   15.80
   2   0  11  360.36   17.90
   2   0  11  373.16   15.20
   2   0  11  370.56   14.60
  -3   0 -11   11.20    7.20
  -3   0 -11    5.10    5.80
  -3   0 -11   13.70    4.90
  -3   0 -11   -1.00    6.10
  -3   0 -11   12.40    8.10
  -3   0 -11    3.60    6.60
   3   0  11   10.40    6.50
   3   0  11    8.80   10.00
   3   0  11   17.00    4.80
  -4   0 -11   25.80   12.10
  -4   0 -11   31.60    9.20
  -4   0 -11   41.60    8.00
  -4   0 -11   25.40    6.60
  -4   0 -11   18.40    8.40
  -4   0 -11   28.80    4.00
  -4   0 -11   19.80    7.80
   4   0  11   29.70   11.80
   4   0  11   17.90    6.30
   4   0  11   30.20    6.20
   4   0  11   21.90    9.50
   4  -1 -11  111.59   10.60
   4  -1 -11  147.69   14.20
   4  -1 -11  137.99   18.20
   4  -1 -11  126.19   12.30
   4  -1 -11  144.09   10.40
   4  -1 -11  114.99   18.20
  -4   1  11  148.49   20.80
  -4   1  11  124.49    8.30
  -4   1  11  137.99   18.80
  -4   1  11  121.49   11.10
  -4   1  11  122.09    6.70
   3  -1 -11  138.49   11.40
   3  -1 -11  124.39   12.00
   3  -1 -11  103.39    9.80
   3  -1 -11  117.69    8.60
   3  -1 -11  136.19   12.90
   3  -1 -11  112.19    9.60
  -3   1  11  168.28   16.80
  -3   1  11  123.19   14.80
  -3   1  11  116.99    9.40
  -3   1  11  114.09    7.60
   2  -1 -11   59.79    8.70
   2  -1 -11   75.39    6.70
   2  -1 -11   67.69    7.60
   2  -1 -11   46.30    8.40
   2  -1 -11   69.99    6.70
  -2   1  11   73.09    7.40
  -2   1  11   89.19   11.50
  -2   1  11   78.09   12.30
  -2   1  11   49.10    6.60
   1  -1 -11  267.67   11.90
   1  -1 -11  282.67   12.10
   1  -1 -11  272.97   11.30
   1  -1 -11  282.97   12.10
   1  -1 -11  284.47   12.90
  -1   1  11  278.37   14.20
  -1   1  11  284.77   11.20
  -1   1  11  270.77   11.40
  -1   1  11  293.97   12.50
   0  -1 -11   22.70    4.00
   0  -1 -11   24.40    4.40
   0  -1 -11   28.10    3.80
   0  -1 -11   29.30    4.80
   0   1  11   36.20    5.80
   0   1  11   29.20    3.80
   0   1  11   29.20    4.10
   0   1  11   26.80    5.10
   0   1  11   26.20    4.80
  -1  -1 -11    3.20    3.60
  -1  -1 -11   -0.30    3.60
  -1  -1 -11    4.10    3.20
  -1  -1 -11    4.70    3.30
  -1  -1 -11    9.60    4.20
   1   1  11   -0.10    3.70
   1   1  11   -2.40    4.50
   1   1  11   -1.70    2.90
   1   1  11    4.20    4.10
   1   1  11    9.20    3.70
  -2  -1 -11   82.59    7.60
  -2  -1 -11   81.59   11.20
  -2  -1 -11  102.39    9.20
  -2  -1 -11   68.69    7.70
  -2  -1 -11   88.99    8.70
   2   1  11   84.49    8.30
   2   1  11   79.79    8.90
   2   1  11   79.99   10.80
   2   1  11   95.29    7.80
   2   1  11   91.39    7.90
  -3  -1 -11   18.00    6.20
  -3  -1 -11   34.40    7.50
  -3  -1 -11   22.40    8.00
  -3  -1 -11   25.90    6.20
  -3  -1 -11   35.60    6.00
  -3  -1 -11   31.60    8.60
   3   1  11   24.30    6.70
   3   1  11   16.90    8.40
   3   1  11   16.70    5.70
   3   1  11   28.40    5.00
  -4  -1 -11   26.80   10.10
  -4  -1 -11   24.30    8.00
  -4  -1 -11   21.40    7.10
  -4  -1 -11    9.80    7.80
  -4  -1 -11   -3.40   10.00
  -4  -1 -11   27.40    7.30
   4   1  11   13.70    5.80
   4   1  11   19.70    6.50
   4   1  11   12.30    8.70
   4   1  11   18.00   11.00
  -5  -1 -11   29.00    4.20
  -5  -1 -11   11.70    9.80
  -5  -1 -11   44.60   14.20
  -5  -1 -11   12.80   13.80
  -5  -1 -11   17.90   10.50
  -5  -1 -11   43.20   10.30
  -5  -1 -11   33.70    9.60
   5   1  11   11.60   12.30
   5   1  11   24.40    8.80
   5   1  11   16.80    7.60
   5   1  11   -0.80   14.90
   4  -2 -11  232.38   21.10
   4  -2 -11  238.08   19.40
   4  -2 -11  225.38   12.70
   4  -2 -11  201.18   12.20
   4  -2 -11  199.98   12.80
   4  -2 -11  223.48   15.20
  -4   2  11  166.18    9.40
  -4   2  11  192.28   12.40
  -4   2  11  142.39   16.80
  -4   2  11  210.38    9.00
   3  -2 -11   -3.40    6.20
   3  -2 -11   -3.40    4.40
   3  -2 -11    4.80    4.80
   3  -2 -11    9.50    7.20
   3  -2 -11   -0.50    5.50
   3  -2 -11    4.50    4.00
  -3   2  11   12.10    9.40
  -3   2  11    8.40    3.10
  -3   2  11    5.80    4.70
  -3   2  11   -1.90    2.30
   2  -2 -11   -2.50    3.00
   2  -2 -11    3.40    3.70
   2  -2 -11    2.50    5.20
   2  -2 -11    3.60    5.10
   2  -2 -11    1.60    4.00
   2  -2 -11    4.50    4.20
  -2   2  11    6.30    4.20
  -2   2  11    8.50    7.10
  -2   2  11    2.00    6.50
  -2   2  11    3.50    2.70
  -2   2  11    1.40    2.10
   1  -2 -11   11.60    3.20
   1  -2 -11   -0.60    3.60
   1  -2 -11    2.90    3.70
   1  -2 -11    3.10    4.20
   1  -2 -11   10.20    3.60
  -1   2  11    7.90    5.40
  -1   2  11    7.70    3.00
  -1   2  11    7.60    2.00
  -1   2  11    8.70    5.10
  -1   2  11    5.60    3.10
  -1   2  11    5.10    4.00
   0  -2 -11  976.10   31.50
   0  -2 -11  984.80   32.50
   0  -2 -11 1008.80   32.00
   0  -2 -11  995.30   31.10
   0   2  11  999.10   31.40
   0   2  11  993.50   32.10
   0   2  11 1004.50   33.00
   0   2  11 1039.30   32.30
   0   2  11 1014.40   32.00
  -1  -2 -11   57.69    6.20
  -1  -2 -11   72.99    9.00
  -1  -2 -11   47.50    6.40
  -1  -2 -11   57.09    7.10
   1   2  11   54.29    6.80
   1   2  11   49.99    7.20
   1   2  11   53.29    6.30
   1   2  11   56.39    8.80
   1   2  11   46.80    7.40
  -2  -2 -11   67.09    8.40
  -2  -2 -11   60.89    7.90
  -2  -2 -11   67.09    7.50
   2   2  11   73.29    8.00
   2   2  11   80.69    7.90
   2   2  11   69.19    9.00
   2   2  11   66.99    7.10
  -3  -2 -11  273.47   13.40
  -3  -2 -11  267.07   17.20
  -3  -2 -11  265.97   14.50
  -3  -2 -11  247.98   14.70
  -3  -2 -11  266.27   18.00
   3   2  11  280.57   18.40
   3   2  11  265.67   13.10
   3   2  11  277.87   14.10
   3   2  11  257.87   15.90
  -4  -2 -11  168.98   14.60
  -4  -2 -11  130.59   18.20
  -4  -2 -11  172.18   12.40
   4   2  11  116.59   14.60
   4   2  11  144.19   16.10
   4   2  11  136.29   12.70
   4   2  11  109.99   14.60
  -5  -2 -11   29.90   10.60
  -5  -2 -11   11.80   13.10
  -5  -2 -11   19.20   11.00
  -5  -2 -11  -20.20   12.80
  -5  -2 -11   -5.60   11.90
   5   2  11   -4.20   16.20
   5   2  11    9.30    7.40
   5   2  11  -13.50   15.40
   5   2  11   15.60    8.10
   4  -3 -11   79.89   11.00
   4  -3 -11  100.29   14.20
   4  -3 -11   96.89    9.70
   4  -3 -11   77.49    9.20
  -4   3  11   48.60   10.30
  -4   3  11   76.19    7.70
  -4   3  11   76.39    5.80
   3  -3 -11   12.90    5.90
   3  -3 -11   23.40    4.70
   3  -3 -11   34.00    8.50
   3  -3 -11   20.80    7.40
   3  -3 -11   25.60    5.60
  -3   3  11   32.20    7.90
  -3   3  11   26.80    3.30
  -3   3  11   19.40    4.00
  -3   3  11   31.40    9.80
   2  -3 -11  115.79   11.80
   2  -3 -11  122.49    8.10
   2  -3 -11  145.19   10.70
   2  -3 -11  135.99    9.00
   2  -3 -11  137.89    9.10
   2  -3 -11  132.79    8.80
  -2   3  11  137.29   13.20
  -2   3  11  130.19    5.80
  -2   3  11  124.29    9.70
  -2   3  11  133.49    7.60
  -2   3  11  116.79   11.30
   1  -3 -11  202.08    9.60
   1  -3 -11  185.38   15.10
   1  -3 -11  244.98   13.90
   1  -3 -11  196.28    9.40
   1  -3 -11  213.98   11.40
  -1   3  11  209.38    7.30
  -1   3  11  213.38   10.10
  -1   3  11  225.98   12.30
  -1   3  11  197.68   11.70
  -1   3  11  183.88   13.90
  -1   3  11  203.98   13.00
   0  -3 -11   71.09    8.70
   0  -3 -11   55.69    7.30
   0  -3 -11   44.60    6.00
   0  -3 -11   47.20    5.90
   0   3  11   41.70    5.80
   0   3  11   59.79    7.30
   0   3  11   49.50    6.70
   0   3  11   52.39    6.00
   0   3  11   51.99    7.90
  -1  -3 -11   85.19    7.60
  -1  -3 -11   90.19    7.30
  -1  -3 -11   64.89   10.80
   1   3  11   79.29    8.00
   1   3  11   86.29    7.20
   1   3  11   90.79    7.50
   1   3  11   97.79    8.70
  -2  -3 -11   25.00    5.70
  -2  -3 -11   20.80    7.30
  -2  -3 -11   29.80    5.60
  -2  -3 -11   22.60    4.60
   2   3  11   37.80    7.00
   2   3  11   39.80    5.80
   2   3  11   37.70    7.20
   2   3  11   32.10    5.90
   2   3  11   33.60    4.90
  -3  -3 -11   88.89   11.60
  -3  -3 -11  100.99   11.40
  -3  -3 -11   92.59   11.20
   3   3  11   81.69    9.20
   3   3  11  100.39   10.00
   3   3  11   83.09   11.80
  -4  -3 -11    4.30    8.30
  -4  -3 -11    7.20   10.60
  -4  -3 -11    1.40   10.50
  -4  -3 -11    8.70    8.30
  -4  -3 -11    4.20    7.00
   4   3  11   10.20    7.10
   4   3  11   14.40    6.10
   4   3  11   -1.70    9.70
   4   3  11    7.20   11.80
  -5  -3 -11   -1.50   10.90
  -5  -3 -11   14.10   14.70
  -5  -3 -11  -10.80   13.80
  -5  -3 -11   17.00   11.30
   5   3  11  -11.20   15.40
   4  -4 -11  -20.20   12.30
   4  -4 -11   -5.40    6.00
  -4   4  11    9.50    3.30
   3  -4 -11  156.98    9.70
   3  -4 -11  173.68   16.50
   3  -4 -11  159.78   11.50
  -3   4  11  166.78    7.40
   2  -4 -11    4.80    4.60
   2  -4 -11    0.20    3.60
   2  -4 -11    3.50    4.40
   2  -4 -11   -2.90    6.50
  -2   4  11   -6.30    6.00
  -2   4  11    2.90    1.90
  -2   4  11   -2.60    3.90
   1  -4 -11    7.00    4.00
   1  -4 -11    2.10    3.40
   1  -4 -11    7.70    4.70
  -1   4  11    4.20    2.00
  -1   4  11   10.00    5.20
  -1   4  11    6.20    4.20
  -1   4  11   -1.30    6.80
  -1   4  11    9.70    4.30
  -1   4  11   19.30    5.60
   0  -4 -11  163.98   12.90
   0  -4 -11  176.28   10.00
   0  -4 -11  171.08    9.60
   0  -4 -11  183.68    8.50
   0   4  11  165.18    6.40
   0   4  11  181.88    9.80
   0   4  11  189.58   12.80
   0   4  11  180.28    9.30
   0   4  11  191.88   10.80
   0   4  11  174.98   10.50
  -1  -4 -11   58.79    6.70
  -1  -4 -11   49.10    7.80
  -1  -4 -11   50.09    7.90
  -1  -4 -11   54.29    6.40
   1   4  11   62.99    9.30
   1   4  11   50.19    6.00
   1   4  11   54.99    6.80
   1   4  11   55.39    6.60
   1   4  11   52.29    7.70
  -2  -4 -11   39.20    6.40
  -2  -4 -11   36.80    5.70
  -2  -4 -11   66.79    9.40
  -2  -4 -11   41.30    9.10
   2   4  11   34.20    7.60
   2   4  11   44.00    6.50
   2   4  11   38.50    6.00
   2   4  11   36.20    5.30
   2   4  11   47.60    9.00
  -3  -4 -11  101.59   13.00
  -3  -4 -11   76.09   10.80
  -3  -4 -11  105.99   13.10
  -3  -4 -11   91.59   15.50
   3   4  11   79.09    9.40
   3   4  11   91.89   11.20
   3   4  11  107.29   10.40
   3   4  11  108.69   16.70
   3   4  11   80.59   10.70
  -4  -4 -11    4.10   10.80
  -4  -4 -11    1.80    9.30
  -4  -4 -11  -18.40    8.90
  -4  -4 -11   -9.30    7.40
   4   4  11   -3.30   11.00
   4   4  11   12.00    6.20
   4   4  11   -8.40    7.10
   4   4  11    9.00   10.40
   3  -5 -11  203.88   13.50
   3  -5 -11  236.88   19.70
  -3   5  11  210.68    9.20
   2  -5 -11   38.00    7.40
   2  -5 -11   37.10    8.50
  -2   5  11   37.70    4.10
   1  -5 -11   80.79    9.10
   1  -5 -11   66.09    7.10
   1  -5 -11   86.19    9.20
  -1   5  11   72.29    4.60
  -1   5  11   73.29    9.30
  -1   5  11   79.39    8.20
   0  -5 -11  111.09   12.80
   0  -5 -11  120.29    7.20
   0  -5 -11  118.59   10.20
   0  -5 -11   98.39    8.90
   0   5  11  101.69    5.50
   0   5  11  125.29   13.30
   0   5  11   90.89    7.90
   0   5  11  122.29   10.50
   0   5  11   97.89    9.80
   0   5  11  109.59    8.50
  -1  -5 -11    5.00    5.30
  -1  -5 -11    8.70    4.20
   1   5  11   -1.80    7.70
   1   5  11    1.70    4.40
   1   5  11    8.70    4.10
   1   5  11   12.50    4.80
   1   5  11    4.90    6.00
  -2  -5 -11  115.19    9.60
  -2  -5 -11  143.09   11.80
  -2  -5 -11  121.29   12.30
  -2  -5 -11  145.19   15.00
   2   5  11  112.99    9.40
   2   5  11  122.79   16.50
   2   5  11  107.99   11.40
   2   5  11  116.79   10.20
   2   5  11  103.79   13.60
  -3  -5 -11   -3.60    7.80
  -3  -5 -11   -2.70    9.70
  -3  -5 -11   -3.70    7.70
  -3  -5 -11    0.90    6.50
  -3  -5 -11   10.40   10.20
   3   5  11    4.40    9.60
   3   5  11   -2.90    4.70
   3   5  11    2.40    6.70
   3   5  11    3.10    6.10
   3   5  11   -3.60    9.70
  -4  -5 -11    6.50   13.60
  -4  -5 -11   -6.70   10.30
  -4  -5 -11    1.50    9.80
  -4  -5 -11   10.00    8.90
  -4  -5 -11  -22.40   12.00
   4   5  11   24.40   13.50
   4   5  11    5.30    7.50
   4   5  11   -9.00    7.40
   4   5  11  -14.10    8.00
   4   5  11   -4.30   12.20
   2  -6 -11   -0.80    7.30
   2  -6 -11   10.40    5.80
   2  -6 -11    8.30    9.60
  -2   6  11    6.00    2.90
   1  -6 -11   52.09    7.50
  -1   6  11   56.89    5.40
  -1   6  11   66.79    8.80
   0  -6 -11   88.29    7.20
   0   6  11   62.59    8.20
   0   6  11   60.79    8.10
   0   6  11   85.39    8.60
   0   6  11   59.39    5.80
  -1  -6 -11   17.10    9.00
  -1  -6 -11   28.70    5.30
  -1  -6 -11   22.20    7.30
  -1  -6 -11   14.40    9.70
   1   6  11   36.50    6.40
   1   6  11   11.50   10.30
   1   6  11   25.20    4.60
   1   6  11   34.50    6.50
   1   6  11   37.30    7.80
  -2  -6 -11  252.57   13.80
  -2  -6 -11  265.37   17.10
  -2  -6 -11  261.07   20.50
  -2  -6 -11  287.87   16.70
   2   6  11  231.98   18.10
   2   6  11  231.28   20.30
   2   6  11  249.97   13.10
   2   6  11  271.87   14.30
   2   6  11  244.88   15.40
  -3  -6 -11  111.09   16.30
  -3  -6 -11   85.59   12.10
  -3  -6 -11   85.79   14.10
  -3  -6 -11   64.29    9.50
  -3  -6 -11   82.69   15.20
   3   6  11   74.69   10.10
   3   6  11   86.29   11.30
   3   6  11   80.79   10.10
   3   6  11   79.89   13.90
   3   6  11   88.39   13.50
   1  -7 -11   -8.40    8.50
  -1   7  11    0.30    3.80
   0  -7 -11   14.20    4.80
   0   7  11    9.00    4.30
   0   7  11   22.90    6.60
  -1  -7 -11  144.69   16.40
  -1  -7 -11  160.28   11.00
   1   7  11  132.79   12.00
   1   7  11  161.98   20.10
   1   7  11  172.98   17.20
   1   7  11  124.29    9.70
  -2  -7 -11   33.10    7.80
  -2  -7 -11   36.10    9.90
  -2  -7 -11   56.29   10.10
  -2  -7 -11   28.50   12.30
   2   7  11   41.20    9.00
   2   7  11   49.40   11.50
   2   7  11   40.90    7.70
   2   7  11   29.70   12.80
   2   7  11   35.70    7.30
   1   5 -12   -3.90    7.00
   1   5 -12    3.80   11.00
   1   5 -12    5.80    6.10
   1   5 -12  -14.20   11.60
  -1  -5  12   26.50   14.70
  -1  -5  12   -5.10    7.80
  -1  -5  12    3.10   13.00
  -1  -5  12    2.60    6.20
   0   5 -12    3.50    5.90
   0   5 -12   19.00    7.10
   0   5 -12    7.70   12.40
   0   5 -12   12.00   10.60
   0  -5  12   12.80   12.10
   0  -5  12    0.70    8.00
   0  -5  12    4.30    6.50
   0  -5  12  -25.40   11.10
   0  -5  12    3.00    8.00
   3   4 -12   -9.20   13.00
   3   4 -12   -9.70   14.80
   3   4 -12  -17.00    8.60
   3   4 -12  -16.50    8.10
   3   4 -12   -7.30   11.40
  -3  -4  12  -14.60   15.10
  -3  -4  12   -8.40    8.00
  -3  -4  12   15.00    6.20
  -3  -4  12  -27.90   14.80
   2   4 -12   56.69   10.90
   2   4 -12   35.70    8.10
   2   4 -12   49.50   10.90
   2   4 -12   36.00    7.80
   2   4 -12   50.59   12.40
  -2  -4  12   57.09   14.20
  -2  -4  12   59.99    8.00
  -2  -4  12   47.60   13.80
  -2  -4  12   49.40    8.40
   1   4 -12  152.18   16.60
   1   4 -12  149.69   11.40
   1   4 -12  162.18   18.10
   1   4 -12  136.29   11.80
  -1  -4  12  123.29   10.30
  -1  -4  12  150.08   11.30
  -1  -4  12  130.89   12.80
  -1  -4  12  129.59   18.00
  -1  -4  12  142.69   19.60
   0   4 -12   62.39    9.90
   0   4 -12   55.19    7.30
   0   4 -12   32.70    8.80
   0   4 -12   55.29   10.30
   0  -4  12   52.19   10.60
   0  -4  12   37.50    6.70
   0  -4  12   36.50    7.80
   0  -4  12   32.70   10.30
  -1   4 -12   72.49   10.00
  -1   4 -12   53.09    9.00
  -1   4 -12   63.59   12.90
  -1   4 -12   66.79    8.60
   1  -4  12   37.00   10.20
   1  -4  12   45.10    9.30
   1  -4  12   41.00    6.70
   1  -4  12   37.70   10.30
  -2   4 -12   -5.60    9.20
  -2   4 -12   26.40    8.90
  -2   4 -12   13.80    6.60
  -2   4 -12    1.20    7.90
   2  -4  12    8.00   10.00
   2  -4  12   11.30    9.90
   2  -4  12   15.50    7.90
   3   3 -12    4.80   12.10
   3   3 -12   24.40   10.60
   3   3 -12    2.20    8.20
   3   3 -12    1.70    7.20
   3   3 -12   10.80   11.10
  -3  -3  12   12.20   14.70
  -3  -3  12   -8.80   13.00
  -3  -3  12    5.40    6.80
  -3  -3  12    7.60    5.50
   2   3 -12   37.20    7.40
   2   3 -12   60.19   11.10
   2   3 -12   48.10   10.20
   2   3 -12   37.90    9.70
   2   3 -12   46.30    8.60
  -2  -3  12   35.70    7.50
  -2  -3  12   46.30   12.50
  -2  -3  12   40.60   11.70
   1   3 -12    9.30    6.40
   1   3 -12   10.80    6.10
   1   3 -12   -9.30    8.20
   1   3 -12    8.80    5.40
   1   3 -12   18.80    7.90
  -1  -3  12   -2.00    5.80
  -1  -3  12   -1.40    9.60
  -1  -3  12   11.20    4.90
   0   3 -12  232.48   15.90
   0   3 -12  221.48   14.30
   0   3 -12  204.68   11.60
   0   3 -12  212.78   12.40
   0  -3  12  218.18   16.20
   0  -3  12  203.98   11.60
   0  -3  12  179.28   15.40
   0  -3  12  210.98   13.30
  -1   3 -12   86.49   10.20
  -1   3 -12   86.69   10.80
  -1   3 -12  103.39    9.80
  -1   3 -12   96.99   14.00
   1  -3  12   86.69   10.50
   1  -3  12   73.19    9.40
   1  -3  12  103.49   13.50
  -2   3 -12    8.10    7.30
  -2   3 -12   -1.30    5.50
  -2   3 -12    1.60    6.80
  -2   3 -12   13.10    7.60
   2  -3  12    9.80    7.90
   2  -3  12    6.90    6.40
   2  -3  12   21.50    8.00
  -3   3 -12   12.70    9.80
  -3   3 -12    9.20    7.40
  -3   3 -12    1.60   10.10
  -3   3 -12   15.80    9.60
  -3   3 -12   10.80   10.90
  -3   3 -12   -0.60    7.00
   3  -3  12    5.60    8.20
   3  -3  12   13.00   11.80
   3  -3  12    4.40    8.60
   3  -3  12    5.70    8.10
   4   2 -12   -8.70    8.50
   4   2 -12   -4.30    8.90
   4   2 -12   11.00   11.60
   4   2 -12   -3.80   13.10
   4   2 -12  -11.10   13.00
  -4  -2  12    5.00   14.90
  -4  -2  12   -2.10    7.60
  -4  -2  12   10.80    5.40
  -4  -2  12   -3.40   16.00
   3   2 -12   23.50   10.40
   3   2 -12   12.70    6.80
   3   2 -12   -9.70    9.30
   3   2 -12   13.60    4.90
   3   2 -12   15.50    9.30
   3   2 -12   17.80    7.30
  -3  -2  12   10.50    5.90
  -3  -2  12   21.10    5.10
  -3  -2  12   21.70   12.00
  -3  -2  12   30.30   13.30
   2   2 -12   35.20    7.00
   2   2 -12   59.29    9.80
   2   2 -12   59.89    6.90
   2   2 -12   55.69    7.40
   2   2 -12   40.90    8.10
  -2  -2  12   35.70   11.30
  -2  -2  12   53.69    7.00
  -2  -2  12   40.40   10.60
   1   2 -12   82.59    8.40
   1   2 -12   74.39   10.30
   1   2 -12   85.89   10.90
   1   2 -12   94.89   12.30
   1   2 -12   95.79    9.40
  -1  -2  12   77.59    9.50
  -1  -2  12   77.29    7.80
  -1  -2  12   80.29    9.60
  -1  -2  12   94.89   13.90
   0   2 -12   10.30    4.40
   0   2 -12   11.90    7.30
   0   2 -12    3.20    5.30
   0   2 -12   -1.50    4.50
   0  -2  12    9.70    5.40
   0  -2  12    3.30    6.70
   0  -2  12   12.70    7.60
   0  -2  12    4.80    4.00
  -1   2 -12  257.17   13.30
  -1   2 -12  210.88   14.10
  -1   2 -12  253.37   13.60
  -1   2 -12  269.77   13.00
   1  -2  12  235.58    9.70
   1  -2  12  278.17   14.70
   1  -2  12  244.88   12.90
  -2   2 -12   17.60    6.40
  -2   2 -12   28.70    6.00
  -2   2 -12   18.60    5.60
  -2   2 -12   19.70    7.80
  -2   2 -12   34.20    7.30
   2  -2  12   24.10    6.80
   2  -2  12   18.70    6.90
   2  -2  12   18.80    6.70
   2  -2  12   23.20    4.60
  -3   2 -12   83.69    9.60
  -3   2 -12   94.39   13.90
  -3   2 -12   93.59   12.90
  -3   2 -12   72.19   12.20
  -3   2 -12   67.59    9.70
  -3   2 -12   72.79   11.40
   3  -2  12  104.19   17.40
   3  -2  12   93.79   12.30
   3  -2  12   72.89    9.70
   3  -2  12   82.79   11.80
   4   1 -12  -15.70   10.00
   4   1 -12  -11.80    7.20
   4   1 -12    2.20    8.00
   4   1 -12   -1.20    6.00
   4   1 -12   -9.30   11.70
   4   1 -12   -1.30   11.90
  -4  -1  12   -4.90    6.60
  -4  -1  12    8.10    4.90
  -4  -1  12   10.60   14.00
  -4  -1  12  -16.20   15.00
   3   1 -12   18.30   10.60
   3   1 -12   26.00    8.00
   3   1 -12    9.60    8.60
   3   1 -12   14.20    5.00
   3   1 -12   15.00    6.20
   3   1 -12   14.80    9.70
  -3  -1  12   28.50   11.80
  -3  -1  12   17.00    5.70
  -3  -1  12   17.00    4.60
  -3  -1  12   17.10   12.50
   2   1 -12    2.90    6.60
   2   1 -12   -7.20    4.10
   2   1 -12   -8.60    6.70
   2   1 -12    0.30    4.70
   2   1 -12   -1.40    8.10
   2   1 -12   -2.40    5.10
  -2  -1  12    8.80    8.10
  -2  -1  12   -9.30    8.80
  -2  -1  12   -1.40    4.90
   1   1 -12   76.29    8.20
   1   1 -12   94.49    9.70
   1   1 -12   90.99   10.70
   1   1 -12   99.19   10.10
   1   1 -12   79.79    7.80
  -1  -1  12   86.99   11.70
  -1  -1  12   88.19   12.60
  -1  -1  12   94.79    9.20
  -1  -1  12   88.49    7.60
   0   1 -12   51.09    7.10
   0   1 -12   57.29    6.90
   0   1 -12   58.69    9.40
   0   1 -12   53.49    8.00
   0  -1  12   49.20    8.20
   0  -1  12   55.89    5.10
   0  -1  12   50.69    5.90
   0  -1  12   54.09    7.90
  -1   1 -12  611.24   21.60
  -1   1 -12  608.04   21.90
  -1   1 -12  610.94   22.90
  -1   1 -12  655.33   21.80
   1  -1  12  582.04   22.90
   1  -1  12  586.84   19.80
   1  -1  12  616.74   23.10
   1  -1  12  603.34   22.30
  -2   1 -12   19.10    6.70
  -2   1 -12    2.10    6.90
  -2   1 -12    7.40    4.40
  -2   1 -12   12.20    5.60
  -2   1 -12   14.00    7.00
  -2   1 -12    7.20    6.80
   2  -1  12   17.40    4.60
   2  -1  12   15.40    5.90
   2  -1  12   13.30    6.10
   2  -1  12    9.80    9.70
  -3   1 -12   31.50    7.00
  -3   1 -12   24.90    7.10
  -3   1 -12   29.10    7.70
  -3   1 -12   33.90    5.70
  -3   1 -12   24.70    8.70
   3  -1  12   26.10    8.50
   3  -1  12   33.90    9.80
   3  -1  12   33.30    6.90
   3  -1  12   34.10    7.00
  -4   1 -12  156.18   16.90
  -4   1 -12  107.29   15.10
  -4   1 -12  124.89   12.80
  -4   1 -12  103.89   13.70
  -4   1 -12  159.18   15.70
  -4   1 -12  129.69   19.90
   4  -1  12  117.39   12.50
   4  -1  12  170.98   22.40
   4  -1  12   78.59   12.70
   4  -1  12  119.29   12.90
   4   0 -12   59.29   13.50
   4   0 -12   39.90    9.70
   4   0 -12   38.80   12.30
   4   0 -12   46.50    8.90
   4   0 -12   42.30    8.00
   4   0 -12   46.90    7.30
  -4   0  12   54.69    7.50
  -4   0  12   38.50   15.20
  -4   0  12   49.30   14.50
  -4   0  12   55.39    8.10
   3   0 -12    4.90    5.00
   3   0 -12   -0.40    6.30
   3   0 -12    2.70    8.00
   3   0 -12   -5.70    7.40
   3   0 -12   16.00    7.80
  -3   0  12    5.30   10.60
  -3   0  12    6.00   11.20
  -3   0  12   -0.10    4.20
  -3   0  12    4.70    5.20
   2   0 -12   -4.00    6.20
   2   0 -12    1.10    5.80
   2   0 -12   -2.00    3.90
   2   0 -12   -4.10    4.20
   2   0 -12   -1.80    4.90
   2   0 -12    4.80    6.50
  -2   0  12    2.50    9.20
  -2   0  12    1.50    4.50
  -2   0  12   -0.30    8.00
  -2   0  12   -4.50    3.60
   1   0 -12   51.29    7.50
   1   0 -12   72.69    9.60
   1   0 -12   46.60    6.50
   1   0 -12   52.69    6.30
  -1   0  12   54.09    8.50
  -1   0  12   56.79    6.70
  -1   0  12   45.70    6.10
  -1   0  12   53.19    8.00
   0   0 -12  137.39   12.50
   0   0 -12  180.98   10.50
   0   0 -12  170.48    9.90
   0   0 -12  192.68    9.80
   0   0  12  179.18   11.70
   0   0  12  181.28    8.30
   0   0  12  186.48    9.50
   0   0  12  198.78   12.30
   0   0  12  150.38   13.10
  -1   0 -12   98.59    7.90
  -1   0 -12  138.49    9.20
  -1   0 -12  122.29    8.50
  -1   0 -12  125.19   10.70
   1   0  12  123.09   10.20
   1   0  12  112.49    9.70
   1   0  12  117.59    7.50
   1   0  12  129.79   10.40
  -2   0 -12   12.90    5.50
  -2   0 -12   15.20    4.50
  -2   0 -12   37.00    7.70
  -2   0 -12   12.10    5.80
  -2   0 -12   19.50    5.10
   2   0  12   18.60    5.40
   2   0  12   21.40    4.80
   2   0  12   11.60    7.10
   2   0  12   15.10    5.60
   2   0  12    9.70    5.90
  -3   0 -12   53.99    7.50
  -3   0 -12   75.09    9.50
  -3   0 -12   76.19   11.30
  -3   0 -12   51.89   10.30
  -3   0 -12   51.39    9.40
  -3   0 -12   60.59    8.40
   3   0  12   70.79   10.90
   3   0  12   58.79    8.90
   3   0  12   61.09    7.50
   3   0  12   71.49    9.70
  -4   0 -12   69.69   13.30
  -4   0 -12   85.39   11.90
  -4   0 -12   71.59   12.10
  -4   0 -12   89.39   11.30
  -4   0 -12   85.19   10.30
  -4   0 -12   83.29   10.30
   4   0  12   94.29   14.30
   4   0  12   84.59   12.00
   4   0  12   97.39   11.20
   4  -1 -12    3.40    5.90
   4  -1 -12   11.50    6.30
   4  -1 -12    4.80    7.10
   4  -1 -12   -2.80    8.80
   4  -1 -12   -1.00   12.10
   4  -1 -12   -7.40   11.30
  -4   1  12   10.00   12.70
  -4   1  12   11.50    3.20
  -4   1  12    7.40    6.30
  -4   1  12    9.90    4.50
  -4   1  12    9.50   13.80
   3  -1 -12   20.60    5.00
   3  -1 -12   18.30    5.40
   3  -1 -12   14.90    5.80
   3  -1 -12   16.70    8.30
   3  -1 -12    2.60    7.50
   3  -1 -12   22.40    7.50
  -3   1  12   11.90    4.10
  -3   1  12   17.20    9.80
  -3   1  12   22.90   11.10
  -3   1  12    9.40    5.30
   2  -1 -12   30.50    7.30
   2  -1 -12   22.80    6.40
   2  -1 -12   37.30    5.10
   2  -1 -12   30.10    5.20
   2  -1 -12   28.00    4.90
   2  -1 -12   26.50    6.20
  -2   1  12   38.10    8.70
  -2   1  12   28.00    4.40
  -2   1  12   28.50    8.90
   1  -1 -12  166.18   10.20
   1  -1 -12  177.58   10.10
   1  -1 -12  184.68   11.30
   1  -1 -12  164.68    9.20
  -1   1  12  171.28   10.80
  -1   1  12  160.88   12.90
  -1   1  12  175.18    8.70
   0  -1 -12   47.10    6.40
   0  -1 -12   35.10    4.70
   0  -1 -12   56.79    7.80
   0  -1 -12   43.90    5.40
   0   1  12   39.70    4.80
   0   1  12   48.50    6.90
   0   1  12   39.60    6.00
   0   1  12   48.70    6.90
   0   1  12   39.30    5.10
  -1  -1 -12  165.58    9.80
  -1  -1 -12  155.18    8.90
  -1  -1 -12  167.58    9.80
  -1  -1 -12  179.28   11.70
  -1  -1 -12  156.78   10.30
   1   1  12  178.08   10.80
   1   1  12  171.98   10.50
   1   1  12  160.18   12.10
   1   1  12  166.38   10.70
   1   1  12  170.68    9.00
  -2  -1 -12  214.98   11.10
  -2  -1 -12  224.78   12.60
  -2  -1 -12  185.08   18.30
  -2  -1 -12  188.58   11.70
  -2  -1 -12  217.48   12.20
   2   1  12  199.48   15.10
   2   1  12  223.58   11.50
   2   1  12  209.78   11.60
   2   1  12  178.48   12.70
   2   1  12  206.78   16.90
  -3  -1 -12  150.28   16.50
  -3  -1 -12  124.69   11.70
  -3  -1 -12  115.19   10.50
  -3  -1 -12  127.19   12.60
  -3  -1 -12  113.49   12.00
  -3  -1 -12  108.19   14.30
   3   1  12  134.29   10.80
   3   1  12  151.68   10.70
   3   1  12  135.09   11.10
   3   1  12   93.59   15.80
   3   1  12  137.69   13.90
  -4  -1 -12   10.60   11.90
  -4  -1 -12   20.10    8.90
  -4  -1 -12   33.60    7.90
  -4  -1 -12   16.00   11.00
  -4  -1 -12   29.50    8.40
  -4  -1 -12   14.40    8.10
   4   1  12   18.00    7.10
   4   1  12   27.50    6.70
   4   1  12   28.10   12.80
   4   1  12   21.40    9.90
   4  -2 -12   14.40    8.80
   4  -2 -12   12.30    7.00
   4  -2 -12   14.60   12.00
   4  -2 -12   20.30   12.50
   4  -2 -12   27.70    6.50
  -4   2  12   23.00   13.80
  -4   2  12    4.30   11.10
  -4   2  12   16.90    3.60
  -4   2  12   10.60    4.10
  -4   2  12    9.10    6.50
   3  -2 -12   -6.20    4.20
   3  -2 -12    5.00    6.60
   3  -2 -12    9.00    5.20
   3  -2 -12    5.90    5.40
   3  -2 -12    4.90    7.30
   3  -2 -12   13.50    8.20
  -3   2  12   12.90    3.70
  -3   2  12    7.50    2.70
  -3   2  12   11.10    5.40
  -3   2  12    9.50    9.70
  -3   2  12   18.00   11.30
   2  -2 -12    0.40    3.70
   2  -2 -12   10.10    5.00
   2  -2 -12    2.70    6.00
   2  -2 -12    4.70    4.60
   2  -2 -12    4.40    6.10
   2  -2 -12    8.70    4.60
  -2   2  12    8.40    5.20
  -2   2  12    4.70    2.40
  -2   2  12   23.50    8.50
  -2   2  12   13.80    7.70
  -2   2  12    5.10    3.60
   1  -2 -12   25.70    5.00
   1  -2 -12   27.20    4.50
   1  -2 -12   31.80    5.50
   1  -2 -12   30.80    5.10
   1  -2 -12   32.20    5.40
  -1   2  12   17.10    6.50
  -1   2  12   32.40    4.70
  -1   2  12   28.80    2.80
  -1   2  12   29.60    4.20
  -1   2  12   27.90    5.40
  -1   2  12   20.20    6.70
   0  -2 -12    6.80    3.30
   0  -2 -12    3.00    4.20
   0  -2 -12   11.60    4.80
   0   2  12   -2.30    3.00
   0   2  12    5.40    5.10
   0   2  12    5.00    5.40
   0   2  12   -3.30    4.30
  -1  -2 -12    4.00    4.20
  -1  -2 -12    6.30    3.60
  -1  -2 -12    3.40    4.20
  -1  -2 -12    8.70    6.10
   1   2  12    6.80    4.70
   1   2  12    2.80    4.80
   1   2  12    1.50    5.60
   1   2  12    1.40    3.50
   1   2  12    1.00    4.30
  -2  -2 -12  223.88   12.90
  -2  -2 -12  204.98   11.50
  -2  -2 -12  223.08   15.10
  -2  -2 -12  205.38   12.20
   2   2  12  212.18   13.30
   2   2  12  226.18   13.70
   2   2  12  216.98   15.40
   2   2  12  220.38   12.40
   2   2  12  227.38   11.80
  -3  -2 -12    6.30    6.40
  -3  -2 -12   20.30    9.20
  -3  -2 -12   14.80    5.80
  -3  -2 -12   -4.40    5.80
  -3  -2 -12    8.40    8.70
   3   2  12    6.90    5.90
   3   2  12   13.40   10.90
   3   2  12   -5.40    5.80
   3   2  12    7.40    5.10
   3   2  12   15.10    8.90
  -4  -2 -12   16.10    8.70
  -4  -2 -12    4.00   11.30
   4   2  12    6.10    6.40
   4   2  12    0.40    9.80
   4   2  12   12.90   12.00
   4   2  12   10.50    7.60
   4  -3 -12  247.48   15.10
   4  -3 -12  237.88   17.10
   4  -3 -12  242.38   23.10
  -4   3  12  238.08   10.10
  -4   3  12  219.68   11.60
   3  -3 -12   24.00    5.10
   3  -3 -12   20.30    8.40
   3  -3 -12   19.50    7.00
   3  -3 -12   19.70    6.40
   3  -3 -12   31.60    9.30
  -3   3  12   32.00   11.20
  -3   3  12   23.20    3.30
  -3   3  12   18.40    9.50
  -3   3  12   17.70    4.30
   2  -3 -12   36.20    6.10
   2  -3 -12   31.60    7.10
   2  -3 -12   34.70    6.70
   2  -3 -12   33.70    8.00
   2  -3 -12   35.40    5.80
  -2   3  12   35.10    3.90
  -2   3  12   39.90    9.10
  -2   3  12   42.80    6.40
  -2   3  12   51.39    6.70
  -2   3  12   40.70   10.40
   1  -3 -12    7.40    5.20
   1  -3 -12    0.20    3.50
   1  -3 -12    4.00    4.00
   1  -3 -12    8.20    5.30
   1  -3 -12    0.30    5.20
  -1   3  12    2.00    6.30
  -1   3  12    3.70    6.20
  -1   3  12   -4.20    5.20
  -1   3  12    4.60    2.00
  -1   3  12   10.70    4.10
  -1   3  12    5.50    4.40
   0  -3 -12    2.80    3.10
   0  -3 -12   15.50    5.90
   0  -3 -12    8.50    4.50
   0  -3 -12   -0.20    3.80
   0   3  12   -0.80    4.20
   0   3  12   11.50    5.50
   0   3  12    4.80    5.60
   0   3  12    7.50    4.90
   0   3  12    6.50    4.10
  -1  -3 -12   10.40    7.40
  -1  -3 -12   21.70    4.50
  -1  -3 -12   17.00    4.90
  -1  -3 -12   26.10    5.30
   1   3  12   20.90    5.10
   1   3  12   22.70    6.90
   1   3  12   24.10    5.30
   1   3  12   23.50    4.80
   1   3  12   27.20    6.00
  -2  -3 -12  147.49   10.30
  -2  -3 -12  145.09   11.20
  -2  -3 -12  128.29   13.90
  -2  -3 -12  141.59   11.40
   2   3  12  180.88   11.20
   2   3  12  136.59   13.40
   2   3  12  150.48   10.50
   2   3  12  143.69   14.40
   2   3  12  154.38   10.10
  -3  -3 -12  487.15   21.60
  -3  -3 -12  447.46   25.00
  -3  -3 -12  495.55   19.90
  -3  -3 -12  461.45   24.60
  -3  -3 -12  478.05   21.40
   3   3  12  495.95   20.70
   3   3  12  470.25   25.90
   3   3  12  446.06   22.50
   3   3  12  506.75   20.60
   3   3  12  484.75   19.50
  -4  -3 -12   14.90   11.70
  -4  -3 -12  -19.90   12.30
  -4  -3 -12    6.20    8.60
  -4  -3 -12   11.60    7.90
   4   3  12    3.90   13.20
   4   3  12   -1.40    6.30
   4   3  12    4.10   10.40
   4   3  12   -5.90    7.20
   3  -4 -12   44.00   10.60
   3  -4 -12   50.49    6.30
   3  -4 -12   53.79    7.90
   3  -4 -12   58.89    8.20
  -3   4  12   49.20    9.50
  -3   4  12   40.60    5.90
  -3   4  12   46.40    4.80
   2  -4 -12    1.80    7.80
   2  -4 -12    2.60    5.30
   2  -4 -12    9.10    5.00
   2  -4 -12    5.10    4.40
  -2   4  12    3.00    4.50
  -2   4  12   -4.30    7.50
  -2   4  12    4.70    2.40
   1  -4 -12   18.80    4.50
   1  -4 -12    3.60    5.60
   1  -4 -12   21.60    6.80
   1  -4 -12    9.60    4.90
   1  -4 -12   24.90    6.20
  -1   4  12   19.30    4.80
  -1   4  12   13.40    2.50
  -1   4  12   12.90    4.70
  -1   4  12    4.40    6.10
  -1   4  12   11.60    6.30
  -1   4  12   13.30    7.10
   0  -4 -12   17.50    7.80
   0  -4 -12   21.30    5.20
   0  -4 -12   20.50    5.20
   0  -4 -12   19.10    4.00
   0   4  12   27.20    4.90
   0   4  12   14.50    5.20
   0   4  12   30.10    5.90
   0   4  12   31.90    6.30
   0   4  12   16.40    7.10
  -1  -4 -12   18.30    5.50
  -1  -4 -12    4.70    7.30
  -1  -4 -12   15.00    4.30
  -1  -4 -12    6.40    5.00
   1   4  12   11.50    6.40
   1   4  12    2.30    6.50
   1   4  12   11.40    4.90
   1   4  12    5.80    5.50
   1   4  12    9.50    4.10
  -2  -4 -12  102.59   11.20
  -2  -4 -12  123.09   10.90
  -2  -4 -12  103.69    9.80
  -2  -4 -12   79.19   11.50
   2   4  12  102.49   15.40
   2   4  12  100.99    9.90
   2   4  12   88.29   10.00
   2   4  12  106.29   10.90
   2   4  12  102.59    9.30
  -3  -4 -12  127.89   18.10
  -3  -4 -12  130.89   12.30
  -3  -4 -12  174.68   14.40
   3   4  12  134.39   11.50
   3   4  12  110.79   18.70
   3   4  12  152.18   13.10
   3   4  12  157.18   16.60
   3   4  12  115.99   13.60
  -4  -4 -12   38.90   11.10
  -4  -4 -12   36.00   10.50
  -4  -4 -12    9.20    8.60
  -4  -4 -12  -13.10   12.60
  -4  -4 -12   -7.30   12.70
   4   4  12    7.70    8.50
   4   4  12   -6.40   11.60
   4   4  12   23.40    9.10
   4   4  12   -7.30   14.40
   4   4  12    7.50    7.20
   2  -5 -12   13.50    9.00
   2  -5 -12    8.70    6.20
   2  -5 -12   21.50    5.90
  -2   5  12   17.30    3.30
   1  -5 -12   12.60    5.70
   1  -5 -12    1.10    4.40
   1  -5 -12    6.90    5.30
  -1   5  12    3.00    2.60
  -1   5  12  -10.00    6.60
  -1   5  12    1.80    5.50
  -1   5  12   13.90    5.30
   0  -5 -12   42.40    8.40
   0  -5 -12   35.20    6.30
   0  -5 -12   33.10    9.10
   0  -5 -12   38.80    4.60
   0   5  12   39.00    5.60
   0   5  12   45.40    7.90
   0   5  12   48.10    8.70
   0   5  12   39.90    7.00
   0   5  12   33.20    5.80
   0   5  12   33.80    3.70
  -1  -5 -12   27.50    5.30
  -1  -5 -12   22.80    9.80
  -1  -5 -12   32.40    6.70
  -1  -5 -12   28.40    6.70
   1   5  12   10.60    6.90
   1   5  12   28.20    6.50
   1   5  12   37.90    9.80
   1   5  12   23.30    5.40
   1   5  12   29.40    5.60
  -2  -5 -12   13.60    5.70
  -2  -5 -12   -0.80    6.70
   2   5  12    3.90    6.20
   2   5  12    6.50    5.40
   2   5  12   12.40    9.90
   2   5  12   13.10    6.80
   2   5  12   13.60    8.00
  -3  -5 -12   59.79   13.60
  -3  -5 -12   55.89   12.80
  -3  -5 -12   77.09   11.10
  -3  -5 -12   53.29    8.50
   3   5  12   50.29    7.70
   3   5  12   32.20   13.20
   3   5  12   85.99   11.20
   3   5  12   49.00   11.80
   3   5  12   73.69    9.70
   1  -6 -12   38.10    8.70
   1  -6 -12   46.70    6.40
  -1   6  12   41.40    4.40
  -1   6  12   47.60    7.30
   0  -6 -12    8.40    4.10
   0   6  12    5.90    7.40
   0   6  12   -1.70    5.10
   0   6  12    3.10    3.80
   0   6  12   12.20    5.30
  -1  -6 -12    4.50   10.20
  -1  -6 -12    6.80    7.00
  -1  -6 -12    9.00    5.10
  -1  -6 -12    2.70    7.30
   1   6  12    1.70    5.20
   1   6  12  -19.60   11.10
   1   6  12    6.20    8.40
   1   6  12   -5.40    6.50
  -2  -6 -12   19.60    9.00
  -2  -6 -12    8.30   11.70
  -2  -6 -12   21.50    6.50
  -2  -6 -12   17.10    8.60
   2   6  12   10.70    7.70
   2   6  12   -4.00   11.30
   2   6  12   14.80    6.30
   2   6  12   39.10   10.80
   2   6  12    9.30    6.10
  -3  -6 -12   57.59   18.10
   3   6  12   81.89   18.00
   3   6  12   71.79   14.40
   1   4 -13   20.10   10.70
   1   4 -13   10.40    7.00
   1   4 -13    6.90   11.80
   1   4 -13   -1.50    6.50
  -1  -4  13   -9.10    7.30
  -1  -4  13  -12.40   12.60
  -1  -4  13   -4.90   12.80
  -1  -4  13   -2.50    6.10
   0   4 -13   26.50   11.30
   0   4 -13    8.00    7.30
   0   4 -13   17.00    6.90
   0   4 -13    1.50    9.50
   0  -4  13   10.80   11.40
   0  -4  13   26.30    8.40
   0  -4  13    4.80    6.30
   0  -4  13    9.60   11.00
  -1   4 -13   -3.20   10.70
  -1   4 -13   -2.30    8.00
   1  -4  13   -4.50   10.80
   1  -4  13    8.90    9.40
   3   3 -13   95.59   14.90
   3   3 -13   96.09   11.30
   3   3 -13  148.09   20.60
   3   3 -13   88.49   15.80
   3   3 -13  115.09   14.80
  -3  -3  13  106.19   15.20
  -3  -3  13   71.39   18.60
  -3  -3  13   82.19   11.40
   2   3 -13  517.45   25.80
   2   3 -13  476.05   20.60
   2   3 -13  479.25   24.70
   2   3 -13  474.45   21.10
   2   3 -13  509.15   26.60
  -2  -3  13  476.25   19.60
  -2  -3  13  447.86   21.70
   1   3 -13   72.19   10.90
   1   3 -13   66.29    9.30
   1   3 -13   58.69    7.50
   1   3 -13   39.50   10.90
   1   3 -13   53.69    9.90
  -1  -3  13   67.39   12.20
  -1  -3  13   63.39    9.50
  -1  -3  13   52.09    8.20
  -1  -3  13   48.30   12.60
   0   3 -13   14.80    7.00
   0   3 -13   24.60    9.30
   0   3 -13   14.70    8.10
   0   3 -13    7.70    6.00
   0   3 -13   14.80    6.60
   0  -3  13   10.30    5.50
   0  -3  13   17.70    9.70
   0  -3  13   24.90    7.90
  -1   3 -13    2.40    7.60
  -1   3 -13   14.60    9.80
  -1   3 -13   -3.70    5.60
  -1   3 -13    7.00    6.70
   1  -3  13   -4.30    8.50
   1  -3  13   15.10    6.00
   1  -3  13   19.80    9.50
   1  -3  13   19.70    7.90
  -2   3 -13   -6.90    8.20
  -2   3 -13   -8.30    9.40
  -2   3 -13    5.50    7.90
  -2   3 -13   28.70    9.60
  -2   3 -13    6.20    6.90
   2  -3  13    1.90   10.20
   2  -3  13   21.10    8.70
   2  -3  13    7.70    7.60
   2  -3  13  -14.20    8.90
   3   2 -13   31.60    6.50
   3   2 -13   40.10   10.90
   3   2 -13    4.20   11.40
   3   2 -13   33.40    8.10
   3   2 -13   20.00    8.40
   3   2 -13   52.59   12.80
  -3  -2  13   42.10   16.10
  -3  -2  13   17.50    5.90
  -3  -2  13   36.50    7.90
  -3  -2  13   25.40   14.00
   2   2 -13  355.86   17.10
   2   2 -13  345.97   16.30
   2   2 -13  349.07   19.50
   2   2 -13  365.86   21.50
   2   2 -13  382.06   20.20
  -2  -2  13  330.77   15.30
  -2  -2  13  335.17   25.00
  -2  -2  13  305.27   17.20
  -2  -2  13  309.97   22.60
   1   2 -13   50.19    6.60
   1   2 -13   55.09    8.60
   1   2 -13   51.99    6.70
   1   2 -13   47.90    8.30
   1   2 -13   52.09    9.90
  -1  -2  13   43.40   10.20
  -1  -2  13   50.59    7.20
  -1  -2  13   42.10    7.60
  -1  -2  13   51.29   10.30
   0   2 -13  144.99   11.80
   0   2 -13  177.18   14.90
   0   2 -13  145.49   12.10
   0  -2  13  139.59   10.70
   0  -2  13  131.39   15.30
   0  -2  13  181.68   22.20
   0  -2  13  147.29   13.30
  -1   2 -13   92.89   10.20
  -1   2 -13  107.19   11.30
  -1   2 -13   82.79   13.70
  -1   2 -13  138.89   12.00
  -1   2 -13  111.59   11.60
   1  -2  13  111.89   13.60
   1  -2  13  109.29   11.20
   1  -2  13  134.39   13.00
   1  -2  13  112.59   10.80
  -2   2 -13   23.40    8.50
  -2   2 -13   20.80    7.70
  -2   2 -13   17.10    7.10
  -2   2 -13   29.70    8.20
  -2   2 -13   28.40    9.20
  -2   2 -13   20.10    6.40
   2  -2  13   27.30    8.60
   2  -2  13   15.00    7.10
   2  -2  13   21.30    9.70
   2  -2  13   23.60    8.30
   2  -2  13   26.20    5.00
  -3   2 -13    0.70    8.80
  -3   2 -13   -3.30    8.00
  -3   2 -13    5.10    8.40
  -3   2 -13  -14.10   10.70
  -3   2 -13  -13.60    6.60
  -3   2 -13   -8.20   12.70
   3  -2  13    4.60    6.40
   3  -2  13   12.30    8.40
   3  -2  13    2.80   11.60
   3  -2  13    4.30    8.10
   3  -2  13   -6.00    8.80
   3   1 -13   27.10    8.10
   3   1 -13   31.00   10.60
   3   1 -13   35.00    7.60
   3   1 -13   40.80   11.60
   3   1 -13   49.50   10.30
   3   1 -13   42.90    6.60
  -3  -1  13   38.60    6.40
  -3  -1  13   39.80    7.30
  -3  -1  13   49.80   13.40
  -3  -1  13   55.49   14.70
   2   1 -13  186.48   15.40
   2   1 -13  195.28   11.50
   2   1 -13  159.38   12.30
   2   1 -13  180.58   15.10
   2   1 -13  166.18   16.20
   2   1 -13  183.88   10.80
  -2  -1  13  163.38   10.50
  -2  -1  13  144.49   18.00
  -2  -1  13  202.48   20.50
  -2  -1  13  161.88   12.20
   1   1 -13  127.29    9.50
   1   1 -13  126.39   10.40
   1   1 -13  128.39   12.40
   1   1 -13  147.09   13.40
  -1  -1  13  127.19   15.30
  -1  -1  13  116.59   14.80
  -1  -1  13  134.59   11.90
  -1  -1  13  113.29   11.10
   0   1 -13  294.47   16.30
   0   1 -13  290.67   12.80
   0   1 -13  299.07   13.90
   0   1 -13  297.67   14.50
   0   1 -13  308.37   15.00
   0  -1  13  305.97   11.60
   0  -1  13  289.87   17.20
   0  -1  13  282.27   15.60
   0  -1  13  285.67   13.70
   0  -1  13  296.27   16.80
  -1   1 -13  358.36   15.70
  -1   1 -13  349.07   17.20
  -1   1 -13  345.17   15.50
  -1   1 -13  337.27   15.40
  -1   1 -13  356.26   17.30
   1  -1  13  341.07   17.30
   1  -1  13  367.86   17.90
   1  -1  13  324.67   18.10
   1  -1  13  333.87   13.20
   1  -1  13  325.87   16.10
  -2   1 -13   -4.50    5.80
  -2   1 -13   -7.80    5.00
  -2   1 -13   -2.50    6.20
  -2   1 -13   20.10    7.70
  -2   1 -13   -1.00    8.40
  -2   1 -13   -0.80    6.90
   2  -1  13    9.10    6.70
   2  -1  13    0.80    6.20
   2  -1  13  -13.70    7.90
   2  -1  13   -1.90    4.30
   2  -1  13    4.40    6.60
  -3   1 -13   21.90   10.80
  -3   1 -13   24.50   11.00
  -3   1 -13   23.90    9.10
  -3   1 -13   22.00    8.00
  -3   1 -13   29.10    7.70
  -3   1 -13   19.80    6.70
   3  -1  13   28.00   11.10
   3  -1  13   21.30    9.40
   3  -1  13   33.50    7.70
   3  -1  13   36.40    8.10
   3  -1  13   31.00    9.40
   4   0 -13  -11.70   12.90
   4   0 -13   -0.80    6.30
   4   0 -13   -7.20   10.30
   4   0 -13    7.80   14.10
  -4   0  13   18.90    7.30
  -4   0  13   -5.20    5.30
  -4   0  13   -3.10   24.60
   3   0 -13   45.50    7.90
   3   0 -13   29.00   10.00
   3   0 -13   43.50    7.00
   3   0 -13   51.89   10.60
   3   0 -13   33.70    9.40
   3   0 -13   49.00    7.30
  -3   0  13   49.00   13.70
  -3   0  13   41.40   13.10
  -3   0  13   42.60    5.90
  -3   0  13   28.40    6.60
   2   0 -13   69.59    9.00
   2   0 -13   51.39    8.90
   2   0 -13   59.69    9.00
   2   0 -13   70.69    9.30
   2   0 -13   54.59    6.50
   2   0 -13   78.79    9.80
  -2   0  13   65.09   10.50
  -2   0  13   62.89    7.90
  -2   0  13   62.19    9.70
  -2   0  13   62.79   12.10
   1   0 -13    5.40    5.00
   1   0 -13    1.30    3.90
   1   0 -13   -1.60    5.30
   1   0 -13    5.50    6.30
  -1   0  13    2.70    7.60
  -1   0  13    0.20    4.20
  -1   0  13   -5.50    7.60
  -1   0  13    1.30    5.10
   0   0 -13  107.69    9.30
   0   0 -13  104.19    8.80
   0   0 -13   92.99   10.60
   0   0  13  127.59   18.60
   0   0  13  108.09    9.10
   0   0  13  107.79    7.20
   0   0  13   96.79   11.60
   0   0  13   96.69   11.00
  -1   0 -13  104.59   11.80
  -1   0 -13  105.79   11.00
  -1   0 -13   89.49    8.70
  -1   0 -13   96.99    9.40
  -1   0 -13   83.49    8.80
   1   0  13   97.19   12.40
   1   0  13   97.59    7.50
   1   0  13   98.89   11.20
   1   0  13   89.49   10.10
   1   0  13   98.39   11.60
  -2   0 -13    0.50    4.70
  -2   0 -13   31.70    8.00
  -2   0 -13   17.00    6.20
  -2   0 -13   22.60    6.50
  -2   0 -13   15.40    6.20
   2   0  13   14.60    6.40
   2   0  13    5.60    4.40
   2   0  13   -0.90    6.30
   2   0  13   12.50    8.30
   2   0  13   16.60    6.60
  -3   0 -13   -4.50    9.60
  -3   0 -13    7.00    7.30
  -3   0 -13    4.00    6.10
  -3   0 -13   10.30    7.90
  -3   0 -13   15.90    7.70
  -3   0 -13   -7.10    9.90
   3   0  13   13.10   10.10
   3   0  13   -2.60    6.00
   3   0  13    5.50    7.00
   3   0  13    1.10    6.50
   3   0  13   15.00    8.50
   3  -1 -13    5.00    5.90
   3  -1 -13    3.20    8.30
   3  -1 -13   -5.10    9.30
   3  -1 -13   -4.90    5.30
   3  -1 -13   -0.90    5.90
   3  -1 -13    5.90    8.60
  -3   1  13    0.10    5.80
  -3   1  13    7.80   12.80
  -3   1  13    3.00    4.30
  -3   1  13  -15.90   11.60
   2  -1 -13   19.40    8.20
   2  -1 -13   10.40    6.60
   2  -1 -13   14.00    5.80
   2  -1 -13   18.70    6.20
   2  -1 -13   10.90    6.80
   2  -1 -13   20.20    4.80
  -2   1  13   17.30    9.40
  -2   1  13   12.80    4.60
  -2   1  13   23.60    5.70
  -2   1  13   17.00    9.80
   1  -1 -13   48.90    7.40
   1  -1 -13   64.19    9.40
   1  -1 -13   51.29    6.60
   1  -1 -13   62.39   10.50
  -1   1  13   50.19    5.90
  -1   1  13   40.90    8.50
  -1   1  13   51.09    8.70
  -1   1  13   40.40    6.90
   0  -1 -13  463.85   18.60
   0  -1 -13  423.16   17.30
   0  -1 -13  423.66   17.10
   0  -1 -13  460.65   18.70
   0   1  13  484.35   20.00
   0   1  13  448.26   16.20
   0   1  13  428.36   19.00
   0   1  13  445.56   18.00
   0   1  13  426.56   19.10
  -1  -1 -13    3.10    4.90
  -1  -1 -13   -1.90    4.20
  -1  -1 -13    4.40    4.80
  -1  -1 -13   10.80    9.70
  -1  -1 -13   -4.70    4.70
   1   1  13    6.50    9.10
   1   1  13    1.30    3.50
   1   1  13   -0.10    5.80
   1   1  13   -8.30    6.10
  -2  -1 -13    0.30    5.40
  -2  -1 -13   13.50    6.10
  -2  -1 -13   11.30    5.10
  -2  -1 -13   -2.10    5.60
  -2  -1 -13   10.00    8.50
   2   1  13   10.70    6.20
   2   1  13   11.00    7.70
   2   1  13    6.60    7.90
   2   1  13   12.70    6.20
   2   1  13    8.40    6.60
  -3  -1 -13   25.40    8.00
  -3  -1 -13   39.10    7.70
  -3  -1 -13   52.69   11.50
  -3  -1 -13   39.30    7.90
  -3  -1 -13   40.80    7.20
  -3  -1 -13   14.90    9.70
   3   1  13   23.90   10.20
   3   1  13   43.80    7.50
   3   1  13   47.80   16.00
   3   1  13   34.30    9.40
   3   1  13   32.50    7.10
  -4  -1 -13   36.50   10.60
  -4  -1 -13   17.30   14.00
  -4  -1 -13   26.70    9.90
  -4  -1 -13   53.39   10.70
  -4  -1 -13   31.20   13.20
   4   1  13   55.89   14.30
   4   1  13   54.29    8.60
   4   1  13   44.40    8.40
   4   1  13   43.70   12.40
   3  -2 -13   44.40    8.70
   3  -2 -13   36.90    7.40
   3  -2 -13   47.40   10.90
   3  -2 -13   35.50    9.30
   3  -2 -13   42.40    6.10
   3  -2 -13   48.90    7.90
  -3   2  13   45.40    4.70
  -3   2  13   42.60    7.00
  -3   2  13   29.10   12.30
  -3   2  13   34.70    5.30
  -3   2  13   43.90   13.20
   2  -2 -13   17.90    5.00
   2  -2 -13   26.20    8.20
   2  -2 -13   26.00    6.90
   2  -2 -13   26.10    6.30
   2  -2 -13   20.20    7.10
   2  -2 -13   26.50    6.70
  -2   2  13   20.70    3.10
  -2   2  13   32.80   10.80
  -2   2  13   12.90    6.00
  -2   2  13   22.20    4.60
  -2   2  13   26.80    9.50
   1  -2 -13   57.09    8.50
   1  -2 -13   57.79    9.70
   1  -2 -13   75.59    9.90
   1  -2 -13   59.69    9.00
   1  -2 -13   69.99    7.70
  -1   2  13   70.49    8.20
  -1   2  13   81.79   10.10
  -1   2  13   59.29    4.10
  -1   2  13   50.29    8.60
  -1   2  13   62.99    9.20
  -1   2  13   61.49    7.40
   0  -2 -13   16.00    6.00
   0  -2 -13    7.10    4.30
   0  -2 -13   16.80    4.30
   0  -2 -13   26.50    6.50
   0   2  13   23.30    7.00
   0   2  13   12.90    6.40
   0   2  13   25.90    5.70
   0   2  13   27.10    7.10
   0   2  13   13.60    5.20
  -1  -2 -13  231.88   12.40
  -1  -2 -13  225.58   11.20
  -1  -2 -13  206.88   12.40
  -1  -2 -13  275.67   15.90
   1   2  13  237.88   13.60
   1   2  13  237.38   11.50
   1   2  13  220.88   15.10
   1   2  13  231.08   13.10
   1   2  13  224.98   13.70
  -2  -2 -13  364.36   16.20
  -2  -2 -13  369.46   17.30
  -2  -2 -13  376.46   20.60
  -2  -2 -13  379.86   17.40
   2   2  13  372.56   21.10
   2   2  13  370.76   18.60
   2   2  13  411.56   16.60
   2   2  13  391.76   17.20
   2   2  13  390.96   16.90
  -3  -2 -13   64.59    7.90
  -3  -2 -13   37.80   10.40
  -3  -2 -13   40.10    8.50
  -3  -2 -13   62.39   11.90
  -3  -2 -13   44.20    8.60
   3   2  13   71.49   11.00
   3   2  13   52.29   11.50
   3   2  13   64.79   10.20
   3   2  13   72.09   10.80
   3   2  13   67.99    8.70
  -4  -2 -13   35.90    9.70
  -4  -2 -13   22.10    8.40
  -4  -2 -13   27.60   12.80
  -4  -2 -13   20.50   11.10
   4   2  13   21.70    7.40
   4   2  13    3.50   14.60
   4   2  13   11.00   11.80
   4   2  13   28.50    8.70
   4   2  13   28.40    8.90
   3  -3 -13   15.40    9.10
   3  -3 -13   14.80    6.90
   3  -3 -13    9.80    5.70
   3  -3 -13    2.20    9.20
   3  -3 -13    5.50    6.30
   3  -3 -13   -8.40    7.70
  -3   3  13    4.00    4.80
  -3   3  13    1.40   10.70
  -3   3  13    1.10    7.20
  -3   3  13    6.60    2.70
  -3   3  13    0.30   12.70
   2  -3 -13   16.80    7.00
   2  -3 -13   19.40    4.80
   2  -3 -13   19.10    8.40
   2  -3 -13   27.90    6.90
   2  -3 -13   11.10    6.10
   2  -3 -13   14.70    7.60
  -2   3  13   23.00   10.40
  -2   3  13   25.60    6.60
  -2   3  13   30.60    5.00
  -2   3  13   15.90    2.80
   1  -3 -13   28.70    6.90
   1  -3 -13   18.60    6.10
   1  -3 -13   17.60    5.30
   1  -3 -13   17.60    4.50
   1  -3 -13   12.30    6.30
  -1   3  13   13.60    4.80
  -1   3  13    5.50    7.40
  -1   3  13   14.90    4.80
  -1   3  13   10.00    7.70
  -1   3  13   -0.40    6.40
  -1   3  13    9.50    2.30
   0  -3 -13   15.90    7.00
   0  -3 -13   11.40    5.20
   0  -3 -13    0.20    4.60
   0  -3 -13   -1.80    4.00
   0   3  13    8.80    6.90
   0   3  13    7.40    4.20
   0   3  13    1.00    6.40
   0   3  13   -1.80    5.20
   0   3  13   11.50    6.70
  -1  -3 -13  142.69   10.80
  -1  -3 -13  139.49    9.50
  -1  -3 -13  139.49   15.50
  -1  -3 -13  144.49   10.70
   1   3  13  152.48   12.20
   1   3  13  155.98   12.00
   1   3  13  127.69   14.00
   1   3  13  147.79    9.90
   1   3  13  151.58   11.00
  -2  -3 -13  496.65   20.30
  -2  -3 -13  465.15   20.70
  -2  -3 -13  467.95   19.00
   2   3  13  479.45   19.50
   2   3  13  474.35   22.00
   2   3  13  467.65   23.50
   2   3  13  499.35   19.30
  -3  -3 -13    1.50   10.90
  -3  -3 -13    9.10    8.00
  -3  -3 -13    5.90   11.00
  -3  -3 -13   11.00    7.40
  -3  -3 -13    1.70    6.70
   3   3  13    1.40    7.00
   3   3  13   -6.90    8.80
   3   3  13    3.00    6.80
   3   3  13   -3.60    5.90
   3   3  13    8.30   10.90
  -4  -3 -13  -18.50   13.50
  -4  -3 -13   14.00   11.20
   4   3  13    3.10    8.20
   4   3  13    3.90   14.60
   2  -4 -13   13.60    5.30
   2  -4 -13   -1.90    8.10
   2  -4 -13   16.60    6.30
   2  -4 -13   26.60    8.00
  -2   4  13    8.70    7.90
  -2   4  13    6.10    5.40
  -2   4  13   19.70   10.50
  -2   4  13   11.80    8.80
  -2   4  13   16.30    3.10
   1  -4 -13   46.00    6.80
   1  -4 -13   47.50    7.80
   1  -4 -13   69.09    8.30
   1  -4 -13   40.00    7.80
  -1   4  13   66.79    8.90
  -1   4  13   41.80    6.40
  -1   4  13   40.50    8.90
  -1   4  13   49.99    8.60
  -1   4  13   45.50    4.20
   0  -4 -13   -0.90    5.90
   0  -4 -13   -2.60    5.10
   0  -4 -13  -11.00    8.50
   0  -4 -13    3.40    4.20
   0   4  13    2.70    4.80
   0   4  13    0.80    6.90
   0   4  13    8.30    5.80
   0   4  13   19.50    6.30
   0   4  13   -5.00    7.40
  -1  -4 -13   35.30    6.70
  -1  -4 -13   31.10    5.70
  -1  -4 -13   21.90    9.50
  -1  -4 -13   40.10    6.50
   1   4  13   32.60    7.10
   1   4  13   28.90    7.50
   1   4  13   21.70    8.90
   1   4  13   39.70    6.70
   1   4  13   29.70    5.60
  -2  -4 -13   20.20    7.00
  -2  -4 -13   25.40    9.80
  -2  -4 -13   20.70    6.10
  -2  -4 -13    6.50    6.70
   2   4  13   27.70    6.70
   2   4  13   29.70    7.40
   2   4  13   22.70    6.10
   2   4  13    3.80    9.70
   2   4  13   17.50    8.60
  -3  -4 -13  170.18   13.70
  -3  -4 -13  171.58   15.80
  -3  -4 -13  150.88   21.00
   3   4  13  130.09   21.60
   3   4  13  169.48   13.30
   3   4  13  178.28   14.90
   3   4  13  160.78   15.20
   3   4  13  193.58   18.20
   2  -5 -13   -0.50    7.50
   2  -5 -13   -4.90    9.90
   2  -5 -13   12.40    7.10
   2  -5 -13   12.80    6.90
  -2   5  13    3.50    3.10
  -2   5  13   20.00    9.20
  -2   5  13    6.30    6.60
   1  -5 -13   38.50    7.20
   1  -5 -13   24.10    6.90
   1  -5 -13   33.70    6.00
  -1   5  13   32.80    6.40
  -1   5  13   28.80    9.00
  -1   5  13   30.50    3.60
  -1   5  13   24.60    8.60
  -1   5  13   15.40    9.20
  -1   5  13   27.50    6.90
   0  -5 -13    1.50    4.00
   0  -5 -13    5.30    6.00
   0  -5 -13   -7.80    9.40
   0  -5 -13    2.60    6.30
   0   5  13   -2.20    7.40
   0   5  13   17.70    9.20
   0   5  13    7.80    7.00
   0   5  13   12.90    5.20
  -1  -5 -13  232.58   12.30
  -1  -5 -13  220.08   14.70
  -1  -5 -13  228.08   20.00
  -1  -5 -13  250.17   14.30
   1   5  13  247.48   20.00
   1   5  13  184.58   15.30
   1   5  13  220.88   14.90
   1   5  13  225.08   13.00
   1   5  13  218.78   13.10
  -2  -5 -13   -3.10    7.10
  -2  -5 -13   13.90    6.50
   2   5  13    7.80   11.10
   2   5  13    3.20    6.50
   2   5  13    1.50    5.90
   2   5  13   23.70    9.20
   2   5  13   17.70    7.70
  -3  -5 -13   53.09   13.90
  -3  -5 -13   64.29   10.40
  -3  -5 -13   36.80   14.50
  -3  -5 -13   70.79    9.50
  -3  -5 -13   51.99   11.50
   3   5  13   29.30   12.20
   3   5  13   55.69    8.70
   3   5  13   37.40   14.60
   3   5  13   51.99   10.00
   3   5  13   65.69   10.00
   0  -6 -13  256.67   12.50
   0   6  13  241.98   14.90
   0   6  13  278.57   17.20
   0   6  13  299.97   15.20
   0   6  13  258.17   10.70
  -1  -6 -13  232.08   13.10
  -1  -6 -13  249.38   15.90
   1   6  13  195.48   17.80
   1   6  13  202.38   14.00
   1   6  13  225.88   16.30
   1   6  13  224.78   23.40
   1   3 -14    5.10   10.60
   1   3 -14    5.20    7.60
   1   3 -14   11.20    6.50
   1   3 -14   12.60    9.50
   1   3 -14    1.70   11.80
  -1  -3  14    3.00   13.10
  -1  -3  14   17.40   13.50
  -1  -3  14   24.90    8.00
  -1  -3  14   15.70    7.20
   0   3 -14   11.30    9.80
   0   3 -14   -0.20    6.10
   0   3 -14    0.10    8.10
   0   3 -14    7.80    7.90
   0   3 -14   18.70   11.10
   0  -3  14   -5.10    6.60
   0  -3  14    3.90    8.20
   0  -3  14  -17.50   11.00
   0  -3  14   -8.80   11.60
  -1   3 -14  -11.20    9.00
  -1   3 -14    2.50   11.30
  -1   3 -14   29.90    8.40
   1  -3  14    6.00    7.00
   1  -3  14   19.90   12.40
   1  -3  14    5.80    9.50
   1  -3  14    9.60   10.40
   2   2 -14  158.78   19.40
   2   2 -14  135.89   17.40
   2   2 -14  125.09   13.80
   2   2 -14  170.98   18.40
   2   2 -14  136.79   12.80
  -2  -2  14  122.49   11.30
  -2  -2  14  123.09   17.20
  -2  -2  14  118.89   15.80
  -2  -2  14  113.49   14.00
   1   2 -14   14.30    8.70
   1   2 -14   30.00   10.30
   1   2 -14    9.30    6.40
   1   2 -14   13.30    6.80
   1   2 -14   21.10   10.10
  -1  -2  14    9.00    7.40
  -1  -2  14   10.90   11.30
  -1  -2  14    8.60    6.20
   0   2 -14   33.40    6.50
   0   2 -14   48.60   10.40
   0   2 -14   41.80    7.90
   0   2 -14   31.70    9.60
   0  -2  14   26.80    8.40
   0  -2  14   30.10   10.60
   0  -2  14   27.50   10.70
  -1   2 -14    9.30    8.40
  -1   2 -14    0.70    8.70
  -1   2 -14    9.70    7.70
  -1   2 -14    4.60   12.20
  -1   2 -14    8.90    6.70
   1  -2  14   12.60    7.10
   1  -2  14   16.80    9.80
   1  -2  14    1.80    8.40
   1  -2  14   -0.40    8.80
  -2   2 -14   -2.20    8.40
  -2   2 -14    9.00    9.80
  -2   2 -14   -2.70    7.60
  -2   2 -14   25.80   10.00
  -2   2 -14    2.30    8.20
   2  -2  14   -7.30   10.80
   2  -2  14    9.60    9.50
   2  -2  14   10.70    4.90
   2  -2  14   17.60    9.30
   2  -2  14   -1.10    8.20
   3   1 -14    6.90    7.30
   3   1 -14    8.00   11.20
   3   1 -14   13.50    8.40
   3   1 -14  -17.30   11.80
   3   1 -14  -11.20   11.80
   3   1 -14   15.80    8.40
  -3  -1  14    9.50   15.50
  -3  -1  14   -0.40    7.80
  -3  -1  14   32.10   16.20
  -3  -1  14    8.50    6.20
   2   1 -14   22.80    9.60
   2   1 -14   31.70    7.50
   2   1 -14    1.90   10.50
   2   1 -14   12.40    6.20
   2   1 -14   22.10    9.50
  -2  -1  14   28.90    6.00
  -2  -1  14   24.30   13.40
  -2  -1  14   14.70    7.00
  -2  -1  14   18.20   12.10
   1   1 -14  108.09   13.00
   1   1 -14   81.99   10.00
   1   1 -14   71.29   11.40
   1   1 -14   96.29   14.70
   1   1 -14   82.59   10.10
  -1  -1  14   74.99   11.60
  -1  -1  14   55.09   12.00
  -1  -1  14   73.49    9.70
  -1  -1  14   86.49   12.50
   0   1 -14    3.90    6.50
   0   1 -14   -1.70    5.20
   0   1 -14   -0.40    6.70
   0   1 -14   -7.00    7.80
   0   1 -14    2.50    5.10
   0  -1  14    6.00    9.40
   0  -1  14   -3.90    3.70
   0  -1  14   -4.80    8.50
   0  -1  14    2.10    5.50
   0  -1  14   -3.60    6.90
  -1   1 -14  152.78   12.30
  -1   1 -14  150.18   14.90
  -1   1 -14  144.39   11.50
  -1   1 -14  129.39   12.10
  -1   1 -14  156.08   14.60
   1  -1  14  122.19    8.60
   1  -1  14  154.58   15.80
   1  -1  14  132.89   15.40
   1  -1  14  189.18   15.90
   1  -1  14  121.79   13.90
  -2   1 -14  130.39   13.40
  -2   1 -14   94.99   14.60
  -2   1 -14   82.99   12.40
  -2   1 -14  107.59   17.40
  -2   1 -14  107.79   11.90
   2  -1  14   86.19   12.70
   2  -1  14  114.79   14.10
   2  -1  14  105.29    9.70
   2  -1  14  127.89   14.90
   2  -1  14   91.19   10.90
   3   0 -14   39.00    7.80
   3   0 -14   57.79   11.20
   3   0 -14   26.70   11.50
   3   0 -14   49.20    8.60
   3   0 -14   45.90    8.80
   3   0 -14   39.90   11.80
  -3   0  14   31.90    7.70
  -3   0  14   33.00   15.30
  -3   0  14   51.99   16.20
  -3   0  14   26.90    6.10
   2   0 -14   35.60    6.40
   2   0 -14   33.50    9.40
   2   0 -14   32.90    9.00
   2   0 -14   29.30    6.70
   2   0 -14   48.80   12.50
   2   0 -14   34.80    9.60
  -2   0  14   32.90   13.80
  -2   0  14   47.80    7.60
  -2   0  14   37.40   11.70
  -2   0  14   32.20    5.90
   1   0 -14   11.40    6.90
   1   0 -14   16.90    6.00
   1   0 -14   12.10    6.50
   1   0 -14   23.40    8.30
  -1   0  14    7.50    6.20
  -1   0  14    2.10    9.10
  -1   0  14   10.20    9.30
  -1   0  14   10.80    5.30
   0   0 -14   29.30    6.00
   0   0 -14   33.20    7.20
   0   0 -14   22.90    8.00
   0   0 -14   37.60    7.10
   0   0  14   29.50    5.80
   0   0  14   34.40    5.00
   0   0  14   34.10    8.80
   0   0  14   25.20    7.70
   0   0  14   39.90    9.00
  -1   0 -14   37.40    6.70
  -1   0 -14   29.50    6.90
  -1   0 -14   37.20    6.10
  -1   0 -14   39.60    8.50
  -1   0 -14   38.70    8.20
   1   0  14   48.10    5.70
   1   0  14   47.60    9.00
   1   0  14   44.50    9.10
   1   0  14   38.00    7.30
   1   0  14   54.19    9.60
  -2   0 -14   43.50    7.80
  -2   0 -14   31.10    7.90
  -2   0 -14   48.30    8.00
  -2   0 -14   48.20   10.00
   2   0  14   42.30    8.50
   2   0  14   26.20    9.60
   2   0  14   27.30   11.90
   2   0  14   39.30    8.50
  -3   0 -14    8.30    8.80
  -3   0 -14  -12.10   11.20
  -3   0 -14    1.80    8.60
  -3   0 -14    0.10   11.60
  -3   0 -14   -9.70    8.40
  -3   0 -14   -2.20    9.40
   3   0  14    0.20   13.50
   3   0  14    2.20   12.20
   3   0  14   -1.40    7.80
   3   0  14   11.00    7.00
   3   0  14    7.60    7.40
   3  -1 -14   -2.70   11.40
   3  -1 -14    3.30    7.30
   3  -1 -14   -6.50    6.10
   3  -1 -14  -10.60    9.90
   3  -1 -14    0.90    6.60
   3  -1 -14    5.20    9.50
  -3   1  14   -0.70   13.90
  -3   1  14    7.10   15.50
  -3   1  14   -1.40    3.10
  -3   1  14   -1.50    5.10
  -3   1  14   17.00    7.00
   2  -1 -14   -0.10    5.10
   2  -1 -14   -2.70    8.30
   2  -1 -14    3.10    6.70
   2  -1 -14   -1.80    7.60
   2  -1 -14    0.70    9.30
  -2   1  14   20.40   11.40
  -2   1  14    3.80   11.20
  -2   1  14   17.50    6.30
  -2   1  14   -7.90    4.90
   1  -1 -14   -2.10    6.40
   1  -1 -14    6.90    5.10
   1  -1 -14    6.40    6.00
   1  -1 -14   -1.30    6.80
  -1   1  14    2.50    8.90
  -1   1  14    5.00    4.80
  -1   1  14    3.40    9.30
  -1   1  14   -8.00    5.80
  -1   1  14   -0.80    2.60
   0  -1 -14   17.30    6.00
   0  -1 -14   13.90    6.90
   0  -1 -14   10.70    6.30
   0   1  14   13.20    8.00
   0   1  14    8.10    5.90
   0   1  14   13.30    7.60
   0   1  14   18.30    6.80
  -1  -1 -14   54.49    7.00
  -1  -1 -14   55.09    7.20
  -1  -1 -14   86.89    9.70
  -1  -1 -14   70.79   11.60
   1   1  14   72.29    9.90
   1   1  14   65.29    9.10
   1   1  14   59.19    8.20
   1   1  14   90.49   12.00
   1   1  14   56.29    9.70
  -2  -1 -14   -5.10    6.30
  -2  -1 -14  -12.70    6.00
  -2  -1 -14   -2.70    5.20
  -2  -1 -14    3.10   13.40
  -2  -1 -14   -2.00    9.50
   2   1  14   -3.60    6.40
   2   1  14   -3.50    8.70
   2   1  14    1.40    5.50
   2   1  14    8.40    7.30
   2   1  14    2.40    7.20
  -3  -1 -14   22.60    8.40
  -3  -1 -14   25.70    8.90
  -3  -1 -14   17.20    8.90
  -3  -1 -14   21.60    7.90
  -3  -1 -14   41.20   12.40
  -3  -1 -14    3.20   11.10
   3   1  14   29.10    7.80
   3   1  14    9.40   12.20
   3   1  14   27.20    8.00
   3   1  14   33.80   10.50
   3   1  14   25.30    7.90
   3  -2 -14   18.50    7.70
   3  -2 -14   13.70    6.00
   3  -2 -14    2.20   10.60
   3  -2 -14   16.20    9.80
   3  -2 -14   33.60   12.10
   3  -2 -14   21.50    7.90
  -3   2  14   10.20   15.60
  -3   2  14   11.30    7.80
  -3   2  14    6.90   13.80
  -3   2  14   19.00    3.50
  -3   2  14   16.40    5.30
   2  -2 -14   87.29   12.70
   2  -2 -14   75.79   11.30
   2  -2 -14   65.39    9.10
   2  -2 -14   90.09    9.30
   2  -2 -14   78.09   11.40
   2  -2 -14   94.09   11.80
  -2   2  14   79.09   12.90
  -2   2  14   72.79    8.90
  -2   2  14   61.69    8.70
  -2   2  14   73.19    5.00
  -2   2  14   79.89   12.80
   1  -2 -14   80.29   10.20
   1  -2 -14   81.99   12.00
   1  -2 -14   82.29    9.20
   1  -2 -14  111.39   12.20
  -1   2  14   95.29   11.70
  -1   2  14   96.89    9.90
  -1   2  14   90.59   12.30
  -1   2  14   61.59   10.30
  -1   2  14   77.99    4.70
   0  -2 -14    2.70    4.50
   0  -2 -14   -0.90    6.00
   0  -2 -14   -5.10    5.00
   0  -2 -14   10.80    7.00
   0   2  14    2.10    5.60
   0   2  14    2.50    4.40
   0   2  14    3.00    6.90
   0   2  14    4.50    7.50
   0   2  14   20.10    7.80
  -1  -2 -14   44.20   11.30
  -1  -2 -14   19.20    6.50
  -1  -2 -14   13.10    4.90
  -1  -2 -14   27.50    6.60
  -1  -2 -14   32.50    6.70
   1   2  14   18.60    8.30
   1   2  14   31.70    7.60
   1   2  14   44.50   14.80
   1   2  14    9.80    6.60
   1   2  14   22.90    5.60
  -2  -2 -14   75.69   12.40
  -2  -2 -14   60.39   12.00
  -2  -2 -14   62.49    8.20
  -2  -2 -14   56.49   11.40
  -2  -2 -14   60.49    7.50
   2   2  14   56.59    9.20
   2   2  14   58.89   11.50
   2   2  14   65.99    9.00
   2   2  14   69.69    8.50
   2   2  14   72.89   10.10
  -3  -2 -14   51.19    8.10
  -3  -2 -14   43.00    9.20
  -3  -2 -14   38.10   12.40
  -3  -2 -14   46.90   13.30
  -3  -2 -14   63.59   10.70
  -3  -2 -14   25.60   10.70
   3   2  14   47.50    9.00
   3   2  14   39.70   12.40
   3   2  14   73.89   13.20
   3   2  14   55.99   11.60
   3   2  14   69.39    9.60
   2  -3 -14    9.00    8.50
   2  -3 -14   -2.20    5.10
   2  -3 -14   -2.60    7.70
   2  -3 -14   12.30    7.00
   2  -3 -14    0.40    9.10
   2  -3 -14   23.60    8.00
  -2   3  14    6.70    2.70
  -2   3  14    9.40    7.70
  -2   3  14   17.20   12.30
  -2   3  14   29.70   11.00
  -2   3  14    7.20    5.20
   1  -3 -14  356.66   18.00
   1  -3 -14  354.36   17.80
   1  -3 -14  315.57   15.60
   1  -3 -14  316.47   14.60
  -1   3  14  313.67   20.00
  -1   3  14  301.87   10.70
  -1   3  14  318.87   18.20
  -1   3  14  337.27   15.20
  -1   3  14  321.97   15.50
   0  -3 -14   36.30    7.10
   0  -3 -14   22.60    5.70
   0  -3 -14   43.20    9.10
   0  -3 -14   23.60    6.20
   0   3  14   33.90    8.30
   0   3  14   20.30    6.70
   0   3  14   30.80    8.40
   0   3  14   37.70    6.20
   0   3  14   32.10    8.40
  -1  -3 -14   -2.90    9.10
  -1  -3 -14   -5.10    5.70
  -1  -3 -14    6.00    5.80
  -1  -3 -14   -2.40    4.60
   1   3  14   -5.30    6.40
   1   3  14    2.40    6.90
   1   3  14    0.40    8.30
   1   3  14    3.30    5.30
   1   3  14    2.20    7.00
  -2  -3 -14  155.38   18.20
  -2  -3 -14  214.68   14.40
  -2  -3 -14  203.78   14.80
  -2  -3 -14  173.58   12.70
   2   3  14  196.08   14.60
   2   3  14  176.28   16.70
   2   3  14  133.39   18.40
   2   3  14  181.08   13.40
   2   3  14  197.18   13.10
  -3  -3 -14   73.09   10.60
  -3  -3 -14   76.69   14.70
  -3  -3 -14   68.99    9.70
  -3  -3 -14   68.39   10.90
  -3  -3 -14   74.89   14.60
   3   3  14   69.49    9.60
   3   3  14   71.99   11.30
   3   3  14   83.29   10.30
   3   3  14   79.99   14.30
   3   3  14  110.59   13.40
   2  -4 -14   58.79    8.20
   2  -4 -14   55.29    9.70
   2  -4 -14   40.60   11.00
   2  -4 -14   55.29    7.80
  -2   4  14   41.30   10.70
  -2   4  14   45.10    7.70
  -2   4  14   69.09    5.00
   1  -4 -14    5.50    8.00
   1  -4 -14   27.00    9.20
   1  -4 -14    0.00    5.70
   1  -4 -14   -9.40    5.70
  -1   4  14   -2.50    9.80
  -1   4  14    9.30   17.30
  -1   4  14   -4.90    6.00
  -1   4  14    2.30    8.50
  -1   4  14    2.50    5.70
  -1   4  14   -2.60    2.70
   0  -4 -14   36.10    7.10
   0  -4 -14   32.70    6.10
   0  -4 -14   23.80   11.00
   0  -4 -14   44.50    8.00
   0   4  14   28.60    7.90
   0   4  14   35.40    9.80
   0   4  14   39.90    9.20
   0   4  14   48.50    7.10
   0   4  14   57.89    9.90
  -1  -4 -14   38.80    8.00
  -1  -4 -14   35.20    7.40
  -1  -4 -14   35.90    6.40
  -1  -4 -14   14.60   10.80
   1   4  14   44.20    8.30
   1   4  14   39.10    8.20
   1   4  14   28.20    7.40
   1   4  14   31.00    6.30
   1   4  14   11.80    9.50
  -2  -4 -14  120.99   19.30
  -2  -4 -14   94.89   14.20
  -2  -4 -14  123.59   12.20
  -2  -4 -14  120.49   13.70
   2   4  14   81.79   13.50
   2   4  14   97.19   12.40
   2   4  14  116.19   12.40
   2   4  14  110.79   14.00
   2   4  14   87.19   11.40
   1  -5 -14   31.00   11.80
   1  -5 -14   49.90    8.40
   1  -5 -14   48.90    7.60
  -1   5  14   51.99   10.90
  -1   5  14   49.00    5.50
  -1   5  14   46.20    8.20
  -1   5  14   58.59    8.10
  -1   5  14   35.70    9.90
  -1   5  14   35.90   11.70
   0  -5 -14    7.10    7.00
   0  -5 -14   -0.40    7.80
   0  -5 -14    1.10    5.30
   0  -5 -14   -4.40   11.10
   0   5  14   20.80    9.50
   0   5  14   22.50   10.60
   0   5  14   17.10    6.40
   0   5  14   29.10    9.00
  -1  -5 -14   32.80    6.60
  -1  -5 -14   23.30    8.60
  -1  -5 -14   35.20    8.10
  -1  -5 -14   28.90   12.30
   1   5  14   30.90    8.10
   1   5  14   42.80    9.30
   1   5  14    9.20    9.20
   1   5  14   28.60   11.80
   1   5  14   25.60    7.50
   2   5  14   30.50   13.30
   1   2 -15   79.79   10.80
   1   2 -15  117.49   19.70
  -1  -2  15   66.89   10.40
  -1  -2  15   76.89   15.40
   0   2 -15   83.49   12.80
   0   2 -15   66.39   10.00
   0   2 -15  100.09   13.10
   0   2 -15   63.79   11.10
   0  -2  15   66.99   10.90
   0  -2  15   50.59   13.20
   0  -2  15   41.40   13.00
   0  -2  15   63.29    9.00
   2   1 -15   76.19   12.50
   2   1 -15   64.49   12.50
   2   1 -15   38.40   13.20
   2   1 -15   59.19    9.10
  -2  -1  15   62.59    8.40
  -2  -1  15   69.69   17.10
  -2  -1  15   43.20   15.70
   1   1 -15    7.20   10.50
   1   1 -15   -5.40    7.60
   1   1 -15    0.20    9.30
   1   1 -15   21.10    9.10
   1   1 -15   -2.00    6.50
  -1  -1  15    3.30    8.40
  -1  -1  15  -15.30   11.50
  -1  -1  15   18.30   11.50
  -1  -1  15    5.40    6.30
   0   1 -15  269.77   15.40
   0   1 -15  224.38   16.40
   0   1 -15  258.07   19.50
   0   1 -15  249.48   16.40
   0  -1  15  221.98   18.00
   0  -1  15  238.58   15.40
  -1   1 -15   29.10    7.80
  -1   1 -15    5.50    9.80
  -1   1 -15   33.00    7.50
  -1   1 -15   40.80   10.10
  -1   1 -15   26.90    8.40
   1  -1  15   46.00   10.30
   1  -1  15    2.60   10.30
   1  -1  15   24.60    5.30
   1  -1  15   20.50   10.40
   1  -1  15   21.00    8.30
   2   0 -15   28.80   11.50
   2   0 -15   26.10   10.10
   2   0 -15   12.40   10.70
   2   0 -15   22.70    8.30
   2   0 -15   30.00    6.80
  -2   0  15   19.60   13.40
  -2   0  15   36.40    8.00
  -2   0  15   14.90    6.20
  -2   0  15   11.90   15.10
   1   0 -15   57.49    9.30
   1   0 -15   44.00   10.30
   1   0 -15   59.19    8.70
   1   0 -15   74.39   10.60
  -1   0  15   47.50    7.30
  -1   0  15   54.29   12.30
  -1   0  15   45.80    8.80
  -1   0  15   40.70   12.70
   0   0 -15  362.16   17.20
   0   0 -15  371.26   19.20
   0   0 -15  327.77   17.90
   0   0 -15  382.06   20.10
   0   0  15  352.86   14.50
   0   0  15  286.87   19.40
   0   0  15  351.56   17.60
  -1   0 -15   24.80    8.90
  -1   0 -15   21.70    7.60
  -1   0 -15   34.20    9.70
  -1   0 -15   29.00    6.90
   1   0  15   28.50   10.50
   1   0  15   21.30   10.10
   1   0  15   22.80    9.60
   1   0  15   32.00    8.00
  -2   0 -15    8.10    8.50
  -2   0 -15   16.10   11.10
  -2   0 -15    1.20    8.90
  -2   0 -15    3.80    7.80
   2   0  15   -2.90    9.10
   2   0  15   -4.30   11.40
   2   0  15    5.50    8.90
   2   0  15    5.00    6.00
   2   0  15   11.00    9.80
   2  -1 -15   30.80   11.30
   2  -1 -15   41.70    8.90
   2  -1 -15   29.10    7.00
   2  -1 -15   20.90   10.70
   2  -1 -15   35.10   11.00
   2  -1 -15   13.30    9.70
  -2   1  15   35.70    8.30
  -2   1  15   29.40    6.60
  -2   1  15   15.50   20.90
  -2   1  15   34.10   13.60
  -2   1  15   31.60    3.90
   1  -1 -15   42.40    9.40
   1  -1 -15   34.20    6.60
   1  -1 -15   23.30    8.10
   1  -1 -15   37.30    8.00
  -1   1  15   32.30    8.20
  -1   1  15   24.40   11.10
  -1   1  15   42.90    7.10
  -1   1  15   26.00    3.60
  -1   1  15   19.50   11.10
   0  -1 -15    3.70    5.70
   0  -1 -15  -12.40    7.60
   0  -1 -15    2.60    6.80
   0  -1 -15   11.40    8.50
   0   1  15    9.90    6.70
   0   1  15   20.60    9.60
   0   1  15    7.50    4.80
   0   1  15    0.10    9.00
   0   1  15    5.40    7.90
  -1  -1 -15   45.40    8.90
  -1  -1 -15   54.09   10.20
  -1  -1 -15   46.30    7.30
  -1  -1 -15   29.50    7.10
  -1  -1 -15   30.00    7.50
   1   1  15   59.29   10.40
   1   1  15   33.90    8.40
   1   1  15   48.30    6.70
   1   1  15   49.30   10.20
   1   1  15   22.40    9.50
  -2  -1 -15   54.29    8.10
  -2  -1 -15   67.29    9.80
  -2  -1 -15   64.59   10.00
  -2  -1 -15   66.79    9.00
  -2  -1 -15   72.19   14.10
   2   1  15   49.50   10.00
   2   1  15   73.39   10.70
   2   1  15   60.69   12.80
   2   1  15   75.89   11.00
   2   1  15   52.99   20.90
   2  -2 -15   23.00    9.40
   2  -2 -15   46.70    9.00
   2  -2 -15   38.00    7.20
   2  -2 -15   37.20   11.60
   2  -2 -15   16.70    9.90
   2  -2 -15   25.00    8.60
  -2   2  15   28.10    8.90
  -2   2  15   29.10   13.60
  -2   2  15   32.80    6.70
  -2   2  15   32.70    3.80
  -2   2  15   42.90   14.50
   1  -2 -15   48.60    9.20
   1  -2 -15   14.50    8.50
   1  -2 -15    6.20    7.50
   1  -2 -15   27.40    6.70
  -1   2  15   23.40   11.30
  -1   2  15   27.20    8.00
  -1   2  15   21.00    3.20
  -1   2  15   -1.30   10.70
  -1   2  15   17.20    6.80
   0  -2 -15  136.89   19.10
   0  -2 -15  128.29   13.50
   0  -2 -15   84.99    9.00
   0  -2 -15   84.39   10.80
   0   2  15  105.99   12.20
   0   2  15   76.29   11.10
   0   2  15   97.19   15.30
   0   2  15   95.79    9.80
   0   2  15  154.68   25.20
  -1  -2 -15  129.69   13.30
  -1  -2 -15   99.49   11.60
  -1  -2 -15   96.49   10.60
  -1  -2 -15  122.79   12.50
   1   2  15  109.29   13.80
   1   2  15  131.69   14.70
   1   2  15   97.29   12.20
   1   2  15  114.59   10.80
   1   2  15  120.39   16.00
  -2  -2 -15   10.70    8.30
  -2  -2 -15   17.00    8.00
  -2  -2 -15   13.60   11.70
  -2  -2 -15   17.90    6.60
  -2  -2 -15   13.60    8.00
   2   2  15   26.30    7.40
   2   2  15   31.30   11.90
   2   2  15   30.20    9.10
   2   2  15   15.80    8.90
   2   2  15   16.00    8.30
   1  -3 -15    5.00    5.70
   1  -3 -15    4.00    6.90
   1  -3 -15   20.90    9.00
  -1   3  15   -3.50   11.20
  -1   3  15    1.00   10.90
  -1   3  15   13.20    6.80
  -1   3  15    2.60    2.90
  -1   3  15   -3.40    8.80
   0  -3 -15    0.70    6.20
   0  -3 -15   26.10   10.30
   0  -3 -15    3.30    6.30
   0  -3 -15    2.70    7.10
   0   3  15    2.30    9.00
   0   3  15    5.50    5.70
   0   3  15    2.80    7.20
   0   3  15   28.40   10.40
   0   3  15    6.60    9.60
  -1  -3 -15   68.09    9.00
  -1  -3 -15   70.79   13.10
  -1  -3 -15   68.99   10.00
  -1  -3 -15   68.39    9.50
   1   3  15   60.69   11.60
   1   3  15   59.59    9.60
   1   3  15   79.59   11.00
   1   3  15   68.29   10.40
   1   3  15   77.39   10.30
  -2  -3 -15   10.20    6.90
  -2  -3 -15  -10.30   11.60
  -2  -3 -15    6.40    8.00
  -2  -3 -15    6.30    8.60
   2   3  15    3.10    8.10
   2   3  15  -19.70   11.00
   2   3  15    5.80    8.20
   2   3  15    1.80    6.80
   2   3  15   -5.10    9.40
   0  -4 -15   -0.30    7.40
   0  -4 -15    6.60    6.40
   0  -4 -15   -5.10   11.90
   0  -4 -15   -5.00    8.00
   0   4  15   20.00    9.90
   0   4  15   13.40    6.50
   0   4  15   -7.00    8.20
   0   4  15    6.00   10.60
   0   4  15   30.50   10.40
  -1  -4 -15   17.70    6.40
  -1  -4 -15   10.90    8.20
  -1  -4 -15   10.80   18.10
  -1  -4 -15   31.60    9.20
   1   4  15   10.00    6.90
   1   4  15    1.70   11.20
   1   4  15   28.20   11.10
   0  -1 -16    2.70   10.30
   0  -1 -16    6.00    8.20
   0  -1 -16   15.60    7.20
   0  -1 -16   29.40   10.20
   0   1  16   13.30   12.30
   0   1  16   16.30    6.20
   0   1  16   16.60    8.10
   0   1  16   24.40    9.80
   0   1  16   12.70   11.20
   0  -2 -16   -4.00    9.20
   0  -2 -16   29.40   11.20
   0  -2 -16    2.70    8.00
   0   2  16   -0.40    9.10
   0   2  16   26.30   11.00
   0   2  16    5.90    6.40
   0   0   0    0.00    0.00

_computing_structure_solution     'SHELXT 2014/5 (Sheldrick, 2014)'
;
_shelx_hkl_checksum              17082
loop_
_space_group_symop_operation_xyz
'x, y, z'
'-x, -y, -z'
loop_
_atom_site_label
_atom_site_type_symbol
_atom_site_fract_x
_atom_site_fract_y
_atom_site_fract_z
_atom_site_U_iso_or_equiv
_atom_site_adp_type
_atom_site_occupancy
_atom_site_site_symmetry_order
_atom_site_calc_flag
_atom_site_refinement_flags_posn
_atom_site_refinement_flags_adp
O1 O 0.43843(17) 0.54646(13) 0.30667(7) 0.0241(3) Uani 1 1 d . .
O4 O 0.79567(18) 0.06197(14) 0.58230(8) 0.0298(3) Uani 1 1 d . .
O5 O 1.04435(18) 0.26508(14) 0.57186(8) 0.0268(3) Uani 1 1 d . .
O3 O -0.14109(18) 0.34406(14) 0.15666(8) 0.0279(3) Uani 1 1 d . .
O2 O -0.1324(2) 0.63252(15) 0.09779(9) 0.0342(3) Uani 1 1 d . .
C11 C 0.8527(2) 0.20281(19) 0.54444(11) 0.0226(3) Uani 1 1 d . .
C9 C 0.5350(3) 0.2796(2) 0.42559(11) 0.0228(3) Uani 1 1 d . .
H9 H 0.490665 0.168210 0.452788 0.027 Uiso 1 1 calc R U
C4 C 0.3912(3) 0.37867(19) 0.34717(11) 0.0225(3) Uani 1 1 d . .
C10 C 0.7247(3) 0.3254(2) 0.46521(11) 0.0235(3) Uani 1 1 d . .
H10 H 0.776179 0.436227 0.442236 0.028 Uiso 1 1 calc R U
C2 C 0.1319(3) 0.4857(2) 0.22590(11) 0.0229(3) Uani 1 1 d . .
C1 C 0.2785(3) 0.6096(2) 0.23340(11) 0.0235(3) Uani 1 1 d . .
C3 C 0.2060(3) 0.3378(2) 0.29931(11) 0.0239(3) Uani 1 1 d . .
H3 H 0.138113 0.230935 0.312134 0.029 Uiso 1 1 calc R U
C6 C -0.0585(3) 0.5004(2) 0.15350(11) 0.0244(4) Uani 1 1 d . .
C12 C 1.1899(3) 0.1521(2) 0.64662(12) 0.0296(4) Uani 1 1 d . .
H12A H 1.201574 0.028697 0.632965 0.044 Uiso 1 1 calc R U
H12B H 1.121992 0.161431 0.712786 0.044 Uiso 1 1 calc R U
H12C H 1.345046 0.189414 0.644861 0.044 Uiso 1 1 calc R U
C5 C 0.2998(3) 0.7884(2) 0.17964(12) 0.0291(4) Uani 1 1 d . .
H5A H 0.290565 0.874707 0.227558 0.044 Uiso 1 1 calc R U
H5B H 0.173631 0.822810 0.130650 0.044 Uiso 1 1 calc R U
H5C H 0.449379 0.785821 0.145204 0.044 Uiso 1 1 calc R U
C7 C -0.3253(3) 0.3388(2) 0.08593(12) 0.0298(4) Uani 1 1 d . .
H7A H -0.270001 0.365614 0.016689 0.036 Uiso 1 1 calc R U
H7B H -0.459762 0.427691 0.096859 0.036 Uiso 1 1 calc R U
C8 C -0.3940(3) 0.1552(2) 0.10254(14) 0.0414(5) Uani 1 1 d . .
H8A H -0.524017 0.148582 0.058221 0.062 Uiso 1 1 calc R U
H8B H -0.441050 0.128025 0.172192 0.062 Uiso 1 1 calc R U
H8C H -0.261916 0.069051 0.088072 0.062 Uiso 1 1 calc R U
loop_
_atom_site_aniso_label
_atom_site_aniso_U_11
_atom_site_aniso_U_22
_atom_site_aniso_U_33
_atom_site_aniso_U_23
_atom_site_aniso_U_13
_atom_site_aniso_U_12
O1 0.0249(6) 0.0215(6) 0.0269(6) -0.0018(4) -0.0022(4) -0.0083(4)
O4 0.0271(6) 0.0251(6) 0.0373(6) 0.0028(5) -0.0053(5) -0.0103(5)
O5 0.0235(6) 0.0245(6) 0.0339(6) -0.0021(4) -0.0060(4) -0.0096(5)
O3 0.0278(6) 0.0274(6) 0.0298(6) -0.0009(4) -0.0077(4) -0.0106(5)
O2 0.0336(7) 0.0292(7) 0.0388(7) 0.0042(5) -0.0090(5) -0.0079(5)
C11 0.0205(8) 0.0220(8) 0.0271(8) -0.0070(6) 0.0023(6) -0.0063(6)
C9 0.0229(8) 0.0198(8) 0.0264(8) -0.0036(6) 0.0026(6) -0.0049(6)
C4 0.0243(8) 0.0191(8) 0.0250(8) -0.0021(6) 0.0034(6) -0.0068(6)
C10 0.0241(8) 0.0198(8) 0.0273(8) -0.0031(6) 0.0016(6) -0.0062(6)
C2 0.0225(8) 0.0228(8) 0.0244(7) -0.0040(6) 0.0015(6) -0.0055(6)
C1 0.0245(8) 0.0229(8) 0.0235(7) -0.0028(6) 0.0011(6) -0.0044(6)
C3 0.0227(8) 0.0224(8) 0.0277(8) -0.0035(6) 0.0021(6) -0.0070(6)
C6 0.0232(8) 0.0248(8) 0.0256(8) -0.0020(6) 0.0019(6) -0.0063(6)
C12 0.0233(8) 0.0298(9) 0.0361(9) -0.0041(7) -0.0063(7) -0.0043(7)
C5 0.0330(9) 0.0244(8) 0.0309(8) -0.0007(6) -0.0003(7) -0.0101(7)
C7 0.0264(8) 0.0369(9) 0.0280(8) -0.0047(7) -0.0059(6) -0.0098(7)
C8 0.0455(11) 0.0439(11) 0.0396(10) -0.0058(8) -0.0088(8) -0.0222(9)
loop_
_atom_type_symbol
_atom_type_description
_atom_type_scat_dispersion_real
_atom_type_scat_dispersion_imag
_atom_type_scat_source
C C 0.0033 0.0016 'International Tables Vol C Tables 4.2.6.8 and 6.1.1.4'
H H 0.0000 0.0000 'International Tables Vol C Tables 4.2.6.8 and 6.1.1.4'
O O 0.0106 0.0060 'International Tables Vol C Tables 4.2.6.8 and 6.1.1.4'
loop_
_geom_angle_atom_site_label_1
_geom_angle_atom_site_label_2
_geom_angle_atom_site_label_3
_geom_angle
C1 O1 C4 107.51(11)
C11 O5 C12 116.62(12)
C6 O3 C7 115.75(12)
O4 C11 O5 122.92(14)
O4 C11 C10 125.48(13)
O5 C11 C10 111.60(12)
C10 C9 C4 127.57(14)
C10 C9 H9 116.2
C4 C9 H9 116.2
C3 C4 O1 109.18(13)
C3 C4 C9 131.18(14)
O1 C4 C9 119.63(13)
C9 C10 C11 119.41(14)
C9 C10 H10 120.3
C11 C10 H10 120.3
C1 C2 C3 106.68(13)
C1 C2 C6 126.29(14)
C3 C2 C6 126.99(14)
O1 C1 C2 109.51(13)
O1 C1 C5 116.10(13)
C2 C1 C5 134.38(14)
C4 C3 C2 107.12(13)
C4 C3 H3 126.4
C2 C3 H3 126.4
O2 C6 O3 123.85(14)
O2 C6 C2 126.00(14)
O3 C6 C2 110.15(12)
O5 C12 H12A 109.5
O5 C12 H12B 109.5
H12A C12 H12B 109.5
O5 C12 H12C 109.5
H12A C12 H12C 109.5
H12B C12 H12C 109.5
C1 C5 H5A 109.5
C1 C5 H5B 109.5
H5A C5 H5B 109.5
C1 C5 H5C 109.5
H5A C5 H5C 109.5
H5B C5 H5C 109.5
O3 C7 C8 107.26(13)
O3 C7 H7A 110.3
C8 C7 H7A 110.3
O3 C7 H7B 110.3
C8 C7 H7B 110.3
H7A C7 H7B 108.5
C7 C8 H8A 109.5
C7 C8 H8B 109.5
H8A C8 H8B 109.5
C7 C8 H8C 109.5
H8A C8 H8C 109.5
H8B C8 H8C 109.5
loop_
_geom_bond_atom_site_label_1
_geom_bond_atom_site_label_2
_geom_bond_distance
O1 C1 1.3625(18)
O1 C4 1.3900(17)
O4 C11 1.2168(18)
O5 C11 1.3421(18)
O5 C12 1.4438(19)
O3 C6 1.3432(18)
O3 C7 1.4515(18)
O2 C6 1.2120(18)
C11 C10 1.467(2)
C9 C10 1.338(2)
C9 C4 1.429(2)
C9 H9 0.9500
C4 C3 1.353(2)
C10 H10 0.9500
C2 C1 1.370(2)
C2 C3 1.428(2)
C2 C6 1.469(2)
C1 C5 1.484(2)
C3 H3 0.9500
C12 H12A 0.9800
C12 H12B 0.9800
C12 H12C 0.9800
C5 H5A 0.9800
C5 H5B 0.9800
C5 H5C 0.9800
C7 C8 1.500(2)
C7 H7A 0.9900
C7 H7B 0.9900
C8 H8A 0.9800
C8 H8B 0.9800
C8 H8C 0.9800
loop_
_geom_torsion_atom_site_label_1
_geom_torsion_atom_site_label_2
_geom_torsion_atom_site_label_3
_geom_torsion_atom_site_label_4
_geom_torsion
C12 O5 C11 O4 2.8(2)
C12 O5 C11 C10 -177.48(12)
C1 O1 C4 C3 0.44(16)
C1 O1 C4 C9 179.30(13)
C10 C9 C4 C3 175.64(16)
C10 C9 C4 O1 -2.9(2)
C4 C9 C10 C11 -178.67(14)
O4 C11 C10 C9 -3.6(2)
O5 C11 C10 C9 176.71(13)
C4 O1 C1 C2 -0.40(15)
C4 O1 C1 C5 -179.53(12)
C3 C2 C1 O1 0.22(16)
C6 C2 C1 O1 -177.63(13)
C3 C2 C1 C5 179.12(16)
C6 C2 C1 C5 1.3(3)
O1 C4 C3 C2 -0.30(16)
C9 C4 C3 C2 -178.99(15)
C1 C2 C3 C4 0.06(17)
C6 C2 C3 C4 177.88(14)
C7 O3 C6 O2 1.7(2)
C7 O3 C6 C2 -177.91(12)
C1 C2 C6 O2 -9.6(3)
C3 C2 C6 O2 172.96(15)
C1 C2 C6 O3 169.93(14)
C3 C2 C6 O3 -7.5(2)
C6 O3 C7 C8 -179.29(13)
